AV-unprocessed.smi:249|AV-procd|sdf|1919|dock10
  -GOLD-   2262021 23D 1   1.00000     0.00000
 Structure written by MMmdl.
 64 67  0  0  0  0  0  0  0  0  2 V2000
  144.2527  135.4145  151.4529 C   0  0  0  0  0  0  0  0  0  0  0  0
  143.4779  134.3324  152.2227 C   0  0  0  0  0  0  0  0  0  0  0  0
  144.2829  133.6744  153.2923 N   0  3  1  0  0  0  0  0  0  0  0  0
  145.3436  132.7958  152.7189 C   0  0  0  0  0  0  0  0  0  0  0  0
  146.1384  132.0526  153.8047 C   0  0  0  0  0  0  0  0  0  0  0  0
  146.7967  133.0321  154.7898 C   0  0  1  0  0  0  0  0  0  0  0  0
  147.8607  133.8294  154.1566 N   0  0  0  0  0  0  0  0  0  0  0  0
  148.7979  133.1356  153.2794 C   0  0  0  0  0  0  0  0  0  0  0  0
  148.5151  134.7064  154.9508 C   0  0  0  0  0  0  0  0  0  0  0  0
  149.5983  134.2426  155.6214 N   0  0  0  0  0  0  0  0  0  0  0  0
  150.2988  135.0659  156.4072 C   0  0  0  0  0  0  0  0  0  0  0  0
  150.0930  136.3616  156.6525 N   0  0  0  0  0  0  0  0  0  0  0  0
  148.9976  136.8266  155.9859 C   0  0  0  0  0  0  0  0  0  0  0  0
  148.1510  136.0710  155.1279 C   0  0  0  0  0  0  0  0  0  0  0  0
  147.1310  136.8767  154.6365 N   0  0  0  0  0  0  0  0  0  0  0  0
  147.3709  138.0477  155.1604 C   0  0  0  0  0  0  0  0  0  0  0  0
  148.4825  138.1106  155.9696 N   0  0  0  0  0  0  0  0  0  0  0  0
  148.9913  139.2887  156.6499 C   0  0  0  0  0  0  0  0  0  0  0  0
  149.5681  140.3498  155.6785 C   0  0  1  0  0  0  0  0  0  0  0  0
  148.4265  141.0652  154.9172 C   0  0  0  0  0  0  0  0  0  0  0  0
  148.8847  141.5571  153.6748 O   0  0  0  0  0  0  0  0  0  0  0  0
  150.5615  141.3211  156.3802 C   0  0  2  0  0  0  0  0  0  0  0  0
  151.7076  140.6813  157.1633 C   0  0  0  0  0  0  0  0  0  0  0  0
  151.8297  141.5456  158.4212 C   0  0  0  0  0  0  0  0  0  0  0  0
  151.0775  142.7158  158.1368 O   0  0  0  0  0  0  0  0  0  0  0  0
  149.9507  142.3058  157.3812 C   0  0  0  0  0  0  0  0  0  0  0  0
  145.6515  133.8804  155.3851 C   0  0  0  0  0  0  0  0  0  0  0  0
  144.8354  134.6308  154.3069 C   0  0  2  0  0  0  0  0  0  0  0  0
  143.7435  135.4624  155.0123 C   0  0  0  0  0  0  0  0  0  0  0  0
  143.6806  135.7464  150.5860 H   0  0  0  0  0  0  0  0  0  0  0  0
  145.2077  135.0340  151.0895 H   0  0  0  0  0  0  0  0  0  0  0  0
  144.4448  136.2990  152.0594 H   0  0  0  0  0  0  0  0  0  0  0  0
  142.5637  134.7486  152.6485 H   0  0  0  0  0  0  0  0  0  0  0  0
  143.1671  133.6047  151.4771 H   0  0  0  0  0  0  0  0  0  0  0  0
  144.9020  132.0452  152.0657 H   0  0  0  0  0  0  0  0  0  0  0  0
  146.0162  133.3918  152.1004 H   0  0  0  0  0  0  0  0  0  0  0  0
  145.4631  131.3920  154.3501 H   0  0  0  0  0  0  0  0  0  0  0  0
  146.8789  131.3958  153.3482 H   0  0  0  0  0  0  0  0  0  0  0  0
  147.2525  132.4478  155.5896 H   0  0  0  0  0  0  0  0  0  0  0  0
  149.6867  133.7339  153.0704 H   0  0  0  0  0  0  0  0  0  0  0  0
  148.3256  132.9148  152.3223 H   0  0  0  0  0  0  0  0  0  0  0  0
  149.1206  132.1956  153.7282 H   0  0  0  0  0  0  0  0  0  0  0  0
  151.1489  134.6252  156.9069 H   0  0  0  0  0  0  0  0  0  0  0  0
  146.7478  138.9073  154.9592 H   0  0  0  0  0  0  0  0  0  0  0  0
  148.1731  139.7080  157.2360 H   0  0  0  0  0  0  0  0  0  0  0  0
  149.7533  138.9793  157.3659 H   0  0  0  0  0  0  0  0  0  0  0  0
  150.1572  139.8128  154.9329 H   0  0  0  0  0  0  0  0  0  0  0  0
  147.5863  140.3945  154.7383 H   0  0  0  0  0  0  0  0  0  0  0  0
  148.0407  141.9165  155.4738 H   0  0  0  0  0  0  0  0  0  0  0  0
  149.0961  140.8223  153.1195 H   0  0  0  0  0  0  0  0  0  0  0  0
  151.0197  141.9561  155.6215 H   0  0  0  0  0  0  0  0  0  0  0  0
  151.5257  139.6412  157.4310 H   0  0  0  0  0  0  0  0  0  0  0  0
  152.6279  140.7106  156.5798 H   0  0  0  0  0  0  0  0  0  0  0  0
  151.3869  141.0360  159.2782 H   0  0  0  0  0  0  0  0  0  0  0  0
  152.8643  141.7872  158.6660 H   0  0  0  0  0  0  0  0  0  0  0  0
  149.4686  143.1530  156.8927 H   0  0  0  0  0  0  0  0  0  0  0  0
  149.2277  141.8428  158.0514 H   0  0  0  0  0  0  0  0  0  0  0  0
  144.9821  133.2216  155.9404 H   0  0  0  0  0  0  0  0  0  0  0  0
  146.0317  134.5824  156.1274 H   0  0  0  0  0  0  0  0  0  0  0  0
  145.5002  135.3234  153.7887 H   0  0  0  0  0  0  0  0  0  0  0  0
  144.1609  136.0223  155.8500 H   0  0  0  0  0  0  0  0  0  0  0  0
  142.9505  134.8263  155.4073 H   0  0  0  0  0  0  0  0  0  0  0  0
  143.2927  136.2043  154.3545 H   0  0  0  0  0  0  0  0  0  0  0  0
  143.6499  133.0698  153.7960 H   0  0  0  0  0  0  0  0  0  0  0  0
  1  2  1  0  0  0  0
  1 30  1  0  0  0  0
  1 31  1  0  0  0  0
  1 32  1  0  0  0  0
  2  3  1  0  0  0  0
  2 33  1  0  0  0  0
  2 34  1  0  0  0  0
  3 28  1  0  0  0  0
  3  4  1  0  0  0  0
  3 64  1  0  0  0  0
  4  5  1  0  0  0  0
  4 35  1  0  0  0  0
  4 36  1  0  0  0  0
  5  6  1  0  0  0  0
  5 37  1  0  0  0  0
  5 38  1  0  0  0  0
  6  7  1  0  0  0  0
  6 27  1  0  0  0  0
  6 39  1  0  0  0  0
  7  8  1  0  0  0  0
  7  9  1  0  0  0  0
  8 40  1  0  0  0  0
  8 41  1  0  0  0  0
  8 42  1  0  0  0  0
  9 14  1  0  0  0  0
  9 10  2  0  0  0  0
 10 11  1  0  0  0  0
 11 12  2  0  0  0  0
 11 43  1  0  0  0  0
 12 13  1  0  0  0  0
 13 17  1  0  0  0  0
 13 14  2  0  0  0  0
 14 15  1  0  0  0  0
 15 16  2  0  0  0  0
 16 17  1  0  0  0  0
 16 44  1  0  0  0  0
 17 18  1  0  0  0  0
 18 19  1  0  0  0  0
 18 45  1  0  0  0  0
 18 46  1  0  0  0  0
 19 20  1  0  0  0  0
 19 22  1  0  0  0  0
 19 47  1  0  0  0  0
 20 21  1  0  0  0  0
 20 48  1  0  0  0  0
 20 49  1  0  0  0  0
 21 50  1  0  0  0  0
 22 26  1  0  0  0  0
 22 23  1  0  0  0  0
 22 51  1  0  0  0  0
 23 24  1  0  0  0  0
 23 52  1  0  0  0  0
 23 53  1  0  0  0  0
 24 25  1  0  0  0  0
 24 54  1  0  0  0  0
 24 55  1  0  0  0  0
 25 26  1  0  0  0  0
 26 56  1  0  0  0  0
 26 57  1  0  0  0  0
 27 28  1  0  0  0  0
 27 58  1  0  0  0  0
 27 59  1  0  0  0  0
 28 29  1  0  0  0  0
 28 60  1  0  0  0  0
 29 61  1  0  0  0  0
 29 62  1  0  0  0  0
 29 63  1  0  0  0  0
M  CHG  1   3   1
M  END
> <s_m_source_file>
AV-unprocessed.smi

> <i_m_source_file_index>
249

> <i_lp_mmshare_version>
43012

> <i_f3d_flags>
0

> <s_epik_input>
W0NIM11bQ0gyXU4xW0NIMl1bQ0gyXVtDQEhdKFtDSDJdW0NASF0xW0NIM10pTihbQ0gzXSljKG5bY0hdbjIpYyhjMjMpbltjSF1uM1tDSDJdW0NASF0oW0NIMl1bT0hdKVtDQEBIXTRbQ0gyXVtDSDJdT1tDSDJdNA==

> <s_epik_cmdline>
J2VwaWtfcHl0aG9uJywgJy1waCcsICc3LjAnLCAnLXRuJywgJzgnLCAnLW1hJywgJzIwMCcsICctbWV0YWxfYmluZGluZycsICctaW1hZScsICc8aW5maWxlLm1hZT4nLCAnLW9tYWUnLCAnPG91dGZpbGUubWFlPic=

> <r_lp_tautomer_probability>
1

> <r_epik_Ionization_Penalty>
0.00294688

> <r_epik_Ionization_Penalty_Charging>
0.00169971

> <r_epik_Ionization_Penalty_Neutral>
0.00124717

> <r_epik_State_Penalty>
-0

> <r_epik_Charging_Adjusted_Penalty>
0.00169971

> <i_epik_Tot_Q>
1

> <i_epik_Tot_abs_Q>
1

> <r_epik_Metal_State_Penalty>
-0

> <b_epik_Metal_Only>
0

> <s_lp_Force_Field>
OPLS_2005

> <r_lp_Energy>
56.7339

> <b_lp_Chiralities_Consistent>
1

> <s_lp_Variant>
AV-unprocessed.smi:249-22

> <Gold.Version>
5.8.1

> <Gold.Id.Protein>
6NUR|6NUR_protein|mol2

> <Gold.PLP.Fitness>
44.1134

> <Gold.PLP.PLP>
-34.6524

> <Gold.PLP.part.hbond>
-3.7390

> <Gold.PLP.part.metal>
0.0000

> <Gold.PLP.part.buried>
-6.4697

> <Gold.PLP.part.nonpolar>
-24.9255

> <Gold.PLP.part.repulsive>
1.1174

> <Gold.PLP.ligand.clash>
0.0000

> <Gold.PLP.ligand.torsion>
1.1084

> <Gold.PLP.Chemscore.Hbond>
3.6720

> <Gold.PLP.Chemscore.CHOScore>
0.0000

> <Gold.PLP.Chemscore.Metal>
0.0000

> <Gold.Chemscore.Hbonds>
donor molecule, donor type, donor heavy atom, donor atom, acceptor molecule, acceptor atom, score
      L1  H     3    64       P1 10957  2.00
      L1  H    21    50       P1  7957  0.65

> <Gold.PLP.Chemscore.Internal.Correction>
0.6618

> <Gold.Rescore>
     Score         DG    S(hbond)    S(metal)    S(lipo)     H(rot)  DE(clash)    DE(int)     intcor
     13.35     -14.35       2.30        0.00      73.63       2.90       0.02       0.99       ----

> <Gold.Chemscore.Fitness>
13.3451

> <Gold.Chemscore.DG>
-14.3543

> <Gold.Chemscore.ZeroCoef>
-5.4800

> <Gold.Chemscore.Hbond>
2.3009

> <Gold.Chemscore.Metal>
0.0000

> <Gold.Chemscore.Lipo>
73.6304

> <Gold.Chemscore.Internal_Hbond>
0.0000

> <Gold.Chemscore.DEClash>
0.0234

> <Gold.Chemscore.DEInternal>
0.9857

> <Gold.Chemscore.Rot>
2.9006

> <Gold.Chemscore.Internal.Correction>
   9.000000E+99

> <Gold.Chemscore.Hbonds>
donor molecule, donor type, donor heavy atom, donor atom, acceptor molecule, acceptor atom, score
      L1  H     3    64       P1 10957  0.98
      L1  H    21    50       P1  7957  0.62

> <Gold.Chemscore.Hbond.Weighted>
-7.6851

> <Gold.Chemscore.Metal.Weighted>
-0.0000

> <Gold.Chemscore.Lipo.Weighted>
-8.6148

> <Gold.Chemscore.Internal_Hbond.Weighted>
0.0000

> <Gold.Chemscore.DEClash.Weighted>
0.0234

> <Gold.Chemscore.DEInternal.Weighted>
0.9857

> <Gold.Chemscore.Rot.Weighted>
7.4256

> <Gold.Chemscore.Internal.Correction.Weighted>
   9.000000E+99

> <Gold.Protein.RotatedTorsions>
[ 6907 6896 6895 6894 ] final  -38.31 input  -60.11 | X-H torsion
[ 7974 7965 7964 7962 ] final   74.67 input  175.53 | X-H torsion
[ 8008 7997 7996 7995 ] final  112.64 input   59.86 | X-H torsion
[ 10167 10162 10161 10158 ] final   61.02 input  -65.29 | X-H torsion
[ 10718 10713 10712 10709 ] final -144.29 input   66.30 | X-H torsion
[ 10763 10752 10751 10750 ] final  105.29 input  -60.55 | X-H torsion
[ 11005 11000 10999 10996 ] final   19.91 input  -57.11 | X-H torsion

> <Gold.Protein.ActiveResidues>
 VAL166  LYS551  ARG553  GLY616  TRP617  ASP618  TYR619  PRO620  LYS621  CYS622 
 ASP623  PHE694  ASN695  SER759  ASP760  ASP761  ALA762  ILE779  LEU786  VAL792 
 PHE793  MET794  SER795  GLU796  ALA797  LYS798  CYS799  TRP800  GLU811  SER814 

> <Gold.Protein.RotatedAtoms>
  151.0040  134.9345  159.7969 H   0  0  0  0  0  0  0  0  0  0  0  0  # atno 6907 bound_to 6896
  152.5285  134.3116  159.9125 H   0  0  0  0  0  0  0  0  0  0  0  0  # atno 6908 bound_to 6896
  151.3121  133.4034  159.2682 H   0  0  0  0  0  0  0  0  0  0  0  0  # atno 6909 bound_to 6896
  145.7253  139.2663  143.1572 H   0  0  0  0  0  0  0  0  0  0  0  0  # atno 7974 bound_to 7965
  156.2205  140.2995  155.9942 H   0  0  0  0  0  0  0  0  0  0  0  0  # atno 8008 bound_to 7997
  155.2493  140.0425  157.3002 H   0  0  0  0  0  0  0  0  0  0  0  0  # atno 8009 bound_to 7997
  154.5834  140.2381  155.8030 H   0  0  0  0  0  0  0  0  0  0  0  0  # atno 8010 bound_to 7997
  140.1593  144.4386  150.6718 H   0  0  0  0  0  0  0  0  0  0  0  0  # atno 10167 bound_to 10162
  156.3684  130.7775  151.1952 H   0  0  0  0  0  0  0  0  0  0  0  0  # atno 10718 bound_to 10713
  153.3774  135.3915  155.1832 H   0  0  0  0  0  0  0  0  0  0  0  0  # atno 10763 bound_to 10752
  154.8703  135.3717  154.4901 H   0  0  0  0  0  0  0  0  0  0  0  0  # atno 10764 bound_to 10752
  153.5374  135.7085  153.5714 H   0  0  0  0  0  0  0  0  0  0  0  0  # atno 10765 bound_to 10752
  140.4085  134.1643  155.7666 H   0  0  0  0  0  0  0  0  0  0  0  0  # atno 11005 bound_to 11000
  146.0588  140.7992  142.9745 LP  0  0  0  0  0  0  0  0  0  0  0  0  # atno 17320 bound_to 7965
  144.6906  140.3165  143.7239 LP  0  0  0  0  0  0  0  0  0  0  0  0  # atno 17321 bound_to 7965
  140.6653  143.2266  151.5757 LP  0  0  0  0  0  0  0  0  0  0  0  0  # atno 17342 bound_to 10162
  139.5389  144.2704  152.1309 LP  0  0  0  0  0  0  0  0  0  0  0  0  # atno 17343 bound_to 10162
  157.7481  131.0379  150.4480 LP  0  0  0  0  0  0  0  0  0  0  0  0  # atno 17370 bound_to 10713
  156.4703  130.4051  149.6522 LP  0  0  0  0  0  0  0  0  0  0  0  0  # atno 17371 bound_to 10713
  141.1830  133.8373  157.1190 LP  0  0  0  0  0  0  0  0  0  0  0  0  # atno 17394 bound_to 11000
  140.0284  134.9913  157.0733 LP  0  0  0  0  0  0  0  0  0  0  0  0  # atno 17395 bound_to 11000

$$$$
