AV-unprocessed.smi:828|AV-procd|sdf|3860|dock7
  -GOLD-   22720 1313D 1   1.00000     0.00000
 Structure written by MMmdl.
 35 36  0  0  0  0  0  0  0  0  2 V2000
  152.0673  137.4656  158.6209 C   0  0  0  0  0  0  0  0  0  0  0  0
  151.6189  136.9258  157.3061 C   0  0  0  0  0  0  0  0  0  0  0  0
  152.3829  136.9702  156.2076 N   0  0  0  0  0  0  0  0  0  0  0  0
  151.7514  136.4122  155.1046 N   0  0  0  0  0  0  0  0  0  0  0  0
  150.5252  135.9628  155.4056 C   0  0  0  0  0  0  0  0  0  0  0  0
  149.6557  135.3519  154.4640 N   0  0  0  0  0  0  0  0  0  0  0  0
  149.0541  134.1522  154.5418 C   0  0  0  0  0  0  0  0  0  0  0  0
  149.1379  133.3708  155.4899 O   0  0  0  0  0  0  0  0  0  0  0  0
  148.3355  133.8964  153.4393 N   0  0  0  0  0  0  0  0  0  0  0  0
  147.5623  132.6803  153.2076 C   0  0  0  0  0  0  0  0  0  0  0  0
  147.0095  132.6031  151.7617 C   0  0  2  0  0  0  0  0  0  0  0  0
  145.9782  133.6998  151.4463 C   0  0  0  0  0  0  0  0  0  0  0  0
  145.0787  133.0699  150.3921 C   0  0  0  0  0  0  0  0  0  0  0  0
  145.0250  131.6124  150.8370 C   0  0  0  0  0  0  0  0  0  0  0  0
  146.3703  131.3108  151.3721 N   0  3  2  0  0  0  0  0  0  0  0  0
  146.3802  130.2023  152.3550 C   0  0  0  0  0  0  0  0  0  0  0  0
  150.0380  136.1884  157.0767 S   0  0  0  0  0  0  0  0  0  0  0  0
  153.1395  137.3137  158.7486 H   0  0  0  0  0  0  0  0  0  0  0  0
  151.5458  136.9610  159.4343 H   0  0  0  0  0  0  0  0  0  0  0  0
  151.8545  138.5331  158.6767 H   0  0  0  0  0  0  0  0  0  0  0  0
  149.4791  135.8897  153.6283 H   0  0  0  0  0  0  0  0  0  0  0  0
  148.3188  134.5937  152.7092 H   0  0  0  0  0  0  0  0  0  0  0  0
  148.1918  131.8184  153.4333 H   0  0  0  0  0  0  0  0  0  0  0  0
  146.7452  132.6735  153.9290 H   0  0  0  0  0  0  0  0  0  0  0  0
  147.8428  132.7206  151.0677 H   0  0  0  0  0  0  0  0  0  0  0  0
  145.3861  133.9297  152.3332 H   0  0  0  0  0  0  0  0  0  0  0  0
  146.4403  134.6269  151.1056 H   0  0  0  0  0  0  0  0  0  0  0  0
  144.0935  133.5343  150.3401 H   0  0  0  0  0  0  0  0  0  0  0  0
  145.5441  133.1464  149.4084 H   0  0  0  0  0  0  0  0  0  0  0  0
  144.2807  131.5040  151.6279 H   0  0  0  0  0  0  0  0  0  0  0  0
  144.7543  130.9357  150.0260 H   0  0  0  0  0  0  0  0  0  0  0  0
  145.8284  130.4613  153.2591 H   0  0  0  0  0  0  0  0  0  0  0  0
  147.3995  129.9295  152.6288 H   0  0  0  0  0  0  0  0  0  0  0  0
  145.9133  129.3172  151.9221 H   0  0  0  0  0  0  0  0  0  0  0  0
  146.9095  130.9844  150.5824 H   0  0  0  0  0  0  0  0  0  0  0  0
  1  2  1  0  0  0  0
  1 18  1  0  0  0  0
  1 19  1  0  0  0  0
  1 20  1  0  0  0  0
  2 17  1  0  0  0  0
  2  3  2  0  0  0  0
  3  4  1  0  0  0  0
  4  5  2  0  0  0  0
  5  6  1  0  0  0  0
  5 17  1  0  0  0  0
  6  7  1  0  0  0  0
  6 21  1  0  0  0  0
  7  8  2  0  0  0  0
  7  9  1  0  0  0  0
  9 10  1  0  0  0  0
  9 22  1  0  0  0  0
 10 11  1  0  0  0  0
 10 23  1  0  0  0  0
 10 24  1  0  0  0  0
 11 15  1  0  0  0  0
 11 12  1  0  0  0  0
 11 25  1  0  0  0  0
 12 13  1  0  0  0  0
 12 26  1  0  0  0  0
 12 27  1  0  0  0  0
 13 14  1  0  0  0  0
 13 28  1  0  0  0  0
 13 29  1  0  0  0  0
 14 15  1  0  0  0  0
 14 30  1  0  0  0  0
 14 31  1  0  0  0  0
 15 16  1  0  0  0  0
 15 35  1  0  0  0  0
 16 32  1  0  0  0  0
 16 33  1  0  0  0  0
 16 34  1  0  0  0  0
M  CHG  1  15   1
M  END
> <s_m_source_file>
AV-unprocessed.smi

> <i_m_source_file_index>
828

> <i_lp_mmshare_version>
43012

> <i_f3d_flags>
0

> <s_epik_input>
W0NIM11jMW5uYyhzMSlbTkhdQyg9TylbTkhdW0NIMl1bQ0BASF0yW0NIMl1bQ0gyXVtDSDJdTjJbQ0gzXQ==

> <s_epik_cmdline>
J2VwaWtfcHl0aG9uJywgJy1waCcsICc3LjAnLCAnLXRuJywgJzgnLCAnLW1hJywgJzIwMCcsICctbWV0YWxfYmluZGluZycsICctaW1hZScsICc8aW5maWxlLm1hZT4nLCAnLW9tYWUnLCAnPG91dGZpbGUubWFlPic=

> <r_lp_tautomer_probability>
1

> <r_epik_Ionization_Penalty>
0.00466477

> <r_epik_Ionization_Penalty_Charging>
0.00372199

> <r_epik_Ionization_Penalty_Neutral>
0.000942783

> <r_epik_State_Penalty>
-0

> <r_epik_Charging_Adjusted_Penalty>
0.00372199

> <i_epik_Tot_Q>
1

> <i_epik_Tot_abs_Q>
1

> <r_epik_Metal_State_Penalty>
0.28212

> <b_epik_Metal_Only>
0

> <s_lp_Force_Field>
OPLS_2005

> <r_lp_Energy>
27.2564

> <b_lp_Chiralities_Consistent>
1

> <s_lp_Variant>
AV-unprocessed.smi:828-3

> <Gold.Version>
5.8.1

> <Gold.Id.Protein>
6NUR|6NUR_protein|mol2

> <Gold.PLP.Fitness>
35.8197

> <Gold.PLP.PLP>
-26.0124

> <Gold.PLP.part.hbond>
-4.9596

> <Gold.PLP.part.metal>
0.0000

> <Gold.PLP.part.buried>
-3.2174

> <Gold.PLP.part.nonpolar>
-17.6767

> <Gold.PLP.part.repulsive>
0.1890

> <Gold.PLP.ligand.clash>
0.0000

> <Gold.PLP.ligand.torsion>
0.5579

> <Gold.PLP.Chemscore.Hbond>
3.6400

> <Gold.PLP.Chemscore.CHOScore>
0.0000

> <Gold.PLP.Chemscore.Metal>
0.0000

> <Gold.Chemscore.Hbonds>
donor molecule, donor type, donor heavy atom, donor atom, acceptor molecule, acceptor atom, score
      L1  H     6    21       P1  7948  1.00
      L1  H     9    22       P1  7948  1.00
      L1  H    15    35       P1 10747  0.55
      P1  H 10752 10763       L1     4  1.00

> <Gold.PLP.Chemscore.Internal.Correction>
0.0031

> <Gold.Rescore>
     Score         DG    S(hbond)    S(metal)    S(lipo)     H(rot)  DE(clash)    DE(int)     intcor
     17.24     -17.97       2.96        0.00      51.39       1.33       0.03       0.70       ----

> <Gold.Chemscore.Fitness>
17.2416

> <Gold.Chemscore.DG>
-17.9687

> <Gold.Chemscore.ZeroCoef>
-5.4800

> <Gold.Chemscore.Hbond>
2.9580

> <Gold.Chemscore.Metal>
0.0000

> <Gold.Chemscore.Lipo>
51.3880

> <Gold.Chemscore.Internal_Hbond>
0.0000

> <Gold.Chemscore.DEClash>
0.0270

> <Gold.Chemscore.DEInternal>
0.7001

> <Gold.Chemscore.Rot>
1.3294

> <Gold.Chemscore.Internal.Correction>
   9.000000E+99

> <Gold.Chemscore.Hbonds>
donor molecule, donor type, donor heavy atom, donor atom, acceptor molecule, acceptor atom, score
      L1  H     6    21       P1  7948  0.44
      L1  H     9    22       P1  7948  0.34
      L1  H    15    35       P1 10747  0.54
      P1  H 10752 10763       L1     4  0.24

> <Gold.Chemscore.Hbond.Weighted>
-9.8796

> <Gold.Chemscore.Metal.Weighted>
-0.0000

> <Gold.Chemscore.Lipo.Weighted>
-6.0124

> <Gold.Chemscore.Internal_Hbond.Weighted>
0.0000

> <Gold.Chemscore.DEClash.Weighted>
0.0270

> <Gold.Chemscore.DEInternal.Weighted>
0.7001

> <Gold.Chemscore.Rot.Weighted>
3.4033

> <Gold.Chemscore.Internal.Correction.Weighted>
   9.000000E+99

> <Gold.Protein.RotatedTorsions>
[ 6907 6896 6895 6894 ] final  159.07 input  -60.11 | X-H torsion
[ 7974 7965 7964 7962 ] final  159.00 input  175.53 | X-H torsion
[ 8008 7997 7996 7995 ] final   -4.02 input   59.86 | X-H torsion
[ 10167 10162 10161 10158 ] final   90.75 input  -65.29 | X-H torsion
[ 10718 10713 10712 10709 ] final  158.36 input   66.30 | X-H torsion
[ 10763 10752 10751 10750 ] final   52.93 input  -60.55 | X-H torsion
[ 11005 11000 10999 10996 ] final  -92.46 input  -57.11 | X-H torsion

> <Gold.Protein.ActiveResidues>
 VAL166  LYS551  ARG553  GLY616  TRP617  ASP618  TYR619  PRO620  LYS621  CYS622 
 ASP623  PHE694  ASN695  SER759  ASP760  ASP761  ALA762  ILE779  LEU786  VAL792 
 PHE793  MET794  SER795  GLU796  ALA797  LYS798  CYS799  TRP800  GLU811  SER814 

> <Gold.Protein.RotatedAtoms>
  151.9910  133.3791  159.4144 H   0  0  0  0  0  0  0  0  0  0  0  0  # atno 6907 bound_to 6896
  150.6922  134.3936  159.5097 H   0  0  0  0  0  0  0  0  0  0  0  0  # atno 6908 bound_to 6896
  152.1670  134.8865  160.0588 H   0  0  0  0  0  0  0  0  0  0  0  0  # atno 6909 bound_to 6896
  144.7814  139.7556  143.6258 H   0  0  0  0  0  0  0  0  0  0  0  0  # atno 7974 bound_to 7965
  154.6187  140.2494  155.7577 H   0  0  0  0  0  0  0  0  0  0  0  0  # atno 8008 bound_to 7997
  156.2414  140.2931  156.0403 H   0  0  0  0  0  0  0  0  0  0  0  0  # atno 8009 bound_to 7997
  155.1933  140.0392  157.2894 H   0  0  0  0  0  0  0  0  0  0  0  0  # atno 8010 bound_to 7997
  139.8442  144.6626  150.9247 H   0  0  0  0  0  0  0  0  0  0  0  0  # atno 10167 bound_to 10162
  157.1789  131.0628  151.2142 H   0  0  0  0  0  0  0  0  0  0  0  0  # atno 10718 bound_to 10713
  152.9792  135.5796  154.4659 H   0  0  0  0  0  0  0  0  0  0  0  0  # atno 10763 bound_to 10752
  154.4228  135.2772  155.1966 H   0  0  0  0  0  0  0  0  0  0  0  0  # atno 10764 bound_to 10752
  154.3708  135.6168  153.5792 H   0  0  0  0  0  0  0  0  0  0  0  0  # atno 10765 bound_to 10752
  141.1521  133.7822  157.0023 H   0  0  0  0  0  0  0  0  0  0  0  0  # atno 11005 bound_to 11000
  146.2024  139.5328  142.9734 LP  0  0  0  0  0  0  0  0  0  0  0  0  # atno 17320 bound_to 7965
  145.6039  141.0351  143.2003 LP  0  0  0  0  0  0  0  0  0  0  0  0  # atno 17321 bound_to 7965
  140.7795  143.3885  151.1351 LP  0  0  0  0  0  0  0  0  0  0  0  0  # atno 17342 bound_to 10162
  139.7529  143.8751  152.3081 LP  0  0  0  0  0  0  0  0  0  0  0  0  # atno 17343 bound_to 10162
  157.3972  130.7313  149.6740 LP  0  0  0  0  0  0  0  0  0  0  0  0  # atno 17370 bound_to 10713
  155.9727  130.4130  150.4063 LP  0  0  0  0  0  0  0  0  0  0  0  0  # atno 17371 bound_to 10713
  140.0932  134.9580  157.1809 LP  0  0  0  0  0  0  0  0  0  0  0  0  # atno 17394 bound_to 11000
  140.3418  134.2696  155.7211 LP  0  0  0  0  0  0  0  0  0  0  0  0  # atno 17395 bound_to 11000

$$$$
