AV-unprocessed.smi:158|AV-procd|sdf|1337|dock9
  -GOLD-   2262019 33D 1   1.00000     0.00000
 Structure written by MMmdl.
 31 33  0  0  0  0  0  0  0  0  1 V2000
  145.1515  134.9426  150.1305 N   0  0  0  0  0  0  0  0  0  0  0  0
  145.3962  135.3976  151.3672 C   0  0  0  0  0  0  0  0  0  0  0  0
  145.0642  134.6133  152.4193 N   0  0  0  0  0  0  0  0  0  0  0  0
  145.2919  135.0298  153.6714 C   0  0  0  0  0  0  0  0  0  0  0  0
  144.8296  133.9515  154.9350 Cl  0  0  0  0  0  0  0  0  0  0  0  0
  145.8367  136.1894  154.0536 N   0  0  0  0  0  0  0  0  0  0  0  0
  146.1708  136.9828  152.9952 C   0  0  0  0  0  0  0  0  0  0  0  0
  145.9849  136.6596  151.6249 C   0  0  0  0  0  0  0  0  0  0  0  0
  146.4438  137.6993  150.8270 N   0  0  0  0  0  0  0  0  0  0  0  0
  146.8776  138.5851  151.6841 C   0  0  0  0  0  0  0  0  0  0  0  0
  146.7435  138.2373  153.0104 N   0  0  0  0  0  0  0  0  0  0  0  0
  147.1470  139.0232  154.2131 C   0  0  2  0  0  0  0  0  0  0  0  0
  146.5134  140.2601  154.1501 O   0  0  0  0  0  0  0  0  0  0  0  0
  147.3335  141.2547  154.7531 C   0  0  1  0  0  0  0  0  0  0  0  0
  147.0299  141.3146  156.2637 C   0  0  0  0  0  0  0  0  0  0  0  0
  147.3148  142.6036  156.7635 O   0  0  0  0  0  0  0  0  0  0  0  0
  148.7652  140.7837  154.4514 C   0  0  2  0  0  0  0  0  0  0  0  0
  149.2641  141.4217  153.2922 O   0  0  0  0  0  0  0  0  0  0  0  0
  148.6588  139.2781  154.2339 C   0  0  1  0  0  0  0  0  0  0  0  0
  149.1962  138.6216  155.2629 F   0  0  0  0  0  0  0  0  0  0  0  0
  146.7895  138.4491  155.0691 H   0  0  0  0  0  0  0  0  0  0  0  0
  147.1407  142.2307  154.3039 H   0  0  0  0  0  0  0  0  0  0  0  0
  149.4495  141.0248  155.2659 H   0  0  0  0  0  0  0  0  0  0  0  0
  149.1486  138.9354  153.3206 H   0  0  0  0  0  0  0  0  0  0  0  0
  145.3900  135.5097  149.3296 H   0  0  0  0  0  0  0  0  0  0  0  0
  144.7289  134.0345  150.0017 H   0  0  0  0  0  0  0  0  0  0  0  0
  147.3082  139.5247  151.3694 H   0  0  0  0  0  0  0  0  0  0  0  0
  145.9978  141.0431  156.4862 H   0  0  0  0  0  0  0  0  0  0  0  0
  147.6682  140.6154  156.8043 H   0  0  0  0  0  0  0  0  0  0  0  0
  147.8547  143.0584  156.1353 H   0  0  0  0  0  0  0  0  0  0  0  0
  149.1711  140.8321  152.5596 H   0  0  0  0  0  0  0  0  0  0  0  0
  1  2  1  0  0  0  0
  1 25  1  0  0  0  0
  1 26  1  0  0  0  0
  2  8  1  0  0  0  0
  2  3  2  0  0  0  0
  3  4  1  0  0  0  0
  4  5  1  0  0  0  0
  4  6  2  0  0  0  0
  6  7  1  0  0  0  0
  7 11  1  0  0  0  0
  7  8  2  0  0  0  0
  8  9  1  0  0  0  0
  9 10  2  0  0  0  0
 10 11  1  0  0  0  0
 10 27  1  0  0  0  0
 11 12  1  0  0  0  0
 12 21  1  0  0  0  0
 12 19  1  0  0  0  0
 12 13  1  0  0  0  0
 13 14  1  0  0  0  0
 14 22  1  0  0  0  0
 14 15  1  0  0  0  0
 14 17  1  0  0  0  0
 15 16  1  0  0  0  0
 15 28  1  0  0  0  0
 15 29  1  0  0  0  0
 16 30  1  0  0  0  0
 17 23  1  0  0  0  0
 17 18  1  0  0  0  0
 17 19  1  0  0  0  0
 18 31  1  0  0  0  0
 19 24  1  0  0  0  0
 19 20  1  0  0  0  0
M  END
> <s_m_source_file>
AV-unprocessed.smi

> <i_m_source_file_index>
158

> <i_lp_mmshare_version>
43012

> <i_f3d_flags>
0

> <s_epik_input>
Q2xjKG4xKW5jKFtOSDJdKWMoYzEyKW5bY0hdbjJbQ0BASF0zT1tDQEhdKFtDSDJdW09IXSlbQ0BASF0oW09IXSlbQ0BASF0zRg==

> <s_epik_cmdline>
J2VwaWtfcHl0aG9uJywgJy1waCcsICc3LjAnLCAnLXRuJywgJzgnLCAnLW1hJywgJzIwMCcsICctbWV0YWxfYmluZGluZycsICctaW1hZScsICc8aW5maWxlLm1hZT4nLCAnLW9tYWUnLCAnPG91dGZpbGUubWFlPic=

> <r_lp_tautomer_probability>
1

> <r_epik_Ionization_Penalty>
6.51543e-05

> <r_epik_Ionization_Penalty_Charging>
0

> <r_epik_Ionization_Penalty_Neutral>
6.51543e-05

> <r_epik_State_Penalty>
-0

> <r_epik_Charging_Adjusted_Penalty>
0

> <i_epik_Tot_Q>
0

> <i_epik_Tot_abs_Q>
0

> <r_epik_Metal_State_Penalty>
-0

> <b_epik_Metal_Only>
0

> <s_epik_Chemistry_Notes>
This compound contains an acetal/aminal-like group ( X-CH(R)-Y where X, Y are N, S, or O) that may be acid/base labile, releasing an aldehyde.

> <s_lp_Force_Field>
OPLS_2005

> <r_lp_Energy>
33.5879

> <b_lp_Chiralities_Consistent>
1

> <s_lp_Variant>
AV-unprocessed.smi:158-15

> <Gold.Version>
5.8.1

> <Gold.Id.Protein>
6NUR|6NUR_protein|mol2

> <Gold.PLP.Fitness>
32.5117

> <Gold.PLP.PLP>
-21.0967

> <Gold.PLP.part.hbond>
-5.6225

> <Gold.PLP.part.metal>
0.0000

> <Gold.PLP.part.buried>
2.1935

> <Gold.PLP.part.nonpolar>
-20.3088

> <Gold.PLP.part.repulsive>
2.8187

> <Gold.PLP.ligand.clash>
0.0000

> <Gold.PLP.ligand.torsion>
0.3826

> <Gold.PLP.Chemscore.Hbond>
3.1116

> <Gold.PLP.Chemscore.CHOScore>
0.9442

> <Gold.PLP.Chemscore.Metal>
0.0000

> <Gold.Chemscore.Hbonds>
donor molecule, donor type, donor heavy atom, donor atom, acceptor molecule, acceptor atom, score
      L1  H     1    25       P1  7921  0.51
      L1  H    16    30       P1  8028  0.94
      L1  H    18    31       P1  7957  1.00
      P1  H  7954  7966       L1     9  0.40
      P1  H  8011  8017       L1    18  0.30
      L1  C    10    27       P1  7957  0.95

> <Gold.PLP.Chemscore.Internal.Correction>
0.0128

> <Gold.Rescore>
     Score         DG    S(hbond)    S(metal)    S(lipo)     H(rot)  DE(clash)    DE(int)     intcor
      4.70      -6.44       1.70        0.00      27.89       3.12       1.37       0.37       ----

> <Gold.Chemscore.Fitness>
4.6975

> <Gold.Chemscore.DG>
-6.4396

> <Gold.Chemscore.ZeroCoef>
-5.4800

> <Gold.Chemscore.Hbond>
1.7039

> <Gold.Chemscore.Metal>
0.0000

> <Gold.Chemscore.Lipo>
27.8933

> <Gold.Chemscore.Internal_Hbond>
0.0000

> <Gold.Chemscore.DEClash>
1.3709

> <Gold.Chemscore.DEInternal>
0.3711

> <Gold.Chemscore.Rot>
3.1230

> <Gold.Chemscore.Internal.Correction>
   9.000000E+99

> <Gold.Chemscore.Hbonds>
donor molecule, donor type, donor heavy atom, donor atom, acceptor molecule, acceptor atom, score
      L1  H     1    25       P1  7921  0.51
      L1  H    16    30       P1  8028  0.26
      L1  H    18    31       P1  7957  0.99
      P1  H  7954  7966       L1     9  0.01
      P1  H  8011  8017       L1    18  0.01

> <Gold.Chemscore.Hbond.Weighted>
-5.6910

> <Gold.Chemscore.Metal.Weighted>
-0.0000

> <Gold.Chemscore.Lipo.Weighted>
-3.2635

> <Gold.Chemscore.Internal_Hbond.Weighted>
0.0000

> <Gold.Chemscore.DEClash.Weighted>
1.3709

> <Gold.Chemscore.DEInternal.Weighted>
0.3711

> <Gold.Chemscore.Rot.Weighted>
7.9950

> <Gold.Chemscore.Internal.Correction.Weighted>
   9.000000E+99

> <Gold.Protein.RotatedTorsions>
[ 6907 6896 6895 6894 ] final  142.93 input  -60.11 | X-H torsion
[ 7974 7965 7964 7962 ] final -101.19 input  175.53 | X-H torsion
[ 8008 7997 7996 7995 ] final   37.14 input   59.86 | X-H torsion
[ 10167 10162 10161 10158 ] final   28.84 input  -65.29 | X-H torsion
[ 10718 10713 10712 10709 ] final  -33.55 input   66.30 | X-H torsion
[ 10763 10752 10751 10750 ] final  -21.02 input  -60.55 | X-H torsion
[ 11005 11000 10999 10996 ] final  159.33 input  -57.11 | X-H torsion

> <Gold.Protein.ActiveResidues>
 VAL166  LYS551  ARG553  GLY616  TRP617  ASP618  TYR619  PRO620  LYS621  CYS622 
 ASP623  PHE694  ASN695  SER759  ASP760  ASP761  ALA762  ILE779  LEU786  VAL792 
 PHE793  MET794  SER795  GLU796  ALA797  LYS798  CYS799  TRP800  GLU811  SER814 

> <Gold.Protein.RotatedAtoms>
  152.2126  133.4923  159.5118 H   0  0  0  0  0  0  0  0  0  0  0  0  # atno 6907 bound_to 6896
  150.6994  134.1447  159.4127 H   0  0  0  0  0  0  0  0  0  0  0  0  # atno 6908 bound_to 6896
  151.9366  135.0232  160.0583 H   0  0  0  0  0  0  0  0  0  0  0  0  # atno 6909 bound_to 6896
  145.2849  140.9337  143.2911 H   0  0  0  0  0  0  0  0  0  0  0  0  # atno 7974 bound_to 7965
  155.1989  140.3314  155.4346 H   0  0  0  0  0  0  0  0  0  0  0  0  # atno 8008 bound_to 7997
  156.2414  140.1897  156.7027 H   0  0  0  0  0  0  0  0  0  0  0  0  # atno 8009 bound_to 7997
  154.6155  140.0603  156.9534 H   0  0  0  0  0  0  0  0  0  0  0  0  # atno 8010 bound_to 7997
  140.4817  144.0605  150.6267 H   0  0  0  0  0  0  0  0  0  0  0  0  # atno 10167 bound_to 10162
  156.3613  130.4324  149.7621 H   0  0  0  0  0  0  0  0  0  0  0  0  # atno 10718 bound_to 10713
  153.6296  135.6989  153.5280 H   0  0  0  0  0  0  0  0  0  0  0  0  # atno 10763 bound_to 10752
  153.2870  135.4168  155.1132 H   0  0  0  0  0  0  0  0  0  0  0  0  # atno 10764 bound_to 10752
  154.8525  135.3616  154.5838 H   0  0  0  0  0  0  0  0  0  0  0  0  # atno 10765 bound_to 10752
  140.1951  134.8379  157.2956 H   0  0  0  0  0  0  0  0  0  0  0  0  # atno 11005 bound_to 11000
  144.9222  139.4398  143.6536 LP  0  0  0  0  0  0  0  0  0  0  0  0  # atno 17320 bound_to 7965
  146.3204  139.8088  142.8950 LP  0  0  0  0  0  0  0  0  0  0  0  0  # atno 17321 bound_to 7965
  140.3849  143.2783  152.0128 LP  0  0  0  0  0  0  0  0  0  0  0  0  # atno 17342 bound_to 10162
  139.4835  144.6125  151.7407 LP  0  0  0  0  0  0  0  0  0  0  0  0  # atno 17343 bound_to 10162
  156.4784  130.8029  151.3045 LP  0  0  0  0  0  0  0  0  0  0  0  0  # atno 17370 bound_to 10713
  157.7474  131.0013  150.2960 LP  0  0  0  0  0  0  0  0  0  0  0  0  # atno 17371 bound_to 10713
  140.2116  134.4132  155.7610 LP  0  0  0  0  0  0  0  0  0  0  0  0  # atno 17394 bound_to 11000
  141.2227  133.7121  156.8347 LP  0  0  0  0  0  0  0  0  0  0  0  0  # atno 17395 bound_to 11000

$$$$
