AV-unprocessed.smi:264|AV-procd|sdf|2007|dock5
  -GOLD-   2262021203D 1   1.00000     0.00000
 Structure written by MMmdl.
 52 56  0  0  0  0  0  0  0  0  1 V2000
  145.5538  138.6304  160.7189 C   0  0  0  0  0  0  0  0  0  0  0  0
  146.0784  138.3293  162.1315 C   0  0  2  0  0  0  0  0  0  0  0  0
  146.8578  139.4484  162.5470 O   0  0  0  0  0  0  0  0  0  0  0  0
  147.8909  138.9988  163.4054 C   0  0  0  0  0  0  0  0  0  0  0  0
  148.3246  137.6997  162.7442 C   0  0  0  0  0  0  0  0  0  0  0  0
  147.0032  137.0887  162.2865 C   0  0  1  0  0  0  0  0  0  0  0  0
  146.4939  136.3056  163.3535 O   0  0  0  0  0  0  0  0  0  0  0  0
  147.1403  136.1700  161.0438 C   0  0  0  0  0  0  0  0  0  0  0  0
  147.7486  136.8308  159.8985 N   0  0  0  0  0  0  0  0  0  0  0  0
  149.0186  137.3577  159.8320 C   0  0  0  0  0  0  0  0  0  0  0  0
  149.3364  137.9028  158.6897 N   0  0  0  0  0  0  0  0  0  0  0  0
  148.2043  137.7274  157.9025 C   0  0  0  0  0  0  0  0  0  0  0  0
  147.8637  138.0760  156.5648 C   0  0  0  0  0  0  0  0  0  0  0  0
  148.7271  138.7071  155.7287 N   0  0  0  0  0  0  0  0  0  0  0  0
  148.1635  139.8430  155.0097 C   0  0  0  0  0  0  0  0  0  0  0  0
  149.0975  140.2493  153.8616 C   0  0  0  0  0  0  0  0  0  0  0  0
  150.4057  140.5115  154.3669 O   0  0  0  0  0  0  0  0  0  0  0  0
  151.0085  139.4065  155.0480 C   0  0  1  0  0  0  0  0  0  0  0  0
  151.3776  138.2815  154.0730 C   0  0  0  0  0  0  0  0  0  0  0  0
  152.8156  137.9376  154.4366 C   0  0  0  0  0  0  0  0  0  0  0  0
  153.3506  139.2023  154.7774 O   0  0  0  0  0  0  0  0  0  0  0  0
  152.3815  139.8583  155.5820 C   0  0  0  0  0  0  0  0  0  0  0  0
  150.0870  138.9510  156.2033 C   0  0  0  0  0  0  0  0  0  0  0  0
  146.6152  137.7499  156.1339 N   0  0  0  0  0  0  0  0  0  0  0  0
  145.7639  137.1160  156.9453 C   0  0  0  0  0  0  0  0  0  0  0  0
  145.9496  136.7226  158.2064 N   0  0  0  0  0  0  0  0  0  0  0  0
  147.1948  137.0571  158.6504 C   0  0  0  0  0  0  0  0  0  0  0  0
  144.9330  137.8176  160.3419 H   0  0  0  0  0  0  0  0  0  0  0  0
  146.3699  138.7937  160.0145 H   0  0  0  0  0  0  0  0  0  0  0  0
  144.9415  139.5324  160.7220 H   0  0  0  0  0  0  0  0  0  0  0  0
  145.2234  138.2536  162.8058 H   0  0  0  0  0  0  0  0  0  0  0  0
  148.6992  139.7267  163.4784 H   0  0  0  0  0  0  0  0  0  0  0  0
  147.4912  138.8199  164.4046 H   0  0  0  0  0  0  0  0  0  0  0  0
  148.9448  137.9410  161.8802 H   0  0  0  0  0  0  0  0  0  0  0  0
  148.9076  137.0538  163.4024 H   0  0  0  0  0  0  0  0  0  0  0  0
  145.8277  135.7300  163.0100 H   0  0  0  0  0  0  0  0  0  0  0  0
  147.7407  135.2919  161.2852 H   0  0  0  0  0  0  0  0  0  0  0  0
  146.1639  135.7997  160.7312 H   0  0  0  0  0  0  0  0  0  0  0  0
  149.7042  137.3295  160.6664 H   0  0  0  0  0  0  0  0  0  0  0  0
  147.1756  139.6173  154.6098 H   0  0  0  0  0  0  0  0  0  0  0  0
  148.0412  140.6759  155.7035 H   0  0  0  0  0  0  0  0  0  0  0  0
  149.1270  139.4718  153.0973 H   0  0  0  0  0  0  0  0  0  0  0  0
  148.7219  141.1502  153.3767 H   0  0  0  0  0  0  0  0  0  0  0  0
  150.7133  137.4183  154.1263 H   0  0  0  0  0  0  0  0  0  0  0  0
  151.3591  138.6503  153.0465 H   0  0  0  0  0  0  0  0  0  0  0  0
  152.8563  137.2714  155.3000 H   0  0  0  0  0  0  0  0  0  0  0  0
  153.3615  137.4759  153.6138 H   0  0  0  0  0  0  0  0  0  0  0  0
  152.5153  140.9400  155.5509 H   0  0  0  0  0  0  0  0  0  0  0  0
  152.5268  139.5392  156.6155 H   0  0  0  0  0  0  0  0  0  0  0  0
  150.0557  139.7235  156.9733 H   0  0  0  0  0  0  0  0  0  0  0  0
  150.4914  138.0500  156.6676 H   0  0  0  0  0  0  0  0  0  0  0  0
  144.7958  136.8909  156.5229 H   0  0  0  0  0  0  0  0  0  0  0  0
  1  2  1  0  0  0  0
  1 28  1  0  0  0  0
  1 29  1  0  0  0  0
  1 30  1  0  0  0  0
  2  6  1  0  0  0  0
  2  3  1  0  0  0  0
  2 31  1  0  0  0  0
  3  4  1  0  0  0  0
  4  5  1  0  0  0  0
  4 32  1  0  0  0  0
  4 33  1  0  0  0  0
  5  6  1  0  0  0  0
  5 34  1  0  0  0  0
  5 35  1  0  0  0  0
  6  7  1  0  0  0  0
  6  8  1  0  0  0  0
  7 36  1  0  0  0  0
  8  9  1  0  0  0  0
  8 37  1  0  0  0  0
  8 38  1  0  0  0  0
  9 27  1  0  0  0  0
  9 10  1  0  0  0  0
 10 11  2  0  0  0  0
 10 39  1  0  0  0  0
 11 12  1  0  0  0  0
 12 27  2  0  0  0  0
 12 13  1  0  0  0  0
 13 14  1  0  0  0  0
 13 24  2  0  0  0  0
 14 23  1  0  0  0  0
 14 15  1  0  0  0  0
 15 16  1  0  0  0  0
 15 40  1  0  0  0  0
 15 41  1  0  0  0  0
 16 17  1  0  0  0  0
 16 42  1  0  0  0  0
 16 43  1  0  0  0  0
 17 18  1  0  0  0  0
 18 22  1  0  0  0  0
 18 19  1  0  0  0  0
 18 23  1  0  0  0  0
 19 20  1  0  0  0  0
 19 44  1  0  0  0  0
 19 45  1  0  0  0  0
 20 21  1  0  0  0  0
 20 46  1  0  0  0  0
 20 47  1  0  0  0  0
 21 22  1  0  0  0  0
 22 48  1  0  0  0  0
 22 49  1  0  0  0  0
 23 50  1  0  0  0  0
 23 51  1  0  0  0  0
 24 25  1  0  0  0  0
 25 26  2  0  0  0  0
 25 52  1  0  0  0  0
 26 27  1  0  0  0  0
M  END
> <s_m_source_file>
AV-unprocessed.smi

> <i_m_source_file_index>
264

> <i_lp_mmshare_version>
43012

> <i_f3d_flags>
0

> <s_epik_input>
W0NIMl0xW0NIMl1PW0NAQEhdKFtDSDNdKVtDQEBdMShbT0hdKVtDSDJdbihbY0hdbjIpYyhjMjMpbltjSF1uYzNOKFtDSDJdNClbQ0gyXVtDSDJdT1tDQF00NVtDSDJdW0NIMl1PW0NIMl01

> <s_epik_cmdline>
J2VwaWtfcHl0aG9uJywgJy1waCcsICc3LjAnLCAnLXRuJywgJzgnLCAnLW1hJywgJzIwMCcsICctbWV0YWxfYmluZGluZycsICctaW1hZScsICc8aW5maWxlLm1hZT4nLCAnLW9tYWUnLCAnPG91dGZpbGUubWFlPic=

> <r_lp_tautomer_probability>
1

> <r_epik_Ionization_Penalty>
0.00539389

> <r_epik_Ionization_Penalty_Charging>
0

> <r_epik_Ionization_Penalty_Neutral>
0.00539389

> <r_epik_State_Penalty>
0.00375441

> <r_epik_Charging_Adjusted_Penalty>
0.00375441

> <i_epik_Tot_Q>
0

> <i_epik_Tot_abs_Q>
0

> <r_epik_Metal_State_Penalty>
-0

> <b_epik_Metal_Only>
0

> <s_lp_Force_Field>
OPLS_2005

> <r_lp_Energy>
54.1721

> <b_lp_Chiralities_Consistent>
1

> <s_lp_Variant>
AV-unprocessed.smi:264-1

> <Gold.Version>
5.8.1

> <Gold.Id.Protein>
6NUR|6NUR_protein|mol2

> <Gold.PLP.Fitness>
41.5440

> <Gold.PLP.PLP>
-35.1050

> <Gold.PLP.part.hbond>
-3.3557

> <Gold.PLP.part.metal>
0.0000

> <Gold.PLP.part.buried>
-2.9572

> <Gold.PLP.part.nonpolar>
-28.2556

> <Gold.PLP.part.repulsive>
0.1332

> <Gold.PLP.ligand.clash>
0.0000

> <Gold.PLP.ligand.torsion>
0.1807

> <Gold.PLP.Chemscore.Hbond>
2.1712

> <Gold.PLP.Chemscore.CHOScore>
0.0000

> <Gold.PLP.Chemscore.Metal>
0.0000

> <Gold.Chemscore.Hbonds>
donor molecule, donor type, donor heavy atom, donor atom, acceptor molecule, acceptor atom, score
      P1  H  7989  7998       L1    17  0.85
      P1  H  7997  8008       L1    21  0.15

> <Gold.PLP.Chemscore.Internal.Correction>
0.2869

> <Gold.Rescore>
     Score         DG    S(hbond)    S(metal)    S(lipo)     H(rot)  DE(clash)    DE(int)     intcor
      9.87     -13.87       1.06        0.00      87.59       2.11       0.20       3.80       ----

> <Gold.Chemscore.Fitness>
9.8669

> <Gold.Chemscore.DG>
-13.8706

> <Gold.Chemscore.ZeroCoef>
-5.4800

> <Gold.Chemscore.Hbond>
1.0583

> <Gold.Chemscore.Metal>
0.0000

> <Gold.Chemscore.Lipo>
87.5893

> <Gold.Chemscore.Internal_Hbond>
0.0000

> <Gold.Chemscore.DEClash>
0.1994

> <Gold.Chemscore.DEInternal>
3.8043

> <Gold.Chemscore.Rot>
2.1063

> <Gold.Chemscore.Internal.Correction>
   9.000000E+99

> <Gold.Chemscore.Hbonds>
donor molecule, donor type, donor heavy atom, donor atom, acceptor molecule, acceptor atom, score
      P1  H  7989  7998       L1    17  0.15

> <Gold.Chemscore.Hbond.Weighted>
-3.5348

> <Gold.Chemscore.Metal.Weighted>
-0.0000

> <Gold.Chemscore.Lipo.Weighted>
-10.2479

> <Gold.Chemscore.Internal_Hbond.Weighted>
0.0000

> <Gold.Chemscore.DEClash.Weighted>
0.1994

> <Gold.Chemscore.DEInternal.Weighted>
3.8043

> <Gold.Chemscore.Rot.Weighted>
5.3921

> <Gold.Chemscore.Internal.Correction.Weighted>
   9.000000E+99

> <Gold.Protein.RotatedTorsions>
[ 6907 6896 6895 6894 ] final  -77.69 input  -60.11 | X-H torsion
[ 7974 7965 7964 7962 ] final    9.87 input  175.53 | X-H torsion
[ 8008 7997 7996 7995 ] final   -7.46 input   59.86 | X-H torsion
[ 10167 10162 10161 10158 ] final  142.89 input  -65.29 | X-H torsion
[ 10718 10713 10712 10709 ] final  125.28 input   66.30 | X-H torsion
[ 10763 10752 10751 10750 ] final   51.82 input  -60.55 | X-H torsion
[ 11005 11000 10999 10996 ] final  -79.02 input  -57.11 | X-H torsion

> <Gold.Protein.ActiveResidues>
 VAL166  LYS551  ARG553  GLY616  TRP617  ASP618  TYR619  PRO620  LYS621  CYS622 
 ASP623  PHE694  ASN695  SER759  ASP760  ASP761  ALA762  ILE779  LEU786  VAL792 
 PHE793  MET794  SER795  GLU796  ALA797  LYS798  CYS799  TRP800  GLU811  SER814 

> <Gold.Protein.RotatedAtoms>
  150.6992  134.4385  159.5280 H   0  0  0  0  0  0  0  0  0  0  0  0  # atno 6907 bound_to 6896
  152.2099  134.8508  160.0507 H   0  0  0  0  0  0  0  0  0  0  0  0  # atno 6908 bound_to 6896
  151.9397  133.3599  159.3997 H   0  0  0  0  0  0  0  0  0  0  0  0  # atno 6909 bound_to 6896
  146.2397  139.9720  142.8446 H   0  0  0  0  0  0  0  0  0  0  0  0  # atno 7974 bound_to 7965
  154.5836  140.2406  155.8019 H   0  0  0  0  0  0  0  0  0  0  0  0  # atno 8008 bound_to 7997
  156.2197  140.3001  155.9878 H   0  0  0  0  0  0  0  0  0  0  0  0  # atno 8009 bound_to 7997
  155.2498  140.0410  157.2976 H   0  0  0  0  0  0  0  0  0  0  0  0  # atno 8010 bound_to 7997
  139.4983  144.6077  151.6342 H   0  0  0  0  0  0  0  0  0  0  0  0  # atno 10167 bound_to 10162
  157.5516  131.1094  150.8693 H   0  0  0  0  0  0  0  0  0  0  0  0  # atno 10718 bound_to 10713
  152.9786  135.5833  154.4478 H   0  0  0  0  0  0  0  0  0  0  0  0  # atno 10763 bound_to 10752
  154.4071  135.2769  155.2062 H   0  0  0  0  0  0  0  0  0  0  0  0  # atno 10764 bound_to 10752
  154.3868  135.6134  153.5875 H   0  0  0  0  0  0  0  0  0  0  0  0  # atno 10765 bound_to 10752
  141.1666  133.7088  156.8059 H   0  0  0  0  0  0  0  0  0  0  0  0  # atno 11005 bound_to 11000
  145.1673  140.9703  143.4342 LP  0  0  0  0  0  0  0  0  0  0  0  0  # atno 17320 bound_to 7965
  145.0061  139.3553  143.6143 LP  0  0  0  0  0  0  0  0  0  0  0  0  # atno 17321 bound_to 7965
  140.5743  144.0055  150.6233 LP  0  0  0  0  0  0  0  0  0  0  0  0  # atno 17342 bound_to 10162
  140.3183  143.3153  152.0809 LP  0  0  0  0  0  0  0  0  0  0  0  0  # atno 17343 bound_to 10162
  156.9216  130.5317  149.5279 LP  0  0  0  0  0  0  0  0  0  0  0  0  # atno 17370 bound_to 10713
  156.0581  130.5639  150.9135 LP  0  0  0  0  0  0  0  0  0  0  0  0  # atno 17371 bound_to 10713
  140.2222  134.8748  157.3389 LP  0  0  0  0  0  0  0  0  0  0  0  0  # atno 17394 bound_to 11000
  140.1976  134.4295  155.7680 LP  0  0  0  0  0  0  0  0  0  0  0  0  # atno 17395 bound_to 11000

$$$$
