AV-unprocessed.smi:1295|AV-procd|sdf|5407|dock7
  -GOLD-   22720 4563D 1   1.00000     0.00000
 Structure written by MMmdl.
 43 44  0  0  0  0  0  0  0  0  1 V2000
  146.1926  143.1254  153.9644 C   0  0  0  0  0  0  0  0  0  0  0  0
  147.0949  141.9129  154.0403 C   0  0  0  0  0  0  0  0  0  0  0  0
  146.5096  140.7533  153.5600 N   0  0  0  0  0  0  0  0  0  0  0  0
  147.2601  139.5913  153.5835 C   0  0  0  0  0  0  0  0  0  0  0  0
  146.5516  138.3709  153.0222 C   0  0  0  0  0  0  0  0  0  0  0  0
  148.5290  139.5842  154.0652 C   0  0  0  0  0  0  0  0  0  0  0  0
  149.3989  138.3261  154.0851 C   0  0  0  0  0  0  0  0  0  0  0  0
  148.9137  137.2028  155.0047 C   0  0  0  0  0  0  0  0  0  0  0  0
  148.8949  137.3690  156.2236 O   0  0  0  0  0  0  0  0  0  0  0  0
  148.5150  136.0735  154.4005 N   0  0  0  0  0  0  0  0  0  0  0  0
  147.9064  134.9099  155.0409 C   0  0  2  0  0  0  0  0  0  0  0  0
  148.9282  134.2094  155.9590 C   0  0  0  0  0  0  0  0  0  0  0  0
  150.0503  133.5231  155.1608 C   0  0  0  0  0  0  0  0  0  0  0  0
  149.4766  132.5491  154.1209 C   0  0  0  0  0  0  0  0  0  0  0  0
  148.4799  133.2520  153.1859 C   0  0  0  0  0  0  0  0  0  0  0  0
  147.3441  133.9351  153.9761 C   0  0  2  0  0  0  0  0  0  0  0  0
  146.3297  134.6050  153.0322 C   0  0  0  0  0  0  0  0  0  0  0  0
  149.1022  140.8575  154.5630 C   0  0  0  0  0  0  0  0  0  0  0  0
  150.2521  140.9203  154.9953 O   0  0  0  0  0  0  0  0  0  0  0  0
  148.2987  142.0080  154.5173 N   0  0  0  0  0  0  0  0  0  0  0  0
  145.5700  140.7144  153.1917 H   0  0  0  0  0  0  0  0  0  0  0  0
  146.6513  143.9848  154.4552 H   0  0  0  0  0  0  0  0  0  0  0  0
  145.2393  142.9237  154.4540 H   0  0  0  0  0  0  0  0  0  0  0  0
  146.0002  143.3892  152.9239 H   0  0  0  0  0  0  0  0  0  0  0  0
  146.4655  137.5957  153.7836 H   0  0  0  0  0  0  0  0  0  0  0  0
  147.1060  137.9639  152.1762 H   0  0  0  0  0  0  0  0  0  0  0  0
  145.5459  138.6134  152.6763 H   0  0  0  0  0  0  0  0  0  0  0  0
  150.4059  138.6088  154.3929 H   0  0  0  0  0  0  0  0  0  0  0  0
  149.5199  137.9191  153.0809 H   0  0  0  0  0  0  0  0  0  0  0  0
  148.5897  136.0361  153.3942 H   0  0  0  0  0  0  0  0  0  0  0  0
  147.0707  135.2392  155.6609 H   0  0  0  0  0  0  0  0  0  0  0  0
  149.3543  134.9244  156.6641 H   0  0  0  0  0  0  0  0  0  0  0  0
  148.4125  133.4612  156.5620 H   0  0  0  0  0  0  0  0  0  0  0  0
  150.6618  134.2749  154.6601 H   0  0  0  0  0  0  0  0  0  0  0  0
  150.7154  132.9901  155.8406 H   0  0  0  0  0  0  0  0  0  0  0  0
  150.2863  132.1094  153.5378 H   0  0  0  0  0  0  0  0  0  0  0  0
  148.9788  131.7231  154.6303 H   0  0  0  0  0  0  0  0  0  0  0  0
  149.0077  133.9891  152.5786 H   0  0  0  0  0  0  0  0  0  0  0  0
  148.0624  132.5248  152.4886 H   0  0  0  0  0  0  0  0  0  0  0  0
  146.8060  133.1519  154.5122 H   0  0  0  0  0  0  0  0  0  0  0  0
  146.8020  135.3556  152.3974 H   0  0  0  0  0  0  0  0  0  0  0  0
  145.5356  135.0968  153.5945 H   0  0  0  0  0  0  0  0  0  0  0  0
  145.8621  133.8696  152.3770 H   0  0  0  0  0  0  0  0  0  0  0  0
  1 22  1  0  0  0  0
  1 23  1  0  0  0  0
  1 24  1  0  0  0  0
  1  2  1  0  0  0  0
  2  3  1  0  0  0  0
  2 20  2  0  0  0  0
  3  4  1  0  0  0  0
  3 21  1  0  0  0  0
  4  6  2  0  0  0  0
  4  5  1  0  0  0  0
  5 25  1  0  0  0  0
  5 26  1  0  0  0  0
  5 27  1  0  0  0  0
  6 18  1  0  0  0  0
  6  7  1  0  0  0  0
  7  8  1  0  0  0  0
  7 28  1  0  0  0  0
  7 29  1  0  0  0  0
  8  9  2  0  0  0  0
  8 10  1  0  0  0  0
 10 11  1  0  0  0  0
 10 30  1  0  0  0  0
 11 16  1  0  0  0  0
 11 12  1  0  0  0  0
 11 31  1  0  0  0  0
 12 13  1  0  0  0  0
 12 32  1  0  0  0  0
 12 33  1  0  0  0  0
 13 14  1  0  0  0  0
 13 34  1  0  0  0  0
 13 35  1  0  0  0  0
 14 15  1  0  0  0  0
 14 36  1  0  0  0  0
 14 37  1  0  0  0  0
 15 16  1  0  0  0  0
 15 38  1  0  0  0  0
 15 39  1  0  0  0  0
 16 17  1  0  0  0  0
 16 40  1  0  0  0  0
 17 41  1  0  0  0  0
 17 42  1  0  0  0  0
 17 43  1  0  0  0  0
 18 19  2  0  0  0  0
 18 20  1  0  0  0  0
M  END
> <s_m_source_file>
AV-unprocessed.smi

> <i_m_source_file_index>
1295

> <i_lp_mmshare_version>
43012

> <i_f3d_flags>
0

> <s_epik_input>
W0NIM11jMW5jKFtDSDNdKWMoYyg9TylbbkhdMSlbQ0gyXUMoPU8pW05IXVtDQEBIXTJbQ0gyXVtDSDJdW0NIMl1bQ0gyXVtDQEhdMltDSDNd

> <s_epik_cmdline>
J2VwaWtfcHl0aG9uJywgJy1waCcsICc3LjAnLCAnLXRuJywgJzgnLCAnLW1hJywgJzIwMCcsICctbWV0YWxfYmluZGluZycsICctaW1hZScsICc8aW5maWxlLm1hZT4nLCAnLW9tYWUnLCAnPG91dGZpbGUubWFlPic=

> <r_lp_tautomer_probability>
0.156392

> <r_epik_Ionization_Penalty>
0.0136057

> <r_epik_Ionization_Penalty_Charging>
0.0134742

> <r_epik_Ionization_Penalty_Neutral>
0.000131572

> <r_epik_State_Penalty>
1.15342

> <r_epik_Charging_Adjusted_Penalty>
1.16689

> <i_epik_Tot_Q>
0

> <i_epik_Tot_abs_Q>
0

> <r_epik_Metal_State_Penalty>
1.31351

> <b_epik_Metal_Only>
0

> <s_lp_Force_Field>
OPLS_2005

> <r_lp_Energy>
13.3466

> <b_lp_Chiralities_Consistent>
1

> <s_lp_Variant>
AV-unprocessed.smi:1295-7

> <Gold.Version>
5.8.1

> <Gold.Id.Protein>
6NUR|6NUR_protein|mol2

> <Gold.PLP.Fitness>
39.7113

> <Gold.PLP.PLP>
-31.7295

> <Gold.PLP.part.hbond>
-3.2305

> <Gold.PLP.part.metal>
0.0000

> <Gold.PLP.part.buried>
-2.1854

> <Gold.PLP.part.nonpolar>
-27.4093

> <Gold.PLP.part.repulsive>
1.1666

> <Gold.PLP.ligand.clash>
0.0000

> <Gold.PLP.ligand.torsion>
0.1415

> <Gold.PLP.Chemscore.Hbond>
2.7520

> <Gold.PLP.Chemscore.CHOScore>
0.0000

> <Gold.PLP.Chemscore.Metal>
0.0000

> <Gold.Chemscore.Hbonds>
donor molecule, donor type, donor heavy atom, donor atom, acceptor molecule, acceptor atom, score
      L1  H     3    21       P1 10175  1.00
      L1  H    10    30       P1  7948  1.00
      P1  H  7989  7998       L1    19  0.75

> <Gold.PLP.Chemscore.Internal.Correction>
0.0087

> <Gold.Rescore>
     Score         DG    S(hbond)    S(metal)    S(lipo)     H(rot)  DE(clash)    DE(int)     intcor
     16.60     -17.34       2.55        0.00      60.91       1.48       0.66       0.08       ----

> <Gold.Chemscore.Fitness>
16.5996

> <Gold.Chemscore.DG>
-17.3376

> <Gold.Chemscore.ZeroCoef>
-5.4800

> <Gold.Chemscore.Hbond>
2.5509

> <Gold.Chemscore.Metal>
0.0000

> <Gold.Chemscore.Lipo>
60.9113

> <Gold.Chemscore.Internal_Hbond>
0.0000

> <Gold.Chemscore.DEClash>
0.6572

> <Gold.Chemscore.DEInternal>
0.0808

> <Gold.Chemscore.Rot>
1.4801

> <Gold.Chemscore.Internal.Correction>
   9.000000E+99

> <Gold.Chemscore.Hbonds>
donor molecule, donor type, donor heavy atom, donor atom, acceptor molecule, acceptor atom, score
      L1  H     3    21       P1 10175  0.73
      L1  H    10    30       P1  7948  0.97
      P1  H  7989  7998       L1    19  0.57

> <Gold.Chemscore.Hbond.Weighted>
-8.5201

> <Gold.Chemscore.Metal.Weighted>
-0.0000

> <Gold.Chemscore.Lipo.Weighted>
-7.1266

> <Gold.Chemscore.Internal_Hbond.Weighted>
0.0000

> <Gold.Chemscore.DEClash.Weighted>
0.6572

> <Gold.Chemscore.DEInternal.Weighted>
0.0808

> <Gold.Chemscore.Rot.Weighted>
3.7891

> <Gold.Chemscore.Internal.Correction.Weighted>
   9.000000E+99

> <Gold.Protein.RotatedTorsions>
[ 6907 6896 6895 6894 ] final  -85.17 input  -60.11 | X-H torsion
[ 7974 7965 7964 7962 ] final   67.87 input  175.53 | X-H torsion
[ 8008 7997 7996 7995 ] final   86.50 input   59.86 | X-H torsion
[ 10167 10162 10161 10158 ] final -101.46 input  -65.29 | X-H torsion
[ 10718 10713 10712 10709 ] final  141.16 input   66.30 | X-H torsion
[ 10763 10752 10751 10750 ] final  146.66 input  -60.55 | X-H torsion
[ 11005 11000 10999 10996 ] final   44.38 input  -57.11 | X-H torsion

> <Gold.Protein.ActiveResidues>
 VAL166  LYS551  ARG553  GLY616  TRP617  ASP618  TYR619  PRO620  LYS621  CYS622 
 ASP623  PHE694  ASN695  SER759  ASP760  ASP761  ALA762  ILE779  LEU786  VAL792 
 PHE793  MET794  SER795  GLU796  ALA797  LYS798  CYS799  TRP800  GLU811  SER814 

> <Gold.Protein.RotatedAtoms>
  150.6872  134.3245  159.4800 H   0  0  0  0  0  0  0  0  0  0  0  0  # atno 6907 bound_to 6896
  152.1117  134.9267  160.0575 H   0  0  0  0  0  0  0  0  0  0  0  0  # atno 6908 bound_to 6896
  152.0507  133.3983  159.4413 H   0  0  0  0  0  0  0  0  0  0  0  0  # atno 6909 bound_to 6896
  145.8094  139.3024  143.1108 H   0  0  0  0  0  0  0  0  0  0  0  0  # atno 7974 bound_to 7965
  155.9636  140.3391  155.6512 H   0  0  0  0  0  0  0  0  0  0  0  0  # atno 8008 bound_to 7997
  155.6766  140.0733  157.2518 H   0  0  0  0  0  0  0  0  0  0  0  0  # atno 8009 bound_to 7997
  154.4149  140.1682  156.1925 H   0  0  0  0  0  0  0  0  0  0  0  0  # atno 8010 bound_to 7997
  140.2411  143.3538  152.0801 H   0  0  0  0  0  0  0  0  0  0  0  0  # atno 10167 bound_to 10162
  157.3952  131.1010  151.0607 H   0  0  0  0  0  0  0  0  0  0  0  0  # atno 10718 bound_to 10713
  154.0255  135.2902  155.3375 H   0  0  0  0  0  0  0  0  0  0  0  0  # atno 10763 bound_to 10752
  154.7020  135.5184  153.8544 H   0  0  0  0  0  0  0  0  0  0  0  0  # atno 10764 bound_to 10752
  153.0662  135.6632  154.0473 H   0  0  0  0  0  0  0  0  0  0  0  0  # atno 10765 bound_to 10752
  140.1557  134.4405  155.8351 H   0  0  0  0  0  0  0  0  0  0  0  0  # atno 11005 bound_to 11000
  145.9793  140.8696  143.0122 LP  0  0  0  0  0  0  0  0  0  0  0  0  # atno 17320 bound_to 7965
  144.6759  140.2057  143.7382 LP  0  0  0  0  0  0  0  0  0  0  0  0  # atno 17321 bound_to 7965
  139.5077  144.6837  151.5944 LP  0  0  0  0  0  0  0  0  0  0  0  0  # atno 17342 bound_to 10162
  140.6113  143.9431  150.6455 LP  0  0  0  0  0  0  0  0  0  0  0  0  # atno 17343 bound_to 10162
  157.1626  130.6232  149.5615 LP  0  0  0  0  0  0  0  0  0  0  0  0  # atno 17370 bound_to 10713
  155.9808  130.4812  150.6795 LP  0  0  0  0  0  0  0  0  0  0  0  0  # atno 17371 bound_to 10713
  141.2204  133.6891  156.7502 LP  0  0  0  0  0  0  0  0  0  0  0  0  # atno 17394 bound_to 11000
  140.2551  134.8511  157.3704 LP  0  0  0  0  0  0  0  0  0  0  0  0  # atno 17395 bound_to 11000

$$$$
