AV-unprocessed.smi:980|AV-procd|sdf|4312|dock3
  -GOLD-   22720 2213D 1   1.00000     0.00000
 Structure written by MMmdl.
 44 45  0  0  0  0  0  0  0  0  1 V2000
  152.4857  145.3917  159.3463 C   0  0  0  0  0  0  0  0  0  0  0  0
  151.6061  144.1240  159.2982 C   0  0  0  0  0  0  0  0  0  0  0  0
  150.2159  144.4886  159.8557 C   0  0  0  0  0  0  0  0  0  0  0  0
  151.4825  143.6867  157.8252 C   0  0  0  0  0  0  0  0  0  0  0  0
  152.2153  143.0042  160.1189 C   0  0  0  0  0  0  0  0  0  0  0  0
  152.4652  142.9820  161.4724 C   0  0  0  0  0  0  0  0  0  0  0  0
  153.1971  141.4875  161.9870 S   0  0  0  0  0  0  0  0  0  0  0  0
  153.1248  140.9184  160.3269 C   0  0  0  0  0  0  0  0  0  0  0  0
  153.6505  139.5916  159.8934 C   0  0  0  0  0  0  0  0  0  0  0  0
  152.5276  138.5665  159.6659 C   0  0  0  0  0  0  0  0  0  0  0  0
  151.5599  139.0304  158.6788 N   0  0  0  0  0  0  0  0  0  0  0  0
  151.7028  138.9289  157.3482 C   0  0  0  0  0  0  0  0  0  0  0  0
  152.6948  138.4344  156.8118 O   0  0  0  0  0  0  0  0  0  0  0  0
  150.5451  139.4623  156.4935 C   0  0  1  0  0  0  0  0  0  0  0  0
  150.4367  141.0011  156.5922 C   0  0  0  0  0  0  0  0  0  0  0  0
  149.4687  141.5725  155.5708 C   0  0  0  0  0  0  0  0  0  0  0  0
  149.0316  140.8856  154.5012 C   0  0  0  0  0  0  0  0  0  0  0  0
  149.4612  139.4630  154.1887 C   0  0  0  0  0  0  0  0  0  0  0  0
  150.6825  139.0269  155.0203 C   0  0  0  0  0  0  0  0  0  0  0  0
  152.6057  141.8160  159.4864 N   0  0  0  0  0  0  0  0  0  0  0  0
  152.0495  146.2003  158.7585 H   0  0  0  0  0  0  0  0  0  0  0  0
  153.4826  145.2034  158.9459 H   0  0  0  0  0  0  0  0  0  0  0  0
  152.6010  145.7603  160.3664 H   0  0  0  0  0  0  0  0  0  0  0  0
  150.2775  144.8038  160.8981 H   0  0  0  0  0  0  0  0  0  0  0  0
  149.5289  143.6428  159.8089 H   0  0  0  0  0  0  0  0  0  0  0  0
  149.7626  145.3042  159.2914 H   0  0  0  0  0  0  0  0  0  0  0  0
  151.0600  144.4806  157.2083 H   0  0  0  0  0  0  0  0  0  0  0  0
  150.8367  142.8147  157.7173 H   0  0  0  0  0  0  0  0  0  0  0  0
  152.4557  143.4278  157.4062 H   0  0  0  0  0  0  0  0  0  0  0  0
  152.2711  143.7542  162.2017 H   0  0  0  0  0  0  0  0  0  0  0  0
  154.2239  139.7298  158.9761 H   0  0  0  0  0  0  0  0  0  0  0  0
  154.3510  139.2319  160.6483 H   0  0  0  0  0  0  0  0  0  0  0  0
  152.9437  137.6056  159.3580 H   0  0  0  0  0  0  0  0  0  0  0  0
  151.9941  138.3888  160.6000 H   0  0  0  0  0  0  0  0  0  0  0  0
  150.7123  139.4490  159.0334 H   0  0  0  0  0  0  0  0  0  0  0  0
  149.6162  139.0346  156.8759 H   0  0  0  0  0  0  0  0  0  0  0  0
  150.0956  141.2831  157.5890 H   0  0  0  0  0  0  0  0  0  0  0  0
  151.4060  141.4788  156.4417 H   0  0  0  0  0  0  0  0  0  0  0  0
  149.1375  142.5886  155.7280 H   0  0  0  0  0  0  0  0  0  0  0  0
  148.3306  141.3434  153.8188 H   0  0  0  0  0  0  0  0  0  0  0  0
  148.6156  138.8039  154.3874 H   0  0  0  0  0  0  0  0  0  0  0  0
  149.6865  139.3798  153.1253 H   0  0  0  0  0  0  0  0  0  0  0  0
  151.5818  139.4727  154.5914 H   0  0  0  0  0  0  0  0  0  0  0  0
  150.8100  137.9460  154.9450 H   0  0  0  0  0  0  0  0  0  0  0  0
  1  2  1  0  0  0  0
  1 21  1  0  0  0  0
  1 22  1  0  0  0  0
  1 23  1  0  0  0  0
  2  3  1  0  0  0  0
  2  4  1  0  0  0  0
  2  5  1  0  0  0  0
  3 24  1  0  0  0  0
  3 25  1  0  0  0  0
  3 26  1  0  0  0  0
  4 27  1  0  0  0  0
  4 28  1  0  0  0  0
  4 29  1  0  0  0  0
  5 20  1  0  0  0  0
  5  6  2  0  0  0  0
  6  7  1  0  0  0  0
  6 30  1  0  0  0  0
  7  8  1  0  0  0  0
  8  9  1  0  0  0  0
  8 20  2  0  0  0  0
  9 10  1  0  0  0  0
  9 31  1  0  0  0  0
  9 32  1  0  0  0  0
 10 11  1  0  0  0  0
 10 33  1  0  0  0  0
 10 34  1  0  0  0  0
 11 12  1  0  0  0  0
 11 35  1  0  0  0  0
 12 13  2  0  0  0  0
 12 14  1  0  0  0  0
 14 19  1  0  0  0  0
 14 15  1  0  0  0  0
 14 36  1  0  0  0  0
 15 16  1  0  0  0  0
 15 37  1  0  0  0  0
 15 38  1  0  0  0  0
 16 17  2  0  0  0  0
 16 39  1  0  0  0  0
 17 18  1  0  0  0  0
 17 40  1  0  0  0  0
 18 19  1  0  0  0  0
 18 41  1  0  0  0  0
 18 42  1  0  0  0  0
 19 43  1  0  0  0  0
 19 44  1  0  0  0  0
M  END
> <s_m_source_file>
AV-unprocessed.smi

> <i_m_source_file_index>
980

> <i_lp_mmshare_version>
43012

> <i_f3d_flags>
0

> <s_epik_input>
W0NIM11DKFtDSDNdKShbQ0gzXSljMVtjSF1zYyhuMSlbQ0gyXVtDSDJdW05IXUMoPU8pW0NAQEhdMltDSDJdW0NIXT1bQ0hdW0NIMl1bQ0gyXTI=

> <s_epik_cmdline>
J2VwaWtfcHl0aG9uJywgJy1waCcsICc3LjAnLCAnLXRuJywgJzgnLCAnLW1hJywgJzIwMCcsICctbWV0YWxfYmluZGluZycsICctaW1hZScsICc8aW5maWxlLm1hZT4nLCAnLW9tYWUnLCAnPG91dGZpbGUubWFlPic=

> <r_epik_Ionization_Penalty>
0.000809238

> <r_epik_Ionization_Penalty_Charging>
0

> <r_epik_Ionization_Penalty_Neutral>
0.000809238

> <r_epik_State_Penalty>
0.000520038

> <r_epik_Charging_Adjusted_Penalty>
0.000520038

> <i_epik_Tot_Q>
0

> <i_epik_Tot_abs_Q>
0

> <r_epik_Metal_State_Penalty>
-0

> <b_epik_Metal_Only>
0

> <s_lp_Force_Field>
OPLS_2005

> <r_lp_Energy>
-0.741004

> <b_lp_Chiralities_Consistent>
1

> <s_lp_Variant>
AV-unprocessed.smi:980-2

> <Gold.Version>
5.8.1

> <Gold.Id.Protein>
6NUR|6NUR_protein|mol2

> <Gold.PLP.Fitness>
51.3998

> <Gold.PLP.PLP>
-49.6216

> <Gold.PLP.part.hbond>
-0.7715

> <Gold.PLP.part.metal>
0.0000

> <Gold.PLP.part.buried>
-4.0023

> <Gold.PLP.part.nonpolar>
-43.7875

> <Gold.PLP.part.repulsive>
0.0974

> <Gold.PLP.ligand.clash>
0.0000

> <Gold.PLP.ligand.torsion>
0.6180

> <Gold.PLP.Chemscore.Hbond>
0.9920

> <Gold.PLP.Chemscore.CHOScore>
0.0000

> <Gold.PLP.Chemscore.Metal>
0.0000

> <Gold.Chemscore.Hbonds>
donor molecule, donor type, donor heavy atom, donor atom, acceptor molecule, acceptor atom, score
      P1  H  7997  8008       L1    13  0.08

> <Gold.PLP.Chemscore.Internal.Correction>
0.0382

> <Gold.Rescore>
     Score         DG    S(hbond)    S(metal)    S(lipo)     H(rot)  DE(clash)    DE(int)     intcor
     19.90     -21.62       0.91        0.00     142.87       1.41       0.12       1.60       ----

> <Gold.Chemscore.Fitness>
19.9005

> <Gold.Chemscore.DG>
-21.6207

> <Gold.Chemscore.ZeroCoef>
-5.4800

> <Gold.Chemscore.Hbond>
0.9084

> <Gold.Chemscore.Metal>
0.0000

> <Gold.Chemscore.Lipo>
142.8668

> <Gold.Chemscore.Internal_Hbond>
0.0000

> <Gold.Chemscore.DEClash>
0.1182

> <Gold.Chemscore.DEInternal>
1.6021

> <Gold.Chemscore.Rot>
1.4097

> <Gold.Chemscore.Internal.Correction>
   9.000000E+99

> <Gold.Chemscore.Hbonds>
donor molecule, donor type, donor heavy atom, donor atom, acceptor molecule, acceptor atom, score
      P1  H  7997  8008       L1    13  0.09

> <Gold.Chemscore.Hbond.Weighted>
-3.0340

> <Gold.Chemscore.Metal.Weighted>
-0.0000

> <Gold.Chemscore.Lipo.Weighted>
-16.7154

> <Gold.Chemscore.Internal_Hbond.Weighted>
0.0000

> <Gold.Chemscore.DEClash.Weighted>
0.1182

> <Gold.Chemscore.DEInternal.Weighted>
1.6021

> <Gold.Chemscore.Rot.Weighted>
3.6087

> <Gold.Chemscore.Internal.Correction.Weighted>
   9.000000E+99

> <Gold.Protein.RotatedTorsions>
[ 6907 6896 6895 6894 ] final  -97.73 input  -60.11 | X-H torsion
[ 7974 7965 7964 7962 ] final   -0.52 input  175.53 | X-H torsion
[ 8008 7997 7996 7995 ] final  -74.67 input   59.86 | X-H torsion
[ 10167 10162 10161 10158 ] final -101.08 input  -65.29 | X-H torsion
[ 10718 10713 10712 10709 ] final  -15.73 input   66.30 | X-H torsion
[ 10763 10752 10751 10750 ] final  -48.99 input  -60.55 | X-H torsion
[ 11005 11000 10999 10996 ] final  112.98 input  -57.11 | X-H torsion

> <Gold.Protein.ActiveResidues>
 VAL166  LYS551  ARG553  GLY616  TRP617  ASP618  TYR619  PRO620  LYS621  CYS622 
 ASP623  PHE694  ASN695  SER759  ASP760  ASP761  ALA762  ILE779  LEU786  VAL792 
 PHE793  MET794  SER795  GLU796  ALA797  LYS798  CYS799  TRP800  GLU811  SER814 

> <Gold.Protein.RotatedAtoms>
  150.7025  134.1303  159.4066 H   0  0  0  0  0  0  0  0  0  0  0  0  # atno 6907 bound_to 6896
  151.9288  135.0263  160.0537 H   0  0  0  0  0  0  0  0  0  0  0  0  # atno 6908 bound_to 6896
  152.2193  133.4936  159.5190 H   0  0  0  0  0  0  0  0  0  0  0  0  # atno 6909 bound_to 6896
  146.2426  140.1282  142.8338 H   0  0  0  0  0  0  0  0  0  0  0  0  # atno 7974 bound_to 7965
  154.5350  140.0757  156.8412 H   0  0  0  0  0  0  0  0  0  0  0  0  # atno 8008 bound_to 7997
  155.3296  140.3401  155.4221 H   0  0  0  0  0  0  0  0  0  0  0  0  # atno 8009 bound_to 7997
  156.1819  140.1655  156.8244 H   0  0  0  0  0  0  0  0  0  0  0  0  # atno 8010 bound_to 7997
  140.2451  143.3511  152.0766 H   0  0  0  0  0  0  0  0  0  0  0  0  # atno 10167 bound_to 10162
  156.5977  130.4815  149.6253 H   0  0  0  0  0  0  0  0  0  0  0  0  # atno 10718 bound_to 10713
  154.0868  135.6583  153.4846 H   0  0  0  0  0  0  0  0  0  0  0  0  # atno 10763 bound_to 10752
  153.0336  135.5193  154.7420 H   0  0  0  0  0  0  0  0  0  0  0  0  # atno 10764 bound_to 10752
  154.6532  135.3004  154.9929 H   0  0  0  0  0  0  0  0  0  0  0  0  # atno 10765 bound_to 10752
  139.8941  134.9541  156.6669 H   0  0  0  0  0  0  0  0  0  0  0  0  # atno 11005 bound_to 11000
  145.0349  140.8900  143.5087 LP  0  0  0  0  0  0  0  0  0  0  0  0  # atno 17320 bound_to 7965
  145.1352  139.2606  143.5518 LP  0  0  0  0  0  0  0  0  0  0  0  0  # atno 17321 bound_to 7965
  139.5064  144.6814  151.5999 LP  0  0  0  0  0  0  0  0  0  0  0  0  # atno 17342 bound_to 10162
  140.6084  143.9482  150.6435 LP  0  0  0  0  0  0  0  0  0  0  0  0  # atno 17343 bound_to 10162
  156.2496  130.6899  151.1632 LP  0  0  0  0  0  0  0  0  0  0  0  0  # atno 17370 bound_to 10713
  157.7288  131.0629  150.5805 LP  0  0  0  0  0  0  0  0  0  0  0  0  # atno 17371 bound_to 10713
  140.7403  133.8983  155.8273 LP  0  0  0  0  0  0  0  0  0  0  0  0  # atno 17394 bound_to 11000
  141.0083  134.1056  157.4248 LP  0  0  0  0  0  0  0  0  0  0  0  0  # atno 17395 bound_to 11000

$$$$
