AV-unprocessed.smi:72|AV-procd|sdf|670|dock8
  -GOLD-   2262016573D 1   1.00000     0.00000
 Structure written by MMmdl.
 29 30  0  0  0  0  0  0  0  0  1 V2000
  148.4373  137.2342  160.4100 N   0  0  0  0  0  0  0  0  0  0  0  0
  148.6134  137.8134  159.2761 C   0  0  0  0  0  0  0  0  0  0  0  0
  147.6005  138.3897  158.4942 N   0  0  0  0  0  0  0  0  0  0  0  0
  147.9237  138.9386  157.3640 C   0  0  0  0  0  0  0  0  0  0  0  0
  149.2961  138.9697  156.8821 N   0  0  0  0  0  0  0  0  0  0  0  0
  149.6392  139.6176  155.5569 C   0  0  1  0  0  0  0  0  0  0  0  0
  148.8099  139.0790  154.5739 O   0  0  0  0  0  0  0  0  0  0  0  0
  148.4817  140.0931  153.6357 C   0  0  1  0  0  0  0  0  0  0  0  0
  147.1901  139.7194  152.8921 C   0  0  0  0  0  0  0  0  0  0  0  0
  147.4898  138.9162  151.7705 O   0  0  0  0  0  0  0  0  0  0  0  0
  148.3416  141.3364  154.5197 C   0  0  2  0  0  0  0  0  0  0  0  0
  148.5573  142.5107  153.7637 O   0  0  0  0  0  0  0  0  0  0  0  0
  149.4476  141.1517  155.5513 C   0  0  1  0  0  0  0  0  0  0  0  0
  149.0694  141.7079  156.7981 O   0  0  0  0  0  0  0  0  0  0  0  0
  150.3332  138.4110  157.6672 C   0  0  0  0  0  0  0  0  0  0  0  0
  151.5148  138.4417  157.3244 O   0  0  0  0  0  0  0  0  0  0  0  0
  149.9424  137.8477  158.8311 N   0  0  0  0  0  0  0  0  0  0  0  0
  150.6632  139.3266  155.3184 H   0  0  0  0  0  0  0  0  0  0  0  0
  149.3166  140.2222  152.9432 H   0  0  0  0  0  0  0  0  0  0  0  0
  147.3600  141.3546  154.9965 H   0  0  0  0  0  0  0  0  0  0  0  0
  150.3836  141.6008  155.2150 H   0  0  0  0  0  0  0  0  0  0  0  0
  149.3159  136.9021  160.7795 H   0  0  0  0  0  0  0  0  0  0  0  0
  147.1945  139.4150  156.7069 H   0  0  0  0  0  0  0  0  0  0  0  0
  146.4865  139.2085  153.5503 H   0  0  0  0  0  0  0  0  0  0  0  0
  146.6954  140.6190  152.5251 H   0  0  0  0  0  0  0  0  0  0  0  0
  147.9082  138.1239  152.0711 H   0  0  0  0  0  0  0  0  0  0  0  0
  149.1026  143.0937  154.2699 H   0  0  0  0  0  0  0  0  0  0  0  0
  149.1739  142.6461  156.7511 H   0  0  0  0  0  0  0  0  0  0  0  0
  150.6584  137.4367  159.4118 H   0  0  0  0  0  0  0  0  0  0  0  0
  1  2  2  0  0  0  0
  1 22  1  0  0  0  0
  2 17  1  0  0  0  0
  2  3  1  0  0  0  0
  3  4  2  0  0  0  0
  4  5  1  0  0  0  0
  4 23  1  0  0  0  0
  5  6  1  0  0  0  0
  5 15  1  0  0  0  0
  6 18  1  0  0  0  0
  6 13  1  0  0  0  0
  6  7  1  0  0  0  0
  7  8  1  0  0  0  0
  8 19  1  0  0  0  0
  8  9  1  0  0  0  0
  8 11  1  0  0  0  0
  9 10  1  0  0  0  0
  9 24  1  0  0  0  0
  9 25  1  0  0  0  0
 10 26  1  0  0  0  0
 11 20  1  0  0  0  0
 11 12  1  0  0  0  0
 11 13  1  0  0  0  0
 12 27  1  0  0  0  0
 13 21  1  0  0  0  0
 13 14  1  0  0  0  0
 14 28  1  0  0  0  0
 15 16  2  0  0  0  0
 15 17  1  0  0  0  0
 17 29  1  0  0  0  0
M  END
> <s_m_source_file>
AV-unprocessed.smi

> <i_m_source_file_index>
72

> <i_lp_mmshare_version>
43012

> <i_f3d_flags>
0

> <s_epik_input>
W05IMl1jMW5bY0hdbihjKD1PKW4xKVtDQEBIXTJPW0NASF0oW0NIMl1bT0hdKVtDQEBIXShbT0hdKVtDQEhdMltPSF0=

> <s_epik_cmdline>
J2VwaWtfcHl0aG9uJywgJy1waCcsICc3LjAnLCAnLXRuJywgJzgnLCAnLW1hJywgJzIwMCcsICctbWV0YWxfYmluZGluZycsICctaW1hZScsICc8aW5maWxlLm1hZT4nLCAnLW9tYWUnLCAnPG91dGZpbGUubWFlPic=

> <r_lp_tautomer_probability>
7.17554e-07

> <r_epik_Ionization_Penalty>
0.0066451

> <r_epik_Ionization_Penalty_Charging>
0.00663793

> <r_epik_Ionization_Penalty_Neutral>
7.17052e-06

> <r_epik_State_Penalty>
0.419231

> <r_epik_Charging_Adjusted_Penalty>
0.425868

> <i_epik_Tot_Q>
0

> <i_epik_Tot_abs_Q>
0

> <r_epik_Metal_State_Penalty>
1.44144

> <b_epik_Metal_Only>
0

> <s_epik_Chemistry_Notes>
This compound contains an acetal/aminal-like group ( X-CH(R)-Y where X, Y are N, S, or O) that may be acid/base labile, releasing an aldehyde.

> <s_lp_Force_Field>
OPLS_2005

> <r_lp_Energy>
43.9506

> <b_lp_Chiralities_Consistent>
1

> <s_lp_Variant>
AV-unprocessed.smi:72-8

> <Gold.Version>
5.8.1

> <Gold.Id.Protein>
6NUR|6NUR_protein|mol2

> <Gold.PLP.Fitness>
34.4158

> <Gold.PLP.PLP>
-23.2395

> <Gold.PLP.part.hbond>
-5.7209

> <Gold.PLP.part.metal>
0.0000

> <Gold.PLP.part.buried>
-0.5408

> <Gold.PLP.part.nonpolar>
-16.6138

> <Gold.PLP.part.repulsive>
0.2556

> <Gold.PLP.ligand.clash>
0.0000

> <Gold.PLP.ligand.torsion>
0.3958

> <Gold.PLP.Chemscore.Hbond>
3.9471

> <Gold.PLP.Chemscore.CHOScore>
0.0000

> <Gold.PLP.Chemscore.Metal>
0.0000

> <Gold.Chemscore.Hbonds>
donor molecule, donor type, donor heavy atom, donor atom, acceptor molecule, acceptor atom, score
      L1  H    10    26       P1  7948  0.71
      L1  H    12    27       P1  8028  0.60
      L1  H    14    28       P1  8028  0.18
      P1  H  6934  6947       L1     1  0.07
      P1  H  8011  8017       L1    12  0.09

> <Gold.PLP.Chemscore.Internal.Correction>
0.1266

> <Gold.Rescore>
     Score         DG    S(hbond)    S(metal)    S(lipo)     H(rot)  DE(clash)    DE(int)     intcor
      9.37     -10.03       3.61        0.00      24.73       4.06       0.20       0.46       ----

> <Gold.Chemscore.Fitness>
9.3665

> <Gold.Chemscore.DG>
-10.0313

> <Gold.Chemscore.ZeroCoef>
-5.4800

> <Gold.Chemscore.Hbond>
3.6082

> <Gold.Chemscore.Metal>
0.0000

> <Gold.Chemscore.Lipo>
24.7322

> <Gold.Chemscore.Internal_Hbond>
0.0000

> <Gold.Chemscore.DEClash>
0.2047

> <Gold.Chemscore.DEInternal>
0.4601

> <Gold.Chemscore.Rot>
4.0600

> <Gold.Chemscore.Internal.Correction>
   9.000000E+99

> <Gold.Chemscore.Hbonds>
donor molecule, donor type, donor heavy atom, donor atom, acceptor molecule, acceptor atom, score
      L1  H    10    26       P1  7948  0.69
      L1  H    12    27       P1  8028  0.58
      L1  H    14    28       P1  8028  0.19
      P1  H  8011  8017       L1    12  0.01

> <Gold.Chemscore.Hbond.Weighted>
-12.0513

> <Gold.Chemscore.Metal.Weighted>
-0.0000

> <Gold.Chemscore.Lipo.Weighted>
-2.8937

> <Gold.Chemscore.Internal_Hbond.Weighted>
0.0000

> <Gold.Chemscore.DEClash.Weighted>
0.2047

> <Gold.Chemscore.DEInternal.Weighted>
0.4601

> <Gold.Chemscore.Rot.Weighted>
10.3936

> <Gold.Chemscore.Internal.Correction.Weighted>
   9.000000E+99

> <Gold.Protein.RotatedTorsions>
[ 6907 6896 6895 6894 ] final  -10.38 input  -60.11 | X-H torsion
[ 7974 7965 7964 7962 ] final   78.16 input  175.53 | X-H torsion
[ 8008 7997 7996 7995 ] final   63.90 input   59.86 | X-H torsion
[ 10167 10162 10161 10158 ] final    5.61 input  -65.29 | X-H torsion
[ 10718 10713 10712 10709 ] final   21.00 input   66.30 | X-H torsion
[ 10763 10752 10751 10750 ] final   33.01 input  -60.55 | X-H torsion
[ 11005 11000 10999 10996 ] final   -6.92 input  -57.11 | X-H torsion

> <Gold.Protein.ActiveResidues>
 VAL166  LYS551  ARG553  GLY616  TRP617  ASP618  TYR619  PRO620  LYS621  CYS622 
 ASP623  PHE694  ASN695  SER759  ASP760  ASP761  ALA762  ILE779  LEU786  VAL792 
 PHE793  MET794  SER795  GLU796  ALA797  LYS798  CYS799  TRP800  GLU811  SER814 

> <Gold.Protein.RotatedAtoms>
  151.4029  135.0973  159.9561 H   0  0  0  0  0  0  0  0  0  0  0  0  # atno 6907 bound_to 6896
  152.5045  133.8871  159.7386 H   0  0  0  0  0  0  0  0  0  0  0  0  # atno 6908 bound_to 6896
  150.9349  133.6667  159.2831 H   0  0  0  0  0  0  0  0  0  0  0  0  # atno 6909 bound_to 6896
  145.6807  139.2523  143.1815 H   0  0  0  0  0  0  0  0  0  0  0  0  # atno 7974 bound_to 7965
  155.6375  140.3496  155.4704 H   0  0  0  0  0  0  0  0  0  0  0  0  # atno 8008 bound_to 7997
  155.9953  140.1202  157.0623 H   0  0  0  0  0  0  0  0  0  0  0  0  # atno 8009 bound_to 7997
  154.4231  140.1111  156.5607 H   0  0  0  0  0  0  0  0  0  0  0  0  # atno 8010 bound_to 7997
  140.6473  143.7632  150.7518 H   0  0  0  0  0  0  0  0  0  0  0  0  # atno 10167 bound_to 10162
  157.1324  130.6596  149.5956 H   0  0  0  0  0  0  0  0  0  0  0  0  # atno 10718 bound_to 10713
  153.0233  135.6398  154.1445 H   0  0  0  0  0  0  0  0  0  0  0  0  # atno 10763 bound_to 10752
  154.1177  135.2848  155.3217 H   0  0  0  0  0  0  0  0  0  0  0  0  # atno 10764 bound_to 10752
  154.6286  135.5500  153.7717 H   0  0  0  0  0  0  0  0  0  0  0  0  # atno 10765 bound_to 10752
  140.7072  133.8940  155.8724 H   0  0  0  0  0  0  0  0  0  0  0  0  # atno 11005 bound_to 11000
  146.0966  140.7593  142.9569 LP  0  0  0  0  0  0  0  0  0  0  0  0  # atno 17320 bound_to 7965
  144.7027  140.3722  143.7143 LP  0  0  0  0  0  0  0  0  0  0  0  0  # atno 17321 bound_to 7965
  140.1275  143.4555  152.2275 LP  0  0  0  0  0  0  0  0  0  0  0  0  # atno 17342 bound_to 10162
  139.5684  144.7449  151.3958 LP  0  0  0  0  0  0  0  0  0  0  0  0  # atno 17343 bound_to 10162
  155.9805  130.4806  150.6777 LP  0  0  0  0  0  0  0  0  0  0  0  0  # atno 17370 bound_to 10713
  157.4381  131.0858  151.0972 LP  0  0  0  0  0  0  0  0  0  0  0  0  # atno 17371 bound_to 10713
  141.0115  134.1014  157.4216 LP  0  0  0  0  0  0  0  0  0  0  0  0  # atno 17394 bound_to 11000
  139.8881  135.0095  156.6601 LP  0  0  0  0  0  0  0  0  0  0  0  0  # atno 17395 bound_to 11000

$$$$
