AV-unprocessed.smi:1754|AV-procd|sdf|7064|dock4
  -GOLD-   22720 8283D 1   1.00000     0.00000
 Structure written by MMmdl.
 45 46  0  0  0  0  0  0  0  0  2 V2000
  145.8120  131.8996  149.4215 C   0  0  0  0  0  0  0  0  0  0  0  0
  144.5054  132.1246  150.1990 C   0  0  0  0  0  0  0  0  0  0  0  0
  144.7246  132.6075  151.5643 N   0  0  0  0  0  0  0  0  0  0  0  0
  145.9703  132.2082  152.2184 C   0  0  0  0  0  0  0  0  0  0  0  0
  147.1217  133.1920  151.9600 C   0  0  0  0  0  0  0  0  0  0  0  0
  144.2398  133.8863  151.9211 C   0  0  0  0  0  0  0  0  0  0  0  0
  144.6362  135.0590  151.2359 C   0  0  0  0  0  0  0  0  0  0  0  0
  144.1169  136.3097  151.6268 C   0  0  0  0  0  0  0  0  0  0  0  0
  143.1964  136.3854  152.6925 C   0  0  0  0  0  0  0  0  0  0  0  0
  142.7169  137.6714  153.0591 N   0  0  0  0  0  0  0  0  0  0  0  0
  141.5708  138.0005  153.6872 C   0  0  0  0  0  0  0  0  0  0  0  0
  140.6886  137.2024  153.9948 O   0  0  0  0  0  0  0  0  0  0  0  0
  141.4342  139.3170  153.9302 N   0  0  0  0  0  0  0  0  0  0  0  0
  140.3216  140.0045  154.5884 C   0  0  2  0  0  0  0  0  0  0  0  0
  139.0678  140.0729  153.6909 C   0  0  0  0  0  0  0  0  0  0  0  0
  138.0988  141.1164  154.2625 C   0  0  0  0  0  0  0  0  0  0  0  0
  139.1288  142.3402  155.1587 S   0  0  0  0  0  0  0  0  0  0  0  0
  139.1804  143.5992  154.4004 O   0  0  0  0  0  0  0  0  0  0  0  0
  138.7491  142.3253  156.5796 O   0  0  0  0  0  0  0  0  0  0  0  0
  140.7114  141.4436  154.9476 C   0  0  0  0  0  0  0  0  0  0  0  0
  142.8368  135.1862  153.3526 C   0  0  0  0  0  0  0  0  0  0  0  0
  143.3611  134.0097  152.9462 N   0  3  0  0  0  0  0  0  0  0  0  0
  145.5985  131.5881  148.3990 H   0  0  0  0  0  0  0  0  0  0  0  0
  146.4358  131.1289  149.8735 H   0  0  0  0  0  0  0  0  0  0  0  0
  146.3992  132.8168  149.3697 H   0  0  0  0  0  0  0  0  0  0  0  0
  143.9027  132.8558  149.6592 H   0  0  0  0  0  0  0  0  0  0  0  0
  143.9153  131.2077  150.2199 H   0  0  0  0  0  0  0  0  0  0  0  0
  145.8262  132.0838  153.2909 H   0  0  0  0  0  0  0  0  0  0  0  0
  146.2511  131.2213  151.8487 H   0  0  0  0  0  0  0  0  0  0  0  0
  148.0352  132.8506  152.4477 H   0  0  0  0  0  0  0  0  0  0  0  0
  146.8926  134.1852  152.3472 H   0  0  0  0  0  0  0  0  0  0  0  0
  147.3337  133.2877  150.8947 H   0  0  0  0  0  0  0  0  0  0  0  0
  145.3462  135.0156  150.4238 H   0  0  0  0  0  0  0  0  0  0  0  0
  144.4264  137.2049  151.1073 H   0  0  0  0  0  0  0  0  0  0  0  0
  143.3048  138.4452  152.7858 H   0  0  0  0  0  0  0  0  0  0  0  0
  142.1648  139.9147  153.5707 H   0  0  0  0  0  0  0  0  0  0  0  0
  140.0618  139.4960  155.5186 H   0  0  0  0  0  0  0  0  0  0  0  0
  139.3642  140.3887  152.6897 H   0  0  0  0  0  0  0  0  0  0  0  0
  138.5851  139.1010  153.5850 H   0  0  0  0  0  0  0  0  0  0  0  0
  137.5116  141.6132  153.4901 H   0  0  0  0  0  0  0  0  0  0  0  0
  137.4152  140.6629  154.9804 H   0  0  0  0  0  0  0  0  0  0  0  0
  141.3093  141.5156  155.8564 H   0  0  0  0  0  0  0  0  0  0  0  0
  141.2562  141.9215  154.1324 H   0  0  0  0  0  0  0  0  0  0  0  0
  142.1644  135.1144  154.1939 H   0  0  0  0  0  0  0  0  0  0  0  0
  143.0793  133.1644  153.4429 H   0  0  0  0  0  0  0  0  0  0  0  0
  1  2  1  0  0  0  0
  1 23  1  0  0  0  0
  1 24  1  0  0  0  0
  1 25  1  0  0  0  0
  2  3  1  0  0  0  0
  2 26  1  0  0  0  0
  2 27  1  0  0  0  0
  3  4  1  0  0  0  0
  3  6  1  0  0  0  0
  4  5  1  0  0  0  0
  4 28  1  0  0  0  0
  4 29  1  0  0  0  0
  5 30  1  0  0  0  0
  5 31  1  0  0  0  0
  5 32  1  0  0  0  0
  6 22  1  0  0  0  0
  6  7  2  0  0  0  0
  7  8  1  0  0  0  0
  7 33  1  0  0  0  0
  8  9  2  0  0  0  0
  8 34  1  0  0  0  0
  9 10  1  0  0  0  0
  9 21  1  0  0  0  0
 10 11  1  0  0  0  0
 10 35  1  0  0  0  0
 11 12  2  0  0  0  0
 11 13  1  0  0  0  0
 13 14  1  0  0  0  0
 13 36  1  0  0  0  0
 14 20  1  0  0  0  0
 14 15  1  0  0  0  0
 14 37  1  0  0  0  0
 15 16  1  0  0  0  0
 15 38  1  0  0  0  0
 15 39  1  0  0  0  0
 16 17  1  0  0  0  0
 16 40  1  0  0  0  0
 16 41  1  0  0  0  0
 17 18  2  0  0  0  0
 17 19  2  0  0  0  0
 17 20  1  0  0  0  0
 20 42  1  0  0  0  0
 20 43  1  0  0  0  0
 21 22  2  0  0  0  0
 21 44  1  0  0  0  0
 22 45  1  0  0  0  0
M  CHG  1  22   1
M  END
> <s_m_source_file>
AV-unprocessed.smi

> <i_m_source_file_index>
1754

> <i_lp_mmshare_version>
43012

> <i_f3d_flags>
0

> <s_epik_input>
W0NIM11bQ0gyXU4oW0NIMl1bQ0gzXSljMVtjSF1bY0hdYyhbY0hdbjEpW05IXUMoPU8pW05IXVtDQEBIXShbQ0gyXTIpW0NIMl1bQ0gyXVMyKD1PKT1P

> <s_epik_cmdline>
J2VwaWtfcHl0aG9uJywgJy1waCcsICc3LjAnLCAnLXRuJywgJzgnLCAnLW1hJywgJzIwMCcsICctbWV0YWxfYmluZGluZycsICctaW1hZScsICc8aW5maWxlLm1hZT4nLCAnLW9tYWUnLCAnPG91dGZpbGUubWFlPic=

> <r_lp_tautomer_probability>
0.999994

> <r_epik_Ionization_Penalty>
0.271106

> <r_epik_Ionization_Penalty_Charging>
0.271085

> <r_epik_Ionization_Penalty_Neutral>
2.10634e-05

> <r_epik_State_Penalty>
0.017795

> <r_epik_Charging_Adjusted_Penalty>
0.28888

> <i_epik_Tot_Q>
1

> <i_epik_Tot_abs_Q>
1

> <r_epik_Metal_State_Penalty>
0.0544868

> <b_epik_Metal_Only>
0

> <s_lp_Force_Field>
OPLS_2005

> <r_lp_Energy>
28.7888

> <b_lp_Chiralities_Consistent>
1

> <s_lp_Variant>
AV-unprocessed.smi:1754-1

> <Gold.Version>
5.8.1

> <Gold.Id.Protein>
6NUR|6NUR_protein|mol2

> <Gold.PLP.Fitness>
49.5965

> <Gold.PLP.PLP>
-37.6385

> <Gold.PLP.part.hbond>
-4.3513

> <Gold.PLP.part.metal>
0.0000

> <Gold.PLP.part.buried>
-4.3806

> <Gold.PLP.part.nonpolar>
-29.7371

> <Gold.PLP.part.repulsive>
0.1887

> <Gold.PLP.ligand.clash>
0.0000

> <Gold.PLP.ligand.torsion>
1.9580

> <Gold.PLP.Chemscore.Hbond>
5.0000

> <Gold.PLP.Chemscore.CHOScore>
0.0000

> <Gold.PLP.Chemscore.Metal>
0.0000

> <Gold.Chemscore.Hbonds>
donor molecule, donor type, donor heavy atom, donor atom, acceptor molecule, acceptor atom, score
      L1  H    10    35       P1 10175  0.98
      L1  H    13    36       P1 10175  1.00
      L1  H    22    45       P1 10957  2.00
      P1  H 10162 10167       L1    18  0.68

> <Gold.PLP.Chemscore.Internal.Correction>
0.8740

> <Gold.Rescore>
     Score         DG    S(hbond)    S(metal)    S(lipo)     H(rot)  DE(clash)    DE(int)     intcor
     18.33     -22.61       3.60        0.00      74.41       1.41       2.19       2.09       ----

> <Gold.Chemscore.Fitness>
18.3277

> <Gold.Chemscore.DG>
-22.6074

> <Gold.Chemscore.ZeroCoef>
-5.4800

> <Gold.Chemscore.Hbond>
3.5998

> <Gold.Chemscore.Metal>
0.0000

> <Gold.Chemscore.Lipo>
74.4112

> <Gold.Chemscore.Internal_Hbond>
0.0000

> <Gold.Chemscore.DEClash>
2.1922

> <Gold.Chemscore.DEInternal>
2.0875

> <Gold.Chemscore.Rot>
1.4070

> <Gold.Chemscore.Internal.Correction>
   9.000000E+99

> <Gold.Chemscore.Hbonds>
donor molecule, donor type, donor heavy atom, donor atom, acceptor molecule, acceptor atom, score
      L1  H    10    35       P1 10175  0.89
      L1  H    13    36       P1 10175  0.85
      L1  H    22    45       P1 10957  0.92
      P1  H 10162 10167       L1    18  0.67

> <Gold.Chemscore.Hbond.Weighted>
-12.0232

> <Gold.Chemscore.Metal.Weighted>
-0.0000

> <Gold.Chemscore.Lipo.Weighted>
-8.7061

> <Gold.Chemscore.Internal_Hbond.Weighted>
0.0000

> <Gold.Chemscore.DEClash.Weighted>
2.1922

> <Gold.Chemscore.DEInternal.Weighted>
2.0875

> <Gold.Chemscore.Rot.Weighted>
3.6020

> <Gold.Chemscore.Internal.Correction.Weighted>
   9.000000E+99

> <Gold.Protein.RotatedTorsions>
[ 6907 6896 6895 6894 ] final  -58.50 input  -60.11 | X-H torsion
[ 7974 7965 7964 7962 ] final  162.46 input  175.53 | X-H torsion
[ 8008 7997 7996 7995 ] final  -81.14 input   59.86 | X-H torsion
[ 10167 10162 10161 10158 ] final -146.81 input  -65.29 | X-H torsion
[ 10718 10713 10712 10709 ] final -154.25 input   66.30 | X-H torsion
[ 10763 10752 10751 10750 ] final  -16.08 input  -60.55 | X-H torsion
[ 11005 11000 10999 10996 ] final  -51.38 input  -57.11 | X-H torsion

> <Gold.Protein.ActiveResidues>
 VAL166  LYS551  ARG553  GLY616  TRP617  ASP618  TYR619  PRO620  LYS621  CYS622 
 ASP623  PHE694  ASN695  SER759  ASP760  ASP761  ALA762  ILE779  LEU786  VAL792 
 PHE793  MET794  SER795  GLU796  ALA797  LYS798  CYS799  TRP800  GLU811  SER814 

> <Gold.Protein.RotatedAtoms>
  150.8002  134.7091  159.6592 H   0  0  0  0  0  0  0  0  0  0  0  0  # atno 6907 bound_to 6896
  152.4118  134.6107  160.0034 H   0  0  0  0  0  0  0  0  0  0  0  0  # atno 6908 bound_to 6896
  151.6348  133.3292  159.3153 H   0  0  0  0  0  0  0  0  0  0  0  0  # atno 6909 bound_to 6896
  144.7636  139.8043  143.6323 H   0  0  0  0  0  0  0  0  0  0  0  0  # atno 7974 bound_to 7965
  154.5953  140.0652  156.9295 H   0  0  0  0  0  0  0  0  0  0  0  0  # atno 8008 bound_to 7997
  155.2224  140.3331  155.4295 H   0  0  0  0  0  0  0  0  0  0  0  0  # atno 8009 bound_to 7997
  156.2283  140.1829  156.7291 H   0  0  0  0  0  0  0  0  0  0  0  0  # atno 8010 bound_to 7997
  139.7679  143.8281  152.2619 H   0  0  0  0  0  0  0  0  0  0  0  0  # atno 10167 bound_to 10162
  156.4968  130.8373  151.2593 H   0  0  0  0  0  0  0  0  0  0  0  0  # atno 10718 bound_to 10713
  153.5530  135.7011  153.5582 H   0  0  0  0  0  0  0  0  0  0  0  0  # atno 10763 bound_to 10752
  153.3497  135.3998  155.1637 H   0  0  0  0  0  0  0  0  0  0  0  0  # atno 10764 bound_to 10752
  154.8658  135.3762  154.5043 H   0  0  0  0  0  0  0  0  0  0  0  0  # atno 10765 bound_to 10752
  141.0868  133.6641  156.3869 H   0  0  0  0  0  0  0  0  0  0  0  0  # atno 11005 bound_to 11000
  146.1722  139.4878  142.9920 LP  0  0  0  0  0  0  0  0  0  0  0  0  # atno 17320 bound_to 7965
  145.6541  141.0256  143.1744 LP  0  0  0  0  0  0  0  0  0  0  0  0  # atno 17321 bound_to 7965
  139.8306  144.7255  150.9455 LP  0  0  0  0  0  0  0  0  0  0  0  0  # atno 17342 bound_to 10162
  140.7812  143.4073  151.1050 LP  0  0  0  0  0  0  0  0  0  0  0  0  # atno 17343 bound_to 10162
  157.7467  130.9995  150.2892 LP  0  0  0  0  0  0  0  0  0  0  0  0  # atno 17370 bound_to 10713
  156.3372  130.3809  149.7440 LP  0  0  0  0  0  0  0  0  0  0  0  0  # atno 17371 bound_to 10713
  140.5344  134.6181  157.5360 LP  0  0  0  0  0  0  0  0  0  0  0  0  # atno 17394 bound_to 11000
  139.9687  134.7329  156.0085 LP  0  0  0  0  0  0  0  0  0  0  0  0  # atno 17395 bound_to 11000

$$$$
