AV-unprocessed.smi:2138|AV-procd|sdf|8710|dock5
  -GOLD-   2272011473D 1   1.00000     0.00000
 Structure written by MMmdl.
 46 47  0  0  0  0  0  0  0  0  1 V2000
  138.7807  141.1831  153.2974 C   0  0  0  0  0  0  0  0  0  0  0  0
  139.9417  141.9319  153.6112 O   0  0  0  0  0  0  0  0  0  0  0  0
  140.3221  141.8011  154.9707 C   0  0  0  0  0  0  0  0  0  0  0  0
  141.7662  142.2842  155.1347 C   0  0  0  0  0  0  0  0  0  0  0  0
  142.4572  141.3739  155.9790 O   0  0  0  0  0  0  0  0  0  0  0  0
  143.8303  141.4619  156.0420 C   0  0  0  0  0  0  0  0  0  0  0  0
  144.6859  140.4112  156.4571 C   0  0  0  0  0  0  0  0  0  0  0  0
  146.0751  140.6391  156.4749 C   0  0  0  0  0  0  0  0  0  0  0  0
  146.5725  141.9006  156.0935 C   0  0  0  0  0  0  0  0  0  0  0  0
  147.9795  142.0979  156.1042 N   0  0  0  0  0  0  0  0  0  0  0  0
  148.9519  141.1693  156.1605 C   0  0  0  0  0  0  0  0  0  0  0  0
  148.7553  139.9542  156.1855 O   0  0  0  0  0  0  0  0  0  0  0  0
  150.3925  141.7062  156.1682 C   0  0  2  0  0  0  0  0  0  0  0  0
  151.4204  140.5649  156.2817 C   0  0  0  0  0  0  0  0  0  0  0  0
  152.0792  140.7907  157.6313 C   0  0  0  0  0  0  0  0  0  0  0  0
  152.9226  140.0215  158.0902 O   0  0  0  0  0  0  0  0  0  0  0  0
  151.6278  141.9077  158.2169 N   0  0  0  0  0  0  0  0  0  0  0  0
  152.0961  142.4345  159.5073 C   0  0  0  0  0  0  0  0  0  0  0  0
  151.5740  143.8521  159.8006 C   0  0  0  0  0  0  0  0  0  0  0  0
  153.6288  142.3596  159.5920 C   0  0  0  0  0  0  0  0  0  0  0  0
  150.6715  142.6230  157.3793 C   0  0  0  0  0  0  0  0  0  0  0  0
  145.6364  142.8792  155.6820 C   0  0  0  0  0  0  0  0  0  0  0  0
  144.3037  142.6675  155.6601 N   0  0  0  0  0  0  0  0  0  0  0  0
  138.5322  141.3169  152.2446 H   0  0  0  0  0  0  0  0  0  0  0  0
  137.9266  141.5142  153.8894 H   0  0  0  0  0  0  0  0  0  0  0  0
  138.9379  140.1181  153.4737 H   0  0  0  0  0  0  0  0  0  0  0  0
  139.6538  142.3668  155.6217 H   0  0  0  0  0  0  0  0  0  0  0  0
  140.2536  140.7520  155.2621 H   0  0  0  0  0  0  0  0  0  0  0  0
  142.2500  142.3077  154.1571 H   0  0  0  0  0  0  0  0  0  0  0  0
  141.7791  143.2954  155.5445 H   0  0  0  0  0  0  0  0  0  0  0  0
  144.3094  139.4455  156.7581 H   0  0  0  0  0  0  0  0  0  0  0  0
  146.7480  139.8527  156.7848 H   0  0  0  0  0  0  0  0  0  0  0  0
  148.2850  143.0540  155.9952 H   0  0  0  0  0  0  0  0  0  0  0  0
  150.5702  142.2647  155.2474 H   0  0  0  0  0  0  0  0  0  0  0  0
  150.9784  139.5679  156.2389 H   0  0  0  0  0  0  0  0  0  0  0  0
  152.1714  140.6327  155.4941 H   0  0  0  0  0  0  0  0  0  0  0  0
  151.6932  141.7923  160.2925 H   0  0  0  0  0  0  0  0  0  0  0  0
  151.8563  144.1679  160.8053 H   0  0  0  0  0  0  0  0  0  0  0  0
  150.4860  143.8920  159.7407 H   0  0  0  0  0  0  0  0  0  0  0  0
  151.9799  144.5861  159.1037 H   0  0  0  0  0  0  0  0  0  0  0  0
  153.9837  142.6963  160.5664 H   0  0  0  0  0  0  0  0  0  0  0  0
  154.0982  142.9857  158.8326 H   0  0  0  0  0  0  0  0  0  0  0  0
  153.9850  141.3390  159.4487 H   0  0  0  0  0  0  0  0  0  0  0  0
  151.1120  143.5665  157.0548 H   0  0  0  0  0  0  0  0  0  0  0  0
  149.7614  142.8610  157.9318 H   0  0  0  0  0  0  0  0  0  0  0  0
  145.9437  143.8546  155.3380 H   0  0  0  0  0  0  0  0  0  0  0  0
  1  2  1  0  0  0  0
  1 24  1  0  0  0  0
  1 25  1  0  0  0  0
  1 26  1  0  0  0  0
  2  3  1  0  0  0  0
  3  4  1  0  0  0  0
  3 27  1  0  0  0  0
  3 28  1  0  0  0  0
  4  5  1  0  0  0  0
  4 29  1  0  0  0  0
  4 30  1  0  0  0  0
  5  6  1  0  0  0  0
  6 23  1  0  0  0  0
  6  7  2  0  0  0  0
  7  8  1  0  0  0  0
  7 31  1  0  0  0  0
  8  9  2  0  0  0  0
  8 32  1  0  0  0  0
  9 10  1  0  0  0  0
  9 22  1  0  0  0  0
 10 11  1  0  0  0  0
 10 33  1  0  0  0  0
 11 12  2  0  0  0  0
 11 13  1  0  0  0  0
 13 21  1  0  0  0  0
 13 14  1  0  0  0  0
 13 34  1  0  0  0  0
 14 15  1  0  0  0  0
 14 35  1  0  0  0  0
 14 36  1  0  0  0  0
 15 16  2  0  0  0  0
 15 17  1  0  0  0  0
 17 18  1  0  0  0  0
 17 21  1  0  0  0  0
 18 19  1  0  0  0  0
 18 20  1  0  0  0  0
 18 37  1  0  0  0  0
 19 38  1  0  0  0  0
 19 39  1  0  0  0  0
 19 40  1  0  0  0  0
 20 41  1  0  0  0  0
 20 42  1  0  0  0  0
 20 43  1  0  0  0  0
 21 44  1  0  0  0  0
 21 45  1  0  0  0  0
 22 23  2  0  0  0  0
 22 46  1  0  0  0  0
M  END
> <s_m_source_file>
AV-unprocessed.smi

> <i_m_source_file_index>
2138

> <i_lp_mmshare_version>
43012

> <i_f3d_flags>
0

> <s_epik_input>
W0NIM11PW0NIMl1bQ0gyXU9jMVtjSF1bY0hdYyhbY0hdbjEpW05IXUMoPU8pW0NAQEhdMltDSDJdQyg9TylOKFtDSDJdMilbQ0hdKFtDSDNdKVtDSDNd

> <s_epik_cmdline>
J2VwaWtfcHl0aG9uJywgJy1waCcsICc3LjAnLCAnLXRuJywgJzgnLCAnLW1hJywgJzIwMCcsICctbWV0YWxfYmluZGluZycsICctaW1hZScsICc8aW5maWxlLm1hZT4nLCAnLW9tYWUnLCAnPG91dGZpbGUubWFlPic=

> <r_lp_tautomer_probability>
1

> <r_epik_Ionization_Penalty>
1.72652e-05

> <r_epik_Ionization_Penalty_Charging>
0

> <r_epik_Ionization_Penalty_Neutral>
1.72652e-05

> <r_epik_State_Penalty>
-0

> <r_epik_Charging_Adjusted_Penalty>
0

> <i_epik_Tot_Q>
0

> <i_epik_Tot_abs_Q>
0

> <r_epik_Metal_State_Penalty>
-0

> <b_epik_Metal_Only>
0

> <s_lp_Force_Field>
OPLS_2005

> <r_lp_Energy>
27.6576

> <b_lp_Chiralities_Consistent>
1

> <s_lp_Variant>
AV-unprocessed.smi:2138-1

> <Gold.Version>
5.8.1

> <Gold.Id.Protein>
6NUR|6NUR_protein|mol2

> <Gold.PLP.Fitness>
38.6375

> <Gold.PLP.PLP>
-31.5241

> <Gold.PLP.part.hbond>
-3.0000

> <Gold.PLP.part.metal>
0.0000

> <Gold.PLP.part.buried>
-4.5439

> <Gold.PLP.part.nonpolar>
-23.7222

> <Gold.PLP.part.repulsive>
0.4643

> <Gold.PLP.ligand.clash>
0.0000

> <Gold.PLP.ligand.torsion>
1.0149

> <Gold.PLP.Chemscore.Hbond>
3.0000

> <Gold.PLP.Chemscore.CHOScore>
0.0000

> <Gold.PLP.Chemscore.Metal>
0.0000

> <Gold.Chemscore.Hbonds>
donor molecule, donor type, donor heavy atom, donor atom, acceptor molecule, acceptor atom, score
      L1  H    10    33       P1  8028  1.00
      P1  H  7997  8008       L1    16  1.00
      P1  H 10162 10167       L1     2  0.99

> <Gold.PLP.Chemscore.Internal.Correction>
0.1432

> <Gold.Rescore>
     Score         DG    S(hbond)    S(metal)    S(lipo)     H(rot)  DE(clash)    DE(int)     intcor
     14.55     -17.14       2.38        0.00      75.43       2.00       0.24       2.34       ----

> <Gold.Chemscore.Fitness>
14.5505

> <Gold.Chemscore.DG>
-17.1367

> <Gold.Chemscore.ZeroCoef>
-5.4800

> <Gold.Chemscore.Hbond>
2.3833

> <Gold.Chemscore.Metal>
0.0000

> <Gold.Chemscore.Lipo>
75.4314

> <Gold.Chemscore.Internal_Hbond>
0.0000

> <Gold.Chemscore.DEClash>
0.2448

> <Gold.Chemscore.DEInternal>
2.3414

> <Gold.Chemscore.Rot>
2.0035

> <Gold.Chemscore.Internal.Correction>
   9.000000E+99

> <Gold.Chemscore.Hbonds>
donor molecule, donor type, donor heavy atom, donor atom, acceptor molecule, acceptor atom, score
      L1  H    10    33       P1  8028  0.85
      P1  H  7997  8008       L1    16  0.67
      P1  H 10162 10167       L1     2  0.53

> <Gold.Chemscore.Hbond.Weighted>
-7.9603

> <Gold.Chemscore.Metal.Weighted>
-0.0000

> <Gold.Chemscore.Lipo.Weighted>
-8.8255

> <Gold.Chemscore.Internal_Hbond.Weighted>
0.0000

> <Gold.Chemscore.DEClash.Weighted>
0.2448

> <Gold.Chemscore.DEInternal.Weighted>
2.3414

> <Gold.Chemscore.Rot.Weighted>
5.1290

> <Gold.Chemscore.Internal.Correction.Weighted>
   9.000000E+99

> <Gold.Protein.RotatedTorsions>
[ 6907 6896 6895 6894 ] final  -75.75 input  -60.11 | X-H torsion
[ 7974 7965 7964 7962 ] final  -95.71 input  175.53 | X-H torsion
[ 8008 7997 7996 7995 ] final  -79.12 input   59.86 | X-H torsion
[ 10167 10162 10161 10158 ] final -114.28 input  -65.29 | X-H torsion
[ 10718 10713 10712 10709 ] final  176.90 input   66.30 | X-H torsion
[ 10763 10752 10751 10750 ] final  -27.40 input  -60.55 | X-H torsion
[ 11005 11000 10999 10996 ] final   74.21 input  -57.11 | X-H torsion

> <Gold.Protein.ActiveResidues>
 VAL166  LYS551  ARG553  GLY616  TRP617  ASP618  TYR619  PRO620  LYS621  CYS622 
 ASP623  PHE694  ASN695  SER759  ASP760  ASP761  ALA762  ILE779  LEU786  VAL792 
 PHE793  MET794  SER795  GLU796  ALA797  LYS798  CYS799  TRP800  GLU811  SER814 

> <Gold.Protein.RotatedAtoms>
  150.7049  134.4675  159.5409 H   0  0  0  0  0  0  0  0  0  0  0  0  # atno 6907 bound_to 6896
  152.2338  134.8293  160.0479 H   0  0  0  0  0  0  0  0  0  0  0  0  # atno 6908 bound_to 6896
  151.9100  133.3523  159.3897 H   0  0  0  0  0  0  0  0  0  0  0  0  # atno 6909 bound_to 6896
  145.3564  140.9485  143.2525 H   0  0  0  0  0  0  0  0  0  0  0  0  # atno 7974 bound_to 7965
  154.5755  140.0683  156.9027 H   0  0  0  0  0  0  0  0  0  0  0  0  # atno 8008 bound_to 7997
  155.2557  140.3355  155.4259 H   0  0  0  0  0  0  0  0  0  0  0  0  # atno 8009 bound_to 7997
  156.2150  140.1775  156.7594 H   0  0  0  0  0  0  0  0  0  0  0  0  # atno 8010 bound_to 7997
  140.1027  143.4598  152.1802 H   0  0  0  0  0  0  0  0  0  0  0  0  # atno 10167 bound_to 10162
  156.9134  130.9917  151.3017 H   0  0  0  0  0  0  0  0  0  0  0  0  # atno 10718 bound_to 10713
  153.7314  135.6938  153.4988 H   0  0  0  0  0  0  0  0  0  0  0  0  # atno 10763 bound_to 10752
  153.2133  135.4395  155.0404 H   0  0  0  0  0  0  0  0  0  0  0  0  # atno 10764 bound_to 10752
  154.8251  135.3442  154.6844 H   0  0  0  0  0  0  0  0  0  0  0  0  # atno 10765 bound_to 10752
  139.9402  134.7413  156.1120 H   0  0  0  0  0  0  0  0  0  0  0  0  # atno 11005 bound_to 11000
  144.8679  139.5081  143.6781 LP  0  0  0  0  0  0  0  0  0  0  0  0  # atno 17320 bound_to 7965
  146.2946  139.7239  142.9136 LP  0  0  0  0  0  0  0  0  0  0  0  0  # atno 17321 bound_to 7965
  139.5662  144.7436  151.4015 LP  0  0  0  0  0  0  0  0  0  0  0  0  # atno 17342 bound_to 10162
  140.6969  143.7727  150.7341 LP  0  0  0  0  0  0  0  0  0  0  0  0  # atno 17343 bound_to 10162
  157.5953  130.8473  149.8720 LP  0  0  0  0  0  0  0  0  0  0  0  0  # atno 17370 bound_to 10713
  156.0525  130.3715  150.1167 LP  0  0  0  0  0  0  0  0  0  0  0  0  # atno 17371 bound_to 10713
  141.1033  133.6669  156.2805 LP  0  0  0  0  0  0  0  0  0  0  0  0  # atno 17394 bound_to 11000
  140.5971  134.5592  157.5511 LP  0  0  0  0  0  0  0  0  0  0  0  0  # atno 17395 bound_to 11000

$$$$
