AV-unprocessed.smi:746|AV-procd|sdf|3578|dock7
  -GOLD-   22720 0573D 1   1.00000     0.00000
 Structure written by MMmdl.
 48 50  0  0  0  0  0  0  0  0  1 V2000
  145.7030  135.2254  151.7620 C   0  0  0  0  0  0  0  0  0  0  0  0
  145.5601  136.4856  151.1304 O   0  0  0  0  0  0  0  0  0  0  0  0
  145.4854  137.5529  152.0608 C   0  0  0  0  0  0  0  0  0  0  0  0
  146.5342  138.6098  151.7034 C   0  0  0  0  0  0  0  0  0  0  0  0
  146.1519  139.8533  152.2844 O   0  0  0  0  0  0  0  0  0  0  0  0
  146.9589  140.3989  153.2616 C   0  0  0  0  0  0  0  0  0  0  0  0
  146.6000  141.6445  153.8137 C   0  0  0  0  0  0  0  0  0  0  0  0
  147.4120  142.1990  154.8207 C   0  0  0  0  0  0  0  0  0  0  0  0
  148.5507  141.4903  155.2531 C   0  0  0  0  0  0  0  0  0  0  0  0
  149.3597  142.0761  156.2632 N   0  0  0  0  0  0  0  0  0  0  0  0
  150.4587  141.5701  156.8599 C   0  0  0  0  0  0  0  0  0  0  0  0
  150.8897  140.4426  156.6122 O   0  0  0  0  0  0  0  0  0  0  0  0
  151.0065  142.3740  157.8146 N   0  0  0  0  0  0  0  0  0  0  0  0
  150.3224  143.5774  158.3484 C   0  0  0  0  0  0  0  0  0  0  0  0
  151.2723  144.6868  158.8155 C   0  0  0  0  0  0  0  0  0  0  0  0
  152.3022  144.1409  159.7935 C   0  0  0  0  0  0  0  0  0  0  0  0
  153.1453  143.0751  159.0905 C   0  0  1  0  0  0  0  0  0  0  0  0
  154.0654  142.3237  160.0716 C   0  0  0  0  0  0  0  0  0  0  0  0
  153.4774  140.9139  160.2486 C   0  0  0  0  0  0  0  0  0  0  0  0
  152.1243  140.9235  159.5350 C   0  0  0  0  0  0  0  0  0  0  0  0
  152.2952  141.9717  158.4325 C   0  0  1  0  0  0  0  0  0  0  0  0
  148.8387  140.2559  154.6222 C   0  0  0  0  0  0  0  0  0  0  0  0
  148.0646  139.7196  153.6548 N   0  0  0  0  0  0  0  0  0  0  0  0
  145.7577  134.4413  151.0070 H   0  0  0  0  0  0  0  0  0  0  0  0
  144.8516  135.0103  152.4089 H   0  0  0  0  0  0  0  0  0  0  0  0
  146.6155  135.1832  152.3582 H   0  0  0  0  0  0  0  0  0  0  0  0
  144.4876  137.9945  152.0720 H   0  0  0  0  0  0  0  0  0  0  0  0
  145.6846  137.1687  153.0623 H   0  0  0  0  0  0  0  0  0  0  0  0
  147.4994  138.3007  152.1077 H   0  0  0  0  0  0  0  0  0  0  0  0
  146.6346  138.6935  150.6199 H   0  0  0  0  0  0  0  0  0  0  0  0
  145.7163  142.1635  153.4729 H   0  0  0  0  0  0  0  0  0  0  0  0
  147.1560  143.1523  155.2596 H   0  0  0  0  0  0  0  0  0  0  0  0
  149.0306  142.9588  156.6261 H   0  0  0  0  0  0  0  0  0  0  0  0
  149.6583  144.0343  157.6133 H   0  0  0  0  0  0  0  0  0  0  0  0
  149.6925  143.2622  159.1813 H   0  0  0  0  0  0  0  0  0  0  0  0
  151.7759  145.1316  157.9562 H   0  0  0  0  0  0  0  0  0  0  0  0
  150.7003  145.4862  159.2875 H   0  0  0  0  0  0  0  0  0  0  0  0
  152.9409  144.9466  160.1566 H   0  0  0  0  0  0  0  0  0  0  0  0
  151.7976  143.7208  160.6645 H   0  0  0  0  0  0  0  0  0  0  0  0
  153.7467  143.5702  158.3264 H   0  0  0  0  0  0  0  0  0  0  0  0
  155.0777  142.2556  159.6713 H   0  0  0  0  0  0  0  0  0  0  0  0
  154.1396  142.8413  161.0290 H   0  0  0  0  0  0  0  0  0  0  0  0
  154.1350  140.1833  159.7758 H   0  0  0  0  0  0  0  0  0  0  0  0
  153.3809  140.6348  161.2981 H   0  0  0  0  0  0  0  0  0  0  0  0
  151.8558  139.9409  159.1456 H   0  0  0  0  0  0  0  0  0  0  0  0
  151.3414  141.2318  160.2294 H   0  0  0  0  0  0  0  0  0  0  0  0
  152.9397  141.5374  157.6646 H   0  0  0  0  0  0  0  0  0  0  0  0
  149.7153  139.6786  154.8715 H   0  0  0  0  0  0  0  0  0  0  0  0
  1  2  1  0  0  0  0
  1 24  1  0  0  0  0
  1 25  1  0  0  0  0
  1 26  1  0  0  0  0
  2  3  1  0  0  0  0
  3  4  1  0  0  0  0
  3 27  1  0  0  0  0
  3 28  1  0  0  0  0
  4  5  1  0  0  0  0
  4 29  1  0  0  0  0
  4 30  1  0  0  0  0
  5  6  1  0  0  0  0
  6 23  1  0  0  0  0
  6  7  2  0  0  0  0
  7  8  1  0  0  0  0
  7 31  1  0  0  0  0
  8  9  2  0  0  0  0
  8 32  1  0  0  0  0
  9 10  1  0  0  0  0
  9 22  1  0  0  0  0
 10 11  1  0  0  0  0
 10 33  1  0  0  0  0
 11 12  2  0  0  0  0
 11 13  1  0  0  0  0
 13 21  1  0  0  0  0
 13 14  1  0  0  0  0
 14 15  1  0  0  0  0
 14 34  1  0  0  0  0
 14 35  1  0  0  0  0
 15 16  1  0  0  0  0
 15 36  1  0  0  0  0
 15 37  1  0  0  0  0
 16 17  1  0  0  0  0
 16 38  1  0  0  0  0
 16 39  1  0  0  0  0
 17 21  1  0  0  0  0
 17 18  1  0  0  0  0
 17 40  1  0  0  0  0
 18 19  1  0  0  0  0
 18 41  1  0  0  0  0
 18 42  1  0  0  0  0
 19 20  1  0  0  0  0
 19 43  1  0  0  0  0
 19 44  1  0  0  0  0
 20 21  1  0  0  0  0
 20 45  1  0  0  0  0
 20 46  1  0  0  0  0
 21 47  1  0  0  0  0
 22 23  2  0  0  0  0
 22 48  1  0  0  0  0
M  END
> <s_m_source_file>
AV-unprocessed.smi

> <i_m_source_file_index>
746

> <i_lp_mmshare_version>
43012

> <i_f3d_flags>
0

> <s_epik_input>
W0NIM11PW0NIMl1bQ0gyXU9jMVtjSF1bY0hdYyhbY0hdbjEpW05IXUMoPU8pTihbQ0gyXVtDSDJdW0NIMl0yKVtDQEhdKFtDQEBIXTIzKVtDSDJdW0NIMl1bQ0gyXTM=

> <s_epik_cmdline>
J2VwaWtfcHl0aG9uJywgJy1waCcsICc3LjAnLCAnLXRuJywgJzgnLCAnLW1hJywgJzIwMCcsICctbWV0YWxfYmluZGluZycsICctaW1hZScsICc8aW5maWxlLm1hZT4nLCAnLW9tYWUnLCAnPG91dGZpbGUubWFlPic=

> <r_lp_tautomer_probability>
1

> <r_epik_Ionization_Penalty>
8.29966e-05

> <r_epik_Ionization_Penalty_Charging>
0

> <r_epik_Ionization_Penalty_Neutral>
8.29966e-05

> <r_epik_State_Penalty>
-0

> <r_epik_Charging_Adjusted_Penalty>
0

> <i_epik_Tot_Q>
0

> <i_epik_Tot_abs_Q>
0

> <r_epik_Metal_State_Penalty>
-0

> <b_epik_Metal_Only>
0

> <s_lp_Force_Field>
OPLS_2005

> <r_lp_Energy>
59.487

> <b_lp_Chiralities_Consistent>
1

> <s_lp_Variant>
AV-unprocessed.smi:746-3

> <Gold.Version>
5.8.1

> <Gold.Id.Protein>
6NUR|6NUR_protein|mol2

> <Gold.PLP.Fitness>
44.1806

> <Gold.PLP.PLP>
-43.8322

> <Gold.PLP.part.hbond>
-1.0000

> <Gold.PLP.part.metal>
0.0000

> <Gold.PLP.part.buried>
-1.8487

> <Gold.PLP.part.nonpolar>
-44.4808

> <Gold.PLP.part.repulsive>
4.2649

> <Gold.PLP.ligand.clash>
0.2220

> <Gold.PLP.ligand.torsion>
0.8974

> <Gold.PLP.Chemscore.Hbond>
0.7200

> <Gold.PLP.Chemscore.CHOScore>
0.0000

> <Gold.PLP.Chemscore.Metal>
0.0000

> <Gold.Chemscore.Hbonds>
donor molecule, donor type, donor heavy atom, donor atom, acceptor molecule, acceptor atom, score
      L1  H    10    33       P1  8028  0.58

> <Gold.PLP.Chemscore.Internal.Correction>
0.2052

> <Gold.Rescore>
     Score         DG    S(hbond)    S(metal)    S(lipo)     H(rot)  DE(clash)    DE(int)     intcor
     15.11     -19.21       0.83        0.00     126.88       1.52       1.99       2.11       ----

> <Gold.Chemscore.Fitness>
15.1147

> <Gold.Chemscore.DG>
-19.2112

> <Gold.Chemscore.ZeroCoef>
-5.4800

> <Gold.Chemscore.Hbond>
0.8294

> <Gold.Chemscore.Metal>
0.0000

> <Gold.Chemscore.Lipo>
126.8801

> <Gold.Chemscore.Internal_Hbond>
0.0000

> <Gold.Chemscore.DEClash>
1.9853

> <Gold.Chemscore.DEInternal>
2.1111

> <Gold.Chemscore.Rot>
1.5172

> <Gold.Chemscore.Internal.Correction>
   9.000000E+99

> <Gold.Chemscore.Hbonds>
donor molecule, donor type, donor heavy atom, donor atom, acceptor molecule, acceptor atom, score
      L1  H    10    33       P1  8028  0.54

> <Gold.Chemscore.Hbond.Weighted>
-2.7703

> <Gold.Chemscore.Metal.Weighted>
-0.0000

> <Gold.Chemscore.Lipo.Weighted>
-14.8450

> <Gold.Chemscore.Internal_Hbond.Weighted>
0.0000

> <Gold.Chemscore.DEClash.Weighted>
1.9853

> <Gold.Chemscore.DEInternal.Weighted>
2.1111

> <Gold.Chemscore.Rot.Weighted>
3.8841

> <Gold.Chemscore.Internal.Correction.Weighted>
   9.000000E+99

> <Gold.Protein.RotatedTorsions>
[ 6907 6896 6895 6894 ] final  -63.76 input  -60.11 | X-H torsion
[ 7974 7965 7964 7962 ] final   96.20 input  175.53 | X-H torsion
[ 8008 7997 7996 7995 ] final  -60.99 input   59.86 | X-H torsion
[ 10167 10162 10161 10158 ] final   38.37 input  -65.29 | X-H torsion
[ 10718 10713 10712 10709 ] final   98.67 input   66.30 | X-H torsion
[ 10763 10752 10751 10750 ] final -124.21 input  -60.55 | X-H torsion
[ 11005 11000 10999 10996 ] final  -77.53 input  -57.11 | X-H torsion

> <Gold.Protein.ActiveResidues>
 VAL166  LYS551  ARG553  GLY616  TRP617  ASP618  TYR619  PRO620  LYS621  CYS622 
 ASP623  PHE694  ASN695  SER759  ASP760  ASP761  ALA762  ILE779  LEU786  VAL792 
 PHE793  MET794  SER795  GLU796  ALA797  LYS798  CYS799  TRP800  GLU811  SER814 

> <Gold.Protein.RotatedAtoms>
  150.7628  134.6390  159.6226 H   0  0  0  0  0  0  0  0  0  0  0  0  # atno 6907 bound_to 6896
  152.3644  134.6822  160.0205 H   0  0  0  0  0  0  0  0  0  0  0  0  # atno 6908 bound_to 6896
  151.7202  133.3278  159.3349 H   0  0  0  0  0  0  0  0  0  0  0  0  # atno 6909 bound_to 6896
  145.4420  139.2300  143.3087 H   0  0  0  0  0  0  0  0  0  0  0  0  # atno 7974 bound_to 7965
  154.4425  140.1027  156.6360 H   0  0  0  0  0  0  0  0  0  0  0  0  # atno 8008 bound_to 7997
  155.5553  140.3486  155.4459 H   0  0  0  0  0  0  0  0  0  0  0  0  # atno 8009 bound_to 7997
  156.0499  140.1301  157.0051 H   0  0  0  0  0  0  0  0  0  0  0  0  # atno 8010 bound_to 7997
  140.3943  144.1811  150.6131 H   0  0  0  0  0  0  0  0  0  0  0  0  # atno 10167 bound_to 10162
  157.6891  131.0647  150.4831 H   0  0  0  0  0  0  0  0  0  0  0  0  # atno 10718 bound_to 10713
  154.8720  135.4071  154.3069 H   0  0  0  0  0  0  0  0  0  0  0  0  # atno 10763 bound_to 10752
  153.3919  135.7015  153.6494 H   0  0  0  0  0  0  0  0  0  0  0  0  # atno 10764 bound_to 10752
  153.5273  135.3675  155.2631 H   0  0  0  0  0  0  0  0  0  0  0  0  # atno 10765 bound_to 10752
  141.1661  133.7026  156.7835 H   0  0  0  0  0  0  0  0  0  0  0  0  # atno 11005 bound_to 11000
  146.2551  140.5169  142.8877 LP  0  0  0  0  0  0  0  0  0  0  0  0  # atno 17320 bound_to 7965
  144.8115  140.6394  143.6412 LP  0  0  0  0  0  0  0  0  0  0  0  0  # atno 17321 bound_to 7965
  140.4807  143.2380  151.8959 LP  0  0  0  0  0  0  0  0  0  0  0  0  # atno 17342 bound_to 10162
  139.4787  144.5272  151.8718 LP  0  0  0  0  0  0  0  0  0  0  0  0  # atno 17343 bound_to 10162
  156.5162  130.4151  149.6275 LP  0  0  0  0  0  0  0  0  0  0  0  0  # atno 17370 bound_to 10713
  156.3196  130.7273  151.2182 LP  0  0  0  0  0  0  0  0  0  0  0  0  # atno 17371 bound_to 10713
  140.2377  134.8637  157.3542 LP  0  0  0  0  0  0  0  0  0  0  0  0  # atno 17394 bound_to 11000
  140.1827  134.4470  155.7762 LP  0  0  0  0  0  0  0  0  0  0  0  0  # atno 17395 bound_to 11000

$$$$
