AV-unprocessed.smi:447|AV-procd|sdf|2603|dock10
  -GOLD-   2262023 03D 1   1.00000     0.00000
 Structure written by MMmdl.
 46 48  0  0  0  0  0  0  0  0  2 V2000
  151.9820  137.1181  158.6123 C   0  0  0  0  0  0  0  0  0  0  0  0
  151.4854  137.2117  157.1736 C   0  0  0  0  0  0  0  0  0  0  0  0
  150.3693  136.7858  156.8790 O   0  0  0  0  0  0  0  0  0  0  0  0
  152.3240  137.7695  156.2863 N   0  0  0  0  0  0  0  0  0  0  0  0
  152.0538  137.9267  154.8595 C   0  0  2  0  0  0  0  0  0  0  0  0
  153.2843  138.5178  154.1596 C   0  0  0  0  0  0  0  0  0  0  0  0
  150.8414  138.7726  154.5958 C   0  0  0  0  0  0  0  0  0  0  0  0
  149.7709  138.4236  153.8256 N   0  3  0  0  0  0  0  0  0  0  0  0
  148.8399  139.4622  153.8090 C   0  0  0  0  0  0  0  0  0  0  0  0
  147.6112  139.5734  153.1653 C   0  0  0  0  0  0  0  0  0  0  0  0
  146.9063  140.7807  153.3510 C   0  0  0  0  0  0  0  0  0  0  0  0
  147.4275  141.8192  154.1496 C   0  0  0  0  0  0  0  0  0  0  0  0
  148.6729  141.6932  154.7995 C   0  0  0  0  0  0  0  0  0  0  0  0
  149.3630  140.4953  154.6131 C   0  0  0  0  0  0  0  0  0  0  0  0
  150.5936  140.0221  155.0850 N   0  0  0  0  0  0  0  0  0  0  0  0
  151.4053  140.8696  155.9738 C   0  0  0  0  0  0  0  0  0  0  0  0
  150.7331  141.1221  157.3380 C   0  0  1  0  0  0  0  0  0  0  0  0
  150.8424  139.9738  158.1564 O   0  0  0  0  0  0  0  0  0  0  0  0
  151.2983  142.3616  158.0114 C   0  0  0  0  0  0  0  0  0  0  0  0
  151.9016  142.2745  159.2855 C   0  0  0  0  0  0  0  0  0  0  0  0
  152.4266  143.4268  159.9023 C   0  0  0  0  0  0  0  0  0  0  0  0
  152.3537  144.6714  159.2481 C   0  0  0  0  0  0  0  0  0  0  0  0
  151.7579  144.7630  157.9754 C   0  0  0  0  0  0  0  0  0  0  0  0
  151.2326  143.6109  157.3581 C   0  0  0  0  0  0  0  0  0  0  0  0
  152.6486  137.9468  158.8538 H   0  0  0  0  0  0  0  0  0  0  0  0
  152.5237  136.1842  158.7630 H   0  0  0  0  0  0  0  0  0  0  0  0
  151.1431  137.1442  159.3087 H   0  0  0  0  0  0  0  0  0  0  0  0
  153.2222  138.0893  156.6192 H   0  0  0  0  0  0  0  0  0  0  0  0
  151.8823  136.9317  154.4468 H   0  0  0  0  0  0  0  0  0  0  0  0
  153.1229  138.5930  153.0837 H   0  0  0  0  0  0  0  0  0  0  0  0
  154.1632  137.8917  154.3162 H   0  0  0  0  0  0  0  0  0  0  0  0
  153.5154  139.5164  154.5322 H   0  0  0  0  0  0  0  0  0  0  0  0
  147.2114  138.7806  152.5500 H   0  0  0  0  0  0  0  0  0  0  0  0
  145.9485  140.9148  152.8695 H   0  0  0  0  0  0  0  0  0  0  0  0
  146.8618  142.7322  154.2658 H   0  0  0  0  0  0  0  0  0  0  0  0
  149.0642  142.4989  155.4027 H   0  0  0  0  0  0  0  0  0  0  0  0
  152.3938  140.4259  156.0936 H   0  0  0  0  0  0  0  0  0  0  0  0
  151.5659  141.8169  155.4576 H   0  0  0  0  0  0  0  0  0  0  0  0
  149.6674  141.2833  157.1761 H   0  0  0  0  0  0  0  0  0  0  0  0
  149.9862  139.7719  158.5020 H   0  0  0  0  0  0  0  0  0  0  0  0
  151.9644  141.3231  159.7934 H   0  0  0  0  0  0  0  0  0  0  0  0
  152.8855  143.3552  160.8774 H   0  0  0  0  0  0  0  0  0  0  0  0
  152.7554  145.5550  159.7216 H   0  0  0  0  0  0  0  0  0  0  0  0
  151.7038  145.7170  157.4720 H   0  0  0  0  0  0  0  0  0  0  0  0
  150.7787  143.6912  156.3811 H   0  0  0  0  0  0  0  0  0  0  0  0
  149.6911  137.5395  153.3402 H   0  0  0  0  0  0  0  0  0  0  0  0
  1  2  1  0  0  0  0
  1 25  1  0  0  0  0
  1 26  1  0  0  0  0
  1 27  1  0  0  0  0
  2  3  2  0  0  0  0
  2  4  1  0  0  0  0
  4  5  1  0  0  0  0
  4 28  1  0  0  0  0
  5  6  1  0  0  0  0
  5  7  1  0  0  0  0
  5 29  1  0  0  0  0
  6 30  1  0  0  0  0
  6 31  1  0  0  0  0
  6 32  1  0  0  0  0
  7 15  1  0  0  0  0
  7  8  2  0  0  0  0
  8  9  1  0  0  0  0
  8 46  1  0  0  0  0
  9 14  2  0  0  0  0
  9 10  1  0  0  0  0
 10 11  2  0  0  0  0
 10 33  1  0  0  0  0
 11 12  1  0  0  0  0
 11 34  1  0  0  0  0
 12 13  2  0  0  0  0
 12 35  1  0  0  0  0
 13 14  1  0  0  0  0
 13 36  1  0  0  0  0
 14 15  1  0  0  0  0
 15 16  1  0  0  0  0
 16 17  1  0  0  0  0
 16 37  1  0  0  0  0
 16 38  1  0  0  0  0
 17 18  1  0  0  0  0
 17 19  1  0  0  0  0
 17 39  1  0  0  0  0
 18 40  1  0  0  0  0
 19 24  1  0  0  0  0
 19 20  2  0  0  0  0
 20 21  1  0  0  0  0
 20 41  1  0  0  0  0
 21 22  2  0  0  0  0
 21 42  1  0  0  0  0
 22 23  1  0  0  0  0
 22 43  1  0  0  0  0
 23 24  2  0  0  0  0
 23 44  1  0  0  0  0
 24 45  1  0  0  0  0
M  CHG  1   8   1
M  END
> <s_m_source_file>
AV-unprocessed.smi

> <i_m_source_file_index>
447

> <i_lp_mmshare_version>
43012

> <i_f3d_flags>
0

> <s_epik_input>
W0NIM11DKD1PKVtOSF1bQ0BIXShbQ0gzXSljKG4xKW4oYyhjMTIpW2NIXVtjSF1bY0hdW2NIXTIpW0NIMl1bQ0BIXShbT0hdKWMzW2NIXVtjSF1bY0hdW2NIXVtjSF0z

> <s_epik_cmdline>
J2VwaWtfcHl0aG9uJywgJy1waCcsICc3LjAnLCAnLXRuJywgJzgnLCAnLW1hJywgJzIwMCcsICctbWV0YWxfYmluZGluZycsICctaW1hZScsICc8aW5maWxlLm1hZT4nLCAnLW9tYWUnLCAnPG91dGZpbGUubWFlPic=

> <r_epik_Ionization_Penalty>
0.950381

> <r_epik_Ionization_Penalty_Charging>
0.950379

> <r_epik_Ionization_Penalty_Neutral>
1.42115e-06

> <r_epik_State_Penalty>
0.994584

> <r_epik_Charging_Adjusted_Penalty>
1.94496

> <i_epik_Tot_Q>
1

> <i_epik_Tot_abs_Q>
1

> <r_epik_Metal_State_Penalty>
1.10485

> <b_epik_Metal_Only>
0

> <s_lp_Force_Field>
OPLS_2005

> <r_lp_Energy>
11.1979

> <b_lp_Chiralities_Consistent>
1

> <s_lp_Variant>
AV-unprocessed.smi:447-7

> <Gold.Version>
5.8.1

> <Gold.Id.Protein>
6NUR|6NUR_protein|mol2

> <Gold.PLP.Fitness>
51.6602

> <Gold.PLP.PLP>
-46.3531

> <Gold.PLP.part.hbond>
-1.7269

> <Gold.PLP.part.metal>
0.0000

> <Gold.PLP.part.buried>
2.9335

> <Gold.PLP.part.nonpolar>
-47.9930

> <Gold.PLP.part.repulsive>
0.1865

> <Gold.PLP.ligand.clash>
0.0000

> <Gold.PLP.ligand.torsion>
0.3446

> <Gold.PLP.Chemscore.Hbond>
1.9825

> <Gold.PLP.Chemscore.CHOScore>
0.0000

> <Gold.PLP.Chemscore.Metal>
0.0000

> <Gold.Chemscore.Hbonds>
donor molecule, donor type, donor heavy atom, donor atom, acceptor molecule, acceptor atom, score
      L1  H     8    46       P1  7948  1.79

> <Gold.PLP.Chemscore.Internal.Correction>
0.0489

> <Gold.Rescore>
     Score         DG    S(hbond)    S(metal)    S(lipo)     H(rot)  DE(clash)    DE(int)     intcor
     16.46     -18.06       0.69        0.00     140.48       2.41       1.07       0.54       ----

> <Gold.Chemscore.Fitness>
16.4586

> <Gold.Chemscore.DG>
-18.0601

> <Gold.Chemscore.ZeroCoef>
-5.4800

> <Gold.Chemscore.Hbond>
0.6935

> <Gold.Chemscore.Metal>
0.0000

> <Gold.Chemscore.Lipo>
140.4813

> <Gold.Chemscore.Internal_Hbond>
0.0000

> <Gold.Chemscore.DEClash>
1.0661

> <Gold.Chemscore.DEInternal>
0.5354

> <Gold.Chemscore.Rot>
2.4112

> <Gold.Chemscore.Internal.Correction>
   9.000000E+99

> <Gold.Chemscore.Hbonds>
donor molecule, donor type, donor heavy atom, donor atom, acceptor molecule, acceptor atom, score
      L1  H     8    46       P1  7948  0.64

> <Gold.Chemscore.Hbond.Weighted>
-2.3165

> <Gold.Chemscore.Metal.Weighted>
-0.0000

> <Gold.Chemscore.Lipo.Weighted>
-16.4363

> <Gold.Chemscore.Internal_Hbond.Weighted>
0.0000

> <Gold.Chemscore.DEClash.Weighted>
1.0661

> <Gold.Chemscore.DEInternal.Weighted>
0.5354

> <Gold.Chemscore.Rot.Weighted>
6.1727

> <Gold.Chemscore.Internal.Correction.Weighted>
   9.000000E+99

> <Gold.Protein.RotatedTorsions>
[ 6907 6896 6895 6894 ] final  -76.61 input  -60.11 | X-H torsion
[ 7974 7965 7964 7962 ] final   87.19 input  175.53 | X-H torsion
[ 8008 7997 7996 7995 ] final  118.61 input   59.86 | X-H torsion
[ 10167 10162 10161 10158 ] final  130.14 input  -65.29 | X-H torsion
[ 10718 10713 10712 10709 ] final   23.92 input   66.30 | X-H torsion
[ 10763 10752 10751 10750 ] final  174.39 input  -60.55 | X-H torsion
[ 11005 11000 10999 10996 ] final  -10.04 input  -57.11 | X-H torsion

> <Gold.Protein.ActiveResidues>
 VAL166  LYS551  ARG553  GLY616  TRP617  ASP618  TYR619  PRO620  LYS621  CYS622 
 ASP623  PHE694  ASN695  SER759  ASP760  ASP761  ALA762  ILE779  LEU786  VAL792 
 PHE793  MET794  SER795  GLU796  ALA797  LYS798  CYS799  TRP800  GLU811  SER814 

> <Gold.Protein.RotatedAtoms>
  150.7022  134.4546  159.5351 H   0  0  0  0  0  0  0  0  0  0  0  0  # atno 6907 bound_to 6896
  152.2232  134.8390  160.0492 H   0  0  0  0  0  0  0  0  0  0  0  0  # atno 6908 bound_to 6896
  151.9233  133.3556  159.3941 H   0  0  0  0  0  0  0  0  0  0  0  0  # atno 6909 bound_to 6896
  145.5623  139.2305  143.2453 H   0  0  0  0  0  0  0  0  0  0  0  0  # atno 7974 bound_to 7965
  156.2555  140.2871  156.0862 H   0  0  0  0  0  0  0  0  0  0  0  0  # atno 8008 bound_to 7997
  155.1513  140.0397  157.2839 H   0  0  0  0  0  0  0  0  0  0  0  0  # atno 8009 bound_to 7997
  154.6459  140.2533  155.7275 H   0  0  0  0  0  0  0  0  0  0  0  0  # atno 8010 bound_to 7997
  139.5444  144.6760  151.4521 H   0  0  0  0  0  0  0  0  0  0  0  0  # atno 10167 bound_to 10162
  157.1727  130.6767  149.6083 H   0  0  0  0  0  0  0  0  0  0  0  0  # atno 10718 bound_to 10713
  154.4532  135.2765  155.1766 H   0  0  0  0  0  0  0  0  0  0  0  0  # atno 10763 bound_to 10752
  154.3584  135.6135  153.5682 H   0  0  0  0  0  0  0  0  0  0  0  0  # atno 10764 bound_to 10752
  152.9848  135.5828  154.4881 H   0  0  0  0  0  0  0  0  0  0  0  0  # atno 10765 bound_to 10752
  140.7406  133.8673  155.8964 H   0  0  0  0  0  0  0  0  0  0  0  0  # atno 11005 bound_to 11000
  146.1843  140.6448  142.9175 LP  0  0  0  0  0  0  0  0  0  0  0  0  # atno 17320 bound_to 7965
  144.7477  140.5111  143.6824 LP  0  0  0  0  0  0  0  0  0  0  0  0  # atno 17321 bound_to 7965
  140.6686  143.8342  150.6972 LP  0  0  0  0  0  0  0  0  0  0  0  0  # atno 17342 bound_to 10162
  140.1759  143.4155  152.1967 LP  0  0  0  0  0  0  0  0  0  0  0  0  # atno 17343 bound_to 10162
  155.9736  130.4673  150.6322 LP  0  0  0  0  0  0  0  0  0  0  0  0  # atno 17370 bound_to 10713
  157.4028  131.0812  151.1293 LP  0  0  0  0  0  0  0  0  0  0  0  0  # atno 17371 bound_to 10713
  140.9840  134.1367  157.4469 LP  0  0  0  0  0  0  0  0  0  0  0  0  # atno 17394 bound_to 11000
  139.8807  135.0019  156.6098 LP  0  0  0  0  0  0  0  0  0  0  0  0  # atno 17395 bound_to 11000

$$$$
