#       Name:                AV-unprocessed.smi:3133
#       Creating user name   scv26
#       Creation time:       Fri Mar 27 17:33:01 2020


#       File generated by GOLD software.
#

@<TRIPOS>MOLECULE
AV-unprocessed.smi:3133
    38    39     1
SMALL
NO_CHARGES


@<TRIPOS>ATOM
      1 ****        -2.6269  -2.0598   0.8081 C.3            1 S1                 0.0000
      2 ****        -2.1203  -1.1017  -0.2892 C.3            1 S1                 0.0000
      3 ****        -0.5960  -0.9161  -0.2456 C.2            1 S1                 0.0000
      4 ****         0.1419  -1.8574   0.0481 O.2            1 S1                 0.0000
      5 ****        -0.1367   0.3085  -0.5475 N.am           1 S1                 0.0000
      6 ****         1.2693   0.6942  -0.5778 C.3            1 S1                 0.0000
      7 ****         1.8210   0.9493   0.8347 C.3            1 S1                 0.0000
      8 ****         3.3000   1.3233   0.8591 C.3            1 S1                 0.0000
      9 ****         3.4154   2.0015   2.2059 C.3            1 S1                 0.0000
     10 ****         2.0781   2.7330   2.3205 C.3            1 S1                 0.0000
     11 ****         1.1772   2.0672   1.4373 O.3            1 S1                 0.0000
     12 ****        -2.5356  -1.5153  -1.6243 N.pl3          1 S1                 0.0000
     13 ****        -2.9417  -0.7787  -2.6610 C.2            1 S1                 0.0000
     14 ****        -3.1982  -1.4820  -3.7551 N.2            1 S1                 0.0000
     15 ****        -2.8958  -2.7330  -3.2975 C.2            1 S1                 0.0000
     16 ****        -2.4829  -2.8081  -2.0326 N.2            1 S1                 0.0000
     17 ****        -2.3478  -1.7026   1.8000 H              1 S1                 0.0000
     18 ****        -2.2221  -3.0664   0.6956 H              1 S1                 0.0000
     19 ****        -3.7141  -2.1373   0.7835 H              1 S1                 0.0000
     20 ****        -2.5788  -0.1292  -0.1009 H              1 S1                 0.0000
     21 ****        -0.8094   1.0276  -0.7703 H              1 S1                 0.0000
     22 ****         1.8523  -0.0817  -1.0770 H              1 S1                 0.0000
     23 ****         1.3663   1.5934  -1.1869 H              1 S1                 0.0000
     24 ****         1.6647   0.0783   1.4736 H              1 S1                 0.0000
     25 ****         3.9599   0.4614   0.7550 H              1 S1                 0.0000
     26 ****         3.5319   2.0323   0.0629 H              1 S1                 0.0000
     27 ****         3.5004   1.2508   2.9930 H              1 S1                 0.0000
     28 ****         4.2742   2.6691   2.2781 H              1 S1                 0.0000
     29 ****         1.7002   2.7289   3.3431 H              1 S1                 0.0000
     30 ****         2.1753   3.7707   2.0005 H              1 S1                 0.0000
     31 ****        -3.0476   0.2953  -2.6155 H              1 S1                 0.0000
     32 ****        -2.9758  -3.6140  -3.9174 H              1 S1                 0.0000
     33 ****        -0.2500  -2.7525   0.2609 LP             1 S1                 0.0000
     34 ****         1.1330  -1.7267   0.0738 LP             1 S1                 0.0000
     35 ****         0.3806   1.7519   1.9530 LP             1 S1                 0.0000
     36 ****         0.8823   2.7032   0.7242 LP             1 S1                 0.0000
     37 ****        -3.5195  -1.1836  -4.6538 LP             1 S1                 0.0000
     38 ****        -2.2037  -3.6161  -1.5137 LP             1 S1                 0.0000
@<TRIPOS>BOND
    1    1    2 1     
    2    1   17 1     
    3    1   18 1     
    4    1   19 1     
    5    2    3 1     
    6    2   12 1     
    7    2   20 1     
    8    3    4 2     
    9    3    5 am    
   10    5    6 1     
   11    5   21 1     
   12    6    7 1     
   13    6   22 1     
   14    6   23 1     
   15    7   11 1     
   16    7    8 1     
   17    7   24 1     
   18    8    9 1     
   19    8   25 1     
   20    8   26 1     
   21    9   10 1     
   22    9   27 1     
   23    9   28 1     
   24   10   11 1     
   25   10   29 1     
   26   10   30 1     
   27   12   16 1     
   28   12   13 1     
   29   13   14 2     
   30   13   31 1     
   31   14   15 1     
   32   15   16 2     
   33   15   32 1     
   34    4   33 1     
   35    4   34 1     
   36   11   35 1     
   37   11   36 1     
   38   14   37 1     
   39   16   38 1     
@<TRIPOS>SUBSTRUCTURE
      1 S1             1
@<TRIPOS>SET
LONE_PAIRS      STATIC     ATOMS    <user>   **** ""
6 33 34 35 36 37 38
DONOR_HYDROGENS      STATIC     ATOMS    <user>   **** ""
1 21
ATOM$BLUE        STATIC     ATOMS    COLORGROUP SYSTEM
6 33 34 35 36 37 38
ATOM$RED        STATIC     ATOMS    COLORGROUP SYSTEM
1 21
