AV-unprocessed.smi:1570|AV-procd|sdf|6321|dock5
  -GOLD-   22720 6533D 1   1.00000     0.00000
 Structure written by MMmdl.
 52 54  0  0  0  0  0  0  0  0  2 V2000
  151.0813  140.8226  155.7713 C   0  0  0  0  0  0  0  0  0  0  0  0
  150.6537  139.9189  156.9350 C   0  0  0  0  0  0  0  0  0  0  0  0
  151.5856  140.0238  158.0548 N   0  0  0  0  0  0  0  0  0  0  0  0
  152.3117  139.0184  158.5966 C   0  0  0  0  0  0  0  0  0  0  0  0
  152.2938  137.8390  158.2440 O   0  0  0  0  0  0  0  0  0  0  0  0
  153.0793  139.5374  159.5842 N   0  0  0  0  0  0  0  0  0  0  0  0
  154.0213  138.8007  160.4259 C   0  0  0  0  0  0  0  0  0  0  0  0
  153.3263  137.6667  161.2065 C   0  0  1  0  0  0  0  0  0  0  0  0
  153.2967  136.5163  160.3842 O   0  0  0  0  0  0  0  0  0  0  0  0
  154.0961  137.3031  162.4918 C   0  0  0  0  0  0  0  0  0  0  0  0
  154.2191  135.8350  162.6742 N   0  3  1  0  0  0  0  0  0  0  0  0
  155.5140  135.3038  162.1884 C   0  0  0  0  0  0  0  0  0  0  0  0
  155.5699  133.7692  162.3241 C   0  0  2  0  0  0  0  0  0  0  0  0
  154.7069  133.0293  161.2863 C   0  0  0  0  0  0  0  0  0  0  0  0
  155.2585  133.3799  163.6621 O   0  0  0  0  0  0  0  0  0  0  0  0
  154.0049  133.8527  164.1493 C   0  0  1  0  0  0  0  0  0  0  0  0
  153.8384  133.3527  165.5888 C   0  0  0  0  0  0  0  0  0  0  0  0
  153.9713  135.3888  164.0663 C   0  0  0  0  0  0  0  0  0  0  0  0
  152.8473  140.9182  159.6682 C   0  0  0  0  0  0  0  0  0  0  0  0
  153.3999  141.9028  160.5062 C   0  0  0  0  0  0  0  0  0  0  0  0
  152.9493  143.2319  160.3272 C   0  0  0  0  0  0  0  0  0  0  0  0
  151.9812  143.5448  159.3381 C   0  0  0  0  0  0  0  0  0  0  0  0
  151.4438  142.5355  158.5057 C   0  0  0  0  0  0  0  0  0  0  0  0
  151.9071  141.2234  158.7056 C   0  0  0  0  0  0  0  0  0  0  0  0
  150.3832  140.7383  154.9383 H   0  0  0  0  0  0  0  0  0  0  0  0
  152.0713  140.5512  155.4038 H   0  0  0  0  0  0  0  0  0  0  0  0
  151.1111  141.8695  156.0747 H   0  0  0  0  0  0  0  0  0  0  0  0
  149.6503  140.1861  157.2676 H   0  0  0  0  0  0  0  0  0  0  0  0
  150.5940  138.8833  156.5966 H   0  0  0  0  0  0  0  0  0  0  0  0
  154.8637  138.4235  159.8452 H   0  0  0  0  0  0  0  0  0  0  0  0
  154.4505  139.5179  161.1276 H   0  0  0  0  0  0  0  0  0  0  0  0
  152.3045  137.9542  161.4514 H   0  0  0  0  0  0  0  0  0  0  0  0
  154.1539  136.3916  160.0056 H   0  0  0  0  0  0  0  0  0  0  0  0
  155.0854  137.7624  162.4503 H   0  0  0  0  0  0  0  0  0  0  0  0
  153.6047  137.7269  163.3692 H   0  0  0  0  0  0  0  0  0  0  0  0
  155.6728  135.5898  161.1476 H   0  0  0  0  0  0  0  0  0  0  0  0
  156.3221  135.7545  162.7668 H   0  0  0  0  0  0  0  0  0  0  0  0
  156.6013  133.4591  162.1529 H   0  0  0  0  0  0  0  0  0  0  0  0
  155.0557  133.2387  160.2748 H   0  0  0  0  0  0  0  0  0  0  0  0
  153.6583  133.3221  161.3335 H   0  0  0  0  0  0  0  0  0  0  0  0
  154.7605  131.9507  161.4350 H   0  0  0  0  0  0  0  0  0  0  0  0
  153.1947  133.4350  163.5511 H   0  0  0  0  0  0  0  0  0  0  0  0
  152.8859  133.6760  166.0095 H   0  0  0  0  0  0  0  0  0  0  0  0
  154.6337  133.7294  166.2327 H   0  0  0  0  0  0  0  0  0  0  0  0
  153.8662  132.2635  165.6284 H   0  0  0  0  0  0  0  0  0  0  0  0
  154.7268  135.8186  164.7266 H   0  0  0  0  0  0  0  0  0  0  0  0
  153.0043  135.7483  164.4165 H   0  0  0  0  0  0  0  0  0  0  0  0
  154.1397  141.6633  161.2552 H   0  0  0  0  0  0  0  0  0  0  0  0
  153.3484  144.0187  160.9501 H   0  0  0  0  0  0  0  0  0  0  0  0
  151.6522  144.5665  159.2178 H   0  0  0  0  0  0  0  0  0  0  0  0
  150.7098  142.7683  157.7484 H   0  0  0  0  0  0  0  0  0  0  0  0
  153.5053  135.4166  162.0940 H   0  0  0  0  0  0  0  0  0  0  0  0
  1  2  1  0  0  0  0
  1 25  1  0  0  0  0
  1 26  1  0  0  0  0
  1 27  1  0  0  0  0
  2  3  1  0  0  0  0
  2 28  1  0  0  0  0
  2 29  1  0  0  0  0
  3 24  1  0  0  0  0
  3  4  1  0  0  0  0
  4  5  2  0  0  0  0
  4  6  1  0  0  0  0
  6  7  1  0  0  0  0
  6 19  1  0  0  0  0
  7  8  1  0  0  0  0
  7 30  1  0  0  0  0
  7 31  1  0  0  0  0
  8  9  1  0  0  0  0
  8 10  1  0  0  0  0
  8 32  1  0  0  0  0
  9 33  1  0  0  0  0
 10 11  1  0  0  0  0
 10 34  1  0  0  0  0
 10 35  1  0  0  0  0
 11 18  1  0  0  0  0
 11 12  1  0  0  0  0
 11 52  1  0  0  0  0
 12 13  1  0  0  0  0
 12 36  1  0  0  0  0
 12 37  1  0  0  0  0
 13 14  1  0  0  0  0
 13 15  1  0  0  0  0
 13 38  1  0  0  0  0
 14 39  1  0  0  0  0
 14 40  1  0  0  0  0
 14 41  1  0  0  0  0
 15 16  1  0  0  0  0
 16 17  1  0  0  0  0
 16 18  1  0  0  0  0
 16 42  1  0  0  0  0
 17 43  1  0  0  0  0
 17 44  1  0  0  0  0
 17 45  1  0  0  0  0
 18 46  1  0  0  0  0
 18 47  1  0  0  0  0
 19 24  2  0  0  0  0
 19 20  1  0  0  0  0
 20 21  2  0  0  0  0
 20 48  1  0  0  0  0
 21 22  1  0  0  0  0
 21 49  1  0  0  0  0
 22 23  2  0  0  0  0
 22 50  1  0  0  0  0
 23 24  1  0  0  0  0
 23 51  1  0  0  0  0
M  CHG  1  11   1
M  END
> <s_m_source_file>
AV-unprocessed.smi

> <i_m_source_file_index>
1570

> <i_lp_mmshare_version>
43012

> <i_f3d_flags>
0

> <s_epik_input>
W2NIXTFbY0hdW2NIXVtjSF1jKGMxMiluKFtDSDJdW0NIM10pYyg9TyluMltDSDJdW0NASF0oW09IXSlbQ0gyXU4zW0NIMl1bQ0BASF0oW0NIM10pT1tDQEBIXShbQ0gzXSlbQ0gyXTM=

> <s_epik_cmdline>
J2VwaWtfcHl0aG9uJywgJy1waCcsICc3LjAnLCAnLXRuJywgJzgnLCAnLW1hJywgJzIwMCcsICctbWV0YWxfYmluZGluZycsICctaW1hZScsICc8aW5maWxlLm1hZT4nLCAnLW9tYWUnLCAnPG91dGZpbGUubWFlPic=

> <r_epik_Ionization_Penalty>
0.706332

> <r_epik_Ionization_Penalty_Charging>
0.706318

> <r_epik_Ionization_Penalty_Neutral>
1.42224e-05

> <r_epik_State_Penalty>
0.729493

> <r_epik_Charging_Adjusted_Penalty>
1.43581

> <i_epik_Tot_Q>
1

> <i_epik_Tot_abs_Q>
1

> <r_epik_Metal_State_Penalty>
0.729493

> <b_epik_Metal_Only>
0

> <s_lp_Force_Field>
OPLS_2005

> <r_lp_Energy>
54.8336

> <b_lp_Chiralities_Consistent>
1

> <s_lp_Variant>
AV-unprocessed.smi:1570-10

> <Gold.Version>
5.8.1

> <Gold.Id.Protein>
6NUR|6NUR_protein|mol2

> <Gold.PLP.Fitness>
45.7098

> <Gold.PLP.PLP>
-45.5591

> <Gold.PLP.part.hbond>
-1.0000

> <Gold.PLP.part.metal>
0.0000

> <Gold.PLP.part.buried>
-5.1833

> <Gold.PLP.part.nonpolar>
-39.1963

> <Gold.PLP.part.repulsive>
0.0401

> <Gold.PLP.ligand.clash>
0.0000

> <Gold.PLP.ligand.torsion>
1.4823

> <Gold.PLP.Chemscore.Hbond>
1.0000

> <Gold.PLP.Chemscore.CHOScore>
0.0000

> <Gold.PLP.Chemscore.Metal>
0.0000

> <Gold.Chemscore.Hbonds>
donor molecule, donor type, donor heavy atom, donor atom, acceptor molecule, acceptor atom, score
      P1  H  6896  6908       L1     9  1.00

> <Gold.PLP.Chemscore.Internal.Correction>
0.1152

> <Gold.Rescore>
     Score         DG    S(hbond)    S(metal)    S(lipo)     H(rot)  DE(clash)    DE(int)     intcor
     16.08     -17.69       0.97        0.00     123.18       2.13       0.05       1.56       ----

> <Gold.Chemscore.Fitness>
16.0757

> <Gold.Chemscore.DG>
-17.6871

> <Gold.Chemscore.ZeroCoef>
-5.4800

> <Gold.Chemscore.Hbond>
0.9726

> <Gold.Chemscore.Metal>
0.0000

> <Gold.Chemscore.Lipo>
123.1821

> <Gold.Chemscore.Internal_Hbond>
0.0000

> <Gold.Chemscore.DEClash>
0.0482

> <Gold.Chemscore.DEInternal>
1.5633

> <Gold.Chemscore.Rot>
2.1303

> <Gold.Chemscore.Internal.Correction>
   9.000000E+99

> <Gold.Chemscore.Hbonds>
donor molecule, donor type, donor heavy atom, donor atom, acceptor molecule, acceptor atom, score
      P1  H  6896  6908       L1     9  0.85

> <Gold.Chemscore.Hbond.Weighted>
-3.2484

> <Gold.Chemscore.Metal.Weighted>
-0.0000

> <Gold.Chemscore.Lipo.Weighted>
-14.4123

> <Gold.Chemscore.Internal_Hbond.Weighted>
0.0000

> <Gold.Chemscore.DEClash.Weighted>
0.0482

> <Gold.Chemscore.DEInternal.Weighted>
1.5633

> <Gold.Chemscore.Rot.Weighted>
5.4535

> <Gold.Chemscore.Internal.Correction.Weighted>
   9.000000E+99

> <Gold.Protein.RotatedTorsions>
[ 6907 6896 6895 6894 ] final  -88.43 input  -60.11 | X-H torsion
[ 7974 7965 7964 7962 ] final   42.26 input  175.53 | X-H torsion
[ 8008 7997 7996 7995 ] final   43.76 input   59.86 | X-H torsion
[ 10167 10162 10161 10158 ] final  126.38 input  -65.29 | X-H torsion
[ 10718 10713 10712 10709 ] final   53.63 input   66.30 | X-H torsion
[ 10763 10752 10751 10750 ] final  117.97 input  -60.55 | X-H torsion
[ 11005 11000 10999 10996 ] final  110.32 input  -57.11 | X-H torsion

> <Gold.Protein.ActiveResidues>
 VAL166  LYS551  ARG553  GLY616  TRP617  ASP618  TYR619  PRO620  LYS621  CYS622 
 ASP623  PHE694  ASN695  SER759  ASP760  ASP761  ALA762  ILE779  LEU786  VAL792 
 PHE793  MET794  SER795  GLU796  ALA797  LYS798  CYS799  TRP800  GLU811  SER814 

> <Gold.Protein.RotatedAtoms>
  150.6869  134.2743  159.4600 H   0  0  0  0  0  0  0  0  0  0  0  0  # atno 6907 bound_to 6896
  152.0663  134.9560  160.0584 H   0  0  0  0  0  0  0  0  0  0  0  0  # atno 6908 bound_to 6896
  152.0967  133.4193  159.4605 H   0  0  0  0  0  0  0  0  0  0  0  0  # atno 6909 bound_to 6896
  146.0755  139.5320  142.9570 H   0  0  0  0  0  0  0  0  0  0  0  0  # atno 7974 bound_to 7965
  155.3081  140.3389  155.4245 H   0  0  0  0  0  0  0  0  0  0  0  0  # atno 8008 bound_to 7997
  156.1969  140.1718  156.8019 H   0  0  0  0  0  0  0  0  0  0  0  0  # atno 8009 bound_to 7997
  154.5509  140.0706  156.8651 H   0  0  0  0  0  0  0  0  0  0  0  0  # atno 8010 bound_to 7997
  139.5634  144.6896  151.3978 H   0  0  0  0  0  0  0  0  0  0  0  0  # atno 10167 bound_to 10162
  157.5184  130.8548  149.8526 H   0  0  0  0  0  0  0  0  0  0  0  0  # atno 10718 bound_to 10713
  153.5606  135.3521  155.2797 H   0  0  0  0  0  0  0  0  0  0  0  0  # atno 10763 bound_to 10752
  154.8695  135.4135  154.2835 H   0  0  0  0  0  0  0  0  0  0  0  0  # atno 10764 bound_to 10752
  153.3580  135.7058  153.6804 H   0  0  0  0  0  0  0  0  0  0  0  0  # atno 10765 bound_to 10752
  139.8879  134.9481  156.6262 H   0  0  0  0  0  0  0  0  0  0  0  0  # atno 11005 bound_to 11000
  145.6314  141.0303  143.1861 LP  0  0  0  0  0  0  0  0  0  0  0  0  # atno 17320 bound_to 7965
  144.7259  139.7879  143.7365 LP  0  0  0  0  0  0  0  0  0  0  0  0  # atno 17321 bound_to 7965
  140.6916  143.7848  150.7263 LP  0  0  0  0  0  0  0  0  0  0  0  0  # atno 17342 bound_to 10162
  140.1332  143.4507  152.2241 LP  0  0  0  0  0  0  0  0  0  0  0  0  # atno 17343 bound_to 10162
  156.0336  130.3757  150.1620 LP  0  0  0  0  0  0  0  0  0  0  0  0  # atno 17370 bound_to 10713
  156.9808  130.9863  151.3438 LP  0  0  0  0  0  0  0  0  0  0  0  0  # atno 17371 bound_to 10713
  140.7702  133.8745  155.8485 LP  0  0  0  0  0  0  0  0  0  0  0  0  # atno 17394 bound_to 11000
  140.9848  134.1357  157.4461 LP  0  0  0  0  0  0  0  0  0  0  0  0  # atno 17395 bound_to 11000

$$$$
