AV-unprocessed.smi:733|AV-procd|sdf|3529|dock10
  -GOLD-   22720 0523D 1   1.00000     0.00000
 Structure written by MMmdl.
 43 44  0  0  0  0  0  0  0  0  1 V2000
  143.6602  132.7692  151.0933 C   0  0  0  0  0  0  0  0  0  0  0  0
  143.9739  133.8839  152.0433 C   0  0  0  0  0  0  0  0  0  0  0  0
  145.2858  134.3561  152.1454 N   0  0  0  0  0  0  0  0  0  0  0  0
  145.3988  135.3493  153.0330 C   0  0  0  0  0  0  0  0  0  0  0  0
  146.6132  136.0181  153.3378 N   0  0  0  0  0  0  0  0  0  0  0  0
  146.9073  136.7535  154.4241 C   0  0  0  0  0  0  0  0  0  0  0  0
  146.1368  136.9837  155.3567 O   0  0  0  0  0  0  0  0  0  0  0  0
  148.1666  137.2110  154.3700 N   0  0  0  0  0  0  0  0  0  0  0  0
  148.8282  138.0249  155.3891 C   0  0  0  0  0  0  0  0  0  0  0  0
  149.5521  139.2671  154.7976 C   0  0  0  0  0  0  0  0  0  0  0  0
  150.7206  138.8670  153.8474 C   0  0  0  0  0  0  0  0  0  0  0  0
  151.7723  137.8799  154.3975 C   0  0  0  0  0  0  0  0  0  0  0  0
  151.3705  136.5359  154.2417 O   0  0  0  0  0  0  0  0  0  0  0  0
  148.5218  140.1720  154.0783 C   0  0  0  0  0  0  0  0  0  0  0  0
  148.1114  141.2409  155.0860 C   0  0  0  0  0  0  0  0  0  0  0  0
  149.4098  141.5338  155.8227 C   0  0  0  0  0  0  0  0  0  0  0  0
  150.0934  140.1695  155.9441 C   0  0  0  0  0  0  0  0  0  0  0  0
  143.8840  135.7742  153.8108 S   0  0  0  0  0  0  0  0  0  0  0  0
  143.0889  134.5352  152.8716 C   0  0  0  0  0  0  0  0  0  0  0  0
  141.6245  134.2853  153.0156 C   0  0  0  0  0  0  0  0  0  0  0  0
  143.3304  131.8791  151.6291 H   0  0  0  0  0  0  0  0  0  0  0  0
  144.5289  132.4906  150.4956 H   0  0  0  0  0  0  0  0  0  0  0  0
  142.8658  133.0536  150.4032 H   0  0  0  0  0  0  0  0  0  0  0  0
  147.3466  135.9178  152.6519 H   0  0  0  0  0  0  0  0  0  0  0  0
  148.7203  136.9684  153.5616 H   0  0  0  0  0  0  0  0  0  0  0  0
  148.0650  138.3369  156.1020 H   0  0  0  0  0  0  0  0  0  0  0  0
  149.5302  137.4264  155.9726 H   0  0  0  0  0  0  0  0  0  0  0  0
  150.3138  138.4676  152.9171 H   0  0  0  0  0  0  0  0  0  0  0  0
  151.2513  139.7731  153.5527 H   0  0  0  0  0  0  0  0  0  0  0  0
  152.7060  138.0089  153.8494 H   0  0  0  0  0  0  0  0  0  0  0  0
  152.0035  138.0747  155.4440 H   0  0  0  0  0  0  0  0  0  0  0  0
  151.1908  136.3787  153.3272 H   0  0  0  0  0  0  0  0  0  0  0  0
  148.9853  140.6738  153.2278 H   0  0  0  0  0  0  0  0  0  0  0  0
  147.6638  139.6214  153.6909 H   0  0  0  0  0  0  0  0  0  0  0  0
  147.6874  142.1266  154.6120 H   0  0  0  0  0  0  0  0  0  0  0  0
  147.3699  140.8397  155.7782 H   0  0  0  0  0  0  0  0  0  0  0  0
  150.0285  142.2037  155.2241 H   0  0  0  0  0  0  0  0  0  0  0  0
  149.2457  142.0082  156.7908 H   0  0  0  0  0  0  0  0  0  0  0  0
  149.8509  139.7512  156.9207 H   0  0  0  0  0  0  0  0  0  0  0  0
  151.1783  140.2787  155.9222 H   0  0  0  0  0  0  0  0  0  0  0  0
  141.1001  134.5173  152.0883 H   0  0  0  0  0  0  0  0  0  0  0  0
  141.1943  134.8986  153.8076 H   0  0  0  0  0  0  0  0  0  0  0  0
  141.4329  133.2403  153.2596 H   0  0  0  0  0  0  0  0  0  0  0  0
  1  2  1  0  0  0  0
  1 21  1  0  0  0  0
  1 22  1  0  0  0  0
  1 23  1  0  0  0  0
  2 19  2  0  0  0  0
  2  3  1  0  0  0  0
  3  4  2  0  0  0  0
  4  5  1  0  0  0  0
  4 18  1  0  0  0  0
  5  6  1  0  0  0  0
  5 24  1  0  0  0  0
  6  7  2  0  0  0  0
  6  8  1  0  0  0  0
  8  9  1  0  0  0  0
  8 25  1  0  0  0  0
  9 10  1  0  0  0  0
  9 26  1  0  0  0  0
  9 27  1  0  0  0  0
 10 17  1  0  0  0  0
 10 11  1  0  0  0  0
 10 14  1  0  0  0  0
 11 12  1  0  0  0  0
 11 28  1  0  0  0  0
 11 29  1  0  0  0  0
 12 13  1  0  0  0  0
 12 30  1  0  0  0  0
 12 31  1  0  0  0  0
 13 32  1  0  0  0  0
 14 15  1  0  0  0  0
 14 33  1  0  0  0  0
 14 34  1  0  0  0  0
 15 16  1  0  0  0  0
 15 35  1  0  0  0  0
 15 36  1  0  0  0  0
 16 17  1  0  0  0  0
 16 37  1  0  0  0  0
 16 38  1  0  0  0  0
 17 39  1  0  0  0  0
 17 40  1  0  0  0  0
 18 19  1  0  0  0  0
 19 20  1  0  0  0  0
 20 41  1  0  0  0  0
 20 42  1  0  0  0  0
 20 43  1  0  0  0  0
M  END
> <s_m_source_file>
AV-unprocessed.smi

> <i_m_source_file_index>
733

> <i_lp_mmshare_version>
43012

> <i_f3d_flags>
0

> <s_epik_input>
W0NIM11jMW5jKHNjMVtDSDNdKVtOSF1DKD1PKVtOSF1bQ0gyXUMyKFtDSDJdW0NIMl1bT0hdKVtDSDJdW0NIMl1bQ0gyXVtDSDJdMg==

> <s_epik_cmdline>
J2VwaWtfcHl0aG9uJywgJy1waCcsICc3LjAnLCAnLXRuJywgJzgnLCAnLW1hJywgJzIwMCcsICctbWV0YWxfYmluZGluZycsICctaW1hZScsICc8aW5maWxlLm1hZT4nLCAnLW9tYWUnLCAnPG91dGZpbGUubWFlPic=

> <r_lp_tautomer_probability>
0.999

> <r_epik_Ionization_Penalty>
0.000695797

> <r_epik_Ionization_Penalty_Charging>
0

> <r_epik_Ionization_Penalty_Neutral>
0.000695797

> <r_epik_State_Penalty>
0.000177984

> <r_epik_Charging_Adjusted_Penalty>
0.000177984

> <i_epik_Tot_Q>
0

> <i_epik_Tot_abs_Q>
0

> <r_epik_Metal_State_Penalty>
-0

> <b_epik_Metal_Only>
0

> <s_lp_Force_Field>
OPLS_2005

> <r_lp_Energy>
29.226

> <b_lp_Chiralities_Consistent>
1

> <s_lp_Variant>
AV-unprocessed.smi:733-1

> <Gold.Version>
5.8.1

> <Gold.Id.Protein>
6NUR|6NUR_protein|mol2

> <Gold.PLP.Fitness>
40.6469

> <Gold.PLP.PLP>
-29.2660

> <Gold.PLP.part.hbond>
-4.0000

> <Gold.PLP.part.metal>
0.0000

> <Gold.PLP.part.buried>
-3.0247

> <Gold.PLP.part.nonpolar>
-22.8025

> <Gold.PLP.part.repulsive>
0.1072

> <Gold.PLP.ligand.clash>
0.0000

> <Gold.PLP.ligand.torsion>
0.3409

> <Gold.PLP.Chemscore.Hbond>
4.0000

> <Gold.PLP.Chemscore.CHOScore>
0.0000

> <Gold.PLP.Chemscore.Metal>
0.0000

> <Gold.Chemscore.Hbonds>
donor molecule, donor type, donor heavy atom, donor atom, acceptor molecule, acceptor atom, score
      L1  H     5    24       P1  7948  1.00
      L1  H     8    25       P1  7948  1.00
      L1  H    13    32       P1  7949  1.00
      P1  H 10752 10764       L1    13  1.00

> <Gold.PLP.Chemscore.Internal.Correction>
0.0628

> <Gold.Rescore>
     Score         DG    S(hbond)    S(metal)    S(lipo)     H(rot)  DE(clash)    DE(int)     intcor
     18.59     -20.32       3.54        0.00      75.90       2.30       0.27       1.45       ----

> <Gold.Chemscore.Fitness>
18.5949

> <Gold.Chemscore.DG>
-20.3156

> <Gold.Chemscore.ZeroCoef>
-5.4800

> <Gold.Chemscore.Hbond>
3.5450

> <Gold.Chemscore.Metal>
0.0000

> <Gold.Chemscore.Lipo>
75.9042

> <Gold.Chemscore.Internal_Hbond>
0.0000

> <Gold.Chemscore.DEClash>
0.2720

> <Gold.Chemscore.DEInternal>
1.4487

> <Gold.Chemscore.Rot>
2.2990

> <Gold.Chemscore.Internal.Correction>
   9.000000E+99

> <Gold.Chemscore.Hbonds>
donor molecule, donor type, donor heavy atom, donor atom, acceptor molecule, acceptor atom, score
      L1  H     5    24       P1  7948  0.99
      L1  H     8    25       P1  7948  0.98
      L1  H    13    32       P1  7949  0.50
      P1  H 10752 10764       L1    13  0.14

> <Gold.Chemscore.Hbond.Weighted>
-11.8403

> <Gold.Chemscore.Metal.Weighted>
-0.0000

> <Gold.Chemscore.Lipo.Weighted>
-8.8808

> <Gold.Chemscore.Internal_Hbond.Weighted>
0.0000

> <Gold.Chemscore.DEClash.Weighted>
0.2720

> <Gold.Chemscore.DEInternal.Weighted>
1.4487

> <Gold.Chemscore.Rot.Weighted>
5.8854

> <Gold.Chemscore.Internal.Correction.Weighted>
   9.000000E+99

> <Gold.Protein.RotatedTorsions>
[ 6907 6896 6895 6894 ] final -159.87 input  -60.11 | X-H torsion
[ 7974 7965 7964 7962 ] final  -76.97 input  175.53 | X-H torsion
[ 8008 7997 7996 7995 ] final   92.16 input   59.86 | X-H torsion
[ 10167 10162 10161 10158 ] final  -45.38 input  -65.29 | X-H torsion
[ 10718 10713 10712 10709 ] final  164.03 input   66.30 | X-H torsion
[ 10763 10752 10751 10750 ] final  -64.70 input  -60.55 | X-H torsion
[ 11005 11000 10999 10996 ] final   23.28 input  -57.11 | X-H torsion

> <Gold.Protein.ActiveResidues>
 VAL166  LYS551  ARG553  GLY616  TRP617  ASP618  TYR619  PRO620  LYS621  CYS622 
 ASP623  PHE694  ASN695  SER759  ASP760  ASP761  ALA762  ILE779  LEU786  VAL792 
 PHE793  MET794  SER795  GLU796  ALA797  LYS798  CYS799  TRP800  GLU811  SER814 

> <Gold.Protein.RotatedAtoms>
  151.3403  133.3965  159.2670 H   0  0  0  0  0  0  0  0  0  0  0  0  # atno 6907 bound_to 6896
  150.9884  134.9225  159.7895 H   0  0  0  0  0  0  0  0  0  0  0  0  # atno 6908 bound_to 6896
  152.5239  134.3367  159.9255 H   0  0  0  0  0  0  0  0  0  0  0  0  # atno 6909 bound_to 6896
  145.6059  140.9398  143.1216 H   0  0  0  0  0  0  0  0  0  0  0  0  # atno 7974 bound_to 7965
  156.0321  140.3329  155.7151 H   0  0  0  0  0  0  0  0  0  0  0  0  # atno 8008 bound_to 7997
  155.5869  140.0642  157.2786 H   0  0  0  0  0  0  0  0  0  0  0  0  # atno 8009 bound_to 7997
  154.4357  140.1834  156.1022 H   0  0  0  0  0  0  0  0  0  0  0  0  # atno 8010 bound_to 7997
  140.6860  143.2882  151.3631 H   0  0  0  0  0  0  0  0  0  0  0  0  # atno 10167 bound_to 10162
  157.1001  131.0440  151.2501 H   0  0  0  0  0  0  0  0  0  0  0  0  # atno 10718 bound_to 10713
  154.3341  135.6170  153.5565 H   0  0  0  0  0  0  0  0  0  0  0  0  # atno 10763 bound_to 10752
  152.9809  135.5754  154.4928 H   0  0  0  0  0  0  0  0  0  0  0  0  # atno 10764 bound_to 10752
  154.4620  135.2856  155.1683 H   0  0  0  0  0  0  0  0  0  0  0  0  # atno 10765 bound_to 10752
  140.3714  134.2019  155.7666 H   0  0  0  0  0  0  0  0  0  0  0  0  # atno 11005 bound_to 11000
  144.7290  139.7784  143.7354 LP  0  0  0  0  0  0  0  0  0  0  0  0  # atno 17320 bound_to 7965
  146.1541  139.4634  143.0030 LP  0  0  0  0  0  0  0  0  0  0  0  0  # atno 17321 bound_to 7965
  139.6219  144.0889  152.2399 LP  0  0  0  0  0  0  0  0  0  0  0  0  # atno 17342 bound_to 10162
  140.0337  144.6061  150.7467 LP  0  0  0  0  0  0  0  0  0  0  0  0  # atno 17343 bound_to 10162
  157.4648  130.7674  149.7269 LP  0  0  0  0  0  0  0  0  0  0  0  0  # atno 17370 bound_to 10713
  155.9876  130.3966  150.3159 LP  0  0  0  0  0  0  0  0  0  0  0  0  # atno 17371 bound_to 10713
  141.1953  133.8108  157.0720 LP  0  0  0  0  0  0  0  0  0  0  0  0  # atno 17394 bound_to 11000
  140.0549  134.9786  157.1202 LP  0  0  0  0  0  0  0  0  0  0  0  0  # atno 17395 bound_to 11000

$$$$
