AV-unprocessed.smi:1898|AV-procd|sdf|7703|dock2
  -GOLD-   22720 9443D 1   1.00000     0.00000
 Structure written by MMmdl.
 46 47  0  0  0  0  0  0  0  0  3 V2000
  155.8875  141.2221  168.5722 C   0  0  0  0  0  0  0  0  0  0  0  0
  156.3616  139.9423  168.0590 N   0  5  0  0  0  0  0  0  0  0  0  0
  157.1384  139.8209  166.9495 C   0  0  0  0  0  0  0  0  0  0  0  0
  158.0417  140.5431  166.5149 O   0  0  0  0  0  0  0  0  0  0  0  0
  156.7990  138.5434  166.1732 C   0  0  0  0  0  0  0  0  0  0  0  0
  156.2290  138.8922  164.8484 N   0  3  2  0  0  0  0  0  0  0  0  0
  155.4640  137.7707  164.2476 C   0  0  0  0  0  0  0  0  0  0  0  0
  154.7568  138.2118  162.9553 C   0  0  0  0  0  0  0  0  0  0  0  0
  155.7575  138.7851  161.9392 C   0  0  1  0  0  0  0  0  0  0  0  0
  155.0423  139.2850  160.7686 N   0  0  0  0  0  0  0  0  0  0  0  0
  154.2854  140.3911  160.7385 C   0  0  0  0  0  0  0  0  0  0  0  0
  154.1293  141.1300  161.7098 O   0  0  0  0  0  0  0  0  0  0  0  0
  153.7454  140.5719  159.5211 N   0  0  0  0  0  0  0  0  0  0  0  0
  152.8716  141.5979  159.0618 C   0  0  0  0  0  0  0  0  0  0  0  0
  152.6362  142.8126  159.7519 C   0  0  0  0  0  0  0  0  0  0  0  0
  151.7365  143.7463  159.2054 C   0  0  0  0  0  0  0  0  0  0  0  0
  151.0989  143.4324  157.9916 C   0  0  0  0  0  0  0  0  0  0  0  0
  151.3041  142.2768  157.3279 N   0  0  0  0  0  0  0  0  0  0  0  0
  152.1705  141.3744  157.8529 C   0  0  0  0  0  0  0  0  0  0  0  0
  152.3734  140.1878  157.1739 O   0  0  0  0  0  0  0  0  0  0  0  0
  151.7164  139.9978  155.9254 C   0  0  0  0  0  0  0  0  0  0  0  0
  156.5744  139.9119  162.5978 C   0  0  0  0  0  0  0  0  0  0  0  0
  157.2384  139.4335  163.8992 C   0  0  0  0  0  0  0  0  0  0  0  0
  155.2526  141.0975  169.4490 H   0  0  0  0  0  0  0  0  0  0  0  0
  155.2976  141.7728  167.8391 H   0  0  0  0  0  0  0  0  0  0  0  0
  156.7059  141.8762  168.8745 H   0  0  0  0  0  0  0  0  0  0  0  0
  157.6537  137.8724  166.0600 H   0  0  0  0  0  0  0  0  0  0  0  0
  156.0611  138.0018  166.7668 H   0  0  0  0  0  0  0  0  0  0  0  0
  156.1379  136.9365  164.0456 H   0  0  0  0  0  0  0  0  0  0  0  0
  154.7172  137.4117  164.9569 H   0  0  0  0  0  0  0  0  0  0  0  0
  154.2249  137.3650  162.5199 H   0  0  0  0  0  0  0  0  0  0  0  0
  154.0010  138.9611  163.1965 H   0  0  0  0  0  0  0  0  0  0  0  0
  156.4339  137.9835  161.6352 H   0  0  0  0  0  0  0  0  0  0  0  0
  155.1195  138.7414  159.9213 H   0  0  0  0  0  0  0  0  0  0  0  0
  154.0200  139.9045  158.8151 H   0  0  0  0  0  0  0  0  0  0  0  0
  153.1114  143.0479  160.6905 H   0  0  0  0  0  0  0  0  0  0  0  0
  151.5373  144.6809  159.7085 H   0  0  0  0  0  0  0  0  0  0  0  0
  150.4018  144.1254  157.5439 H   0  0  0  0  0  0  0  0  0  0  0  0
  151.9773  139.0177  155.5267 H   0  0  0  0  0  0  0  0  0  0  0  0
  152.0251  140.7452  155.1930 H   0  0  0  0  0  0  0  0  0  0  0  0
  150.6315  140.0308  156.0363 H   0  0  0  0  0  0  0  0  0  0  0  0
  157.3389  140.2753  161.9099 H   0  0  0  0  0  0  0  0  0  0  0  0
  155.9260  140.7619  162.8160 H   0  0  0  0  0  0  0  0  0  0  0  0
  157.7727  140.2700  164.3502 H   0  0  0  0  0  0  0  0  0  0  0  0
  157.9831  138.6664  163.6812 H   0  0  0  0  0  0  0  0  0  0  0  0
  155.5629  139.6309  165.0239 H   0  0  0  0  0  0  0  0  0  0  0  0
  1  2  1  0  0  0  0
  1 24  1  0  0  0  0
  1 25  1  0  0  0  0
  1 26  1  0  0  0  0
  2  3  1  0  0  0  0
  3  4  2  0  0  0  0
  3  5  1  0  0  0  0
  5  6  1  0  0  0  0
  5 27  1  0  0  0  0
  5 28  1  0  0  0  0
  6 23  1  0  0  0  0
  6  7  1  0  0  0  0
  6 46  1  0  0  0  0
  7  8  1  0  0  0  0
  7 29  1  0  0  0  0
  7 30  1  0  0  0  0
  8  9  1  0  0  0  0
  8 31  1  0  0  0  0
  8 32  1  0  0  0  0
  9 10  1  0  0  0  0
  9 22  1  0  0  0  0
  9 33  1  0  0  0  0
 10 11  1  0  0  0  0
 10 34  1  0  0  0  0
 11 12  2  0  0  0  0
 11 13  1  0  0  0  0
 13 14  1  0  0  0  0
 13 35  1  0  0  0  0
 14 19  1  0  0  0  0
 14 15  2  0  0  0  0
 15 16  1  0  0  0  0
 15 36  1  0  0  0  0
 16 17  2  0  0  0  0
 16 37  1  0  0  0  0
 17 18  1  0  0  0  0
 17 38  1  0  0  0  0
 18 19  2  0  0  0  0
 19 20  1  0  0  0  0
 20 21  1  0  0  0  0
 21 39  1  0  0  0  0
 21 40  1  0  0  0  0
 21 41  1  0  0  0  0
 22 23  1  0  0  0  0
 22 42  1  0  0  0  0
 22 43  1  0  0  0  0
 23 44  1  0  0  0  0
 23 45  1  0  0  0  0
M  CHG  1   2  -1
M  CHG  1   6   1
M  END
> <s_m_source_file>
AV-unprocessed.smi

> <i_m_source_file_index>
1898

> <i_lp_mmshare_version>
43012

> <i_f3d_flags>
0

> <s_epik_input>
W0NIM11bTkhdQyg9TylbQ0gyXU4xW0NIMl1bQ0gyXVtDSF0oW0NIMl1bQ0gyXTEpW05IXUMoPU8pW05IXWMyW2NIXVtjSF1bY0hdbmMyT1tDSDNd

> <s_epik_cmdline>
J2VwaWtfcHl0aG9uJywgJy1waCcsICc3LjAnLCAnLXRuJywgJzgnLCAnLW1hJywgJzIwMCcsICctbWV0YWxfYmluZGluZycsICctaW1hZScsICc8aW5maWxlLm1hZT4nLCAnLW9tYWUnLCAnPG91dGZpbGUubWFlPic=

> <r_lp_tautomer_probability>
1

> <r_epik_Ionization_Penalty>
6.13954

> <r_epik_Ionization_Penalty_Charging>
6.13946

> <r_epik_Ionization_Penalty_Neutral>
7.84403e-05

> <r_epik_State_Penalty>
6.9595

> <r_epik_Charging_Adjusted_Penalty>
13.099

> <i_epik_Tot_Q>
0

> <i_epik_Tot_abs_Q>
2

> <r_epik_Metal_State_Penalty>
2.89145

> <b_epik_Metal_Only>
1

> <s_lp_Force_Field>
OPLS_2005

> <r_lp_Energy>
12.3689

> <b_lp_Chiralities_Consistent>
1

> <s_lp_Variant>
AV-unprocessed.smi:1898-4

> <Gold.Version>
5.8.1

> <Gold.Id.Protein>
6NUR|6NUR_protein|mol2

> <Gold.PLP.Fitness>
36.7423

> <Gold.PLP.PLP>
-31.8721

> <Gold.PLP.part.hbond>
-2.0000

> <Gold.PLP.part.metal>
0.0000

> <Gold.PLP.part.buried>
-4.3198

> <Gold.PLP.part.nonpolar>
-24.0960

> <Gold.PLP.part.repulsive>
0.2946

> <Gold.PLP.ligand.clash>
0.0000

> <Gold.PLP.ligand.torsion>
0.5928

> <Gold.PLP.Chemscore.Hbond>
0.9913

> <Gold.PLP.Chemscore.CHOScore>
1.0000

> <Gold.PLP.Chemscore.Metal>
0.0000

> <Gold.Chemscore.Hbonds>
donor molecule, donor type, donor heavy atom, donor atom, acceptor molecule, acceptor atom, score
      P1  H  7997  8008       L1    20  0.89
      L1  C    17    38       P1  8028  1.00

> <Gold.PLP.Chemscore.Internal.Correction>
0.0820

> <Gold.Rescore>
     Score         DG    S(hbond)    S(metal)    S(lipo)     H(rot)  DE(clash)    DE(int)     intcor
      6.41     -10.85       0.20        0.00      82.40       1.93       0.32       4.11       ----

> <Gold.Chemscore.Fitness>
6.4115

> <Gold.Chemscore.DG>
-10.8478

> <Gold.Chemscore.ZeroCoef>
-5.4800

> <Gold.Chemscore.Hbond>
0.1986

> <Gold.Chemscore.Metal>
0.0000

> <Gold.Chemscore.Lipo>
82.4027

> <Gold.Chemscore.Internal_Hbond>
0.0000

> <Gold.Chemscore.DEClash>
0.3220

> <Gold.Chemscore.DEInternal>
4.1143

> <Gold.Chemscore.Rot>
1.9283

> <Gold.Chemscore.Internal.Correction>
   9.000000E+99

> <Gold.Chemscore.Hbonds>
donor molecule, donor type, donor heavy atom, donor atom, acceptor molecule, acceptor atom, score
      P1  H  7997  8008       L1    20  0.20

> <Gold.Chemscore.Hbond.Weighted>
-0.6632

> <Gold.Chemscore.Metal.Weighted>
-0.0000

> <Gold.Chemscore.Lipo.Weighted>
-9.6411

> <Gold.Chemscore.Internal_Hbond.Weighted>
0.0000

> <Gold.Chemscore.DEClash.Weighted>
0.3220

> <Gold.Chemscore.DEInternal.Weighted>
4.1143

> <Gold.Chemscore.Rot.Weighted>
4.9365

> <Gold.Chemscore.Internal.Correction.Weighted>
   9.000000E+99

> <Gold.Protein.RotatedTorsions>
[ 6907 6896 6895 6894 ] final   49.27 input  -60.11 | X-H torsion
[ 7974 7965 7964 7962 ] final  109.09 input  175.53 | X-H torsion
[ 8008 7997 7996 7995 ] final  -61.40 input   59.86 | X-H torsion
[ 10167 10162 10161 10158 ] final  -46.48 input  -65.29 | X-H torsion
[ 10718 10713 10712 10709 ] final  108.90 input   66.30 | X-H torsion
[ 10763 10752 10751 10750 ] final   25.51 input  -60.55 | X-H torsion
[ 11005 11000 10999 10996 ] final  -20.64 input  -57.11 | X-H torsion

> <Gold.Protein.ActiveResidues>
 VAL166  LYS551  ARG553  GLY616  TRP617  ASP618  TYR619  PRO620  LYS621  CYS622 
 ASP623  PHE694  ASN695  SER759  ASP760  ASP761  ALA762  ILE779  LEU786  VAL792 
 PHE793  MET794  SER795  GLU796  ALA797  LYS798  CYS799  TRP800  GLU811  SER814 

> <Gold.Protein.RotatedAtoms>
  152.2889  134.7744  160.0381 H   0  0  0  0  0  0  0  0  0  0  0  0  # atno 6907 bound_to 6896
  151.8297  133.3401  159.3617 H   0  0  0  0  0  0  0  0  0  0  0  0  # atno 6908 bound_to 6896
  150.7222  134.5424  159.5798 H   0  0  0  0  0  0  0  0  0  0  0  0  # atno 6909 bound_to 6896
  145.2723  139.2662  143.3960 H   0  0  0  0  0  0  0  0  0  0  0  0  # atno 7974 bound_to 7965
  154.4446  140.1018  156.6425 H   0  0  0  0  0  0  0  0  0  0  0  0  # atno 8008 bound_to 7997
  155.5486  140.3485  155.4444 H   0  0  0  0  0  0  0  0  0  0  0  0  # atno 8009 bound_to 7997
  156.0545  140.1312  157.0001 H   0  0  0  0  0  0  0  0  0  0  0  0  # atno 8010 bound_to 7997
  140.6816  143.2829  151.3788 H   0  0  0  0  0  0  0  0  0  0  0  0  # atno 10167 bound_to 10162
  157.6565  131.0903  150.6375 H   0  0  0  0  0  0  0  0  0  0  0  0  # atno 10718 bound_to 10713
  153.0687  135.6581  154.0297 H   0  0  0  0  0  0  0  0  0  0  0  0  # atno 10763 bound_to 10752
  153.9947  135.2942  155.3410 H   0  0  0  0  0  0  0  0  0  0  0  0  # atno 10764 bound_to 10752
  154.7054  135.5227  153.8656 H   0  0  0  0  0  0  0  0  0  0  0  0  # atno 10765 bound_to 10752
  140.8484  133.7875  155.9938 H   0  0  0  0  0  0  0  0  0  0  0  0  # atno 11005 bound_to 11000
  146.3242  140.3169  142.8630 LP  0  0  0  0  0  0  0  0  0  0  0  0  # atno 17320 bound_to 7965
  144.9324  140.7990  143.5681 LP  0  0  0  0  0  0  0  0  0  0  0  0  # atno 17321 bound_to 7965
  139.6142  144.1036  152.2329 LP  0  0  0  0  0  0  0  0  0  0  0  0  # atno 17342 bound_to 10162
  140.0460  144.5970  150.7373 LP  0  0  0  0  0  0  0  0  0  0  0  0  # atno 17343 bound_to 10162
  156.6681  130.4531  149.5666 LP  0  0  0  0  0  0  0  0  0  0  0  0  # atno 17370 bound_to 10713
  156.2018  130.6624  151.1175 LP  0  0  0  0  0  0  0  0  0  0  0  0  # atno 17371 bound_to 10713
  140.8818  134.2602  157.5140 LP  0  0  0  0  0  0  0  0  0  0  0  0  # atno 17394 bound_to 11000
  139.8704  134.9618  156.4410 LP  0  0  0  0  0  0  0  0  0  0  0  0  # atno 17395 bound_to 11000

$$$$
