AV-unprocessed.smi:3129|AV-procd|sdf|11925|dock6
  -GOLD-   2272017313D 1   1.00000     0.00000
 Structure written by MMmdl.
 39 39  0  0  0  0  0  0  0  0  1 V2000
  151.1085  139.1957  155.3170 C   0  0  0  0  0  0  0  0  0  0  0  0
  150.2431  138.0684  154.7264 C   0  0  0  0  0  0  0  0  0  0  0  0
  148.7549  138.4395  154.8036 C   0  0  0  0  0  0  0  0  0  0  0  0
  150.4953  136.7013  155.3972 C   0  0  0  0  0  0  0  0  0  0  0  0
  149.8265  135.6055  154.7013 N   0  0  0  0  0  0  0  0  0  0  0  0
  149.9665  134.3005  154.9824 C   0  0  0  0  0  0  0  0  0  0  0  0
  150.6913  133.8745  155.8828 O   0  0  0  0  0  0  0  0  0  0  0  0
  149.1610  133.3207  154.1135 C   0  0  1  0  0  0  0  0  0  0  0  0
  148.4979  132.2548  154.9993 C   0  0  0  0  0  0  0  0  0  0  0  0
  148.1421  133.9771  153.2744 N   0  0  0  0  0  0  0  0  0  0  0  0
  147.5655  133.1137  152.2499 C   0  0  0  0  0  0  0  0  0  0  0  0
  146.0551  133.3740  152.1603 C   0  0  0  0  0  0  0  0  0  0  0  0
  145.4999  132.8730  150.9180 N   0  0  0  0  0  0  0  0  0  0  0  0
  146.1699  132.4128  149.8041 C   0  0  0  0  0  0  0  0  0  0  0  0
  145.2276  132.0434  148.8873 C   0  0  0  0  0  0  0  0  0  0  0  0
  143.9940  132.3184  149.5414 C   0  0  0  0  0  0  0  0  0  0  0  0
  144.1602  132.8135  150.7574 N   0  0  0  0  0  0  0  0  0  0  0  0
  150.9345  139.3082  156.3875 H   0  0  0  0  0  0  0  0  0  0  0  0
  150.8858  140.1515  154.8420 H   0  0  0  0  0  0  0  0  0  0  0  0
  152.1716  139.0064  155.1694 H   0  0  0  0  0  0  0  0  0  0  0  0
  150.4992  137.9762  153.6701 H   0  0  0  0  0  0  0  0  0  0  0  0
  148.4254  138.5397  155.8384 H   0  0  0  0  0  0  0  0  0  0  0  0
  148.1345  137.6794  154.3282 H   0  0  0  0  0  0  0  0  0  0  0  0
  148.5576  139.3854  154.2984 H   0  0  0  0  0  0  0  0  0  0  0  0
  151.5667  136.5127  155.4871 H   0  0  0  0  0  0  0  0  0  0  0  0
  150.1081  136.7185  156.4164 H   0  0  0  0  0  0  0  0  0  0  0  0
  149.2079  135.8593  153.9447 H   0  0  0  0  0  0  0  0  0  0  0  0
  149.8559  132.8061  153.4473 H   0  0  0  0  0  0  0  0  0  0  0  0
  149.2339  131.7378  155.6168 H   0  0  0  0  0  0  0  0  0  0  0  0
  147.9952  131.5011  154.3926 H   0  0  0  0  0  0  0  0  0  0  0  0
  147.7539  132.6928  155.6660 H   0  0  0  0  0  0  0  0  0  0  0  0
  148.5007  134.8203  152.8490 H   0  0  0  0  0  0  0  0  0  0  0  0
  148.0241  133.3062  151.2793 H   0  0  0  0  0  0  0  0  0  0  0  0
  147.7523  132.0688  152.5011 H   0  0  0  0  0  0  0  0  0  0  0  0
  145.5320  132.9002  152.9929 H   0  0  0  0  0  0  0  0  0  0  0  0
  145.8483  134.4432  152.2233 H   0  0  0  0  0  0  0  0  0  0  0  0
  147.2488  132.3857  149.7576 H   0  0  0  0  0  0  0  0  0  0  0  0
  145.3941  131.6384  147.9002 H   0  0  0  0  0  0  0  0  0  0  0  0
  142.9895  132.1733  149.1716 H   0  0  0  0  0  0  0  0  0  0  0  0
  1  2  1  0  0  0  0
  1 18  1  0  0  0  0
  1 19  1  0  0  0  0
  1 20  1  0  0  0  0
  2  3  1  0  0  0  0
  2  4  1  0  0  0  0
  2 21  1  0  0  0  0
  3 22  1  0  0  0  0
  3 23  1  0  0  0  0
  3 24  1  0  0  0  0
  4  5  1  0  0  0  0
  4 25  1  0  0  0  0
  4 26  1  0  0  0  0
  5  6  1  0  0  0  0
  5 27  1  0  0  0  0
  6  7  2  0  0  0  0
  6  8  1  0  0  0  0
  8  9  1  0  0  0  0
  8 10  1  0  0  0  0
  8 28  1  0  0  0  0
  9 29  1  0  0  0  0
  9 30  1  0  0  0  0
  9 31  1  0  0  0  0
 10 11  1  0  0  0  0
 10 32  1  0  0  0  0
 11 12  1  0  0  0  0
 11 33  1  0  0  0  0
 11 34  1  0  0  0  0
 12 13  1  0  0  0  0
 12 35  1  0  0  0  0
 12 36  1  0  0  0  0
 13 17  1  0  0  0  0
 13 14  1  0  0  0  0
 14 15  2  0  0  0  0
 14 37  1  0  0  0  0
 15 16  1  0  0  0  0
 15 38  1  0  0  0  0
 16 17  2  0  0  0  0
 16 39  1  0  0  0  0
M  END
> <s_m_source_file>
AV-unprocessed.smi

> <i_m_source_file_index>
3129

> <i_lp_mmshare_version>
43012

> <i_f3d_flags>
0

> <s_epik_input>
W0NIM11bQ0hdKFtDSDNdKVtDSDJdW05IXUMoPU8pW0NASF0oW0NIM10pW05IXVtDSDJdW0NIMl1uMVtjSF1bY0hdW2NIXW4x

> <s_epik_cmdline>
J2VwaWtfcHl0aG9uJywgJy1waCcsICc3LjAnLCAnLXRuJywgJzgnLCAnLW1hJywgJzIwMCcsICctbWV0YWxfYmluZGluZycsICctaW1hZScsICc8aW5maWxlLm1hZT4nLCAnLW9tYWUnLCAnPG91dGZpbGUubWFlPic=

> <r_lp_tautomer_probability>
1

> <r_epik_Ionization_Penalty>
0.724007

> <r_epik_Ionization_Penalty_Charging>
0

> <r_epik_Ionization_Penalty_Neutral>
0.724007

> <r_epik_State_Penalty>
0.74758

> <r_epik_Charging_Adjusted_Penalty>
0.74758

> <i_epik_Tot_Q>
0

> <i_epik_Tot_abs_Q>
0

> <r_epik_Metal_State_Penalty>
0.746851

> <b_epik_Metal_Only>
0

> <s_lp_Force_Field>
OPLS_2005

> <r_lp_Energy>
5.77618

> <b_lp_Chiralities_Consistent>
1

> <s_lp_Variant>
AV-unprocessed.smi:3129-4

> <Gold.Version>
5.8.1

> <Gold.Id.Protein>
6NUR|6NUR_protein|mol2

> <Gold.PLP.Fitness>
44.8741

> <Gold.PLP.PLP>
-33.6666

> <Gold.PLP.part.hbond>
-2.4166

> <Gold.PLP.part.metal>
0.0000

> <Gold.PLP.part.buried>
-3.4606

> <Gold.PLP.part.nonpolar>
-29.5723

> <Gold.PLP.part.repulsive>
0.2565

> <Gold.PLP.ligand.clash>
0.0000

> <Gold.PLP.ligand.torsion>
0.8876

> <Gold.PLP.Chemscore.Hbond>
2.0000

> <Gold.PLP.Chemscore.CHOScore>
2.2837

> <Gold.PLP.Chemscore.Metal>
0.0000

> <Gold.Chemscore.Hbonds>
donor molecule, donor type, donor heavy atom, donor atom, acceptor molecule, acceptor atom, score
      L1  H     5    27       P1  7948  0.75
      L1  H    10    32       P1  7948  1.00
      L1  C    14    37       P1 10747  1.00
      L1  C    16    39       P1 10952  0.18

> <Gold.PLP.Chemscore.Internal.Correction>
0.1314

> <Gold.Rescore>
     Score         DG    S(hbond)    S(metal)    S(lipo)     H(rot)  DE(clash)    DE(int)     intcor
     14.13     -15.08       1.69        0.00      80.48       2.13       0.07       0.88       ----

> <Gold.Chemscore.Fitness>
14.1269

> <Gold.Chemscore.DG>
-15.0773

> <Gold.Chemscore.ZeroCoef>
-5.4800

> <Gold.Chemscore.Hbond>
1.6903

> <Gold.Chemscore.Metal>
0.0000

> <Gold.Chemscore.Lipo>
80.4778

> <Gold.Chemscore.Internal_Hbond>
0.0000

> <Gold.Chemscore.DEClash>
0.0738

> <Gold.Chemscore.DEInternal>
0.8766

> <Gold.Chemscore.Rot>
2.1345

> <Gold.Chemscore.Internal.Correction>
   9.000000E+99

> <Gold.Chemscore.Hbonds>
donor molecule, donor type, donor heavy atom, donor atom, acceptor molecule, acceptor atom, score
      L1  H     5    27       P1  7948  0.60
      L1  H    10    32       P1  7948  0.40

> <Gold.Chemscore.Hbond.Weighted>
-5.6457

> <Gold.Chemscore.Metal.Weighted>
-0.0000

> <Gold.Chemscore.Lipo.Weighted>
-9.4159

> <Gold.Chemscore.Internal_Hbond.Weighted>
0.0000

> <Gold.Chemscore.DEClash.Weighted>
0.0738

> <Gold.Chemscore.DEInternal.Weighted>
0.8766

> <Gold.Chemscore.Rot.Weighted>
5.4642

> <Gold.Chemscore.Internal.Correction.Weighted>
   9.000000E+99

> <Gold.Protein.RotatedTorsions>
[ 6907 6896 6895 6894 ] final  -28.69 input  -60.11 | X-H torsion
[ 7974 7965 7964 7962 ] final  148.95 input  175.53 | X-H torsion
[ 8008 7997 7996 7995 ] final  100.73 input   59.86 | X-H torsion
[ 10167 10162 10161 10158 ] final   39.52 input  -65.29 | X-H torsion
[ 10718 10713 10712 10709 ] final  148.08 input   66.30 | X-H torsion
[ 10763 10752 10751 10750 ] final  -85.78 input  -60.55 | X-H torsion
[ 11005 11000 10999 10996 ] final  141.43 input  -57.11 | X-H torsion

> <Gold.Protein.ActiveResidues>
 VAL166  LYS551  ARG553  GLY616  TRP617  ASP618  TYR619  PRO620  LYS621  CYS622 
 ASP623  PHE694  ASN695  SER759  ASP760  ASP761  ALA762  ILE779  LEU786  VAL792 
 PHE793  MET794  SER795  GLU796  ALA797  LYS798  CYS799  TRP800  GLU811  SER814 

> <Gold.Protein.RotatedAtoms>
  151.1294  135.0122  159.8575 H   0  0  0  0  0  0  0  0  0  0  0  0  # atno 6907 bound_to 6896
  152.5450  134.1628  159.8575 H   0  0  0  0  0  0  0  0  0  0  0  0  # atno 6908 bound_to 6896
  151.1693  133.4749  159.2627 H   0  0  0  0  0  0  0  0  0  0  0  0  # atno 6909 bound_to 6896
  144.8475  139.6218  143.5989 H   0  0  0  0  0  0  0  0  0  0  0  0  # atno 7974 bound_to 7965
  156.1231  140.3209  155.8238 H   0  0  0  0  0  0  0  0  0  0  0  0  # atno 8008 bound_to 7997
  155.4468  140.0529  157.3022 H   0  0  0  0  0  0  0  0  0  0  0  0  # atno 8009 bound_to 7997
  154.4842  140.2066  155.9706 H   0  0  0  0  0  0  0  0  0  0  0  0  # atno 8010 bound_to 7997
  140.3832  144.1952  150.6130 H   0  0  0  0  0  0  0  0  0  0  0  0  # atno 10167 bound_to 10162
  157.3130  131.0891  151.1301 H   0  0  0  0  0  0  0  0  0  0  0  0  # atno 10718 bound_to 10713
  154.6150  135.5473  153.7513 H   0  0  0  0  0  0  0  0  0  0  0  0  # atno 10763 bound_to 10752
  153.0212  135.6398  154.1524 H   0  0  0  0  0  0  0  0  0  0  0  0  # atno 10764 bound_to 10752
  154.1460  135.2905  155.3128 H   0  0  0  0  0  0  0  0  0  0  0  0  # atno 10765 bound_to 10752
  140.0401  134.9309  157.0827 H   0  0  0  0  0  0  0  0  0  0  0  0  # atno 11005 bound_to 11000
  146.2756  139.6745  142.9265 LP  0  0  0  0  0  0  0  0  0  0  0  0  # atno 17320 bound_to 7965
  145.4568  141.0431  143.2774 LP  0  0  0  0  0  0  0  0  0  0  0  0  # atno 17321 bound_to 7965
  140.4916  143.2345  151.8810 LP  0  0  0  0  0  0  0  0  0  0  0  0  # atno 17342 bound_to 10162
  139.4794  144.5159  151.8868 LP  0  0  0  0  0  0  0  0  0  0  0  0  # atno 17343 bound_to 10162
  157.2615  130.6661  149.5977 LP  0  0  0  0  0  0  0  0  0  0  0  0  # atno 17370 bound_to 10713
  155.9679  130.4507  150.5707 LP  0  0  0  0  0  0  0  0  0  0  0  0  # atno 17371 bound_to 10713
  140.4083  134.2008  155.7163 LP  0  0  0  0  0  0  0  0  0  0  0  0  # atno 17394 bound_to 11000
  141.1878  133.8273  157.1017 LP  0  0  0  0  0  0  0  0  0  0  0  0  # atno 17395 bound_to 11000

$$$$
