#       Name:                AV-unprocessed.smi:80
#       Creating user name   scv26
#       Creation time:       Thu Mar 26 17:15:13 2020


#       File generated by GOLD software.
#

@<TRIPOS>MOLECULE
AV-unprocessed.smi:80
    62    65     1
SMALL
NO_CHARGES


@<TRIPOS>ATOM
      1 ****        -6.4092  -4.8792   1.1531 N.1            1 S1                 0.0000
      2 ****        -6.1033  -3.7707   1.2836 C.1            1 S1                 0.0000
      3 ****        -5.7139  -2.3609   1.4532 C.3            1 S1                 0.0000
      4 ****        -5.5540  -1.6043   0.1279 C.2            1 S1                 0.0000
      5 ****        -5.7870  -2.1949  -0.9275 O.2            1 S1                 0.0000
      6 ****        -5.1572  -0.3107   0.1636 N.am           1 S1                 0.0000
      7 ****        -4.8023   0.4328   1.3788 C.3            1 S1                 0.0000
      8 ****        -3.2904   0.7213   1.3558 C.3            1 S1                 0.0000
      9 ****        -2.9191   1.4089   0.1202 N.3            1 S1                 0.0000
     10 ****        -1.6277   1.7963   0.0854 C.ar           1 S1                 0.0000
     11 ****        -1.3803   3.1284   0.1054 N.ar           1 S1                 0.0000
     12 ****        -0.1199   3.5723   0.0755 C.ar           1 S1                 0.0000
     13 ****         1.0130   2.8675   0.0279 N.ar           1 S1                 0.0000
     14 ****         0.7652   1.5257   0.0102 C.ar           1 S1                 0.0000
     15 ****        -0.5169   0.9083   0.0325 C.ar           1 S1                 0.0000
     16 ****        -0.3798  -0.4735  -0.0069 N.2            1 S1                 0.0000
     17 ****         0.9107  -0.6624  -0.0553 C.2            1 S1                 0.0000
     18 ****         1.6760   0.4834  -0.0326 N.pl3          1 S1                 0.0000
     19 ****         3.1080   0.5716  -0.0954 C.3            1 S1                 0.0000
     20 ****         3.8478   0.2420  -1.3927 C.3            1 S1                 0.0000
     21 ****         5.0061  -0.3884  -0.5860 C.3            1 S1                 0.0000
     22 ****         5.4763  -1.7512  -1.1168 C.3            1 S1                 0.0000
     23 ****         6.2227  -2.4554  -0.1452 O.3            1 S1                 0.0000
     24 ****         6.2660   0.4863  -0.4006 C.3            1 S1                 0.0000
     25 ****         5.9748   1.8011   0.0278 O.3            1 S1                 0.0000
     26 ****         4.0140  -0.4510   0.5978 C.3            1 S1                 0.0000
     27 ****        -3.3800   0.7804  -1.1173 C.3            1 S1                 0.0000
     28 ****        -4.8893   0.4799  -1.0443 C.3            1 S1                 0.0000
     29 ****        -6.4790  -1.8829   2.0655 H              1 S1                 0.0000
     30 ****        -4.7741  -2.3497   2.0060 H              1 S1                 0.0000
     31 ****        -5.3591   1.3708   1.3963 H              1 S1                 0.0000
     32 ****        -5.0664  -0.0814   2.3012 H              1 S1                 0.0000
     33 ****        -3.0159   1.3359   2.2140 H              1 S1                 0.0000
     34 ****        -2.7362  -0.2143   1.4402 H              1 S1                 0.0000
     35 ****        -0.0017   4.6458   0.0937 H              1 S1                 0.0000
     36 ****         1.3379  -1.6528  -0.1113 H              1 S1                 0.0000
     37 ****         3.3692   1.5749   0.2433 H              1 S1                 0.0000
     38 ****         3.3070  -0.4833  -2.0028 H              1 S1                 0.0000
     39 ****         4.1216   1.1159  -1.9848 H              1 S1                 0.0000
     40 ****         4.6259  -2.3741  -1.3960 H              1 S1                 0.0000
     41 ****         6.0831  -1.6375  -2.0157 H              1 S1                 0.0000
     42 ****         6.4742  -3.2912  -0.5074 H              1 S1                 0.0000
     43 ****         6.9406   0.0480   0.3353 H              1 S1                 0.0000
     44 ****         6.8268   0.5585  -1.3330 H              1 S1                 0.0000
     45 ****         6.7880   2.2717   0.1290 H              1 S1                 0.0000
     46 ****         4.4224  -0.1118   1.5504 H              1 S1                 0.0000
     47 ****         3.5530  -1.4333   0.7053 H              1 S1                 0.0000
     48 ****        -3.1727   1.4381  -1.9623 H              1 S1                 0.0000
     49 ****        -2.8290  -0.1450  -1.2895 H              1 S1                 0.0000
     50 ****        -5.2122  -0.0179  -1.9595 H              1 S1                 0.0000
     51 ****        -5.4546   1.4117  -0.9947 H              1 S1                 0.0000
     52 ****        -6.6735  -5.8370   1.0403 LP             1 S1                 0.0000
     53 ****        -6.0753  -3.1523  -0.9116 LP             1 S1                 0.0000
     54 ****        -5.6878  -1.7170  -1.8003 LP             1 S1                 0.0000
     55 ****        -3.4540   2.2530   0.1571 LP             1 S1                 0.0000
     56 ****        -2.1394   3.7783   0.1424 LP             1 S1                 0.0000
     57 ****         1.9275   3.2717   0.0077 LP             1 S1                 0.0000
     58 ****        -1.1030  -1.1641   0.0002 LP             1 S1                 0.0000
     59 ****         5.6641  -2.5964   0.6721 LP             1 S1                 0.0000
     60 ****         7.0404  -1.9326   0.0960 LP             1 S1                 0.0000
     61 ****         5.4916   1.7712   0.9027 LP             1 S1                 0.0000
     62 ****         5.4031   2.2586  -0.6533 LP             1 S1                 0.0000
@<TRIPOS>BOND
    1    1    2 3     
    2    2    3 1     
    3    3    4 1     
    4    3   29 1     
    5    3   30 1     
    6    4    5 2     
    7    4    6 am    
    8    6   28 1     
    9    6    7 1     
   10    7    8 1     
   11    7   31 1     
   12    7   32 1     
   13    8    9 1     
   14    8   33 1     
   15    8   34 1     
   16    9   10 1     
   17    9   27 1     
   18   10   15 ar    
   19   10   11 ar    
   20   11   12 ar    
   21   12   13 ar    
   22   12   35 1     
   23   13   14 ar    
   24   14   18 1     
   25   14   15 ar    
   26   15   16 1     
   27   16   17 2     
   28   17   18 1     
   29   17   36 1     
   30   18   19 1     
   31   19   26 1     
   32   19   20 1     
   33   19   37 1     
   34   20   21 1     
   35   20   38 1     
   36   20   39 1     
   37   21   22 1     
   38   21   24 1     
   39   21   26 1     
   40   22   23 1     
   41   22   40 1     
   42   22   41 1     
   43   23   42 1     
   44   24   25 1     
   45   24   43 1     
   46   24   44 1     
   47   25   45 1     
   48   26   46 1     
   49   26   47 1     
   50   27   28 1     
   51   27   48 1     
   52   27   49 1     
   53   28   50 1     
   54   28   51 1     
   55    1   52 1     
   56    5   53 1     
   57    5   54 1     
   58    9   55 1     
   59   11   56 1     
   60   13   57 1     
   61   16   58 1     
   62   23   59 1     
   63   23   60 1     
   64   25   61 1     
   65   25   62 1     
@<TRIPOS>SUBSTRUCTURE
      1 S1             1
@<TRIPOS>SET
LONE_PAIRS      STATIC     ATOMS    <user>   **** ""
11 52 53 54 55 56 57 58 59 60 61 62
DONOR_HYDROGENS      STATIC     ATOMS    <user>   **** ""
2 42 45
ATOM$BLUE        STATIC     ATOMS    COLORGROUP SYSTEM
11 52 53 54 55 56 57 58 59 60 61 62
ATOM$RED        STATIC     ATOMS    COLORGROUP SYSTEM
2 42 45
