#       Name:                AV-unprocessed.smi:937
#       Creating user name   scv26
#       Creation time:       Fri Mar 27 02:12:07 2020


#       File generated by GOLD software.
#

@<TRIPOS>MOLECULE
AV-unprocessed.smi:937
    48    49     1
SMALL
NO_CHARGES


@<TRIPOS>ATOM
      1 ****        -3.2550   7.3922  -0.0056 C.3            1 S1                 0.0000
      2 ****        -2.7846   5.9627   0.1636 C.ar           1 S1                 0.0000
      3 ****        -2.5823   5.4132   1.4473 C.ar           1 S1                 0.0000
      4 ****        -2.1379   4.0803   1.5436 C.ar           1 S1                 0.0000
      5 ****        -1.9150   3.3504   0.3579 C.ar           1 S1                 0.0000
      6 ****        -1.4260   1.9162   0.4027 C.3            1 S1                 0.0000
      7 ****         0.0906   1.8186   0.1912 C.3            1 S1                 0.0000
      8 ****         0.5267   0.4301   0.2347 N.am           1 S1                 0.0000
      9 ****         1.7216  -0.0069  -0.1942 C.2            1 S1                 0.0000
     10 ****         2.5835   0.7328  -0.6648 O.2            1 S1                 0.0000
     11 ****         1.9108  -1.3342  -0.0839 N.am           1 S1                 0.0000
     12 ****         3.0883  -2.1257  -0.4555 C.3            1 S1                 0.0000
     13 ****         4.2043  -2.0302   0.6077 C.3            1 S1                 0.0000
     14 ****         3.8256  -2.7532   1.9102 C.3            1 S1                 0.0000
     15 ****         3.4444  -4.2175   1.6442 C.3            1 S1                 0.0000
     16 ****         2.3007  -4.3313   0.6144 C.3            1 S1                 0.0000
     17 ****         1.9028  -5.7987   0.3520 C.3            1 S1                 0.0000
     18 ****         2.9223  -6.4812  -0.1703 F              1 S1                 0.0000
     19 ****         1.5321  -6.3826   1.4915 F              1 S1                 0.0000
     20 ****         0.8735  -5.8471  -0.4936 F              1 S1                 0.0000
     21 ****         2.6823  -3.5948  -0.6909 C.3            1 S1                 0.0000
     22 ****        -2.1505   3.9930  -0.8759 C.ar           1 S1                 0.0000
     23 ****        -2.5754   5.2707  -0.9781 N.ar           1 S1                 0.0000
     24 ****        -3.4169   7.8729   0.9596 H              1 S1                 0.0000
     25 ****        -4.1930   7.4206  -0.5608 H              1 S1                 0.0000
     26 ****        -2.5121   7.9725  -0.5536 H              1 S1                 0.0000
     27 ****        -2.7602   5.9973   2.3384 H              1 S1                 0.0000
     28 ****        -1.9698   3.6303   2.5110 H              1 S1                 0.0000
     29 ****        -1.7019   1.4719   1.3601 H              1 S1                 0.0000
     30 ****        -1.9488   1.3441  -0.3650 H              1 S1                 0.0000
     31 ****         0.3586   2.2597  -0.7704 H              1 S1                 0.0000
     32 ****         0.6178   2.3813   0.9627 H              1 S1                 0.0000
     33 ****        -0.1246  -0.2461   0.6059 H              1 S1                 0.0000
     34 ****         1.1306  -1.8637   0.2772 H              1 S1                 0.0000
     35 ****         3.4734  -1.7415  -1.4018 H              1 S1                 0.0000
     36 ****         5.1144  -2.4784   0.2071 H              1 S1                 0.0000
     37 ****         4.4530  -0.9899   0.8192 H              1 S1                 0.0000
     38 ****         4.6591  -2.7106   2.6117 H              1 S1                 0.0000
     39 ****         2.9938  -2.2376   2.3918 H              1 S1                 0.0000
     40 ****         4.3199  -4.7607   1.2863 H              1 S1                 0.0000
     41 ****         3.1527  -4.6895   2.5828 H              1 S1                 0.0000
     42 ****         1.4268  -3.8335   1.0376 H              1 S1                 0.0000
     43 ****         1.8562  -3.6369  -1.4019 H              1 S1                 0.0000
     44 ****         3.5132  -4.1175  -1.1666 H              1 S1                 0.0000
     45 ****        -1.9894   3.4697  -1.8069 H              1 S1                 0.0000
     46 ****         2.4112   1.7147  -0.7434 LP             1 S1                 0.0000
     47 ****         3.4569   0.3526  -0.9691 LP             1 S1                 0.0000
     48 ****        -2.7305   5.6920  -1.8717 LP             1 S1                 0.0000
@<TRIPOS>BOND
    1    1    2 1     
    2    1   24 1     
    3    1   25 1     
    4    1   26 1     
    5    2   23 ar    
    6    2    3 ar    
    7    3    4 ar    
    8    3   27 1     
    9    4    5 ar    
   10    4   28 1     
   11    5    6 1     
   12    5   22 ar    
   13    6    7 1     
   14    6   29 1     
   15    6   30 1     
   16    7    8 1     
   17    7   31 1     
   18    7   32 1     
   19    8    9 am    
   20    8   33 1     
   21    9   10 2     
   22    9   11 am    
   23   11   12 1     
   24   11   34 1     
   25   12   21 1     
   26   12   13 1     
   27   12   35 1     
   28   13   14 1     
   29   13   36 1     
   30   13   37 1     
   31   14   15 1     
   32   14   38 1     
   33   14   39 1     
   34   15   16 1     
   35   15   40 1     
   36   15   41 1     
   37   16   17 1     
   38   16   21 1     
   39   16   42 1     
   40   17   18 1     
   41   17   19 1     
   42   17   20 1     
   43   21   43 1     
   44   21   44 1     
   45   22   23 ar    
   46   22   45 1     
   47   10   46 1     
   48   10   47 1     
   49   23   48 1     
@<TRIPOS>SUBSTRUCTURE
      1 S1             1
@<TRIPOS>SET
LONE_PAIRS      STATIC     ATOMS    <user>   **** ""
3 46 47 48
DONOR_HYDROGENS      STATIC     ATOMS    <user>   **** ""
2 33 34
ATOM$BLUE        STATIC     ATOMS    COLORGROUP SYSTEM
3 46 47 48
ATOM$RED        STATIC     ATOMS    COLORGROUP SYSTEM
2 33 34
