#       Name:                AV-unprocessed.smi:2188
#       Creating user name   scv26
#       Creation time:       Fri Mar 27 12:08:03 2020


#       File generated by GOLD software.
#

@<TRIPOS>MOLECULE
AV-unprocessed.smi:2188
    43    45     1
SMALL
NO_CHARGES


@<TRIPOS>ATOM
      1 ****         1.2352   1.2239  -0.0625 O.2            1 S1                 0.0000
      2 ****         0.7796   0.1878  -0.5495 C.2            1 S1                 0.0000
      3 ****         1.5807  -0.7645  -1.0655 N.am           1 S1                 0.0000
      4 ****         3.0409  -0.7373  -1.0916 C.3            1 S1                 0.0000
      5 ****         3.6556  -1.5836   0.0391 C.3            1 S1                 0.0000
      6 ****         3.2402  -1.1334   1.4288 C.ar           1 S1                 0.0000
      7 ****         2.2311  -1.8125   2.1430 C.ar           1 S1                 0.0000
      8 ****         1.8698  -1.3418   3.4198 C.ar           1 S1                 0.0000
      9 ****         2.5374  -0.2107   3.9308 C.ar           1 S1                 0.0000
     10 ****         3.5072   0.4452   3.2580 N.ar           1 S1                 0.0000
     11 ****         3.8451  -0.0107   2.0328 C.ar           1 S1                 0.0000
     12 ****        -0.6515  -0.1488  -0.6279 C.2            1 S1                 0.0000
     13 ****        -1.0338  -1.4379  -0.4319 C.2            1 S1                 0.0000
     14 ****        -2.4173  -1.8377  -0.5050 C.2            1 S1                 0.0000
     15 ****        -3.3328  -0.8932  -0.7467 C.2            1 S1                 0.0000
     16 ****        -3.0141   0.4519  -0.9270 N.pl3          1 S1                 0.0000
     17 ****        -4.1306   1.3770  -1.0947 C.3            1 S1                 0.0000
     18 ****        -3.7947   2.4372  -2.1281 C.3            1 S1                 0.0000
     19 ****        -2.3796   3.3705  -1.4427 S.o2           1 S1                 0.0000
     20 ****        -1.8597   4.2536  -2.4977 O.2            1 S1                 0.0000
     21 ****        -2.7939   3.9492  -0.1549 O.2            1 S1                 0.0000
     22 ****        -1.3023   2.1190  -1.1644 N.2            1 S1                 0.0000
     23 ****        -1.6600   0.8917  -0.9114 C.2            1 S1                 0.0000
     24 ****         1.1389  -1.5838  -1.4562 H              1 S1                 0.0000
     25 ****         3.3668  -1.1277  -2.0558 H              1 S1                 0.0000
     26 ****         3.4131   0.2872  -1.0399 H              1 S1                 0.0000
     27 ****         3.3801  -2.6308  -0.0935 H              1 S1                 0.0000
     28 ****         4.7436  -1.5476  -0.0276 H              1 S1                 0.0000
     29 ****         1.7349  -2.6726   1.7177 H              1 S1                 0.0000
     30 ****         1.0981  -1.8335   3.9931 H              1 S1                 0.0000
     31 ****         2.2854   0.1774   4.9066 H              1 S1                 0.0000
     32 ****         4.6184   0.5393   1.5167 H              1 S1                 0.0000
     33 ****        -0.3098  -2.2071  -0.2035 H              1 S1                 0.0000
     34 ****        -2.7058  -2.8696  -0.3692 H              1 S1                 0.0000
     35 ****        -4.3849  -1.1307  -0.8111 H              1 S1                 0.0000
     36 ****        -5.0251   0.8441  -1.4190 H              1 S1                 0.0000
     37 ****        -4.3704   1.8320  -0.1332 H              1 S1                 0.0000
     38 ****        -3.5131   2.0025  -3.0878 H              1 S1                 0.0000
     39 ****        -4.6245   3.1254  -2.2878 H              1 S1                 0.0000
     40 ****         2.2236   1.3749  -0.0432 LP             1 S1                 0.0000
     41 ****         0.6166   1.9138   0.3135 LP             1 S1                 0.0000
     42 ****         3.9608   1.2433   3.6546 LP             1 S1                 0.0000
     43 ****        -0.3244   2.3262  -1.1942 LP             1 S1                 0.0000
@<TRIPOS>BOND
    1    1    2 2     
    2    2    3 am    
    3    2   12 1     
    4    3    4 1     
    5    3   24 1     
    6    4    5 1     
    7    4   25 1     
    8    4   26 1     
    9    5    6 1     
   10    5   27 1     
   11    5   28 1     
   12    6   11 ar    
   13    6    7 ar    
   14    7    8 ar    
   15    7   29 1     
   16    8    9 ar    
   17    8   30 1     
   18    9   10 ar    
   19    9   31 1     
   20   10   11 ar    
   21   11   32 1     
   22   12   23 1     
   23   12   13 2     
   24   13   14 1     
   25   13   33 1     
   26   14   15 2     
   27   14   34 1     
   28   15   16 1     
   29   15   35 1     
   30   16   23 1     
   31   16   17 1     
   32   17   18 1     
   33   17   36 1     
   34   17   37 1     
   35   18   19 1     
   36   18   38 1     
   37   18   39 1     
   38   19   20 2     
   39   19   21 2     
   40   19   22 1     
   41   22   23 2     
   42    1   40 1     
   43    1   41 1     
   44   10   42 1     
   45   22   43 1     
@<TRIPOS>SUBSTRUCTURE
      1 S1             1
@<TRIPOS>SET
LONE_PAIRS      STATIC     ATOMS    <user>   **** ""
6 40 41 42 20 21 43
DONOR_HYDROGENS      STATIC     ATOMS    <user>   **** ""
1 24
ATOM$BLUE        STATIC     ATOMS    COLORGROUP SYSTEM
6 40 41 42 20 21 43
ATOM$RED        STATIC     ATOMS    COLORGROUP SYSTEM
1 24
