AV-unprocessed.smi:283|AV-procd|sdf|2131|dock8
  -GOLD-   2262021443D 1   1.00000     0.00000
 Structure written by MMmdl.
 48 51  0  0  0  0  0  0  0  0  1 V2000
  146.3262  133.4134  151.0340 C   0  0  0  0  0  0  0  0  0  0  0  0
  145.2875  132.4856  151.6777 C   0  0  2  0  0  0  0  0  0  0  0  0
  144.5723  133.1945  152.7376 N   0  0  0  0  0  0  0  0  0  0  0  0
  144.4958  134.5448  152.7453 C   0  0  0  0  0  0  0  0  0  0  0  0
  143.5425  135.1997  152.0319 N   0  0  0  0  0  0  0  0  0  0  0  0
  143.4876  136.5341  152.0555 C   0  0  0  0  0  0  0  0  0  0  0  0
  144.2778  137.3889  152.7078 N   0  0  0  0  0  0  0  0  0  0  0  0
  145.2432  136.7389  153.4200 C   0  0  0  0  0  0  0  0  0  0  0  0
  145.4150  135.3277  153.4907 C   0  0  0  0  0  0  0  0  0  0  0  0
  146.4923  135.0253  154.3129 N   0  0  0  0  0  0  0  0  0  0  0  0
  146.9308  136.1928  154.7005 C   0  0  0  0  0  0  0  0  0  0  0  0
  146.2387  137.2784  154.2113 N   0  0  0  0  0  0  0  0  0  0  0  0
  146.5144  138.7256  154.4819 C   0  0  1  0  0  0  0  0  0  0  0  0
  147.6127  138.8453  155.3361 O   0  0  0  0  0  0  0  0  0  0  0  0
  148.4460  139.9406  154.9480 C   0  0  1  0  0  0  0  0  0  0  0  0
  149.8334  139.3745  154.5823 C   0  0  0  0  0  0  0  0  0  0  0  0
  149.7663  138.6157  153.3929 O   0  0  0  0  0  0  0  0  0  0  0  0
  147.6769  140.6398  153.8111 C   0  0  1  0  0  0  0  0  0  0  0  0
  148.4681  141.3167  152.8525 O   0  0  0  0  0  0  0  0  0  0  0  0
  146.8243  139.5323  153.2150 C   0  0  1  0  0  0  0  0  0  0  0  0
  147.5023  138.7836  152.2191 O   0  0  0  0  0  0  0  0  0  0  0  0
  145.9442  131.1805  152.1318 C   0  0  0  0  0  0  0  0  0  0  0  0
  145.4044  129.9452  151.7057 C   0  0  0  0  0  0  0  0  0  0  0  0
  145.9880  128.7294  152.1085 C   0  0  0  0  0  0  0  0  0  0  0  0
  147.1179  128.7364  152.9457 C   0  0  0  0  0  0  0  0  0  0  0  0
  147.6588  129.9597  153.3823 C   0  0  0  0  0  0  0  0  0  0  0  0
  147.0774  131.1802  152.9841 C   0  0  0  0  0  0  0  0  0  0  0  0
  147.7795  132.6510  153.5619 Cl  0  0  0  0  0  0  0  0  0  0  0  0
  145.6259  139.0893  154.9998 H   0  0  0  0  0  0  0  0  0  0  0  0
  148.5465  140.6105  155.8030 H   0  0  0  0  0  0  0  0  0  0  0  0
  147.0093  141.3751  154.2629 H   0  0  0  0  0  0  0  0  0  0  0  0
  145.8967  139.9139  152.7869 H   0  0  0  0  0  0  0  0  0  0  0  0
  146.8139  132.9265  150.1890 H   0  0  0  0  0  0  0  0  0  0  0  0
  147.1011  133.6991  151.7462 H   0  0  0  0  0  0  0  0  0  0  0  0
  145.8610  134.3270  150.6627 H   0  0  0  0  0  0  0  0  0  0  0  0
  144.5435  132.2646  150.9136 H   0  0  0  0  0  0  0  0  0  0  0  0
  144.0649  132.6132  153.3891 H   0  0  0  0  0  0  0  0  0  0  0  0
  142.6991  136.9805  151.4679 H   0  0  0  0  0  0  0  0  0  0  0  0
  147.7795  136.2951  155.3612 H   0  0  0  0  0  0  0  0  0  0  0  0
  150.5320  140.1929  154.4063 H   0  0  0  0  0  0  0  0  0  0  0  0
  150.2505  138.7697  155.3871 H   0  0  0  0  0  0  0  0  0  0  0  0
  149.5701  139.1991  152.6756 H   0  0  0  0  0  0  0  0  0  0  0  0
  148.8483  140.6718  152.2750 H   0  0  0  0  0  0  0  0  0  0  0  0
  148.2765  139.2609  151.9620 H   0  0  0  0  0  0  0  0  0  0  0  0
  144.5351  129.9246  151.0650 H   0  0  0  0  0  0  0  0  0  0  0  0
  145.5676  127.7919  151.7755 H   0  0  0  0  0  0  0  0  0  0  0  0
  147.5680  127.8046  153.2552 H   0  0  0  0  0  0  0  0  0  0  0  0
  148.5243  129.9610  154.0282 H   0  0  0  0  0  0  0  0  0  0  0  0
  1  2  1  0  0  0  0
  1 33  1  0  0  0  0
  1 34  1  0  0  0  0
  1 35  1  0  0  0  0
  2  3  1  0  0  0  0
  2 22  1  0  0  0  0
  2 36  1  0  0  0  0
  3  4  1  0  0  0  0
  3 37  1  0  0  0  0
  4  9  1  0  0  0  0
  4  5  2  0  0  0  0
  5  6  1  0  0  0  0
  6  7  2  0  0  0  0
  6 38  1  0  0  0  0
  7  8  1  0  0  0  0
  8 12  1  0  0  0  0
  8  9  2  0  0  0  0
  9 10  1  0  0  0  0
 10 11  2  0  0  0  0
 11 12  1  0  0  0  0
 11 39  1  0  0  0  0
 12 13  1  0  0  0  0
 13 29  1  0  0  0  0
 13 20  1  0  0  0  0
 13 14  1  0  0  0  0
 14 15  1  0  0  0  0
 15 30  1  0  0  0  0
 15 16  1  0  0  0  0
 15 18  1  0  0  0  0
 16 17  1  0  0  0  0
 16 40  1  0  0  0  0
 16 41  1  0  0  0  0
 17 42  1  0  0  0  0
 18 31  1  0  0  0  0
 18 19  1  0  0  0  0
 18 20  1  0  0  0  0
 19 43  1  0  0  0  0
 20 32  1  0  0  0  0
 20 21  1  0  0  0  0
 21 44  1  0  0  0  0
 22 27  1  0  0  0  0
 22 23  2  0  0  0  0
 23 24  1  0  0  0  0
 23 45  1  0  0  0  0
 24 25  2  0  0  0  0
 24 46  1  0  0  0  0
 25 26  1  0  0  0  0
 25 47  1  0  0  0  0
 26 27  2  0  0  0  0
 26 48  1  0  0  0  0
 27 28  1  0  0  0  0
M  END
> <s_m_source_file>
AV-unprocessed.smi

> <i_m_source_file_index>
283

> <i_lp_mmshare_version>
43012

> <i_f3d_flags>
0

> <s_epik_input>
Q2xjMVtjSF1bY0hdW2NIXVtjSF1jMVtDQEhdKFtDSDNdKVtOSF1jKG5bY0hdbjIpYyhjMjMpbltjSF1uM1tDQEBIXTRPW0NASF0oW0NIMl1bT0hdKVtDQEBIXShbT0hdKVtDQEhdNFtPSF0=

> <s_epik_cmdline>
J2VwaWtfcHl0aG9uJywgJy1waCcsICc3LjAnLCAnLXRuJywgJzgnLCAnLW1hJywgJzIwMCcsICctbWV0YWxfYmluZGluZycsICctaW1hZScsICc8aW5maWxlLm1hZT4nLCAnLW9tYWUnLCAnPG91dGZpbGUubWFlPic=

> <r_lp_tautomer_probability>
1

> <r_epik_Ionization_Penalty>
0.000266407

> <r_epik_Ionization_Penalty_Charging>
0

> <r_epik_Ionization_Penalty_Neutral>
0.000266407

> <r_epik_State_Penalty>
-0

> <r_epik_Charging_Adjusted_Penalty>
0

> <i_epik_Tot_Q>
0

> <i_epik_Tot_abs_Q>
0

> <r_epik_Metal_State_Penalty>
-0

> <b_epik_Metal_Only>
0

> <s_epik_Chemistry_Notes>
This compound contains an acetal/aminal-like group ( X-CH(R)-Y where X, Y are N, S, or O) that may be acid/base labile, releasing an aldehyde.

> <s_lp_Force_Field>
OPLS_2005

> <r_lp_Energy>
56.5757

> <b_lp_Chiralities_Consistent>
1

> <s_lp_Variant>
AV-unprocessed.smi:283-7

> <Gold.Version>
5.8.1

> <Gold.Id.Protein>
6NUR|6NUR_protein|mol2

> <Gold.PLP.Fitness>
53.0646

> <Gold.PLP.PLP>
-41.7143

> <Gold.PLP.part.hbond>
-6.7964

> <Gold.PLP.part.metal>
0.0000

> <Gold.PLP.part.buried>
-4.6045

> <Gold.PLP.part.nonpolar>
-29.1877

> <Gold.PLP.part.repulsive>
0.4351

> <Gold.PLP.ligand.clash>
0.0204

> <Gold.PLP.ligand.torsion>
1.3032

> <Gold.PLP.Chemscore.Hbond>
3.9912

> <Gold.PLP.Chemscore.CHOScore>
0.6533

> <Gold.PLP.Chemscore.Metal>
0.0000

> <Gold.Chemscore.Hbonds>
donor molecule, donor type, donor heavy atom, donor atom, acceptor molecule, acceptor atom, score
      L1  H     3    37       P1 10957  0.73
      L1  H    17    42       P1  7957  1.00
      L1  H    19    43       P1  7957  0.88
      L1  H    21    44       P1  7957  1.00
      P1  H  8011  8017       L1    19  0.31
      L1  C     6    38       P1 10171  0.51

> <Gold.PLP.Chemscore.Internal.Correction>
0.0436

> <Gold.Rescore>
     Score         DG    S(hbond)    S(metal)    S(lipo)     H(rot)  DE(clash)    DE(int)     intcor
     12.44     -15.67       2.98        0.00      91.63       4.10       0.28       2.96       ----

> <Gold.Chemscore.Fitness>
12.4355

> <Gold.Chemscore.DG>
-15.6736

> <Gold.Chemscore.ZeroCoef>
-5.4800

> <Gold.Chemscore.Hbond>
2.9822

> <Gold.Chemscore.Metal>
0.0000

> <Gold.Chemscore.Lipo>
91.6317

> <Gold.Chemscore.Internal_Hbond>
0.0000

> <Gold.Chemscore.DEClash>
0.2775

> <Gold.Chemscore.DEInternal>
2.9606

> <Gold.Chemscore.Rot>
4.0968

> <Gold.Chemscore.Internal.Correction>
   9.000000E+99

> <Gold.Chemscore.Hbonds>
donor molecule, donor type, donor heavy atom, donor atom, acceptor molecule, acceptor atom, score
      L1  H     3    37       P1 10957  0.25
      L1  H    17    42       P1  7957  0.98
      L1  H    19    43       P1  7957  0.85
      L1  H    21    44       P1  7957  1.00
      P1  H  8011  8017       L1    19  0.01

> <Gold.Chemscore.Hbond.Weighted>
-9.9606

> <Gold.Chemscore.Metal.Weighted>
-0.0000

> <Gold.Chemscore.Lipo.Weighted>
-10.7209

> <Gold.Chemscore.Internal_Hbond.Weighted>
0.0000

> <Gold.Chemscore.DEClash.Weighted>
0.2775

> <Gold.Chemscore.DEInternal.Weighted>
2.9606

> <Gold.Chemscore.Rot.Weighted>
10.4879

> <Gold.Chemscore.Internal.Correction.Weighted>
   9.000000E+99

> <Gold.Protein.RotatedTorsions>
[ 6907 6896 6895 6894 ] final  -39.33 input  -60.11 | X-H torsion
[ 7974 7965 7964 7962 ] final   34.40 input  175.53 | X-H torsion
[ 8008 7997 7996 7995 ] final  -77.07 input   59.86 | X-H torsion
[ 10167 10162 10161 10158 ] final  -76.04 input  -65.29 | X-H torsion
[ 10718 10713 10712 10709 ] final   23.48 input   66.30 | X-H torsion
[ 10763 10752 10751 10750 ] final  176.88 input  -60.55 | X-H torsion
[ 11005 11000 10999 10996 ] final  -25.94 input  -57.11 | X-H torsion

> <Gold.Protein.ActiveResidues>
 VAL166  LYS551  ARG553  GLY616  TRP617  ASP618  TYR619  PRO620  LYS621  CYS622 
 ASP623  PHE694  ASN695  SER759  ASP760  ASP761  ALA762  ILE779  LEU786  VAL792 
 PHE793  MET794  SER795  GLU796  ALA797  LYS798  CYS799  TRP800  GLU811  SER814 

> <Gold.Protein.RotatedAtoms>
  150.9916  134.9250  159.7902 H   0  0  0  0  0  0  0  0  0  0  0  0  # atno 6907 bound_to 6896
  152.5252  134.3273  159.9180 H   0  0  0  0  0  0  0  0  0  0  0  0  # atno 6908 bound_to 6896
  151.3279  133.3971  159.2694 H   0  0  0  0  0  0  0  0  0  0  0  0  # atno 6909 bound_to 6896
  146.1355  139.6273  142.9198 H   0  0  0  0  0  0  0  0  0  0  0  0  # atno 7974 bound_to 7965
  154.5562  140.0716  156.8747 H   0  0  0  0  0  0  0  0  0  0  0  0  # atno 8008 bound_to 7997
  155.2898  140.3377  155.4235 H   0  0  0  0  0  0  0  0  0  0  0  0  # atno 8009 bound_to 7997
  156.2004  140.1719  156.7897 H   0  0  0  0  0  0  0  0  0  0  0  0  # atno 8010 bound_to 7997
  140.4891  143.2384  151.7936 H   0  0  0  0  0  0  0  0  0  0  0  0  # atno 10167 bound_to 10162
  157.1667  130.6741  149.6063 H   0  0  0  0  0  0  0  0  0  0  0  0  # atno 10718 bound_to 10713
  154.4870  135.2777  155.1526 H   0  0  0  0  0  0  0  0  0  0  0  0  # atno 10763 bound_to 10752
  154.3213  135.6209  153.5513 H   0  0  0  0  0  0  0  0  0  0  0  0  # atno 10764 bound_to 10752
  152.9883  135.5743  154.5283 H   0  0  0  0  0  0  0  0  0  0  0  0  # atno 10765 bound_to 10752
  140.8983  133.7541  156.0511 H   0  0  0  0  0  0  0  0  0  0  0  0  # atno 11005 bound_to 11000
  145.5166  141.0433  143.2459 LP  0  0  0  0  0  0  0  0  0  0  0  0  # atno 17320 bound_to 7965
  144.7735  139.6681  143.7184 LP  0  0  0  0  0  0  0  0  0  0  0  0  # atno 17321 bound_to 7965
  139.4848  144.4673  151.9468 LP  0  0  0  0  0  0  0  0  0  0  0  0  # atno 17342 bound_to 10162
  140.3759  144.2797  150.5914 LP  0  0  0  0  0  0  0  0  0  0  0  0  # atno 17343 bound_to 10162
  155.9745  130.4693  150.6391 LP  0  0  0  0  0  0  0  0  0  0  0  0  # atno 17370 bound_to 10713
  157.4082  131.0820  151.1245 LP  0  0  0  0  0  0  0  0  0  0  0  0  # atno 17371 bound_to 10713
  140.8261  134.3232  157.5365 LP  0  0  0  0  0  0  0  0  0  0  0  0  # atno 17394 bound_to 11000
  139.8738  134.9337  156.3587 LP  0  0  0  0  0  0  0  0  0  0  0  0  # atno 17395 bound_to 11000

$$$$
