AV-unprocessed.smi:2448|AV-procd|sdf|9652|dock3
  -GOLD-   2272013283D 1   1.00000     0.00000
 Structure written by MMmdl.
 37 38  0  0  0  0  0  0  0  0  1 V2000
  146.9962  143.9844  158.8682 O   0  0  0  0  0  0  0  0  0  0  0  0
  146.4930  142.8126  158.2504 C   0  0  2  0  0  0  0  0  0  0  0  0
  147.6734  141.8464  158.0212 C   0  0  0  0  0  0  0  0  0  0  0  0
  148.8201  142.5229  157.4100 N   0  0  0  0  0  0  0  0  0  0  0  0
  150.0111  141.7007  157.1479 C   0  0  2  0  0  0  0  0  0  0  0  0
  151.2198  142.6622  157.0547 C   0  0  0  0  0  0  0  0  0  0  0  0
  151.6007  143.3363  158.3612 C   0  0  0  0  0  0  0  0  0  0  0  0
  152.0450  142.5767  159.4639 C   0  0  0  0  0  0  0  0  0  0  0  0
  152.3886  143.2532  160.6513 C   0  0  0  0  0  0  0  0  0  0  0  0
  152.3175  144.5948  160.7878 N   0  0  0  0  0  0  0  0  0  0  0  0
  151.8957  145.3160  159.7270 C   0  0  0  0  0  0  0  0  0  0  0  0
  151.5285  144.7384  158.4951 C   0  0  0  0  0  0  0  0  0  0  0  0
  149.8474  140.8129  155.8818 C   0  0  0  0  0  0  0  0  0  0  0  0
  149.4479  141.5302  154.8332 F   0  0  0  0  0  0  0  0  0  0  0  0
  151.0037  140.2204  155.5815 F   0  0  0  0  0  0  0  0  0  0  0  0
  148.9239  139.8715  156.0695 F   0  0  0  0  0  0  0  0  0  0  0  0
  145.8419  143.2365  156.9235 C   0  0  0  0  0  0  0  0  0  0  0  0
  144.5146  143.9284  157.2508 C   0  0  0  0  0  0  0  0  0  0  0  0
  143.8271  143.1248  158.7201 S   0  0  0  0  0  0  0  0  0  0  0  0
  145.3515  142.2181  159.0962 C   0  0  0  0  0  0  0  0  0  0  0  0
  147.0463  144.6669  158.2171 H   0  0  0  0  0  0  0  0  0  0  0  0
  147.9754  141.4155  158.9765 H   0  0  0  0  0  0  0  0  0  0  0  0
  147.3290  141.0212  157.3996 H   0  0  0  0  0  0  0  0  0  0  0  0
  148.5233  142.9673  156.5469 H   0  0  0  0  0  0  0  0  0  0  0  0
  150.1748  141.0459  158.0048 H   0  0  0  0  0  0  0  0  0  0  0  0
  152.0860  142.1330  156.6551 H   0  0  0  0  0  0  0  0  0  0  0  0
  150.9997  143.4567  156.3399 H   0  0  0  0  0  0  0  0  0  0  0  0
  152.1188  141.5006  159.4071 H   0  0  0  0  0  0  0  0  0  0  0  0
  152.7309  142.7017  161.5145 H   0  0  0  0  0  0  0  0  0  0  0  0
  151.8501  146.3864  159.8629 H   0  0  0  0  0  0  0  0  0  0  0  0
  151.1990  145.3599  157.6753 H   0  0  0  0  0  0  0  0  0  0  0  0
  146.4938  143.8750  156.3256 H   0  0  0  0  0  0  0  0  0  0  0  0
  145.6334  142.3495  156.3239 H   0  0  0  0  0  0  0  0  0  0  0  0
  144.6873  144.9790  157.4868 H   0  0  0  0  0  0  0  0  0  0  0  0
  143.8137  143.8871  156.4170 H   0  0  0  0  0  0  0  0  0  0  0  0
  145.1856  141.1768  158.8172 H   0  0  0  0  0  0  0  0  0  0  0  0
  145.5640  142.2381  160.1657 H   0  0  0  0  0  0  0  0  0  0  0  0
  1  2  1  0  0  0  0
  1 21  1  0  0  0  0
  2 20  1  0  0  0  0
  2  3  1  0  0  0  0
  2 17  1  0  0  0  0
  3  4  1  0  0  0  0
  3 22  1  0  0  0  0
  3 23  1  0  0  0  0
  4  5  1  0  0  0  0
  4 24  1  0  0  0  0
  5  6  1  0  0  0  0
  5 13  1  0  0  0  0
  5 25  1  0  0  0  0
  6  7  1  0  0  0  0
  6 26  1  0  0  0  0
  6 27  1  0  0  0  0
  7 12  1  0  0  0  0
  7  8  2  0  0  0  0
  8  9  1  0  0  0  0
  8 28  1  0  0  0  0
  9 10  2  0  0  0  0
  9 29  1  0  0  0  0
 10 11  1  0  0  0  0
 11 12  2  0  0  0  0
 11 30  1  0  0  0  0
 12 31  1  0  0  0  0
 13 14  1  0  0  0  0
 13 15  1  0  0  0  0
 13 16  1  0  0  0  0
 17 18  1  0  0  0  0
 17 32  1  0  0  0  0
 17 33  1  0  0  0  0
 18 19  1  0  0  0  0
 18 34  1  0  0  0  0
 18 35  1  0  0  0  0
 19 20  1  0  0  0  0
 20 36  1  0  0  0  0
 20 37  1  0  0  0  0
M  END
> <s_m_source_file>
AV-unprocessed.smi

> <i_m_source_file_index>
2448

> <i_lp_mmshare_version>
43012

> <i_f3d_flags>
0

> <s_epik_input>
W0NIMl0xU1tDSDJdW0NIMl1bQ0BAXTEoW09IXSlbQ0gyXVtOSF1bQ0BASF0oQyhGKShGKUYpW0NIMl1jMltjSF1bY0hdbltjSF1bY0hdMg==

> <s_epik_cmdline>
J2VwaWtfcHl0aG9uJywgJy1waCcsICc3LjAnLCAnLXRuJywgJzgnLCAnLW1hJywgJzIwMCcsICctbWV0YWxfYmluZGluZycsICctaW1hZScsICc8aW5maWxlLm1hZT4nLCAnLW9tYWUnLCAnPG91dGZpbGUubWFlPic=

> <r_epik_Ionization_Penalty>
0.187708

> <r_epik_Ionization_Penalty_Charging>
0

> <r_epik_Ionization_Penalty_Neutral>
0.187708

> <r_epik_State_Penalty>
0.22769

> <r_epik_Charging_Adjusted_Penalty>
0.22769

> <i_epik_Tot_Q>
0

> <i_epik_Tot_abs_Q>
0

> <r_epik_Metal_State_Penalty>
0.176206

> <b_epik_Metal_Only>
0

> <s_lp_Force_Field>
OPLS_2005

> <r_lp_Energy>
30.9139

> <b_lp_Chiralities_Consistent>
1

> <s_lp_Variant>
AV-unprocessed.smi:2448-2

> <Gold.Version>
5.8.1

> <Gold.Id.Protein>
6NUR|6NUR_protein|mol2

> <Gold.PLP.Fitness>
42.0513

> <Gold.PLP.PLP>
-37.1235

> <Gold.PLP.part.hbond>
-2.0000

> <Gold.PLP.part.metal>
0.0000

> <Gold.PLP.part.buried>
-3.9681

> <Gold.PLP.part.nonpolar>
-31.2999

> <Gold.PLP.part.repulsive>
0.1425

> <Gold.PLP.ligand.clash>
0.0000

> <Gold.PLP.ligand.torsion>
0.4561

> <Gold.PLP.Chemscore.Hbond>
1.7200

> <Gold.PLP.Chemscore.CHOScore>
0.0000

> <Gold.PLP.Chemscore.Metal>
0.0000

> <Gold.Chemscore.Hbonds>
donor molecule, donor type, donor heavy atom, donor atom, acceptor molecule, acceptor atom, score
      L1  H     1    21       P1  8029  1.00
      L1  H     4    24       P1  8028  0.70

> <Gold.PLP.Chemscore.Internal.Correction>
0.6801

> <Gold.Rescore>
     Score         DG    S(hbond)    S(metal)    S(lipo)     H(rot)  DE(clash)    DE(int)     intcor
     13.71     -14.33       1.48        0.00      84.01       2.31       0.07       0.56       ----

> <Gold.Chemscore.Fitness>
13.7068

> <Gold.Chemscore.DG>
-14.3347

> <Gold.Chemscore.ZeroCoef>
-5.4800

> <Gold.Chemscore.Hbond>
1.4797

> <Gold.Chemscore.Metal>
0.0000

> <Gold.Chemscore.Lipo>
84.0083

> <Gold.Chemscore.Internal_Hbond>
0.0000

> <Gold.Chemscore.DEClash>
0.0681

> <Gold.Chemscore.DEInternal>
0.5599

> <Gold.Chemscore.Rot>
2.3111

> <Gold.Chemscore.Internal.Correction>
   9.000000E+99

> <Gold.Chemscore.Hbonds>
donor molecule, donor type, donor heavy atom, donor atom, acceptor molecule, acceptor atom, score
      L1  H     1    21       P1  8029  0.84
      L1  H     4    24       P1  8028  0.56

> <Gold.Chemscore.Hbond.Weighted>
-4.9421

> <Gold.Chemscore.Metal.Weighted>
-0.0000

> <Gold.Chemscore.Lipo.Weighted>
-9.8290

> <Gold.Chemscore.Internal_Hbond.Weighted>
0.0000

> <Gold.Chemscore.DEClash.Weighted>
0.0681

> <Gold.Chemscore.DEInternal.Weighted>
0.5599

> <Gold.Chemscore.Rot.Weighted>
5.9164

> <Gold.Chemscore.Internal.Correction.Weighted>
   9.000000E+99

> <Gold.Protein.RotatedTorsions>
[ 6907 6896 6895 6894 ] final   34.51 input  -60.11 | X-H torsion
[ 7974 7965 7964 7962 ] final   68.38 input  175.53 | X-H torsion
[ 8008 7997 7996 7995 ] final -144.21 input   59.86 | X-H torsion
[ 10167 10162 10161 10158 ] final  -50.57 input  -65.29 | X-H torsion
[ 10718 10713 10712 10709 ] final  100.60 input   66.30 | X-H torsion
[ 10763 10752 10751 10750 ] final -162.08 input  -60.55 | X-H torsion
[ 11005 11000 10999 10996 ] final  -83.07 input  -57.11 | X-H torsion

> <Gold.Protein.ActiveResidues>
 VAL166  LYS551  ARG553  GLY616  TRP617  ASP618  TYR619  PRO620  LYS621  CYS622 
 ASP623  PHE694  ASN695  SER759  ASP760  ASP761  ALA762  ILE779  LEU786  VAL792 
 PHE793  MET794  SER795  GLU796  ALA797  LYS798  CYS799  TRP800  GLU811  SER814 

> <Gold.Protein.RotatedAtoms>
  152.1034  134.9325  160.0568 H   0  0  0  0  0  0  0  0  0  0  0  0  # atno 6907 bound_to 6896
  152.0531  133.4023  159.4394 H   0  0  0  0  0  0  0  0  0  0  0  0  # atno 6908 bound_to 6896
  150.6840  134.3206  159.4828 H   0  0  0  0  0  0  0  0  0  0  0  0  # atno 6909 bound_to 6896
  145.8032  139.2993  143.1142 H   0  0  0  0  0  0  0  0  0  0  0  0  # atno 7974 bound_to 7965
  155.5232  140.0593  157.2903 H   0  0  0  0  0  0  0  0  0  0  0  0  # atno 8008 bound_to 7997
  154.4510  140.1949  156.0465 H   0  0  0  0  0  0  0  0  0  0  0  0  # atno 8009 bound_to 7997
  156.0704  140.3261  155.7573 H   0  0  0  0  0  0  0  0  0  0  0  0  # atno 8010 bound_to 7997
  140.6631  143.2652  151.4378 H   0  0  0  0  0  0  0  0  0  0  0  0  # atno 10167 bound_to 10162
  157.6850  131.0703  150.5125 H   0  0  0  0  0  0  0  0  0  0  0  0  # atno 10718 bound_to 10713
  154.7246  135.3033  154.8992 H   0  0  0  0  0  0  0  0  0  0  0  0  # atno 10763 bound_to 10752
  153.9853  135.6725  153.4756 H   0  0  0  0  0  0  0  0  0  0  0  0  # atno 10764 bound_to 10752
  153.0863  135.4982  154.8523 H   0  0  0  0  0  0  0  0  0  0  0  0  # atno 10765 bound_to 10752
  141.1660  133.7276  156.8665 H   0  0  0  0  0  0  0  0  0  0  0  0  # atno 11005 bound_to 11000
  145.9855  140.8647  143.0092 LP  0  0  0  0  0  0  0  0  0  0  0  0  # atno 17320 bound_to 7965
  144.6766  140.2141  143.7373 LP  0  0  0  0  0  0  0  0  0  0  0  0  # atno 17321 bound_to 7965
  139.5871  144.1581  152.2042 LP  0  0  0  0  0  0  0  0  0  0  0  0  # atno 17342 bound_to 10162
  140.0924  144.5609  150.7045 LP  0  0  0  0  0  0  0  0  0  0  0  0  # atno 17343 bound_to 10162
  156.5442  130.4215  149.6139 LP  0  0  0  0  0  0  0  0  0  0  0  0  # atno 17370 bound_to 10713
  156.2959  130.7150  151.2010 LP  0  0  0  0  0  0  0  0  0  0  0  0  # atno 17371 bound_to 10713
  140.1812  134.9032  157.2950 LP  0  0  0  0  0  0  0  0  0  0  0  0  # atno 17394 bound_to 11000
  140.2393  134.3814  155.7487 LP  0  0  0  0  0  0  0  0  0  0  0  0  # atno 17395 bound_to 11000

$$$$
