AV-unprocessed.smi:2713|AV-procd|sdf|10478|dock4
  -GOLD-   2272014523D 1   1.00000     0.00000
 Structure written by MMmdl.
 53 54  0  0  0  0  0  0  0  0  2 V2000
  150.8954  133.0216  156.0606 C   0  0  0  0  0  0  0  0  0  0  0  0
  149.4856  133.3117  155.5000 C   0  0  0  0  0  0  0  0  0  0  0  0
  149.1390  132.1528  154.5410 C   0  0  0  0  0  0  0  0  0  0  0  0
  148.4587  133.2851  156.6493 C   0  0  0  0  0  0  0  0  0  0  0  0
  149.4490  134.6312  154.6592 C   0  0  0  0  0  0  0  0  0  0  0  0
  149.3934  136.0452  155.3273 C   0  0  0  0  0  0  0  0  0  0  0  0
  147.9788  136.4095  155.8149 C   0  0  0  0  0  0  0  0  0  0  0  0
  150.3019  136.0208  156.5772 C   0  0  0  0  0  0  0  0  0  0  0  0
  149.8412  137.1280  154.4087 N   0  3  0  0  0  0  0  0  0  0  0  0
  151.2699  137.5202  154.4265 C   0  0  0  0  0  0  0  0  0  0  0  0
  151.4796  138.6893  155.3661 C   0  0  0  0  0  0  0  0  0  0  0  0
  150.7229  139.8736  155.2616 C   0  0  0  0  0  0  0  0  0  0  0  0
  150.9183  140.9141  156.0982 N   0  0  0  0  0  0  0  0  0  0  0  0
  151.8601  140.7921  157.0444 C   0  0  0  0  0  0  0  0  0  0  0  0
  152.0590  141.8770  157.9078 N   0  0  0  0  0  0  0  0  0  0  0  0
  151.3821  143.1607  157.7057 C   0  0  0  0  0  0  0  0  0  0  0  0
  152.2491  144.3243  158.2152 C   0  0  0  0  0  0  0  0  0  0  0  0
  152.6015  144.1035  159.5749 O   0  0  0  0  0  0  0  0  0  0  0  0
  153.3713  142.9177  159.7280 C   0  0  0  0  0  0  0  0  0  0  0  0
  152.5465  141.6999  159.2783 C   0  0  0  0  0  0  0  0  0  0  0  0
  152.6264  139.7068  157.2236 N   0  0  0  0  0  0  0  0  0  0  0  0
  152.4409  138.6573  156.3961 C   0  0  0  0  0  0  0  0  0  0  0  0
  150.9473  132.0193  156.4874 H   0  0  0  0  0  0  0  0  0  0  0  0
  151.1875  133.7031  156.8552 H   0  0  0  0  0  0  0  0  0  0  0  0
  151.6556  133.0775  155.2808 H   0  0  0  0  0  0  0  0  0  0  0  0
  149.8370  132.1063  153.7040 H   0  0  0  0  0  0  0  0  0  0  0  0
  148.1365  132.2612  154.1251 H   0  0  0  0  0  0  0  0  0  0  0  0
  149.1739  131.1868  155.0468 H   0  0  0  0  0  0  0  0  0  0  0  0
  148.4559  132.3158  157.1494 H   0  0  0  0  0  0  0  0  0  0  0  0
  147.4467  133.4598  156.2851 H   0  0  0  0  0  0  0  0  0  0  0  0
  148.6784  134.0296  157.4135 H   0  0  0  0  0  0  0  0  0  0  0  0
  150.3247  134.6121  154.0085 H   0  0  0  0  0  0  0  0  0  0  0  0
  148.6170  134.5660  153.9583 H   0  0  0  0  0  0  0  0  0  0  0  0
  147.5386  135.6060  156.4063 H   0  0  0  0  0  0  0  0  0  0  0  0
  147.3071  136.6336  154.9877 H   0  0  0  0  0  0  0  0  0  0  0  0
  147.9967  137.3013  156.4429 H   0  0  0  0  0  0  0  0  0  0  0  0
  149.9078  135.3444  157.3369 H   0  0  0  0  0  0  0  0  0  0  0  0
  150.3840  137.0081  157.0339 H   0  0  0  0  0  0  0  0  0  0  0  0
  151.3109  135.6777  156.3476 H   0  0  0  0  0  0  0  0  0  0  0  0
  149.6127  136.8413  153.4675 H   0  0  0  0  0  0  0  0  0  0  0  0
  151.8977  136.6934  154.7572 H   0  0  0  0  0  0  0  0  0  0  0  0
  151.6085  137.8089  153.4322 H   0  0  0  0  0  0  0  0  0  0  0  0
  149.9632  139.9904  154.5030 H   0  0  0  0  0  0  0  0  0  0  0  0
  151.1476  143.3440  156.6576 H   0  0  0  0  0  0  0  0  0  0  0  0
  150.4327  143.1401  158.2417 H   0  0  0  0  0  0  0  0  0  0  0  0
  153.1482  144.4352  157.6069 H   0  0  0  0  0  0  0  0  0  0  0  0
  151.6980  145.2619  158.1402 H   0  0  0  0  0  0  0  0  0  0  0  0
  154.2970  142.9944  159.1551 H   0  0  0  0  0  0  0  0  0  0  0  0
  153.6542  142.8122  160.7754 H   0  0  0  0  0  0  0  0  0  0  0  0
  151.6901  141.5624  159.9394 H   0  0  0  0  0  0  0  0  0  0  0  0
  153.1702  140.8119  159.3787 H   0  0  0  0  0  0  0  0  0  0  0  0
  153.0679  137.7924  156.5546 H   0  0  0  0  0  0  0  0  0  0  0  0
  149.2970  137.9512  154.6245 H   0  0  0  0  0  0  0  0  0  0  0  0
  1  2  1  0  0  0  0
  1 23  1  0  0  0  0
  1 24  1  0  0  0  0
  1 25  1  0  0  0  0
  2  3  1  0  0  0  0
  2  4  1  0  0  0  0
  2  5  1  0  0  0  0
  3 26  1  0  0  0  0
  3 27  1  0  0  0  0
  3 28  1  0  0  0  0
  4 29  1  0  0  0  0
  4 30  1  0  0  0  0
  4 31  1  0  0  0  0
  5  6  1  0  0  0  0
  5 32  1  0  0  0  0
  5 33  1  0  0  0  0
  6  7  1  0  0  0  0
  6  8  1  0  0  0  0
  6  9  1  0  0  0  0
  7 34  1  0  0  0  0
  7 35  1  0  0  0  0
  7 36  1  0  0  0  0
  8 37  1  0  0  0  0
  8 38  1  0  0  0  0
  8 39  1  0  0  0  0
  9 10  1  0  0  0  0
  9 40  1  0  0  0  0
  9 53  1  0  0  0  0
 10 11  1  0  0  0  0
 10 41  1  0  0  0  0
 10 42  1  0  0  0  0
 11 22  1  0  0  0  0
 11 12  2  0  0  0  0
 12 13  1  0  0  0  0
 12 43  1  0  0  0  0
 13 14  2  0  0  0  0
 14 15  1  0  0  0  0
 14 21  1  0  0  0  0
 15 20  1  0  0  0  0
 15 16  1  0  0  0  0
 16 17  1  0  0  0  0
 16 44  1  0  0  0  0
 16 45  1  0  0  0  0
 17 18  1  0  0  0  0
 17 46  1  0  0  0  0
 17 47  1  0  0  0  0
 18 19  1  0  0  0  0
 19 20  1  0  0  0  0
 19 48  1  0  0  0  0
 19 49  1  0  0  0  0
 20 50  1  0  0  0  0
 20 51  1  0  0  0  0
 21 22  2  0  0  0  0
 22 52  1  0  0  0  0
M  CHG  1   9   1
M  END
> <s_m_source_file>
AV-unprocessed.smi

> <i_m_source_file_index>
2713

> <i_lp_mmshare_version>
43012

> <i_f3d_flags>
0

> <s_epik_input>
W0NIM11DKFtDSDNdKShbQ0gzXSlbQ0gyXUMoW0NIM10pKFtDSDNdKVtOSF1bQ0gyXWMxW2NIXW5jKG5bY0hdMSlOMltDSDJdW0NIMl1PW0NIMl1bQ0gyXTI=

> <s_epik_cmdline>
J2VwaWtfcHl0aG9uJywgJy1waCcsICc3LjAnLCAnLXRuJywgJzgnLCAnLW1hJywgJzIwMCcsICctbWV0YWxfYmluZGluZycsICctaW1hZScsICc8aW5maWxlLm1hZT4nLCAnLW9tYWUnLCAnPG91dGZpbGUubWFlPic=

> <r_lp_tautomer_probability>
1

> <r_epik_Ionization_Penalty>
0.036663

> <r_epik_Ionization_Penalty_Charging>
0.0366608

> <r_epik_Ionization_Penalty_Neutral>
2.19352e-06

> <r_epik_State_Penalty>
0.0306388

> <r_epik_Charging_Adjusted_Penalty>
0.0672996

> <i_epik_Tot_Q>
1

> <i_epik_Tot_abs_Q>
1

> <r_epik_Metal_State_Penalty>
0.0306391

> <b_epik_Metal_Only>
0

> <s_lp_Force_Field>
OPLS_2005

> <r_lp_Energy>
26.4039

> <b_lp_Chiralities_Consistent>
1

> <s_lp_Variant>
AV-unprocessed.smi:2713-1

> <Gold.Version>
5.8.1

> <Gold.Id.Protein>
6NUR|6NUR_protein|mol2

> <Gold.PLP.Fitness>
46.0524

> <Gold.PLP.PLP>
-39.9873

> <Gold.PLP.part.hbond>
-2.0000

> <Gold.PLP.part.metal>
0.0000

> <Gold.PLP.part.buried>
-5.8954

> <Gold.PLP.part.nonpolar>
-31.8548

> <Gold.PLP.part.repulsive>
0.0709

> <Gold.PLP.ligand.clash>
0.0000

> <Gold.PLP.ligand.torsion>
1.5835

> <Gold.PLP.Chemscore.Hbond>
2.9920

> <Gold.PLP.Chemscore.CHOScore>
0.0000

> <Gold.PLP.Chemscore.Metal>
0.0000

> <Gold.Chemscore.Hbonds>
donor molecule, donor type, donor heavy atom, donor atom, acceptor molecule, acceptor atom, score
      L1  H     9    40       P1  7948  2.00
      P1  H  7997  8010       L1    21  1.00

> <Gold.PLP.Chemscore.Internal.Correction>
0.2561

> <Gold.Rescore>
     Score         DG    S(hbond)    S(metal)    S(lipo)     H(rot)  DE(clash)    DE(int)     intcor
     17.63     -19.51       1.75        0.00     103.55       1.53       0.12       1.76       ----

> <Gold.Chemscore.Fitness>
17.6287

> <Gold.Chemscore.DG>
-19.5114

> <Gold.Chemscore.ZeroCoef>
-5.4800

> <Gold.Chemscore.Hbond>
1.7487

> <Gold.Chemscore.Metal>
0.0000

> <Gold.Chemscore.Lipo>
103.5547

> <Gold.Chemscore.Internal_Hbond>
0.0000

> <Gold.Chemscore.DEClash>
0.1243

> <Gold.Chemscore.DEInternal>
1.7584

> <Gold.Chemscore.Rot>
1.5332

> <Gold.Chemscore.Internal.Correction>
   9.000000E+99

> <Gold.Chemscore.Hbonds>
donor molecule, donor type, donor heavy atom, donor atom, acceptor molecule, acceptor atom, score
      L1  H     9    40       P1  7948  0.70
      P1  H  7997  8010       L1    21  0.21

> <Gold.Chemscore.Hbond.Weighted>
-5.8406

> <Gold.Chemscore.Metal.Weighted>
-0.0000

> <Gold.Chemscore.Lipo.Weighted>
-12.1159

> <Gold.Chemscore.Internal_Hbond.Weighted>
0.0000

> <Gold.Chemscore.DEClash.Weighted>
0.1243

> <Gold.Chemscore.DEInternal.Weighted>
1.7584

> <Gold.Chemscore.Rot.Weighted>
3.9251

> <Gold.Chemscore.Internal.Correction.Weighted>
   9.000000E+99

> <Gold.Protein.RotatedTorsions>
[ 6907 6896 6895 6894 ] final   15.37 input  -60.11 | X-H torsion
[ 7974 7965 7964 7962 ] final   10.07 input  175.53 | X-H torsion
[ 8008 7997 7996 7995 ] final   39.69 input   59.86 | X-H torsion
[ 10167 10162 10161 10158 ] final  157.67 input  -65.29 | X-H torsion
[ 10718 10713 10712 10709 ] final -179.02 input   66.30 | X-H torsion
[ 10763 10752 10751 10750 ] final  125.32 input  -60.55 | X-H torsion
[ 11005 11000 10999 10996 ] final   25.14 input  -57.11 | X-H torsion

> <Gold.Protein.ActiveResidues>
 VAL166  LYS551  ARG553  GLY616  TRP617  ASP618  TYR619  PRO620  LYS621  CYS622 
 ASP623  PHE694  ASN695  SER759  ASP760  ASP761  ALA762  ILE779  LEU786  VAL792 
 PHE793  MET794  SER795  GLU796  ALA797  LYS798  CYS799  TRP800  GLU811  SER814 

> <Gold.Protein.RotatedAtoms>
  151.8169  135.0663  160.0419 H   0  0  0  0  0  0  0  0  0  0  0  0  # atno 6907 bound_to 6896
  152.2979  133.5621  159.5608 H   0  0  0  0  0  0  0  0  0  0  0  0  # atno 6908 bound_to 6896
  150.7260  134.0250  159.3756 H   0  0  0  0  0  0  0  0  0  0  0  0  # atno 6909 bound_to 6896
  146.2394  139.9689  142.8449 H   0  0  0  0  0  0  0  0  0  0  0  0  # atno 7974 bound_to 7965
  155.2407  140.3345  155.4292 H   0  0  0  0  0  0  0  0  0  0  0  0  # atno 8008 bound_to 7997
  156.2257  140.1828  156.7414 H   0  0  0  0  0  0  0  0  0  0  0  0  # atno 8009 bound_to 7997
  154.5895  140.0640  156.9203 H   0  0  0  0  0  0  0  0  0  0  0  0  # atno 8010 bound_to 7997
  139.4824  144.4895  151.8328 H   0  0  0  0  0  0  0  0  0  0  0  0  # atno 10167 bound_to 10162
  156.8530  130.9725  151.3090 H   0  0  0  0  0  0  0  0  0  0  0  0  # atno 10718 bound_to 10713
  153.6755  135.3323  155.3164 H   0  0  0  0  0  0  0  0  0  0  0  0  # atno 10763 bound_to 10752
  154.8480  135.4396  154.1661 H   0  0  0  0  0  0  0  0  0  0  0  0  # atno 10764 bound_to 10752
  153.2663  135.6996  153.7602 H   0  0  0  0  0  0  0  0  0  0  0  0  # atno 10765 bound_to 10752
  140.3511  134.2228  155.7680 H   0  0  0  0  0  0  0  0  0  0  0  0  # atno 11005 bound_to 11000
  145.1700  140.9716  143.4327 LP  0  0  0  0  0  0  0  0  0  0  0  0  # atno 17320 bound_to 7965
  145.0037  139.3574  143.6155 LP  0  0  0  0  0  0  0  0  0  0  0  0  # atno 17321 bound_to 7965
  140.4378  144.2027  150.5890 LP  0  0  0  0  0  0  0  0  0  0  0  0  # atno 17342 bound_to 10162
  140.4714  143.2412  151.9084 LP  0  0  0  0  0  0  0  0  0  0  0  0  # atno 17343 bound_to 10162
  157.6293  130.8716  149.9245 LP  0  0  0  0  0  0  0  0  0  0  0  0  # atno 17370 bound_to 10713
  156.0818  130.3672  150.0565 LP  0  0  0  0  0  0  0  0  0  0  0  0  # atno 17371 bound_to 10713
  141.2012  133.7969  157.0454 LP  0  0  0  0  0  0  0  0  0  0  0  0  # atno 17394 bound_to 11000
  140.0702  134.9706  157.1454 LP  0  0  0  0  0  0  0  0  0  0  0  0  # atno 17395 bound_to 11000

$$$$
