#       Name:                AV-unprocessed.smi:1211
#       Creating user name   scv26
#       Creation time:       Fri Mar 27 04:13:08 2020


#       File generated by GOLD software.
#

@<TRIPOS>MOLECULE
AV-unprocessed.smi:1211
    53    55     1
SMALL
NO_CHARGES


@<TRIPOS>ATOM
      1 ****        -4.3543  -0.4958   1.1681 C.3            1 S1                 0.0000
      2 ****        -4.2361   1.0196   1.1509 C.ar           1 S1                 0.0000
      3 ****        -5.4096   1.8026   1.1116 C.ar           1 S1                 0.0000
      4 ****        -5.2993   3.2034   1.0942 C.ar           1 S1                 0.0000
      5 ****        -4.0118   3.7657   1.1165 C.ar           1 S1                 0.0000
      6 ****        -2.8850   3.0253   1.1534 N.ar           1 S1                 0.0000
      7 ****        -2.9740   1.6717   1.1728 C.ar           1 S1                 0.0000
      8 ****        -1.8283   0.8276   1.2158 N.am           1 S1                 0.0000
      9 ****        -0.5302   1.1791   1.2173 C.2            1 S1                 0.0000
     10 ****        -0.1026   2.3330   1.1899 O.2            1 S1                 0.0000
     11 ****         0.2637   0.0988   1.2465 N.am           1 S1                 0.0000
     12 ****         1.7264   0.1210   1.2700 C.3            1 S1                 0.0000
     13 ****         2.3767  -0.0775  -0.1372 C.3            1 S1                 0.0000
     14 ****         1.7271  -1.2648  -0.8074 N.4            1 S1                 1.0000
     15 ****         1.8114  -1.3361  -2.2933 C.3            1 S1                 0.0000
     16 ****         1.0140  -2.5352  -2.8370 C.3            1 S1                 0.0000
     17 ****         1.4588  -3.7383  -2.2288 O.3            1 S1                 0.0000
     18 ****         1.2584  -3.7147  -0.8238 C.3            1 S1                 0.0000
     19 ****         2.0962  -2.5811  -0.2137 C.3            1 S1                 0.0000
     20 ****         2.2661   1.2352  -0.9634 C.3            1 S1                 0.0000
     21 ****         3.2018   2.2797  -0.3470 C.3            1 S1                 0.0000
     22 ****         4.6492   1.3877   0.2721 S.3            1 S1                 0.0000
     23 ****         3.9065  -0.2482   0.0166 C.3            1 S1                 0.0000
     24 ****        -5.3976  -0.8128   1.1510 H              1 S1                 0.0000
     25 ****        -3.8952  -0.9043   2.0688 H              1 S1                 0.0000
     26 ****        -3.8587  -0.9273   0.2978 H              1 S1                 0.0000
     27 ****        -6.3848   1.3383   1.0944 H              1 S1                 0.0000
     28 ****        -6.1783   3.8302   1.0645 H              1 S1                 0.0000
     29 ****        -3.8820   4.8377   1.1043 H              1 S1                 0.0000
     30 ****        -2.0260  -0.1613   1.2468 H              1 S1                 0.0000
     31 ****        -0.1771  -0.8084   1.2838 H              1 S1                 0.0000
     32 ****         2.0805   1.0282   1.7595 H              1 S1                 0.0000
     33 ****         2.0378  -0.6758   1.9444 H              1 S1                 0.0000
     34 ****         1.3839  -0.4465  -2.7533 H              1 S1                 0.0000
     35 ****         2.8540  -1.4054  -2.6053 H              1 S1                 0.0000
     36 ****        -0.0547  -2.4013  -2.6614 H              1 S1                 0.0000
     37 ****         1.1484  -2.6158  -3.9158 H              1 S1                 0.0000
     38 ****         0.1996  -3.5920  -0.5897 H              1 S1                 0.0000
     39 ****         1.5677  -4.6741  -0.4086 H              1 S1                 0.0000
     40 ****         3.1523  -2.7893  -0.3878 H              1 S1                 0.0000
     41 ****         1.9457  -2.5815   0.8644 H              1 S1                 0.0000
     42 ****         2.6368   1.0911  -1.9773 H              1 S1                 0.0000
     43 ****         1.2445   1.6025  -1.0534 H              1 S1                 0.0000
     44 ****         3.4968   3.0385  -1.0723 H              1 S1                 0.0000
     45 ****         2.7197   2.7950   0.4839 H              1 S1                 0.0000
     46 ****         4.1805  -0.9187   0.8317 H              1 S1                 0.0000
     47 ****         4.3410  -0.6553  -0.8969 H              1 S1                 0.0000
     48 ****         0.7417  -1.1485  -0.6193 H              1 S1                 0.0000
     49 ****        -1.9900   3.4711   1.1664 LP             1 S1                 0.0000
     50 ****        -0.7410   3.1023   1.1639 LP             1 S1                 0.0000
     51 ****         0.8831   2.5011   1.1937 LP             1 S1                 0.0000
     52 ****         2.4340  -3.8562  -2.4162 LP             1 S1                 0.0000
     53 ****         0.9496  -4.5065  -2.6170 LP             1 S1                 0.0000
@<TRIPOS>BOND
    1    1    2 1     
    2    1   24 1     
    3    1   25 1     
    4    1   26 1     
    5    2    7 ar    
    6    2    3 ar    
    7    3    4 ar    
    8    3   27 1     
    9    4    5 ar    
   10    4   28 1     
   11    5    6 ar    
   12    5   29 1     
   13    6    7 ar    
   14    7    8 1     
   15    8    9 am    
   16    8   30 1     
   17    9   10 2     
   18    9   11 am    
   19   11   12 1     
   20   11   31 1     
   21   12   13 1     
   22   12   32 1     
   23   12   33 1     
   24   13   23 1     
   25   13   14 1     
   26   13   20 1     
   27   14   19 1     
   28   14   15 1     
   29   14   48 1     
   30   15   16 1     
   31   15   34 1     
   32   15   35 1     
   33   16   17 1     
   34   16   36 1     
   35   16   37 1     
   36   17   18 1     
   37   18   19 1     
   38   18   38 1     
   39   18   39 1     
   40   19   40 1     
   41   19   41 1     
   42   20   21 1     
   43   20   42 1     
   44   20   43 1     
   45   21   22 1     
   46   21   44 1     
   47   21   45 1     
   48   22   23 1     
   49   23   46 1     
   50   23   47 1     
   51    6   49 1     
   52   10   50 1     
   53   10   51 1     
   54   17   52 1     
   55   17   53 1     
@<TRIPOS>SUBSTRUCTURE
      1 S1             1
@<TRIPOS>SET
LONE_PAIRS      STATIC     ATOMS    <user>   **** ""
5 49 50 51 52 53
DONOR_HYDROGENS      STATIC     ATOMS    <user>   **** ""
3 30 31 48
ATOM$BLUE        STATIC     ATOMS    COLORGROUP SYSTEM
5 49 50 51 52 53
ATOM$RED        STATIC     ATOMS    COLORGROUP SYSTEM
3 30 31 48
