AV-unprocessed.smi:2976|AV-procd|sdf|11364|dock1
  -GOLD-   2272016283D 1   1.00000     0.00000
 Structure written by MMmdl.
 40 41  0  0  0  0  0  0  0  0  1 V2000
  151.7682  144.2335  159.8130 C   0  0  0  0  0  0  0  0  0  0  0  0
  152.5014  142.9489  159.3832 C   0  0  1  0  0  0  0  0  0  0  0  0
  152.8386  142.1083  160.6312 C   0  0  0  0  0  0  0  0  0  0  0  0
  153.5962  140.8257  160.2706 C   0  0  0  0  0  0  0  0  0  0  0  0
  152.7904  139.9856  159.2755 C   0  0  0  0  0  0  0  0  0  0  0  0
  152.4532  140.7891  158.0069 C   0  0  1  0  0  0  0  0  0  0  0  0
  151.6479  139.9441  157.1247 N   0  0  0  0  0  0  0  0  0  0  0  0
  152.0948  139.2660  156.0558 C   0  0  0  0  0  0  0  0  0  0  0  0
  153.2695  139.2828  155.6851 O   0  0  0  0  0  0  0  0  0  0  0  0
  151.0334  138.4588  155.2927 C   0  0  0  0  0  0  0  0  0  0  0  0
  149.8903  139.2640  154.8363 N   0  0  0  0  0  0  0  0  0  0  0  0
  150.1223  140.6283  154.8523 N   0  0  0  0  0  0  0  0  0  0  0  0
  149.1982  141.4338  154.4554 C   0  0  0  0  0  0  0  0  0  0  0  0
  147.9121  140.9623  153.9916 C   0  0  0  0  0  0  0  0  0  0  0  0
  146.7117  142.0912  153.4701 Cl  0  0  0  0  0  0  0  0  0  0  0  0
  147.6923  139.6233  153.9863 C   0  0  0  0  0  0  0  0  0  0  0  0
  146.1773  138.9838  153.4477 Cl  0  0  0  0  0  0  0  0  0  0  0  0
  148.7226  138.6749  154.4320 C   0  0  0  0  0  0  0  0  0  0  0  0
  148.5620  137.4538  154.4426 O   0  0  0  0  0  0  0  0  0  0  0  0
  151.7089  142.1120  158.3382 C   0  0  2  0  0  0  0  0  0  0  0  0
  151.4151  142.9204  157.0551 C   0  0  0  0  0  0  0  0  0  0  0  0
  150.7705  144.0120  160.1931 H   0  0  0  0  0  0  0  0  0  0  0  0
  151.6668  144.9403  158.9903 H   0  0  0  0  0  0  0  0  0  0  0  0
  152.3151  144.7499  160.6025 H   0  0  0  0  0  0  0  0  0  0  0  0
  153.4456  143.2500  158.9267 H   0  0  0  0  0  0  0  0  0  0  0  0
  153.4412  142.6964  161.3246 H   0  0  0  0  0  0  0  0  0  0  0  0
  151.9210  141.8516  161.1625 H   0  0  0  0  0  0  0  0  0  0  0  0
  154.5668  141.0775  159.8412 H   0  0  0  0  0  0  0  0  0  0  0  0
  153.7955  140.2454  161.1719 H   0  0  0  0  0  0  0  0  0  0  0  0
  153.3553  139.0903  159.0123 H   0  0  0  0  0  0  0  0  0  0  0  0
  151.8713  139.6419  159.7528 H   0  0  0  0  0  0  0  0  0  0  0  0
  153.3953  141.0491  157.5206 H   0  0  0  0  0  0  0  0  0  0  0  0
  150.6656  139.8718  157.3470 H   0  0  0  0  0  0  0  0  0  0  0  0
  151.5084  137.9612  154.4451 H   0  0  0  0  0  0  0  0  0  0  0  0
  150.6850  137.6543  155.9432 H   0  0  0  0  0  0  0  0  0  0  0  0
  149.3369  142.5151  154.4483 H   0  0  0  0  0  0  0  0  0  0  0  0
  150.7486  141.8486  158.7851 H   0  0  0  0  0  0  0  0  0  0  0  0
  152.3379  143.2529  156.5786 H   0  0  0  0  0  0  0  0  0  0  0  0
  150.8073  143.8006  157.2593 H   0  0  0  0  0  0  0  0  0  0  0  0
  150.8601  142.3342  156.3230 H   0  0  0  0  0  0  0  0  0  0  0  0
  1  2  1  0  0  0  0
  1 22  1  0  0  0  0
  1 23  1  0  0  0  0
  1 24  1  0  0  0  0
  2 20  1  0  0  0  0
  2  3  1  0  0  0  0
  2 25  1  0  0  0  0
  3  4  1  0  0  0  0
  3 26  1  0  0  0  0
  3 27  1  0  0  0  0
  4  5  1  0  0  0  0
  4 28  1  0  0  0  0
  4 29  1  0  0  0  0
  5  6  1  0  0  0  0
  5 30  1  0  0  0  0
  5 31  1  0  0  0  0
  6  7  1  0  0  0  0
  6 20  1  0  0  0  0
  6 32  1  0  0  0  0
  7  8  1  0  0  0  0
  7 33  1  0  0  0  0
  8  9  2  0  0  0  0
  8 10  1  0  0  0  0
 10 11  1  0  0  0  0
 10 34  1  0  0  0  0
 10 35  1  0  0  0  0
 11 18  1  0  0  0  0
 11 12  1  0  0  0  0
 12 13  2  0  0  0  0
 13 14  1  0  0  0  0
 13 36  1  0  0  0  0
 14 15  1  0  0  0  0
 14 16  2  0  0  0  0
 16 17  1  0  0  0  0
 16 18  1  0  0  0  0
 18 19  2  0  0  0  0
 20 21  1  0  0  0  0
 20 37  1  0  0  0  0
 21 38  1  0  0  0  0
 21 39  1  0  0  0  0
 21 40  1  0  0  0  0
M  END
> <s_m_source_file>
AV-unprocessed.smi

> <i_m_source_file_index>
2976

> <i_lp_mmshare_version>
43012

> <i_f3d_flags>
0

> <s_epik_input>
W0NIM11bQ0BASF0xW0NIMl1bQ0gyXVtDSDJdW0NASF0oW0NASF0xW0NIM10pW05IXUMoPU8pW0NIMl1uMm5bY0hdYyhDbCljKENsKWMyPU8=

> <s_epik_cmdline>
J2VwaWtfcHl0aG9uJywgJy1waCcsICc3LjAnLCAnLXRuJywgJzgnLCAnLW1hJywgJzIwMCcsICctbWV0YWxfYmluZGluZycsICctaW1hZScsICc8aW5maWxlLm1hZT4nLCAnLW9tYWUnLCAnPG91dGZpbGUubWFlPic=

> <r_lp_tautomer_probability>
1

> <r_epik_Ionization_Penalty>
1.90777e-08

> <r_epik_Ionization_Penalty_Charging>
3.07942e-11

> <r_epik_Ionization_Penalty_Neutral>
1.90469e-08

> <r_epik_State_Penalty>
-0

> <r_epik_Charging_Adjusted_Penalty>
3.07942e-11

> <i_epik_Tot_Q>
0

> <i_epik_Tot_abs_Q>
0

> <r_epik_Metal_State_Penalty>
-0

> <b_epik_Metal_Only>
0

> <s_lp_Force_Field>
OPLS_2005

> <r_lp_Energy>
26.9637

> <b_lp_Chiralities_Consistent>
1

> <s_lp_Variant>
AV-unprocessed.smi:2976-6

> <Gold.Version>
5.8.1

> <Gold.Id.Protein>
6NUR|6NUR_protein|mol2

> <Gold.PLP.Fitness>
47.1317

> <Gold.PLP.PLP>
-39.4954

> <Gold.PLP.part.hbond>
-1.7217

> <Gold.PLP.part.metal>
0.0000

> <Gold.PLP.part.buried>
-4.4855

> <Gold.PLP.part.nonpolar>
-34.1247

> <Gold.PLP.part.repulsive>
1.9744

> <Gold.PLP.ligand.clash>
0.0000

> <Gold.PLP.ligand.torsion>
0.4703

> <Gold.PLP.Chemscore.Hbond>
1.8556

> <Gold.PLP.Chemscore.CHOScore>
1.0000

> <Gold.PLP.Chemscore.Metal>
0.0000

> <Gold.Chemscore.Hbonds>
donor molecule, donor type, donor heavy atom, donor atom, acceptor molecule, acceptor atom, score
      P1  H  7989  7998       L1    12  0.87
      P1  H  7997  8010       L1     9  0.98
      L1  C    13    36       P1  8028  0.98

> <Gold.PLP.Chemscore.Internal.Correction>
0.0099

> <Gold.Rescore>
     Score         DG    S(hbond)    S(metal)    S(lipo)     H(rot)  DE(clash)    DE(int)     intcor
     16.57     -18.63       1.10        0.00     113.53       1.49       0.29       1.78       ----

> <Gold.Chemscore.Fitness>
16.5687

> <Gold.Chemscore.DG>
-18.6345

> <Gold.Chemscore.ZeroCoef>
-5.4800

> <Gold.Chemscore.Hbond>
1.1011

> <Gold.Chemscore.Metal>
0.0000

> <Gold.Chemscore.Lipo>
113.5258

> <Gold.Chemscore.Internal_Hbond>
0.0000

> <Gold.Chemscore.DEClash>
0.2876

> <Gold.Chemscore.DEInternal>
1.7782

> <Gold.Chemscore.Rot>
1.4866

> <Gold.Chemscore.Internal.Correction>
   9.000000E+99

> <Gold.Chemscore.Hbonds>
donor molecule, donor type, donor heavy atom, donor atom, acceptor molecule, acceptor atom, score
      P1  H  7989  7998       L1    12  0.16
      P1  H  7997  8010       L1     9  0.86

> <Gold.Chemscore.Hbond.Weighted>
-3.6776

> <Gold.Chemscore.Metal.Weighted>
-0.0000

> <Gold.Chemscore.Lipo.Weighted>
-13.2825

> <Gold.Chemscore.Internal_Hbond.Weighted>
0.0000

> <Gold.Chemscore.DEClash.Weighted>
0.2876

> <Gold.Chemscore.DEInternal.Weighted>
1.7782

> <Gold.Chemscore.Rot.Weighted>
3.8057

> <Gold.Chemscore.Internal.Correction.Weighted>
   9.000000E+99

> <Gold.Protein.RotatedTorsions>
[ 6907 6896 6895 6894 ] final   86.11 input  -60.11 | X-H torsion
[ 7974 7965 7964 7962 ] final   63.85 input  175.53 | X-H torsion
[ 8008 7997 7996 7995 ] final   72.62 input   59.86 | X-H torsion
[ 10167 10162 10161 10158 ] final  -74.44 input  -65.29 | X-H torsion
[ 10718 10713 10712 10709 ] final  -83.85 input   66.30 | X-H torsion
[ 10763 10752 10751 10750 ] final  -48.52 input  -60.55 | X-H torsion
[ 11005 11000 10999 10996 ] final  140.59 input  -57.11 | X-H torsion

> <Gold.Protein.ActiveResidues>
 VAL166  LYS551  ARG553  GLY616  TRP617  ASP618  TYR619  PRO620  LYS621  CYS622 
 ASP623  PHE694  ASN695  SER759  ASP760  ASP761  ALA762  ILE779  LEU786  VAL792 
 PHE793  MET794  SER795  GLU796  ALA797  LYS798  CYS799  TRP800  GLU811  SER814 

> <Gold.Protein.RotatedAtoms>
  152.5388  134.2482  159.8888 H   0  0  0  0  0  0  0  0  0  0  0  0  # atno 6907 bound_to 6896
  151.2446  133.4375  159.2616 H   0  0  0  0  0  0  0  0  0  0  0  0  # atno 6908 bound_to 6896
  151.0595  134.9741  159.8309 H   0  0  0  0  0  0  0  0  0  0  0  0  # atno 6909 bound_to 6896
  145.8570  139.3290  143.0841 H   0  0  0  0  0  0  0  0  0  0  0  0  # atno 7974 bound_to 7965
  155.7715  140.3484  155.5249 H   0  0  0  0  0  0  0  0  0  0  0  0  # atno 8008 bound_to 7997
  155.8817  140.1003  157.1501 H   0  0  0  0  0  0  0  0  0  0  0  0  # atno 8009 bound_to 7997
  154.4025  140.1321  156.4192 H   0  0  0  0  0  0  0  0  0  0  0  0  # atno 8010 bound_to 7997
  140.5027  143.2358  151.7725 H   0  0  0  0  0  0  0  0  0  0  0  0  # atno 10167 bound_to 10162
  156.0013  130.4679  150.4320 H   0  0  0  0  0  0  0  0  0  0  0  0  # atno 10718 bound_to 10713
  154.0791  135.6593  153.4835 H   0  0  0  0  0  0  0  0  0  0  0  0  # atno 10763 bound_to 10752
  153.0362  135.5175  154.7492 H   0  0  0  0  0  0  0  0  0  0  0  0  # atno 10764 bound_to 10752
  154.6581  135.3011  154.9870 H   0  0  0  0  0  0  0  0  0  0  0  0  # atno 10765 bound_to 10752
  140.0338  134.9339  157.0714 H   0  0  0  0  0  0  0  0  0  0  0  0  # atno 11005 bound_to 11000
  145.9292  140.9060  143.0365 LP  0  0  0  0  0  0  0  0  0  0  0  0  # atno 17320 bound_to 7965
  144.6727  140.1395  143.7438 LP  0  0  0  0  0  0  0  0  0  0  0  0  # atno 17321 bound_to 7965
  139.4876  144.4500  151.9665 LP  0  0  0  0  0  0  0  0  0  0  0  0  # atno 17342 bound_to 10162
  140.3589  144.2997  150.5936 LP  0  0  0  0  0  0  0  0  0  0  0  0  # atno 17343 bound_to 10162
  157.2368  131.0516  151.2460 LP  0  0  0  0  0  0  0  0  0  0  0  0  # atno 17370 bound_to 10713
  157.3658  130.7155  149.6532 LP  0  0  0  0  0  0  0  0  0  0  0  0  # atno 17371 bound_to 10713
  140.4181  134.1909  155.7164 LP  0  0  0  0  0  0  0  0  0  0  0  0  # atno 17394 bound_to 11000
  141.1846  133.8341  157.1134 LP  0  0  0  0  0  0  0  0  0  0  0  0  # atno 17395 bound_to 11000

$$$$
