#       Name:                AV-unprocessed.smi:2212
#       Creating user name   scv26
#       Creation time:       Fri Mar 27 12:16:53 2020


#       File generated by GOLD software.
#

@<TRIPOS>MOLECULE
AV-unprocessed.smi:2212
    38    39     1
SMALL
NO_CHARGES


@<TRIPOS>ATOM
      1 ****        -1.1765   1.9894  -2.6877 C.3            1 S1                 0.0000
      2 ****        -1.5924   1.0833  -1.6733 O.3            1 S1                 0.0000
      3 ****        -1.0997  -0.2580  -1.7654 C.3            1 S1                 0.0000
      4 ****         0.4352  -0.3099  -1.7264 C.3            1 S1                 0.0000
      5 ****         0.9696   0.3920  -0.5631 N.am           1 S1                 0.0000
      6 ****         1.2064  -0.1600   0.6357 C.2            1 S1                 0.0000
      7 ****         1.0299  -1.3532   0.8844 O.2            1 S1                 0.0000
      8 ****         1.6535   0.7499   1.5173 N.am           1 S1                 0.0000
      9 ****         1.9776   0.5323   2.8806 C.2            1 S1                 0.0000
     10 ****         1.8909  -0.6167   3.5550 N.pl3          1 S1                 1.0000
     11 ****         2.2954  -0.4050   4.8488 C.2            1 S1                 0.0000
     12 ****         2.6289   0.9258   4.9202 C.2            1 S1                 0.0000
     13 ****         2.4339   1.5266   3.6919 O.3            1 S1                 0.0000
     14 ****        -1.8886  -1.0971  -0.7418 C.3            1 S1                 0.0000
     15 ****        -2.9327  -1.3851  -1.8213 C.3            1 S1                 0.0000
     16 ****        -1.8554  -1.0492  -2.8542 C.3            1 S1                 0.0000
     17 ****        -1.7310   2.9215  -2.5807 H              1 S1                 0.0000
     18 ****        -1.3656   1.6069  -3.6900 H              1 S1                 0.0000
     19 ****        -0.1177   2.2325  -2.6010 H              1 S1                 0.0000
     20 ****         0.7812  -1.3449  -1.7313 H              1 S1                 0.0000
     21 ****         0.8638   0.1363  -2.6234 H              1 S1                 0.0000
     22 ****         1.1410   1.3804  -0.6773 H              1 S1                 0.0000
     23 ****         1.5816  -1.5148   3.2033 H              1 S1                 0.0000
     24 ****         2.3047  -1.2059   5.5742 H              1 S1                 0.0000
     25 ****         2.9954   1.5610   5.7136 H              1 S1                 0.0000
     26 ****        -1.3576  -1.9989  -0.4331 H              1 S1                 0.0000
     27 ****        -2.2619  -0.5426   0.1199 H              1 S1                 0.0000
     28 ****        -3.2890  -2.4150  -1.8499 H              1 S1                 0.0000
     29 ****        -3.7559  -0.6689  -1.8182 H              1 S1                 0.0000
     30 ****        -2.2182  -0.4741  -3.7053 H              1 S1                 0.0000
     31 ****        -1.3092  -1.9345  -3.1840 H              1 S1                 0.0000
     32 ****         1.7639   1.6960   1.1832 H              1 S1                 0.0000
     33 ****        -2.5913   1.0411  -1.6961 LP             1 S1                 0.0000
     34 ****        -1.2945   1.4555  -0.7943 LP             1 S1                 0.0000
     35 ****         0.6919  -1.9678   0.1716 LP             1 S1                 0.0000
     36 ****         1.2245  -1.7074   1.7991 LP             1 S1                 0.0000
     37 ****         1.7579   2.2601   3.7629 LP             1 S1                 0.0000
     38 ****         3.2938   1.8985   3.3422 LP             1 S1                 0.0000
@<TRIPOS>BOND
    1    1    2 1     
    2    1   17 1     
    3    1   18 1     
    4    1   19 1     
    5    2    3 1     
    6    3   16 1     
    7    3    4 1     
    8    3   14 1     
    9    4    5 1     
   10    4   20 1     
   11    4   21 1     
   12    5   22 1     
   13    5    6 am    
   14    6    8 am    
   15    6    7 2     
   16    8    9 1     
   17    8   32 1     
   18    9   13 1     
   19    9   10 2     
   20   10   23 1     
   21   10   11 1     
   22   11   24 1     
   23   11   12 2     
   24   12   25 1     
   25   12   13 1     
   26   14   15 1     
   27   14   26 1     
   28   14   27 1     
   29   15   16 1     
   30   15   28 1     
   31   15   29 1     
   32   16   30 1     
   33   16   31 1     
   34    2   33 1     
   35    2   34 1     
   36    7   35 1     
   37    7   36 1     
   38   13   37 1     
   39   13   38 1     
@<TRIPOS>SUBSTRUCTURE
      1 S1             1
@<TRIPOS>SET
LONE_PAIRS      STATIC     ATOMS    <user>   **** ""
6 33 34 35 36 37 38
DONOR_HYDROGENS      STATIC     ATOMS    <user>   **** ""
3 22 32 23
ATOM$BLUE        STATIC     ATOMS    COLORGROUP SYSTEM
6 33 34 35 36 37 38
ATOM$RED        STATIC     ATOMS    COLORGROUP SYSTEM
3 22 32 23
