#       Name:                AV-unprocessed.smi:1041
#       Creating user name   scv26
#       Creation time:       Fri Mar 27 02:55:23 2020


#       File generated by GOLD software.
#

@<TRIPOS>MOLECULE
AV-unprocessed.smi:1041
    60    61     1
SMALL
NO_CHARGES


@<TRIPOS>ATOM
      1 ****        -3.9882  -4.4771  -0.5432 C.3            1 S1                 0.0000
      2 ****        -3.3382  -3.6209  -1.4665 O.3            1 S1                 0.0000
      3 ****        -1.9284  -3.7712  -1.4486 C.3            1 S1                 0.0000
      4 ****        -1.3133  -2.8236  -2.4901 C.3            1 S1                 0.0000
      5 ****        -1.5461  -1.3920  -2.1703 N.4            1 S1                 1.0000
      6 ****        -1.4537  -0.5294  -3.3770 C.3            1 S1                 0.0000
      7 ****        -1.8081   0.9350  -3.0551 C.3            1 S1                 0.0000
      8 ****        -0.9466   1.5068  -1.9141 C.3            1 S1                 0.0000
      9 ****         0.5009   1.8059  -2.3712 C.3            1 S1                 0.0000
     10 ****         1.2970   2.3908  -1.2980 N.am           1 S1                 0.0000
     11 ****         2.2743   1.7660  -0.6228 C.2            1 S1                 0.0000
     12 ****         2.6705   0.6316  -0.8887 O.2            1 S1                 0.0000
     13 ****         2.8614   2.5236   0.5670 C.3            1 S1                 0.0000
     14 ****         2.2493   2.1508   1.9153 C.2            1 S1                 0.0000
     15 ****         2.7577   1.1834   2.7205 C.2            1 S1                 0.0000
     16 ****         3.9959   0.3635   2.4027 C.3            1 S1                 0.0000
     17 ****         2.1570   0.8681   3.9267 N.pl3          1 S1                 0.0000
     18 ****         1.0126   1.5621   4.2830 C.2            1 S1                 0.0000
     19 ****         0.4328   1.1372   5.6148 C.3            1 S1                 0.0000
     20 ****         0.4496   2.4978   3.5808 N.2            1 S1                 0.0000
     21 ****         1.0235   2.8604   2.3519 C.2            1 S1                 0.0000
     22 ****         0.5085   3.7377   1.6598 O.2            1 S1                 0.0000
     23 ****        -1.0521   0.5602  -0.6999 C.3            1 S1                 0.0000
     24 ****        -0.6867  -0.8877  -1.0664 C.3            1 S1                 0.0000
     25 ****         2.5720   0.1469   4.4991 H              1 S1                 0.0000
     26 ****        -5.0664  -4.3287  -0.6023 H              1 S1                 0.0000
     27 ****        -3.6749  -4.2643   0.4798 H              1 S1                 0.0000
     28 ****        -3.7807  -5.5252  -0.7624 H              1 S1                 0.0000
     29 ****        -1.5321  -3.5864  -0.4501 H              1 S1                 0.0000
     30 ****        -1.6718  -4.8002  -1.7053 H              1 S1                 0.0000
     31 ****        -0.2421  -3.0064  -2.5862 H              1 S1                 0.0000
     32 ****        -1.7526  -3.0609  -3.4601 H              1 S1                 0.0000
     33 ****        -0.4512  -0.5993  -3.8006 H              1 S1                 0.0000
     34 ****        -2.1400  -0.8977  -4.1405 H              1 S1                 0.0000
     35 ****        -1.7080   1.5498  -3.9503 H              1 S1                 0.0000
     36 ****        -2.8598   0.9886  -2.7699 H              1 S1                 0.0000
     37 ****        -1.3842   2.4622  -1.6205 H              1 S1                 0.0000
     38 ****         0.9806   0.9114  -2.7692 H              1 S1                 0.0000
     39 ****         0.4824   2.5229  -3.1926 H              1 S1                 0.0000
     40 ****         1.0439   3.3230  -1.0027 H              1 S1                 0.0000
     41 ****         3.9349   2.3362   0.5862 H              1 S1                 0.0000
     42 ****         2.7738   3.5986   0.4013 H              1 S1                 0.0000
     43 ****         4.8706   1.0094   2.3240 H              1 S1                 0.0000
     44 ****         3.8714  -0.1676   1.4592 H              1 S1                 0.0000
     45 ****         4.1970  -0.3773   3.1777 H              1 S1                 0.0000
     46 ****        -0.5702   1.5435   5.7503 H              1 S1                 0.0000
     47 ****         1.0601   1.4956   6.4313 H              1 S1                 0.0000
     48 ****         0.3692   0.0502   5.6774 H              1 S1                 0.0000
     49 ****        -0.4321   0.9068   0.1267 H              1 S1                 0.0000
     50 ****        -2.0755   0.5795  -0.3228 H              1 S1                 0.0000
     51 ****        -0.8048  -1.5086  -0.1797 H              1 S1                 0.0000
     52 ****         0.3627  -0.9549  -1.3558 H              1 S1                 0.0000
     53 ****        -2.5027  -1.3249  -1.8522 H              1 S1                 0.0000
     54 ****        -3.5624  -2.6736  -1.2378 LP             1 S1                 0.0000
     55 ****        -3.6711  -3.8295  -2.3861 LP             1 S1                 0.0000
     56 ****         2.2595   0.1229  -1.6452 LP             1 S1                 0.0000
     57 ****         3.4035   0.2185  -0.3483 LP             1 S1                 0.0000
     58 ****        -0.3783   2.9522   3.9095 LP             1 S1                 0.0000
     59 ****         0.9171   3.9859   0.7815 LP             1 S1                 0.0000
     60 ****        -0.3187   4.2025   1.9756 LP             1 S1                 0.0000
@<TRIPOS>BOND
    1    1    2 1     
    2    1   26 1     
    3    1   27 1     
    4    1   28 1     
    5    2    3 1     
    6    3    4 1     
    7    3   29 1     
    8    3   30 1     
    9    4    5 1     
   10    4   31 1     
   11    4   32 1     
   12    5   24 1     
   13    5    6 1     
   14    5   53 1     
   15    6    7 1     
   16    6   33 1     
   17    6   34 1     
   18    7    8 1     
   19    7   35 1     
   20    7   36 1     
   21    8    9 1     
   22    8   23 1     
   23    8   37 1     
   24    9   10 1     
   25    9   38 1     
   26    9   39 1     
   27   10   11 am    
   28   10   40 1     
   29   11   12 2     
   30   11   13 1     
   31   13   41 1     
   32   13   42 1     
   33   13   14 1     
   34   14   21 1     
   35   14   15 2     
   36   15   16 1     
   37   15   17 1     
   38   16   43 1     
   39   16   44 1     
   40   16   45 1     
   41   17   25 1     
   42   17   18 1     
   43   18   19 1     
   44   18   20 2     
   45   19   46 1     
   46   19   47 1     
   47   19   48 1     
   48   20   21 1     
   49   21   22 2     
   50   23   24 1     
   51   23   49 1     
   52   23   50 1     
   53   24   51 1     
   54   24   52 1     
   55    2   54 1     
   56    2   55 1     
   57   12   56 1     
   58   12   57 1     
   59   20   58 1     
   60   22   59 1     
   61   22   60 1     
@<TRIPOS>SUBSTRUCTURE
      1 S1             1
@<TRIPOS>SET
LONE_PAIRS      STATIC     ATOMS    <user>   **** ""
7 54 55 56 57 58 59 60
DONOR_HYDROGENS      STATIC     ATOMS    <user>   **** ""
3 53 40 25
ATOM$BLUE        STATIC     ATOMS    COLORGROUP SYSTEM
7 54 55 56 57 58 59 60
ATOM$RED        STATIC     ATOMS    COLORGROUP SYSTEM
3 53 40 25
