AV-unprocessed.smi:827|AV-procd|sdf|3856|dock7
  -GOLD-   22720 1303D 1   1.00000     0.00000
 Structure written by MMmdl.
 46 47  0  0  0  0  0  0  0  0  1 V2000
  154.0221  141.4770  161.1299 C   0  0  0  0  0  0  0  0  0  0  0  0
  153.3699  141.1908  159.8973 O   0  0  0  0  0  0  0  0  0  0  0  0
  152.5081  142.1349  159.3720 C   0  0  0  0  0  0  0  0  0  0  0  0
  152.3121  143.2853  160.0641 N   0  0  0  0  0  0  0  0  0  0  0  0
  151.4683  144.2063  159.5551 C   0  0  0  0  0  0  0  0  0  0  0  0
  150.7739  144.0292  158.3442 C   0  0  0  0  0  0  0  0  0  0  0  0
  150.9758  142.8373  157.6240 C   0  0  0  0  0  0  0  0  0  0  0  0
  151.8718  141.8681  158.1370 C   0  0  0  0  0  0  0  0  0  0  0  0
  152.1334  140.6244  157.4987 N   0  0  0  0  0  0  0  0  0  0  0  0
  151.6511  140.1690  156.3301 C   0  0  0  0  0  0  0  0  0  0  0  0
  150.8742  140.7783  155.5946 O   0  0  0  0  0  0  0  0  0  0  0  0
  152.1444  138.9566  156.0410 N   0  0  0  0  0  0  0  0  0  0  0  0
  151.8474  138.2040  154.8284 C   0  0  0  0  0  0  0  0  0  0  0  0
  150.3438  137.8792  154.7331 C   0  0  0  0  0  0  0  0  0  0  0  0
  150.0112  136.5952  155.3482 N   0  0  0  0  0  0  0  0  0  0  0  0
  148.5955  136.2608  155.1449 C   0  0  0  0  0  0  0  0  0  0  0  0
  148.2732  134.8895  155.7704 C   0  0  0  0  0  0  0  0  0  0  0  0
  149.1292  133.8720  155.1526 N   0  0  0  0  0  0  0  0  0  0  0  0
  148.7099  132.8380  154.3850 C   0  0  0  0  0  0  0  0  0  0  0  0
  149.7463  131.8928  153.7734 C   0  0  0  0  0  0  0  0  0  0  0  0
  147.5204  132.6196  154.1552 O   0  0  0  0  0  0  0  0  0  0  0  0
  150.5423  134.1821  155.3827 C   0  0  0  0  0  0  0  0  0  0  0  0
  150.8579  135.5540  154.7560 C   0  0  0  0  0  0  0  0  0  0  0  0
  154.6651  140.6396  161.4002 H   0  0  0  0  0  0  0  0  0  0  0  0
  153.3027  141.6158  161.9383 H   0  0  0  0  0  0  0  0  0  0  0  0
  154.6510  142.3650  161.0532 H   0  0  0  0  0  0  0  0  0  0  0  0
  151.3381  145.1089  160.1335 H   0  0  0  0  0  0  0  0  0  0  0  0
  150.0983  144.7882  157.9784 H   0  0  0  0  0  0  0  0  0  0  0  0
  150.4315  142.6845  156.7050 H   0  0  0  0  0  0  0  0  0  0  0  0
  152.8318  140.0491  157.9462 H   0  0  0  0  0  0  0  0  0  0  0  0
  152.7788  138.5292  156.6999 H   0  0  0  0  0  0  0  0  0  0  0  0
  152.1526  138.8069  153.9725 H   0  0  0  0  0  0  0  0  0  0  0  0
  152.4603  137.3026  154.8097 H   0  0  0  0  0  0  0  0  0  0  0  0
  149.7425  138.6739  155.1779 H   0  0  0  0  0  0  0  0  0  0  0  0
  150.0773  137.8419  153.6758 H   0  0  0  0  0  0  0  0  0  0  0  0
  147.9578  137.0134  155.6068 H   0  0  0  0  0  0  0  0  0  0  0  0
  148.3602  136.2519  154.0792 H   0  0  0  0  0  0  0  0  0  0  0  0
  148.4619  134.9125  156.8449 H   0  0  0  0  0  0  0  0  0  0  0  0
  147.2089  134.6860  155.6643 H   0  0  0  0  0  0  0  0  0  0  0  0
  150.3374  131.4108  154.5526 H   0  0  0  0  0  0  0  0  0  0  0  0
  150.4147  132.4335  153.1032 H   0  0  0  0  0  0  0  0  0  0  0  0
  149.2569  131.1089  153.1944 H   0  0  0  0  0  0  0  0  0  0  0  0
  150.7420  134.1988  156.4554 H   0  0  0  0  0  0  0  0  0  0  0  0
  151.2119  133.4293  154.9650 H   0  0  0  0  0  0  0  0  0  0  0  0
  150.7075  135.5170  153.6754 H   0  0  0  0  0  0  0  0  0  0  0  0
  151.9078  135.7956  154.9259 H   0  0  0  0  0  0  0  0  0  0  0  0
  1  2  1  0  0  0  0
  1 24  1  0  0  0  0
  1 25  1  0  0  0  0
  1 26  1  0  0  0  0
  2  3  1  0  0  0  0
  3  8  1  0  0  0  0
  3  4  2  0  0  0  0
  4  5  1  0  0  0  0
  5  6  2  0  0  0  0
  5 27  1  0  0  0  0
  6  7  1  0  0  0  0
  6 28  1  0  0  0  0
  7  8  2  0  0  0  0
  7 29  1  0  0  0  0
  8  9  1  0  0  0  0
  9 10  1  0  0  0  0
  9 30  1  0  0  0  0
 10 11  2  0  0  0  0
 10 12  1  0  0  0  0
 12 13  1  0  0  0  0
 12 31  1  0  0  0  0
 13 14  1  0  0  0  0
 13 32  1  0  0  0  0
 13 33  1  0  0  0  0
 14 15  1  0  0  0  0
 14 34  1  0  0  0  0
 14 35  1  0  0  0  0
 15 23  1  0  0  0  0
 15 16  1  0  0  0  0
 16 17  1  0  0  0  0
 16 36  1  0  0  0  0
 16 37  1  0  0  0  0
 17 18  1  0  0  0  0
 17 38  1  0  0  0  0
 17 39  1  0  0  0  0
 18 19  1  0  0  0  0
 18 22  1  0  0  0  0
 19 20  1  0  0  0  0
 19 21  2  0  0  0  0
 20 40  1  0  0  0  0
 20 41  1  0  0  0  0
 20 42  1  0  0  0  0
 22 23  1  0  0  0  0
 22 43  1  0  0  0  0
 22 44  1  0  0  0  0
 23 45  1  0  0  0  0
 23 46  1  0  0  0  0
M  END
> <s_m_source_file>
AV-unprocessed.smi

> <i_m_source_file_index>
827

> <i_lp_mmshare_version>
43012

> <i_f3d_flags>
0

> <s_epik_input>
W0NIM11PYzFuW2NIXVtjSF1bY0hdYzFbTkhdQyg9TylbTkhdW0NIMl1bQ0gyXU4yW0NIMl1bQ0gyXU4oQyg9TylbQ0gzXSlbQ0gyXVtDSDJdMg==

> <s_epik_cmdline>
J2VwaWtfcHl0aG9uJywgJy1waCcsICc3LjAnLCAnLXRuJywgJzgnLCAnLW1hJywgJzIwMCcsICctbWV0YWxfYmluZGluZycsICctaW1hZScsICc8aW5maWxlLm1hZT4nLCAnLW9tYWUnLCAnPG91dGZpbGUubWFlPic=

> <r_lp_tautomer_probability>
1

> <r_epik_Ionization_Penalty>
0.251055

> <r_epik_Ionization_Penalty_Charging>
0

> <r_epik_Ionization_Penalty_Neutral>
0.251055

> <r_epik_State_Penalty>
0.242297

> <r_epik_Charging_Adjusted_Penalty>
0.242297

> <i_epik_Tot_Q>
0

> <i_epik_Tot_abs_Q>
0

> <r_epik_Metal_State_Penalty>
0.242294

> <b_epik_Metal_Only>
0

> <s_lp_Force_Field>
OPLS_2005

> <r_lp_Energy>
35.7173

> <b_lp_Chiralities_Consistent>
1

> <s_lp_Variant>
AV-unprocessed.smi:827-1

> <Gold.Version>
5.8.1

> <Gold.Id.Protein>
6NUR|6NUR_protein|mol2

> <Gold.PLP.Fitness>
40.0635

> <Gold.PLP.PLP>
-38.2549

> <Gold.PLP.part.hbond>
-1.0000

> <Gold.PLP.part.metal>
0.0000

> <Gold.PLP.part.buried>
-4.6433

> <Gold.PLP.part.nonpolar>
-32.7359

> <Gold.PLP.part.repulsive>
0.5004

> <Gold.PLP.ligand.clash>
0.0000

> <Gold.PLP.ligand.torsion>
0.2163

> <Gold.PLP.Chemscore.Hbond>
0.7296

> <Gold.PLP.Chemscore.CHOScore>
0.0000

> <Gold.PLP.Chemscore.Metal>
0.0000

> <Gold.Chemscore.Hbonds>
donor molecule, donor type, donor heavy atom, donor atom, acceptor molecule, acceptor atom, score
      P1  H  7989  7998       L1    11  0.42

> <Gold.PLP.Chemscore.Internal.Correction>
0.0526

> <Gold.Rescore>
     Score         DG    S(hbond)    S(metal)    S(lipo)     H(rot)  DE(clash)    DE(int)     intcor
     11.23     -13.75       0.78        0.00      88.54       1.83       0.09       2.43       ----

> <Gold.Chemscore.Fitness>
11.2329

> <Gold.Chemscore.DG>
-13.7529

> <Gold.Chemscore.ZeroCoef>
-5.4800

> <Gold.Chemscore.Hbond>
0.7764

> <Gold.Chemscore.Metal>
0.0000

> <Gold.Chemscore.Lipo>
88.5411

> <Gold.Chemscore.Internal_Hbond>
0.0000

> <Gold.Chemscore.DEClash>
0.0900

> <Gold.Chemscore.DEInternal>
2.4301

> <Gold.Chemscore.Rot>
1.8280

> <Gold.Chemscore.Internal.Correction>
   9.000000E+99

> <Gold.Chemscore.Hbonds>
donor molecule, donor type, donor heavy atom, donor atom, acceptor molecule, acceptor atom, score
      P1  H  7989  7998       L1    11  0.34

> <Gold.Chemscore.Hbond.Weighted>
-2.5932

> <Gold.Chemscore.Metal.Weighted>
-0.0000

> <Gold.Chemscore.Lipo.Weighted>
-10.3593

> <Gold.Chemscore.Internal_Hbond.Weighted>
0.0000

> <Gold.Chemscore.DEClash.Weighted>
0.0900

> <Gold.Chemscore.DEInternal.Weighted>
2.4301

> <Gold.Chemscore.Rot.Weighted>
4.6796

> <Gold.Chemscore.Internal.Correction.Weighted>
   9.000000E+99

> <Gold.Protein.RotatedTorsions>
[ 6907 6896 6895 6894 ] final -174.26 input  -60.11 | X-H torsion
[ 7974 7965 7964 7962 ] final  -20.62 input  175.53 | X-H torsion
[ 8008 7997 7996 7995 ] final  -71.22 input   59.86 | X-H torsion
[ 10167 10162 10161 10158 ] final   58.56 input  -65.29 | X-H torsion
[ 10718 10713 10712 10709 ] final  -20.90 input   66.30 | X-H torsion
[ 10763 10752 10751 10750 ] final   47.00 input  -60.55 | X-H torsion
[ 11005 11000 10999 10996 ] final -106.68 input  -57.11 | X-H torsion

> <Gold.Protein.ActiveResidues>
 VAL166  LYS551  ARG553  GLY616  TRP617  ASP618  TYR619  PRO620  LYS621  CYS622 
 ASP623  PHE694  ASN695  SER759  ASP760  ASP761  ALA762  ILE779  LEU786  VAL792 
 PHE793  MET794  SER795  GLU796  ALA797  LYS798  CYS799  TRP800  GLU811  SER814 

> <Gold.Protein.RotatedAtoms>
  151.5694  133.3392  159.2986 H   0  0  0  0  0  0  0  0  0  0  0  0  # atno 6907 bound_to 6896
  150.8376  134.7659  159.6917 H   0  0  0  0  0  0  0  0  0  0  0  0  # atno 6908 bound_to 6896
  152.4450  134.5521  159.9921 H   0  0  0  0  0  0  0  0  0  0  0  0  # atno 6909 bound_to 6896
  146.1778  140.4228  142.8506 H   0  0  0  0  0  0  0  0  0  0  0  0  # atno 7974 bound_to 7965
  154.5071  140.0819  156.7916 H   0  0  0  0  0  0  0  0  0  0  0  0  # atno 8008 bound_to 7997
  155.3869  140.3430  155.4231 H   0  0  0  0  0  0  0  0  0  0  0  0  # atno 8009 bound_to 7997
  156.1528  140.1564  156.8728 H   0  0  0  0  0  0  0  0  0  0  0  0  # atno 8010 bound_to 7997
  140.1859  144.4135  150.6593 H   0  0  0  0  0  0  0  0  0  0  0  0  # atno 10167 bound_to 10162
  156.5255  130.4642  149.6574 H   0  0  0  0  0  0  0  0  0  0  0  0  # atno 10718 bound_to 10713
  152.9804  135.5990  154.3690 H   0  0  0  0  0  0  0  0  0  0  0  0  # atno 10763 bound_to 10752
  154.3365  135.2768  155.2446 H   0  0  0  0  0  0  0  0  0  0  0  0  # atno 10764 bound_to 10752
  154.4547  135.5981  153.6270 H   0  0  0  0  0  0  0  0  0  0  0  0  # atno 10765 bound_to 10752
  141.0992  133.8915  157.1886 H   0  0  0  0  0  0  0  0  0  0  0  0  # atno 11005 bound_to 11000
  144.8265  140.6636  143.6319 LP  0  0  0  0  0  0  0  0  0  0  0  0  # atno 17320 bound_to 7965
  145.4162  139.1571  143.4099 LP  0  0  0  0  0  0  0  0  0  0  0  0  # atno 17321 bound_to 7965
  140.6488  143.2220  151.6124 LP  0  0  0  0  0  0  0  0  0  0  0  0  # atno 17342 bound_to 10162
  139.5276  144.3011  152.1072 LP  0  0  0  0  0  0  0  0  0  0  0  0  # atno 17343 bound_to 10162
  156.3109  130.7228  151.2120 LP  0  0  0  0  0  0  0  0  0  0  0  0  # atno 17370 bound_to 10713
  157.7430  131.0481  150.4980 LP  0  0  0  0  0  0  0  0  0  0  0  0  # atno 17371 bound_to 10713
  139.9838  135.0089  156.9813 LP  0  0  0  0  0  0  0  0  0  0  0  0  # atno 17394 bound_to 11000
  140.5064  134.1046  155.7261 LP  0  0  0  0  0  0  0  0  0  0  0  0  # atno 17395 bound_to 11000

$$$$
