AV-unprocessed.smi:781|AV-procd|sdf|3713|dock6
  -GOLD-   22720 1133D 1   1.00000     0.00000
 Structure written by MMmdl.
 38 40  0  0  0  0  0  0  0  0  1 V2000
  138.0112  137.1940  153.8463 C   0  0  0  0  0  0  0  0  0  0  0  0
  139.4390  137.4158  154.2114 C   0  0  0  0  0  0  0  0  0  0  0  0
  140.3787  138.3126  153.7865 C   0  0  0  0  0  0  0  0  0  0  0  0
  141.5244  137.9604  154.5482 C   0  0  0  0  0  0  0  0  0  0  0  0
  142.7439  138.6685  154.3980 N   0  0  0  0  0  0  0  0  0  0  0  0
  143.9289  138.3892  154.9666 C   0  0  0  0  0  0  0  0  0  0  0  0
  144.1446  137.4530  155.7367 O   0  0  0  0  0  0  0  0  0  0  0  0
  144.8664  139.2716  154.5943 N   0  0  0  0  0  0  0  0  0  0  0  0
  146.2571  139.2581  155.0495 C   0  0  2  0  0  0  0  0  0  0  0  0
  146.6821  140.5657  155.7677 C   0  0  2  0  0  0  0  0  0  0  0  0
  146.3030  141.8103  154.9371 C   0  0  0  0  0  0  0  0  0  0  0  0
  147.2752  141.7269  153.7467 C   0  0  0  0  0  0  0  0  0  0  0  0
  148.1085  140.4680  154.0673 C   0  0  1  0  0  0  0  0  0  0  0  0
  148.1965  140.5508  155.5868 C   0  0  0  0  0  0  0  0  0  0  0  0
  147.2906  139.1649  153.8917 C   0  0  2  0  0  0  0  0  0  0  0  0
  146.7407  138.8926  152.4732 C   0  0  0  0  0  0  0  0  0  0  0  0
  147.7805  138.4676  151.6178 O   0  0  0  0  0  0  0  0  0  0  0  0
  141.3047  136.9406  155.3638 N   0  0  0  0  0  0  0  0  0  0  0  0
  139.9673  136.5854  155.1511 O   0  0  0  0  0  0  0  0  0  0  0  0
  137.5720  138.0992  153.4270 H   0  0  0  0  0  0  0  0  0  0  0  0
  137.4255  136.9094  154.7206 H   0  0  0  0  0  0  0  0  0  0  0  0
  137.9218  136.3999  153.1052 H   0  0  0  0  0  0  0  0  0  0  0  0
  140.2616  139.0935  153.0499 H   0  0  0  0  0  0  0  0  0  0  0  0
  142.7097  139.4752  153.7928 H   0  0  0  0  0  0  0  0  0  0  0  0
  144.6025  140.0104  153.9594 H   0  0  0  0  0  0  0  0  0  0  0  0
  146.4025  138.4066  155.7174 H   0  0  0  0  0  0  0  0  0  0  0  0
  146.3478  140.6200  156.8043 H   0  0  0  0  0  0  0  0  0  0  0  0
  145.2584  141.8318  154.6275 H   0  0  0  0  0  0  0  0  0  0  0  0
  146.4866  142.7198  155.5107 H   0  0  0  0  0  0  0  0  0  0  0  0
  146.7628  141.6737  152.7874 H   0  0  0  0  0  0  0  0  0  0  0  0
  147.9141  142.6105  153.7216 H   0  0  0  0  0  0  0  0  0  0  0  0
  149.0738  140.4455  153.5609 H   0  0  0  0  0  0  0  0  0  0  0  0
  148.6860  141.4585  155.9449 H   0  0  0  0  0  0  0  0  0  0  0  0
  148.6784  139.6843  156.0438 H   0  0  0  0  0  0  0  0  0  0  0  0
  147.9575  138.3332  154.1279 H   0  0  0  0  0  0  0  0  0  0  0  0
  145.9896  138.1030  152.5097 H   0  0  0  0  0  0  0  0  0  0  0  0
  146.2570  139.7680  152.0416 H   0  0  0  0  0  0  0  0  0  0  0  0
  148.5231  139.0393  151.7394 H   0  0  0  0  0  0  0  0  0  0  0  0
  1  2  1  0  0  0  0
  1 20  1  0  0  0  0
  1 21  1  0  0  0  0
  1 22  1  0  0  0  0
  2 19  1  0  0  0  0
  2  3  2  0  0  0  0
  3  4  1  0  0  0  0
  3 23  1  0  0  0  0
  4  5  1  0  0  0  0
  4 18  2  0  0  0  0
  5  6  1  0  0  0  0
  5 24  1  0  0  0  0
  6  7  2  0  0  0  0
  6  8  1  0  0  0  0
  8  9  1  0  0  0  0
  8 25  1  0  0  0  0
  9 15  1  0  0  0  0
  9 10  1  0  0  0  0
  9 26  1  0  0  0  0
 10 14  1  0  0  0  0
 10 11  1  0  0  0  0
 10 27  1  0  0  0  0
 11 12  1  0  0  0  0
 11 28  1  0  0  0  0
 11 29  1  0  0  0  0
 12 13  1  0  0  0  0
 12 30  1  0  0  0  0
 12 31  1  0  0  0  0
 13 14  1  0  0  0  0
 13 15  1  0  0  0  0
 13 32  1  0  0  0  0
 14 33  1  0  0  0  0
 14 34  1  0  0  0  0
 15 16  1  0  0  0  0
 15 35  1  0  0  0  0
 16 17  1  0  0  0  0
 16 36  1  0  0  0  0
 16 37  1  0  0  0  0
 17 38  1  0  0  0  0
 18 19  1  0  0  0  0
M  END
> <s_m_source_file>
AV-unprocessed.smi

> <i_m_source_file_index>
781

> <i_lp_mmshare_version>
43012

> <i_f3d_flags>
0

> <s_epik_input>
W0NIM11jMVtjSF1jKG5vMSlbTkhdQyg9TylbTkhdW0NASF0oW0NAQEhdMjMpW0NASF0oW0NIMl1bT0hdKVtDQEBIXShbQ0gyXTMpW0NIMl1bQ0gyXTI=

> <s_epik_cmdline>
J2VwaWtfcHl0aG9uJywgJy1waCcsICc3LjAnLCAnLXRuJywgJzgnLCAnLW1hJywgJzIwMCcsICctbWV0YWxfYmluZGluZycsICctaW1hZScsICc8aW5maWxlLm1hZT4nLCAnLW9tYWUnLCAnPG91dGZpbGUubWFlPic=

> <r_lp_tautomer_probability>
1

> <r_epik_Ionization_Penalty>
2.32222e-05

> <r_epik_Ionization_Penalty_Charging>
0

> <r_epik_Ionization_Penalty_Neutral>
2.32222e-05

> <r_epik_State_Penalty>
-0

> <r_epik_Charging_Adjusted_Penalty>
0

> <i_epik_Tot_Q>
0

> <i_epik_Tot_abs_Q>
0

> <r_epik_Metal_State_Penalty>
-0

> <b_epik_Metal_Only>
0

> <s_lp_Force_Field>
OPLS_2005

> <r_lp_Energy>
48.8518

> <b_lp_Chiralities_Consistent>
1

> <s_lp_Variant>
AV-unprocessed.smi:781-7

> <Gold.Version>
5.8.1

> <Gold.Id.Protein>
6NUR|6NUR_protein|mol2

> <Gold.PLP.Fitness>
41.3772

> <Gold.PLP.PLP>
-27.4917

> <Gold.PLP.part.hbond>
-5.8474

> <Gold.PLP.part.metal>
0.0000

> <Gold.PLP.part.buried>
-3.4389

> <Gold.PLP.part.nonpolar>
-17.9679

> <Gold.PLP.part.repulsive>
0.0655

> <Gold.PLP.ligand.clash>
0.0000

> <Gold.PLP.ligand.torsion>
0.1294

> <Gold.PLP.Chemscore.Hbond>
4.7120

> <Gold.PLP.Chemscore.CHOScore>
0.0000

> <Gold.PLP.Chemscore.Metal>
0.0000

> <Gold.Chemscore.Hbonds>
donor molecule, donor type, donor heavy atom, donor atom, acceptor molecule, acceptor atom, score
      L1  H     5    24       P1 10175  0.93
      L1  H     8    25       P1 10175  0.94
      L1  H    17    38       P1  7957  0.98
      P1  H  7954  7966       L1    17  0.86
      P1  H 11000 11005       L1    19  1.00

> <Gold.PLP.Chemscore.Internal.Correction>
0.0083

> <Gold.Rescore>
     Score         DG    S(hbond)    S(metal)    S(lipo)     H(rot)  DE(clash)    DE(int)     intcor
     18.08     -19.74       3.65        0.00      58.48       1.86       0.34       1.32       ----

> <Gold.Chemscore.Fitness>
18.0792

> <Gold.Chemscore.DG>
-19.7393

> <Gold.Chemscore.ZeroCoef>
-5.4800

> <Gold.Chemscore.Hbond>
3.6452

> <Gold.Chemscore.Metal>
0.0000

> <Gold.Chemscore.Lipo>
58.4850

> <Gold.Chemscore.Internal_Hbond>
0.0000

> <Gold.Chemscore.DEClash>
0.3378

> <Gold.Chemscore.DEInternal>
1.3223

> <Gold.Chemscore.Rot>
1.8587

> <Gold.Chemscore.Internal.Correction>
   9.000000E+99

> <Gold.Chemscore.Hbonds>
donor molecule, donor type, donor heavy atom, donor atom, acceptor molecule, acceptor atom, score
      L1  H     5    24       P1 10175  0.90
      L1  H     8    25       P1 10175  0.91
      L1  H    17    38       P1  7957  0.78
      P1  H  7954  7966       L1    17  0.16
      P1  H 11000 11005       L1    19  0.23

> <Gold.Chemscore.Hbond.Weighted>
-12.1749

> <Gold.Chemscore.Metal.Weighted>
-0.0000

> <Gold.Chemscore.Lipo.Weighted>
-6.8427

> <Gold.Chemscore.Internal_Hbond.Weighted>
0.0000

> <Gold.Chemscore.DEClash.Weighted>
0.3378

> <Gold.Chemscore.DEInternal.Weighted>
1.3223

> <Gold.Chemscore.Rot.Weighted>
4.7583

> <Gold.Chemscore.Internal.Correction.Weighted>
   9.000000E+99

> <Gold.Protein.RotatedTorsions>
[ 6907 6896 6895 6894 ] final    6.99 input  -60.11 | X-H torsion
[ 7974 7965 7964 7962 ] final   48.04 input  175.53 | X-H torsion
[ 8008 7997 7996 7995 ] final   27.69 input   59.86 | X-H torsion
[ 10167 10162 10161 10158 ] final -105.60 input  -65.29 | X-H torsion
[ 10718 10713 10712 10709 ] final  116.24 input   66.30 | X-H torsion
[ 10763 10752 10751 10750 ] final   -3.75 input  -60.55 | X-H torsion
[ 11005 11000 10999 10996 ] final   86.13 input  -57.11 | X-H torsion

> <Gold.Protein.ActiveResidues>
 VAL166  LYS551  ARG553  GLY616  TRP617  ASP618  TYR619  PRO620  LYS621  CYS622 
 ASP623  PHE694  ASN695  SER759  ASP760  ASP761  ALA762  ILE779  LEU786  VAL792 
 PHE793  MET794  SER795  GLU796  ALA797  LYS798  CYS799  TRP800  GLU811  SER814 

> <Gold.Protein.RotatedAtoms>
  151.6826  135.0959  160.0218 H   0  0  0  0  0  0  0  0  0  0  0  0  # atno 6907 bound_to 6896
  152.3826  133.6563  159.6182 H   0  0  0  0  0  0  0  0  0  0  0  0  # atno 6908 bound_to 6896
  150.7759  133.9004  159.3381 H   0  0  0  0  0  0  0  0  0  0  0  0  # atno 6909 bound_to 6896
  146.0242  139.4686  142.9878 H   0  0  0  0  0  0  0  0  0  0  0  0  # atno 7974 bound_to 7965
  155.0469  140.3175  155.4705 H   0  0  0  0  0  0  0  0  0  0  0  0  # atno 8008 bound_to 7997
  156.2843  140.2153  156.5538 H   0  0  0  0  0  0  0  0  0  0  0  0  # atno 8009 bound_to 7997
  154.7243  140.0487  157.0656 H   0  0  0  0  0  0  0  0  0  0  0  0  # atno 8010 bound_to 7997
  140.1968  143.3849  152.1162 H   0  0  0  0  0  0  0  0  0  0  0  0  # atno 10167 bound_to 10162
  157.6173  131.1023  150.7444 H   0  0  0  0  0  0  0  0  0  0  0  0  # atno 10718 bound_to 10713
  153.3756  135.6996  153.6604 H   0  0  0  0  0  0  0  0  0  0  0  0  # atno 10763 bound_to 10752
  153.5237  135.3606  155.2644 H   0  0  0  0  0  0  0  0  0  0  0  0  # atno 10764 bound_to 10752
  154.8686  135.4164  154.3043 H   0  0  0  0  0  0  0  0  0  0  0  0  # atno 10765 bound_to 10752
  139.8952  134.8334  156.2678 H   0  0  0  0  0  0  0  0  0  0  0  0  # atno 11005 bound_to 11000
  145.7145  141.0095  143.1435 LP  0  0  0  0  0  0  0  0  0  0  0  0  # atno 17320 bound_to 7965
  144.7002  139.8797  143.7446 LP  0  0  0  0  0  0  0  0  0  0  0  0  # atno 17321 bound_to 7965
  139.5233  144.7070  151.5324 LP  0  0  0  0  0  0  0  0  0  0  0  0  # atno 17342 bound_to 10162
  140.6418  143.8874  150.6699 LP  0  0  0  0  0  0  0  0  0  0  0  0  # atno 17343 bound_to 10162
  156.7809  130.4859  149.5401 LP  0  0  0  0  0  0  0  0  0  0  0  0  # atno 17370 bound_to 10713
  156.1301  130.6171  151.0320 LP  0  0  0  0  0  0  0  0  0  0  0  0  # atno 17371 bound_to 10713
  141.0120  133.7090  156.1128 LP  0  0  0  0  0  0  0  0  0  0  0  0  # atno 17394 bound_to 11000
  140.7354  134.4209  157.5561 LP  0  0  0  0  0  0  0  0  0  0  0  0  # atno 17395 bound_to 11000

$$$$
