AV-unprocessed.smi:826|AV-procd|sdf|3853|dock10
  -GOLD-   22720 1303D 1   1.00000     0.00000
 Structure written by MMmdl.
 39 40  0  0  0  0  0  0  0  0  1 V2000
  143.9244  143.7560  162.6514 C   0  0  0  0  0  0  0  0  0  0  0  0
  144.4414  143.5782  161.2649 C   0  0  0  0  0  0  0  0  0  0  0  0
  143.6343  143.3712  160.2176 N   0  0  0  0  0  0  0  0  0  0  0  0
  144.3389  143.2313  159.0301 N   0  0  0  0  0  0  0  0  0  0  0  0
  145.6616  143.3375  159.2181 C   0  0  0  0  0  0  0  0  0  0  0  0
  146.6184  143.2250  158.1750 N   0  0  0  0  0  0  0  0  0  0  0  0
  147.1628  142.1078  157.6622 C   0  0  0  0  0  0  0  0  0  0  0  0
  146.8770  140.9574  157.9963 O   0  0  0  0  0  0  0  0  0  0  0  0
  148.0772  142.3983  156.7238 N   0  0  0  0  0  0  0  0  0  0  0  0
  148.8823  141.4139  156.0019 C   0  0  1  0  0  0  0  0  0  0  0  0
  148.6845  141.6433  154.4944 C   0  0  0  0  0  0  0  0  0  0  0  0
  150.3724  141.5949  156.3324 C   0  0  0  0  0  0  0  0  0  0  0  0
  151.2340  140.9949  155.6876 O   0  0  0  0  0  0  0  0  0  0  0  0
  150.6572  142.4281  157.3443 N   0  0  0  0  0  0  0  0  0  0  0  0
  152.0022  142.7673  157.7999 C   0  0  0  0  0  0  0  0  0  0  0  0
  152.2723  142.1774  159.1974 C   0  0  0  0  0  0  0  0  0  0  0  0
  152.8587  143.3169  160.0326 C   0  0  0  0  0  0  0  0  0  0  0  0
  152.2385  144.5771  159.4387 C   0  0  0  0  0  0  0  0  0  0  0  0
  152.1819  144.2932  157.9376 C   0  0  0  0  0  0  0  0  0  0  0  0
  146.1576  143.6215  160.8779 S   0  0  0  0  0  0  0  0  0  0  0  0
  143.2250  144.5917  162.6863 H   0  0  0  0  0  0  0  0  0  0  0  0
  144.7447  143.9579  163.3403 H   0  0  0  0  0  0  0  0  0  0  0  0
  143.4092  142.8520  162.9770 H   0  0  0  0  0  0  0  0  0  0  0  0
  146.9421  144.0993  157.7883 H   0  0  0  0  0  0  0  0  0  0  0  0
  148.2530  143.3696  156.5130 H   0  0  0  0  0  0  0  0  0  0  0  0
  148.5544  140.4056  156.2631 H   0  0  0  0  0  0  0  0  0  0  0  0
  149.2666  140.9321  153.9069 H   0  0  0  0  0  0  0  0  0  0  0  0
  148.9841  142.6482  154.1923 H   0  0  0  0  0  0  0  0  0  0  0  0
  147.6383  141.5142  154.2151 H   0  0  0  0  0  0  0  0  0  0  0  0
  149.8876  142.8790  157.8176 H   0  0  0  0  0  0  0  0  0  0  0  0
  152.7370  142.3765  157.0937 H   0  0  0  0  0  0  0  0  0  0  0  0
  151.3428  141.8421  159.6602 H   0  0  0  0  0  0  0  0  0  0  0  0
  152.9399  141.3163  159.1585 H   0  0  0  0  0  0  0  0  0  0  0  0
  152.6514  143.2071  161.0974 H   0  0  0  0  0  0  0  0  0  0  0  0
  153.9414  143.3473  159.9051 H   0  0  0  0  0  0  0  0  0  0  0  0
  151.2272  144.7070  159.8263 H   0  0  0  0  0  0  0  0  0  0  0  0
  152.8056  145.4776  159.6757 H   0  0  0  0  0  0  0  0  0  0  0  0
  153.1286  144.5845  157.4808 H   0  0  0  0  0  0  0  0  0  0  0  0
  151.3994  144.8717  157.4440 H   0  0  0  0  0  0  0  0  0  0  0  0
  1  2  1  0  0  0  0
  1 21  1  0  0  0  0
  1 22  1  0  0  0  0
  1 23  1  0  0  0  0
  2 20  1  0  0  0  0
  2  3  2  0  0  0  0
  3  4  1  0  0  0  0
  4  5  2  0  0  0  0
  5  6  1  0  0  0  0
  5 20  1  0  0  0  0
  6  7  1  0  0  0  0
  6 24  1  0  0  0  0
  7  8  2  0  0  0  0
  7  9  1  0  0  0  0
  9 10  1  0  0  0  0
  9 25  1  0  0  0  0
 10 11  1  0  0  0  0
 10 12  1  0  0  0  0
 10 26  1  0  0  0  0
 11 27  1  0  0  0  0
 11 28  1  0  0  0  0
 11 29  1  0  0  0  0
 12 13  2  0  0  0  0
 12 14  1  0  0  0  0
 14 15  1  0  0  0  0
 14 30  1  0  0  0  0
 15 19  1  0  0  0  0
 15 16  1  0  0  0  0
 15 31  1  0  0  0  0
 16 17  1  0  0  0  0
 16 32  1  0  0  0  0
 16 33  1  0  0  0  0
 17 18  1  0  0  0  0
 17 34  1  0  0  0  0
 17 35  1  0  0  0  0
 18 19  1  0  0  0  0
 18 36  1  0  0  0  0
 18 37  1  0  0  0  0
 19 38  1  0  0  0  0
 19 39  1  0  0  0  0
M  END
> <s_m_source_file>
AV-unprocessed.smi

> <i_m_source_file_index>
826

> <i_lp_mmshare_version>
43012

> <i_f3d_flags>
0

> <s_epik_input>
W0NIM11jMW5uYyhzMSlbTkhdQyg9TylbTkhdW0NASF0oW0NIM10pQyg9TylbTkhdW0NIXTJbQ0gyXVtDSDJdW0NIMl1bQ0gyXTI=

> <s_epik_cmdline>
J2VwaWtfcHl0aG9uJywgJy1waCcsICc3LjAnLCAnLXRuJywgJzgnLCAnLW1hJywgJzIwMCcsICctbWV0YWxfYmluZGluZycsICctaW1hZScsICc8aW5maWxlLm1hZT4nLCAnLW9tYWUnLCAnPG91dGZpbGUubWFlPic=

> <r_lp_tautomer_probability>
1

> <r_epik_Ionization_Penalty>
0.00368568

> <r_epik_Ionization_Penalty_Charging>
0

> <r_epik_Ionization_Penalty_Neutral>
0.00368568

> <r_epik_State_Penalty>
-0

> <r_epik_Charging_Adjusted_Penalty>
0

> <i_epik_Tot_Q>
0

> <i_epik_Tot_abs_Q>
0

> <r_epik_Metal_State_Penalty>
0.369753

> <b_epik_Metal_Only>
0

> <s_lp_Force_Field>
OPLS_2005

> <r_lp_Energy>
15.8717

> <b_lp_Chiralities_Consistent>
1

> <s_lp_Variant>
AV-unprocessed.smi:826-2

> <Gold.Version>
5.8.1

> <Gold.Id.Protein>
6NUR|6NUR_protein|mol2

> <Gold.PLP.Fitness>
43.7079

> <Gold.PLP.PLP>
-39.4607

> <Gold.PLP.part.hbond>
-3.6799

> <Gold.PLP.part.metal>
0.0000

> <Gold.PLP.part.buried>
-3.4572

> <Gold.PLP.part.nonpolar>
-30.9121

> <Gold.PLP.part.repulsive>
0.1560

> <Gold.PLP.ligand.clash>
0.0000

> <Gold.PLP.ligand.torsion>
1.0278

> <Gold.PLP.Chemscore.Hbond>
2.0990

> <Gold.PLP.Chemscore.CHOScore>
0.0000

> <Gold.PLP.Chemscore.Metal>
0.0000

> <Gold.Chemscore.Hbonds>
donor molecule, donor type, donor heavy atom, donor atom, acceptor molecule, acceptor atom, score
      L1  H     6    24       P1  8029  0.60
      L1  H     9    25       P1  8028  1.00
      P1  H  7989  7998       L1    13  0.34

> <Gold.PLP.Chemscore.Internal.Correction>
0.0058

> <Gold.Rescore>
     Score         DG    S(hbond)    S(metal)    S(lipo)     H(rot)  DE(clash)    DE(int)     intcor
     14.33     -16.96       1.45        0.00      92.58       1.65       1.47       1.15       ----

> <Gold.Chemscore.Fitness>
14.3330

> <Gold.Chemscore.DG>
-16.9561

> <Gold.Chemscore.ZeroCoef>
-5.4800

> <Gold.Chemscore.Hbond>
1.4545

> <Gold.Chemscore.Metal>
0.0000

> <Gold.Chemscore.Lipo>
92.5775

> <Gold.Chemscore.Internal_Hbond>
0.0000

> <Gold.Chemscore.DEClash>
1.4706

> <Gold.Chemscore.DEInternal>
1.1525

> <Gold.Chemscore.Rot>
1.6458

> <Gold.Chemscore.Internal.Correction>
   9.000000E+99

> <Gold.Chemscore.Hbonds>
donor molecule, donor type, donor heavy atom, donor atom, acceptor molecule, acceptor atom, score
      L1  H     6    24       P1  8029  0.07
      L1  H     9    25       P1  8028  0.30
      P1  H  7989  7998       L1    13  0.35

> <Gold.Chemscore.Hbond.Weighted>
-4.8579

> <Gold.Chemscore.Metal.Weighted>
-0.0000

> <Gold.Chemscore.Lipo.Weighted>
-10.8316

> <Gold.Chemscore.Internal_Hbond.Weighted>
0.0000

> <Gold.Chemscore.DEClash.Weighted>
1.4706

> <Gold.Chemscore.DEInternal.Weighted>
1.1525

> <Gold.Chemscore.Rot.Weighted>
4.2133

> <Gold.Chemscore.Internal.Correction.Weighted>
   9.000000E+99

> <Gold.Protein.RotatedTorsions>
[ 6907 6896 6895 6894 ] final -173.47 input  -60.11 | X-H torsion
[ 7974 7965 7964 7962 ] final   -5.60 input  175.53 | X-H torsion
[ 8008 7997 7996 7995 ] final  -48.33 input   59.86 | X-H torsion
[ 10167 10162 10161 10158 ] final  -80.47 input  -65.29 | X-H torsion
[ 10718 10713 10712 10709 ] final   -5.99 input   66.30 | X-H torsion
[ 10763 10752 10751 10750 ] final  115.04 input  -60.55 | X-H torsion
[ 11005 11000 10999 10996 ] final  116.51 input  -57.11 | X-H torsion

> <Gold.Protein.ActiveResidues>
 VAL166  LYS551  ARG553  GLY616  TRP617  ASP618  TYR619  PRO620  LYS621  CYS622 
 ASP623  PHE694  ASN695  SER759  ASP760  ASP761  ALA762  ILE779  LEU786  VAL792 
 PHE793  MET794  SER795  GLU796  ALA797  LYS798  CYS799  TRP800  GLU811  SER814 

> <Gold.Protein.RotatedAtoms>
  151.5567  133.3409  159.2963 H   0  0  0  0  0  0  0  0  0  0  0  0  # atno 6907 bound_to 6896
  150.8447  134.7754  159.6971 H   0  0  0  0  0  0  0  0  0  0  0  0  # atno 6908 bound_to 6896
  152.4507  134.5407  159.9890 H   0  0  0  0  0  0  0  0  0  0  0  0  # atno 6909 bound_to 6896
  146.2349  140.2046  142.8334 H   0  0  0  0  0  0  0  0  0  0  0  0  # atno 7974 bound_to 7965
  154.4027  140.1324  156.4322 H   0  0  0  0  0  0  0  0  0  0  0  0  # atno 8008 bound_to 7997
  155.7540  140.3487  155.5144 H   0  0  0  0  0  0  0  0  0  0  0  0  # atno 8009 bound_to 7997
  155.8923  140.1005  157.1400 H   0  0  0  0  0  0  0  0  0  0  0  0  # atno 8010 bound_to 7997
  140.4500  143.2486  151.8503 H   0  0  0  0  0  0  0  0  0  0  0  0  # atno 10167 bound_to 10162
  156.7385  130.5202  149.5829 H   0  0  0  0  0  0  0  0  0  0  0  0  # atno 10718 bound_to 10713
  153.5162  135.3607  155.2610 H   0  0  0  0  0  0  0  0  0  0  0  0  # atno 10763 bound_to 10752
  154.8738  135.4034  154.3312 H   0  0  0  0  0  0  0  0  0  0  0  0  # atno 10764 bound_to 10752
  153.3974  135.7074  153.6517 H   0  0  0  0  0  0  0  0  0  0  0  0  # atno 10765 bound_to 10752
  139.9043  134.9599  156.7209 H   0  0  0  0  0  0  0  0  0  0  0  0  # atno 11005 bound_to 11000
  144.9755  140.8409  143.5429 LP  0  0  0  0  0  0  0  0  0  0  0  0  # atno 17320 bound_to 7965
  145.2032  139.2241  143.5182 LP  0  0  0  0  0  0  0  0  0  0  0  0  # atno 17321 bound_to 7965
  139.4796  144.5131  151.8905 LP  0  0  0  0  0  0  0  0  0  0  0  0  # atno 17342 bound_to 10162
  140.4218  144.2232  150.5887 LP  0  0  0  0  0  0  0  0  0  0  0  0  # atno 17343 bound_to 10162
  156.1480  130.6291  151.0558 LP  0  0  0  0  0  0  0  0  0  0  0  0  # atno 17370 bound_to 10713
  157.6828  131.0833  150.7323 LP  0  0  0  0  0  0  0  0  0  0  0  0  # atno 17371 bound_to 10713
  140.7001  133.9313  155.8019 LP  0  0  0  0  0  0  0  0  0  0  0  0  # atno 17394 bound_to 11000
  141.0378  134.0665  157.3939 LP  0  0  0  0  0  0  0  0  0  0  0  0  # atno 17395 bound_to 11000

$$$$
