AV-unprocessed.smi:21|AV-procd|sdf|143|dock9
  -GOLD-   2262015353D 1   1.00000     0.00000
 Structure written by MMmdl.
 62 65  0  0  0  0  0  0  0  0  2 V2000
  144.5532  134.6033  156.1200 C   0  0  0  0  0  0  0  0  0  0  0  0
  145.2586  133.9876  155.0539 O   0  0  0  0  0  0  0  0  0  0  0  0
  145.8906  134.9101  154.1760 C   0  0  1  0  0  0  0  0  0  0  0  0
  147.0560  135.5535  154.9159 C   0  0  0  0  0  0  0  0  0  0  0  0
  148.1950  134.5431  154.7493 C   0  0  2  0  0  0  0  0  0  0  0  0
  149.6051  135.1524  154.9002 C   0  0  0  0  0  0  0  0  0  0  0  0
  149.7175  136.0458  156.0536 N   0  0  0  0  0  0  0  0  0  0  0  0
  148.9508  135.7325  157.2526 C   0  0  0  0  0  0  0  0  0  0  0  0
  150.1337  137.3231  155.8437 C   0  0  0  0  0  0  0  0  0  0  0  0
  149.9752  137.8441  154.5989 N   0  0  0  0  0  0  0  0  0  0  0  0
  150.3533  139.0969  154.3332 C   0  0  0  0  0  0  0  0  0  0  0  0
  150.8914  139.9959  155.1569 N   0  0  0  0  0  0  0  0  0  0  0  0
  151.0432  139.4904  156.4137 C   0  0  0  0  0  0  0  0  0  0  0  0
  150.7039  138.1731  156.8389 C   0  0  0  0  0  0  0  0  0  0  0  0
  151.0005  138.0316  158.1897 N   0  0  0  0  0  0  0  0  0  0  0  0
  151.4922  139.1881  158.5376 C   0  0  0  0  0  0  0  0  0  0  0  0
  151.5344  140.1333  157.5382 N   0  0  0  0  0  0  0  0  0  0  0  0
  152.0183  141.5028  157.6502 C   0  0  0  0  0  0  0  0  0  0  0  0
  152.2969  141.9703  159.1062 C   0  0  1  0  0  0  0  0  0  0  0  0
  153.5281  141.2643  159.7216 C   0  0  0  0  0  0  0  0  0  0  0  0
  153.6532  141.5768  161.0931 O   0  0  0  0  0  0  0  0  0  0  0  0
  152.4124  143.5136  159.2214 C   0  0  2  0  0  0  0  0  0  0  0  0
  152.0386  144.0897  160.5774 C   0  0  0  0  0  0  0  0  0  0  0  0
  151.7699  145.5573  160.2559 C   0  0  0  0  0  0  0  0  0  0  0  0
  151.3417  145.5901  158.8989 O   0  0  0  0  0  0  0  0  0  0  0  0
  151.4355  144.2892  158.3316 C   0  0  0  0  0  0  0  0  0  0  0  0
  147.9927  133.9693  153.3990 N   0  3  1  0  0  0  0  0  0  0  0  0
  148.4478  132.5684  153.2615 C   0  0  0  0  0  0  0  0  0  0  0  0
  146.5753  134.1748  153.0136 C   0  0  0  0  0  0  0  0  0  0  0  0
  145.1817  135.6667  153.8350 H   0  0  0  0  0  0  0  0  0  0  0  0
  148.0529  133.7479  155.4836 H   0  0  0  0  0  0  0  0  0  0  0  0
  144.0895  133.8356  156.7393 H   0  0  0  0  0  0  0  0  0  0  0  0
  143.7635  135.2622  155.7589 H   0  0  0  0  0  0  0  0  0  0  0  0
  145.2263  135.1816  156.7541 H   0  0  0  0  0  0  0  0  0  0  0  0
  147.3171  136.4958  154.4319 H   0  0  0  0  0  0  0  0  0  0  0  0
  146.8247  135.7686  155.9596 H   0  0  0  0  0  0  0  0  0  0  0  0
  150.3322  134.3517  155.0367 H   0  0  0  0  0  0  0  0  0  0  0  0
  149.8990  135.6532  153.9775 H   0  0  0  0  0  0  0  0  0  0  0  0
  149.3665  136.2365  158.1260 H   0  0  0  0  0  0  0  0  0  0  0  0
  148.9732  134.6604  157.4489 H   0  0  0  0  0  0  0  0  0  0  0  0
  147.9090  136.0325  157.1368 H   0  0  0  0  0  0  0  0  0  0  0  0
  150.1999  139.4272  153.3163 H   0  0  0  0  0  0  0  0  0  0  0  0
  151.8297  139.3830  159.5444 H   0  0  0  0  0  0  0  0  0  0  0  0
  152.9195  141.5941  157.0439 H   0  0  0  0  0  0  0  0  0  0  0  0
  151.2877  142.1607  157.1785 H   0  0  0  0  0  0  0  0  0  0  0  0
  151.4320  141.6726  159.7014 H   0  0  0  0  0  0  0  0  0  0  0  0
  153.4747  140.1835  159.5922 H   0  0  0  0  0  0  0  0  0  0  0  0
  154.4487  141.5924  159.2408 H   0  0  0  0  0  0  0  0  0  0  0  0
  153.8781  142.4910  161.1753 H   0  0  0  0  0  0  0  0  0  0  0  0
  153.4310  143.8296  158.9918 H   0  0  0  0  0  0  0  0  0  0  0  0
  151.1290  143.6184  160.9532 H   0  0  0  0  0  0  0  0  0  0  0  0
  152.8198  143.9705  161.3286 H   0  0  0  0  0  0  0  0  0  0  0  0
  151.0236  145.9953  160.9191 H   0  0  0  0  0  0  0  0  0  0  0  0
  152.6863  146.1421  160.3435 H   0  0  0  0  0  0  0  0  0  0  0  0
  151.7518  144.3426  157.2909 H   0  0  0  0  0  0  0  0  0  0  0  0
  150.4454  143.8319  158.3569 H   0  0  0  0  0  0  0  0  0  0  0  0
  147.8798  131.9056  153.9158 H   0  0  0  0  0  0  0  0  0  0  0  0
  149.5041  132.4773  153.5148 H   0  0  0  0  0  0  0  0  0  0  0  0
  148.3199  132.2265  152.2340 H   0  0  0  0  0  0  0  0  0  0  0  0
  146.0712  133.2428  152.7558 H   0  0  0  0  0  0  0  0  0  0  0  0
  146.5654  134.8006  152.1207 H   0  0  0  0  0  0  0  0  0  0  0  0
  148.5414  134.5288  152.7617 H   0  0  0  0  0  0  0  0  0  0  0  0
  1  2  1  0  0  0  0
  1 32  1  0  0  0  0
  1 33  1  0  0  0  0
  1 34  1  0  0  0  0
  2  3  1  0  0  0  0
  3 30  1  0  0  0  0
  3 29  1  0  0  0  0
  3  4  1  0  0  0  0
  4  5  1  0  0  0  0
  4 35  1  0  0  0  0
  4 36  1  0  0  0  0
  5 31  1  0  0  0  0
  5  6  1  0  0  0  0
  5 27  1  0  0  0  0
  6  7  1  0  0  0  0
  6 37  1  0  0  0  0
  6 38  1  0  0  0  0
  7  8  1  0  0  0  0
  7  9  1  0  0  0  0
  8 39  1  0  0  0  0
  8 40  1  0  0  0  0
  8 41  1  0  0  0  0
  9 14  1  0  0  0  0
  9 10  2  0  0  0  0
 10 11  1  0  0  0  0
 11 12  2  0  0  0  0
 11 42  1  0  0  0  0
 12 13  1  0  0  0  0
 13 17  1  0  0  0  0
 13 14  2  0  0  0  0
 14 15  1  0  0  0  0
 15 16  2  0  0  0  0
 16 17  1  0  0  0  0
 16 43  1  0  0  0  0
 17 18  1  0  0  0  0
 18 19  1  0  0  0  0
 18 44  1  0  0  0  0
 18 45  1  0  0  0  0
 19 20  1  0  0  0  0
 19 22  1  0  0  0  0
 19 46  1  0  0  0  0
 20 21  1  0  0  0  0
 20 47  1  0  0  0  0
 20 48  1  0  0  0  0
 21 49  1  0  0  0  0
 22 26  1  0  0  0  0
 22 23  1  0  0  0  0
 22 50  1  0  0  0  0
 23 24  1  0  0  0  0
 23 51  1  0  0  0  0
 23 52  1  0  0  0  0
 24 25  1  0  0  0  0
 24 53  1  0  0  0  0
 24 54  1  0  0  0  0
 25 26  1  0  0  0  0
 26 55  1  0  0  0  0
 26 56  1  0  0  0  0
 27 28  1  0  0  0  0
 27 29  1  0  0  0  0
 27 62  1  0  0  0  0
 28 57  1  0  0  0  0
 28 58  1  0  0  0  0
 28 59  1  0  0  0  0
 29 60  1  0  0  0  0
 29 61  1  0  0  0  0
M  CHG  1  27   1
M  END
> <s_m_source_file>
AV-unprocessed.smi

> <i_m_source_file_index>
21

> <i_lp_mmshare_version>
43012

> <i_f3d_flags>
0

> <s_epik_input>
W0NIM11PW0NASF0xW0NIMl1bQ0BIXShOKFtDSDNdKVtDSDJdMSlbQ0gyXU4oW0NIM10pYyhuW2NIXW4yKWMoYzIzKW5bY0hdbjNbQ0gyXVtDQEhdKFtDSDJdW09IXSlbQ0BASF00W0NIMl1bQ0gyXU9bQ0gyXTQ=

> <s_epik_cmdline>
J2VwaWtfcHl0aG9uJywgJy1waCcsICc3LjAnLCAnLXRuJywgJzgnLCAnLW1hJywgJzIwMCcsICctbWV0YWxfYmluZGluZycsICctaW1hZScsICc8aW5maWxlLm1hZT4nLCAnLW9tYWUnLCAnPG91dGZpbGUubWFlPic=

> <r_lp_tautomer_probability>
1

> <r_epik_Ionization_Penalty>
0.0157465

> <r_epik_Ionization_Penalty_Charging>
0.015354

> <r_epik_Ionization_Penalty_Neutral>
0.000392529

> <r_epik_State_Penalty>
0.0120612

> <r_epik_Charging_Adjusted_Penalty>
0.0274152

> <i_epik_Tot_Q>
1

> <i_epik_Tot_abs_Q>
1

> <r_epik_Metal_State_Penalty>
0.0121253

> <b_epik_Metal_Only>
0

> <s_lp_Force_Field>
OPLS_2005

> <r_lp_Energy>
58.9185

> <b_lp_Chiralities_Consistent>
1

> <s_lp_Variant>
AV-unprocessed.smi:21-23

> <Gold.Version>
5.8.1

> <Gold.Id.Protein>
6NUR|6NUR_protein|mol2

> <Gold.PLP.Fitness>
51.0850

> <Gold.PLP.PLP>
-43.1312

> <Gold.PLP.part.hbond>
-3.0000

> <Gold.PLP.part.metal>
0.0000

> <Gold.PLP.part.buried>
-8.0742

> <Gold.PLP.part.nonpolar>
-33.1505

> <Gold.PLP.part.repulsive>
0.4633

> <Gold.PLP.ligand.clash>
0.0000

> <Gold.PLP.ligand.torsion>
1.4143

> <Gold.PLP.Chemscore.Hbond>
2.3500

> <Gold.PLP.Chemscore.CHOScore>
1.0000

> <Gold.PLP.Chemscore.Metal>
0.0000

> <Gold.Chemscore.Hbonds>
donor molecule, donor type, donor heavy atom, donor atom, acceptor molecule, acceptor atom, score
      L1  H    27    62       P1  7948  1.70
      P1  H  7989  7998       L1    12  0.30
      L1  C    11    42       P1  7957  1.00

> <Gold.PLP.Chemscore.Internal.Correction>
0.7323

> <Gold.Rescore>
     Score         DG    S(hbond)    S(metal)    S(lipo)     H(rot)  DE(clash)    DE(int)     intcor
      9.82     -12.47       0.98        0.00      99.10       3.08       0.22       2.43       ----

> <Gold.Chemscore.Fitness>
9.8175

> <Gold.Chemscore.DG>
-12.4651

> <Gold.Chemscore.ZeroCoef>
-5.4800

> <Gold.Chemscore.Hbond>
0.9774

> <Gold.Chemscore.Metal>
0.0000

> <Gold.Chemscore.Lipo>
99.1003

> <Gold.Chemscore.Internal_Hbond>
0.0000

> <Gold.Chemscore.DEClash>
0.2178

> <Gold.Chemscore.DEInternal>
2.4298

> <Gold.Chemscore.Rot>
3.0758

> <Gold.Chemscore.Internal.Correction>
   9.000000E+99

> <Gold.Chemscore.Hbonds>
donor molecule, donor type, donor heavy atom, donor atom, acceptor molecule, acceptor atom, score
      L1  H    27    62       P1  7948  0.14

> <Gold.Chemscore.Hbond.Weighted>
-3.2646

> <Gold.Chemscore.Metal.Weighted>
-0.0000

> <Gold.Chemscore.Lipo.Weighted>
-11.5947

> <Gold.Chemscore.Internal_Hbond.Weighted>
0.0000

> <Gold.Chemscore.DEClash.Weighted>
0.2178

> <Gold.Chemscore.DEInternal.Weighted>
2.4298

> <Gold.Chemscore.Rot.Weighted>
7.8741

> <Gold.Chemscore.Internal.Correction.Weighted>
   9.000000E+99

> <Gold.Protein.RotatedTorsions>
[ 6907 6896 6895 6894 ] final  -89.61 input  -60.11 | X-H torsion
[ 7974 7965 7964 7962 ] final  -73.18 input  175.53 | X-H torsion
[ 8008 7997 7996 7995 ] final  160.01 input   59.86 | X-H torsion
[ 10167 10162 10161 10158 ] final  176.53 input  -65.29 | X-H torsion
[ 10718 10713 10712 10709 ] final  150.19 input   66.30 | X-H torsion
[ 10763 10752 10751 10750 ] final -161.22 input  -60.55 | X-H torsion
[ 11005 11000 10999 10996 ] final   19.98 input  -57.11 | X-H torsion

> <Gold.Protein.ActiveResidues>
 VAL166  LYS551  ARG553  GLY616  TRP617  ASP618  TYR619  PRO620  LYS621  CYS622 
 ASP623  PHE694  ASN695  SER759  ASP760  ASP761  ALA762  ILE779  LEU786  VAL792 
 PHE793  MET794  SER795  GLU796  ALA797  LYS798  CYS799  TRP800  GLU811  SER814 

> <Gold.Protein.RotatedAtoms>
  150.6875  134.2560  159.4529 H   0  0  0  0  0  0  0  0  0  0  0  0  # atno 6907 bound_to 6896
  152.0493  134.9661  160.0584 H   0  0  0  0  0  0  0  0  0  0  0  0  # atno 6908 bound_to 6896
  152.1131  133.4277  159.4677 H   0  0  0  0  0  0  0  0  0  0  0  0  # atno 6909 bound_to 6896
  145.6555  140.9269  143.0962 H   0  0  0  0  0  0  0  0  0  0  0  0  # atno 7974 bound_to 7965
  156.2201  140.1816  156.7497 H   0  0  0  0  0  0  0  0  0  0  0  0  # atno 8008 bound_to 7997
  154.5851  140.0660  156.9189 H   0  0  0  0  0  0  0  0  0  0  0  0  # atno 8009 bound_to 7997
  155.2433  140.3323  155.4292 H   0  0  0  0  0  0  0  0  0  0  0  0  # atno 8010 bound_to 7997
  139.5218  144.2904  152.0468 H   0  0  0  0  0  0  0  0  0  0  0  0  # atno 10167 bound_to 10162
  157.2866  131.0845  151.1493 H   0  0  0  0  0  0  0  0  0  0  0  0  # atno 10718 bound_to 10713
  154.7322  135.3049  154.8872 H   0  0  0  0  0  0  0  0  0  0  0  0  # atno 10763 bound_to 10752
  153.9711  135.6741  153.4751 H   0  0  0  0  0  0  0  0  0  0  0  0  # atno 10764 bound_to 10752
  153.0929  135.4950  154.8645 H   0  0  0  0  0  0  0  0  0  0  0  0  # atno 10765 bound_to 10752
  140.4077  134.1651  155.7666 H   0  0  0  0  0  0  0  0  0  0  0  0  # atno 11005 bound_to 11000
  144.7107  139.8382  143.7415 LP  0  0  0  0  0  0  0  0  0  0  0  0  # atno 17320 bound_to 7965
  146.1168  139.4180  143.0253 LP  0  0  0  0  0  0  0  0  0  0  0  0  # atno 17321 bound_to 7965
  140.2356  144.4323  150.6281 LP  0  0  0  0  0  0  0  0  0  0  0  0  # atno 17342 bound_to 10162
  140.6326  143.2190  151.6463 LP  0  0  0  0  0  0  0  0  0  0  0  0  # atno 17343 bound_to 10162
  157.2906  130.6794  149.6112 LP  0  0  0  0  0  0  0  0  0  0  0  0  # atno 17370 bound_to 10713
  155.9666  130.4422  150.5371 LP  0  0  0  0  0  0  0  0  0  0  0  0  # atno 17371 bound_to 10713
  141.1833  133.8368  157.1180 LP  0  0  0  0  0  0  0  0  0  0  0  0  # atno 17394 bound_to 11000
  140.0290  134.9910  157.0743 LP  0  0  0  0  0  0  0  0  0  0  0  0  # atno 17395 bound_to 11000

$$$$
