#       Name:                AV-unprocessed.smi:1066
#       Creating user name   scv26
#       Creation time:       Fri Mar 27 03:18:23 2020


#       File generated by GOLD software.
#

@<TRIPOS>MOLECULE
AV-unprocessed.smi:1066
    43    45     1
SMALL
NO_CHARGES


@<TRIPOS>ATOM
      1 ****        -2.9388   0.5576  -4.4057 C.3            1 S1                 0.0000
      2 ****        -3.3231   0.9011  -2.9951 C.2            1 S1                 0.0000
      3 ****        -3.8130   2.1055  -2.7319 N.2            1 S1                 0.0000
      4 ****        -4.0706   2.1354  -1.3566 O.3            1 S1                 0.0000
      5 ****        -3.7179   0.9272  -0.8619 C.2            1 S1                 0.0000
      6 ****        -3.8553   0.5410   0.8079 Cl             1 S1                 0.0000
      7 ****        -3.2365   0.0890  -1.8262 C.2            1 S1                 0.0000
      8 ****        -2.7324  -1.3274  -1.7022 C.3            1 S1                 0.0000
      9 ****        -1.2150  -1.3244  -1.5134 C.2            1 S1                 0.0000
     10 ****        -0.4830  -1.7802  -2.3910 O.2            1 S1                 0.0000
     11 ****        -0.7552  -0.8038  -0.3654 N.am           1 S1                 0.0000
     12 ****         0.6528  -0.6695  -0.0136 C.3            1 S1                 0.0000
     13 ****         1.2690  -1.9249   0.6077 C.3            1 S1                 0.0000
     14 ****         2.3543  -1.3908   1.5594 C.3            1 S1                 0.0000
     15 ****         2.2052   0.0831   1.5961 N.4            1 S1                 1.0000
     16 ****         2.4888   0.6941   2.9115 C.3            1 S1                 0.0000
     17 ****         3.0069   2.1095   2.8188 C.3            1 S1                 0.0000
     18 ****         3.9541   0.9745   3.1436 C.3            1 S1                 0.0000
     19 ****         0.8624   0.3819   1.0705 C.3            1 S1                 0.0000
     20 ****        -2.2424  -0.2806  -4.4349 H              1 S1                 0.0000
     21 ****        -2.4569   1.4003  -4.9023 H              1 S1                 0.0000
     22 ****        -3.8152   0.2815  -4.9921 H              1 S1                 0.0000
     23 ****        -3.1915  -1.8453  -0.8595 H              1 S1                 0.0000
     24 ****        -2.9824  -1.9135  -2.5873 H              1 S1                 0.0000
     25 ****        -1.4314  -0.4584   0.3008 H              1 S1                 0.0000
     26 ****         1.2330  -0.3794  -0.8923 H              1 S1                 0.0000
     27 ****         0.5208  -2.4758   1.1801 H              1 S1                 0.0000
     28 ****         1.6717  -2.6014  -0.1471 H              1 S1                 0.0000
     29 ****         2.2278  -1.8255   2.5524 H              1 S1                 0.0000
     30 ****         3.3561  -1.6447   1.2117 H              1 S1                 0.0000
     31 ****         1.8450   0.3940   3.7366 H              1 S1                 0.0000
     32 ****         3.0878   2.5656   1.8335 H              1 S1                 0.0000
     33 ****         2.7517   2.7918   3.6271 H              1 S1                 0.0000
     34 ****         4.3225   0.9110   4.1656 H              1 S1                 0.0000
     35 ****         4.6639   0.6758   2.3744 H              1 S1                 0.0000
     36 ****         0.7988   1.4001   0.6850 H              1 S1                 0.0000
     37 ****         0.1211   0.2694   1.8645 H              1 S1                 0.0000
     38 ****         2.8655   0.4578   0.9296 H              1 S1                 0.0000
     39 ****        -3.9676   2.8454  -3.3865 LP             1 S1                 0.0000
     40 ****        -5.0427   2.3030  -1.1928 LP             1 S1                 0.0000
     41 ****        -3.5302   2.8556  -0.9215 LP             1 S1                 0.0000
     42 ****        -0.8801  -2.1535  -3.2294 LP             1 S1                 0.0000
     43 ****         0.5092  -1.7775  -2.2658 LP             1 S1                 0.0000
@<TRIPOS>BOND
    1    1    2 1     
    2    1   20 1     
    3    1   21 1     
    4    1   22 1     
    5    2    7 1     
    6    2    3 2     
    7    3    4 1     
    8    4    5 1     
    9    5    6 1     
   10    5    7 2     
   11    7    8 1     
   12    8    9 1     
   13    8   23 1     
   14    8   24 1     
   15    9   10 2     
   16    9   11 am    
   17   11   12 1     
   18   11   25 1     
   19   12   19 1     
   20   12   13 1     
   21   12   26 1     
   22   13   14 1     
   23   13   27 1     
   24   13   28 1     
   25   14   15 1     
   26   14   29 1     
   27   14   30 1     
   28   15   16 1     
   29   15   19 1     
   30   15   38 1     
   31   16   18 1     
   32   16   17 1     
   33   16   31 1     
   34   17   18 1     
   35   17   32 1     
   36   17   33 1     
   37   18   34 1     
   38   18   35 1     
   39   19   36 1     
   40   19   37 1     
   41    3   39 1     
   42    4   40 1     
   43    4   41 1     
   44   10   42 1     
   45   10   43 1     
@<TRIPOS>SUBSTRUCTURE
      1 S1             1
@<TRIPOS>SET
LONE_PAIRS      STATIC     ATOMS    <user>   **** ""
5 39 40 41 42 43
DONOR_HYDROGENS      STATIC     ATOMS    <user>   **** ""
2 25 38
ATOM$BLUE        STATIC     ATOMS    COLORGROUP SYSTEM
5 39 40 41 42 43
ATOM$RED        STATIC     ATOMS    COLORGROUP SYSTEM
2 25 38
