AV-unprocessed.smi:3054|AV-procd|sdf|11640|dock6
  -GOLD-   2272017 33D 1   1.00000     0.00000
 Structure written by MMmdl.
 40 41  0  0  0  0  0  0  0  0  2 V2000
  148.8538  133.2858  153.3517 C   0  0  0  0  0  0  0  0  0  0  0  0
  147.5175  133.1739  154.0990 C   0  0  0  0  0  0  0  0  0  0  0  0
  146.5688  134.3771  153.8582 C   0  0  1  0  0  0  0  0  0  0  0  0
  146.9368  135.5978  154.7338 C   0  0  0  0  0  0  0  0  0  0  0  0
  148.1211  136.3011  154.2445 N   0  0  0  0  0  0  0  0  0  0  0  0
  148.8932  137.1261  154.9658 C   0  0  0  0  0  0  0  0  0  0  0  0
  148.7020  137.3662  156.1573 O   0  0  0  0  0  0  0  0  0  0  0  0
  149.8912  137.6344  154.2256 N   0  0  0  0  0  0  0  0  0  0  0  0
  150.8977  138.5374  154.6501 C   0  0  0  0  0  0  0  0  0  0  0  0
  152.3021  138.5037  154.4053 C   0  0  0  0  0  0  0  0  0  0  0  0
  152.9128  139.5321  154.9759 N   0  0  0  0  0  0  0  0  0  0  0  0
  151.9178  140.2177  155.5821 N   0  0  0  0  0  0  0  0  0  0  0  0
  150.6759  139.6474  155.4093 C   0  0  0  0  0  0  0  0  0  0  0  0
  146.4583  134.7595  152.4199 N   0  3  0  0  0  0  0  0  0  0  0  0
  146.0712  133.6907  151.4641 C   0  0  0  0  0  0  0  0  0  0  0  0
  144.8192  134.1921  150.7426 C   0  0  0  0  0  0  0  0  0  0  0  0
  144.9763  135.7069  150.7822 C   0  0  0  0  0  0  0  0  0  0  0  0
  145.6153  135.9487  152.1490 C   0  0  0  0  0  0  0  0  0  0  0  0
  152.1006  141.0626  156.1049 H   0  0  0  0  0  0  0  0  0  0  0  0
  149.5089  132.4530  153.6079 H   0  0  0  0  0  0  0  0  0  0  0  0
  149.3756  134.2071  153.6113 H   0  0  0  0  0  0  0  0  0  0  0  0
  148.7163  133.2694  152.2708 H   0  0  0  0  0  0  0  0  0  0  0  0
  147.0347  132.2407  153.8092 H   0  0  0  0  0  0  0  0  0  0  0  0
  147.7411  133.0757  155.1609 H   0  0  0  0  0  0  0  0  0  0  0  0
  145.5656  134.0698  154.1594 H   0  0  0  0  0  0  0  0  0  0  0  0
  146.1214  136.3198  154.7328 H   0  0  0  0  0  0  0  0  0  0  0  0
  147.0663  135.2969  155.7748 H   0  0  0  0  0  0  0  0  0  0  0  0
  148.3558  136.1671  153.2715 H   0  0  0  0  0  0  0  0  0  0  0  0
  149.9358  137.3493  153.2581 H   0  0  0  0  0  0  0  0  0  0  0  0
  152.8927  137.7908  153.8494 H   0  0  0  0  0  0  0  0  0  0  0  0
  149.7743  140.0693  155.8289 H   0  0  0  0  0  0  0  0  0  0  0  0
  146.8828  133.5853  150.7439 H   0  0  0  0  0  0  0  0  0  0  0  0
  145.9249  132.7109  151.9164 H   0  0  0  0  0  0  0  0  0  0  0  0
  144.7288  133.8001  149.7290 H   0  0  0  0  0  0  0  0  0  0  0  0
  143.9276  133.8982  151.2983 H   0  0  0  0  0  0  0  0  0  0  0  0
  145.6540  136.0295  149.9904 H   0  0  0  0  0  0  0  0  0  0  0  0
  144.0316  136.2366  150.6554 H   0  0  0  0  0  0  0  0  0  0  0  0
  144.8314  136.0486  152.9001 H   0  0  0  0  0  0  0  0  0  0  0  0
  146.2083  136.8633  152.1724 H   0  0  0  0  0  0  0  0  0  0  0  0
  147.3918  135.0295  152.1435 H   0  0  0  0  0  0  0  0  0  0  0  0
  1  2  1  0  0  0  0
  1 20  1  0  0  0  0
  1 21  1  0  0  0  0
  1 22  1  0  0  0  0
  2  3  1  0  0  0  0
  2 23  1  0  0  0  0
  2 24  1  0  0  0  0
  3  4  1  0  0  0  0
  3 14  1  0  0  0  0
  3 25  1  0  0  0  0
  4  5  1  0  0  0  0
  4 26  1  0  0  0  0
  4 27  1  0  0  0  0
  5  6  1  0  0  0  0
  5 28  1  0  0  0  0
  6  7  2  0  0  0  0
  6  8  1  0  0  0  0
  8  9  1  0  0  0  0
  8 29  1  0  0  0  0
  9 13  2  0  0  0  0
  9 10  1  0  0  0  0
 10 11  2  0  0  0  0
 10 30  1  0  0  0  0
 11 12  1  0  0  0  0
 12 19  1  0  0  0  0
 12 13  1  0  0  0  0
 13 31  1  0  0  0  0
 14 18  1  0  0  0  0
 14 15  1  0  0  0  0
 14 40  1  0  0  0  0
 15 16  1  0  0  0  0
 15 32  1  0  0  0  0
 15 33  1  0  0  0  0
 16 17  1  0  0  0  0
 16 34  1  0  0  0  0
 16 35  1  0  0  0  0
 17 18  1  0  0  0  0
 17 36  1  0  0  0  0
 17 37  1  0  0  0  0
 18 38  1  0  0  0  0
 18 39  1  0  0  0  0
M  CHG  1  14   1
M  END
> <s_m_source_file>
AV-unprocessed.smi

> <i_m_source_file_index>
3054

> <i_lp_mmshare_version>
43012

> <i_f3d_flags>
0

> <s_epik_input>
W0NIMl0xW0NIMl1bQ0gyXVtDSDJdTjFbQ0BIXShbQ0gyXVtDSDNdKVtDSDJdW05IXUMoPU8pW05IXWMyW2NIXW5bbkhdW2NIXTI=

> <s_epik_cmdline>
J2VwaWtfcHl0aG9uJywgJy1waCcsICc3LjAnLCAnLXRuJywgJzgnLCAnLW1hJywgJzIwMCcsICctbWV0YWxfYmluZGluZycsICctaW1hZScsICc8aW5maWxlLm1hZT4nLCAnLW9tYWUnLCAnPG91dGZpbGUubWFlPic=

> <r_lp_tautomer_probability>
0.5

> <r_epik_Ionization_Penalty>
0.00108132

> <r_epik_Ionization_Penalty_Charging>
0.00104139

> <r_epik_Ionization_Penalty_Neutral>
3.99244e-05

> <r_epik_State_Penalty>
0.00068071

> <r_epik_Charging_Adjusted_Penalty>
0.0017221

> <i_epik_Tot_Q>
1

> <i_epik_Tot_abs_Q>
1

> <r_epik_Metal_State_Penalty>
-0

> <b_epik_Metal_Only>
0

> <s_lp_Force_Field>
OPLS_2005

> <r_lp_Energy>
40.663

> <b_lp_Chiralities_Consistent>
1

> <s_lp_Variant>
AV-unprocessed.smi:3054-2

> <Gold.Version>
5.8.1

> <Gold.Id.Protein>
6NUR|6NUR_protein|mol2

> <Gold.PLP.Fitness>
42.8137

> <Gold.PLP.PLP>
-29.5458

> <Gold.PLP.part.hbond>
-4.9867

> <Gold.PLP.part.metal>
0.0000

> <Gold.PLP.part.buried>
-4.5644

> <Gold.PLP.part.nonpolar>
-20.4050

> <Gold.PLP.part.repulsive>
0.8361

> <Gold.PLP.ligand.clash>
0.0000

> <Gold.PLP.ligand.torsion>
0.7710

> <Gold.PLP.Chemscore.Hbond>
4.8800

> <Gold.PLP.Chemscore.CHOScore>
0.0000

> <Gold.PLP.Chemscore.Metal>
0.0000

> <Gold.Chemscore.Hbonds>
donor molecule, donor type, donor heavy atom, donor atom, acceptor molecule, acceptor atom, score
      L1  H     5    28       P1  7948  0.99
      L1  H     8    29       P1  7948  0.88
      L1  H    14    40       P1  7948  2.00
      P1  H  7997  8008       L1    11  1.00

> <Gold.PLP.Chemscore.Internal.Correction>
0.1699

> <Gold.Rescore>
     Score         DG    S(hbond)    S(metal)    S(lipo)     H(rot)  DE(clash)    DE(int)     intcor
     18.28     -19.07       3.37        0.00      59.45       1.81       0.02       0.77       ----

> <Gold.Chemscore.Fitness>
18.2800

> <Gold.Chemscore.DG>
-19.0724

> <Gold.Chemscore.ZeroCoef>
-5.4800

> <Gold.Chemscore.Hbond>
3.3739

> <Gold.Chemscore.Metal>
0.0000

> <Gold.Chemscore.Lipo>
59.4517

> <Gold.Chemscore.Internal_Hbond>
0.0000

> <Gold.Chemscore.DEClash>
0.0234

> <Gold.Chemscore.DEInternal>
0.7690

> <Gold.Chemscore.Rot>
1.8094

> <Gold.Chemscore.Internal.Correction>
   9.000000E+99

> <Gold.Chemscore.Hbonds>
donor molecule, donor type, donor heavy atom, donor atom, acceptor molecule, acceptor atom, score
      L1  H     5    28       P1  7948  0.92
      L1  H     8    29       P1  7948  0.29
      L1  H    14    40       P1  7948  0.95
      P1  H  7997  8008       L1    11  0.30

> <Gold.Chemscore.Hbond.Weighted>
-11.2687

> <Gold.Chemscore.Metal.Weighted>
-0.0000

> <Gold.Chemscore.Lipo.Weighted>
-6.9559

> <Gold.Chemscore.Internal_Hbond.Weighted>
0.0000

> <Gold.Chemscore.DEClash.Weighted>
0.0234

> <Gold.Chemscore.DEInternal.Weighted>
0.7690

> <Gold.Chemscore.Rot.Weighted>
4.6322

> <Gold.Chemscore.Internal.Correction.Weighted>
   9.000000E+99

> <Gold.Protein.RotatedTorsions>
[ 6907 6896 6895 6894 ] final  -59.09 input  -60.11 | X-H torsion
[ 7974 7965 7964 7962 ] final -178.22 input  175.53 | X-H torsion
[ 8008 7997 7996 7995 ] final  -17.45 input   59.86 | X-H torsion
[ 10167 10162 10161 10158 ] final  -97.46 input  -65.29 | X-H torsion
[ 10718 10713 10712 10709 ] final   -8.81 input   66.30 | X-H torsion
[ 10763 10752 10751 10750 ] final -161.11 input  -60.55 | X-H torsion
[ 11005 11000 10999 10996 ] final  -34.16 input  -57.11 | X-H torsion

> <Gold.Protein.ActiveResidues>
 VAL166  LYS551  ARG553  GLY616  TRP617  ASP618  TYR619  PRO620  LYS621  CYS622 
 ASP623  PHE694  ASN695  SER759  ASP760  ASP761  ALA762  ILE779  LEU786  VAL792 
 PHE793  MET794  SER795  GLU796  ALA797  LYS798  CYS799  TRP800  GLU811  SER814 

> <Gold.Protein.RotatedAtoms>
  150.7956  134.7013  159.6551 H   0  0  0  0  0  0  0  0  0  0  0  0  # atno 6907 bound_to 6896
  152.4068  134.6190  160.0055 H   0  0  0  0  0  0  0  0  0  0  0  0  # atno 6908 bound_to 6896
  151.6444  133.3287  159.3174 H   0  0  0  0  0  0  0  0  0  0  0  0  # atno 6909 bound_to 6896
  144.7130  140.0901  143.6421 H   0  0  0  0  0  0  0  0  0  0  0  0  # atno 7974 bound_to 7965
  154.4977  140.2142  155.9412 H   0  0  0  0  0  0  0  0  0  0  0  0  # atno 8008 bound_to 7997
  156.1393  140.3182  155.8437 H   0  0  0  0  0  0  0  0  0  0  0  0  # atno 8009 bound_to 7997
  155.4151  140.0493  157.3020 H   0  0  0  0  0  0  0  0  0  0  0  0  # atno 8010 bound_to 7997
  140.2832  143.3268  152.0420 H   0  0  0  0  0  0  0  0  0  0  0  0  # atno 10167 bound_to 10162
  156.6972  130.5082  149.5927 H   0  0  0  0  0  0  0  0  0  0  0  0  # atno 10718 bound_to 10713
  154.7332  135.3051  154.8856 H   0  0  0  0  0  0  0  0  0  0  0  0  # atno 10763 bound_to 10752
  153.9692  135.6743  153.4751 H   0  0  0  0  0  0  0  0  0  0  0  0  # atno 10764 bound_to 10752
  153.0938  135.4946  154.8661 H   0  0  0  0  0  0  0  0  0  0  0  0  # atno 10765 bound_to 10752
  140.9694  133.7118  156.1498 H   0  0  0  0  0  0  0  0  0  0  0  0  # atno 11005 bound_to 11000
  145.9628  139.2813  143.1145 LP  0  0  0  0  0  0  0  0  0  0  0  0  # atno 17320 bound_to 7965
  145.9202  140.9120  143.0409 LP  0  0  0  0  0  0  0  0  0  0  0  0  # atno 17321 bound_to 7965
  139.4957  144.6577  151.6535 LP  0  0  0  0  0  0  0  0  0  0  0  0  # atno 17342 bound_to 10162
  140.5794  143.9972  150.6260 LP  0  0  0  0  0  0  0  0  0  0  0  0  # atno 17343 bound_to 10162
  156.1755  130.6465  151.0889 LP  0  0  0  0  0  0  0  0  0  0  0  0  # atno 17370 bound_to 10713
  157.6987  131.0784  150.6889 LP  0  0  0  0  0  0  0  0  0  0  0  0  # atno 17371 bound_to 10713
  140.7351  134.4211  157.5561 LP  0  0  0  0  0  0  0  0  0  0  0  0  # atno 17394 bound_to 11000
  139.8906  134.8799  156.2359 LP  0  0  0  0  0  0  0  0  0  0  0  0  # atno 17395 bound_to 11000

$$$$
