AV-unprocessed.smi:3033|AV-procd|sdf|11573|dock9
  -GOLD-   2272016543D 1   1.00000     0.00000
 Structure written by MMmdl.
 33 34  0  0  0  0  0  0  0  0  1 V2000
  152.7006  138.5351  154.8359 C   0  0  0  0  0  0  0  0  0  0  0  0
  151.3152  138.6984  154.5701 O   0  0  0  0  0  0  0  0  0  0  0  0
  150.6396  139.6960  155.2398 C   0  0  0  0  0  0  0  0  0  0  0  0
  149.4901  140.3555  154.7367 C   0  0  0  0  0  0  0  0  0  0  0  0
  148.8645  141.3680  155.4888 C   0  0  0  0  0  0  0  0  0  0  0  0
  149.3746  141.7318  156.7483 C   0  0  0  0  0  0  0  0  0  0  0  0
  150.5151  141.0814  157.2643 C   0  0  0  0  0  0  0  0  0  0  0  0
  151.0812  141.4716  158.6213 C   0  0  2  0  0  0  0  0  0  0  0  0
  150.4613  142.6442  159.1107 O   0  0  0  0  0  0  0  0  0  0  0  0
  152.6071  141.6958  158.5393 C   0  0  0  0  0  0  0  0  0  0  0  0
  153.2790  141.4938  159.8010 N   0  0  0  0  0  0  0  0  0  0  0  0
  153.1033  142.3549  160.8734 C   0  0  0  0  0  0  0  0  0  0  0  0
  153.7399  142.2049  162.0599 C   0  0  0  0  0  0  0  0  0  0  0  0
  153.4696  143.3239  163.3477 Cl  0  0  0  0  0  0  0  0  0  0  0  0
  154.6676  141.0916  162.2563 C   0  0  0  0  0  0  0  0  0  0  0  0
  155.2942  140.8600  163.2884 O   0  0  0  0  0  0  0  0  0  0  0  0
  154.8189  140.2536  161.1473 N   0  0  0  0  0  0  0  0  0  0  0  0
  154.1704  140.4024  159.9207 C   0  0  0  0  0  0  0  0  0  0  0  0
  154.3923  139.6026  159.0119 O   0  0  0  0  0  0  0  0  0  0  0  0
  151.1399  140.0706  156.5038 C   0  0  0  0  0  0  0  0  0  0  0  0
  155.4542  139.4746  161.2410 H   0  0  0  0  0  0  0  0  0  0  0  0
  153.0866  137.7084  154.2395 H   0  0  0  0  0  0  0  0  0  0  0  0
  152.8804  138.2962  155.8851 H   0  0  0  0  0  0  0  0  0  0  0  0
  153.2660  139.4281  154.5664 H   0  0  0  0  0  0  0  0  0  0  0  0
  149.0691  140.1041  153.7751 H   0  0  0  0  0  0  0  0  0  0  0  0
  147.9905  141.8675  155.0979 H   0  0  0  0  0  0  0  0  0  0  0  0
  148.8888  142.5123  157.3160 H   0  0  0  0  0  0  0  0  0  0  0  0
  150.8668  140.6666  159.3258 H   0  0  0  0  0  0  0  0  0  0  0  0
  150.9672  143.3906  158.8285 H   0  0  0  0  0  0  0  0  0  0  0  0
  153.0577  140.9537  157.8773 H   0  0  0  0  0  0  0  0  0  0  0  0
  152.8903  142.6648  158.1224 H   0  0  0  0  0  0  0  0  0  0  0  0
  152.4279  143.1910  160.7582 H   0  0  0  0  0  0  0  0  0  0  0  0
  152.0171  139.5725  156.8906 H   0  0  0  0  0  0  0  0  0  0  0  0
  1  2  1  0  0  0  0
  1 22  1  0  0  0  0
  1 23  1  0  0  0  0
  1 24  1  0  0  0  0
  2  3  1  0  0  0  0
  3 20  1  0  0  0  0
  3  4  2  0  0  0  0
  4  5  1  0  0  0  0
  4 25  1  0  0  0  0
  5  6  2  0  0  0  0
  5 26  1  0  0  0  0
  6  7  1  0  0  0  0
  6 27  1  0  0  0  0
  7  8  1  0  0  0  0
  7 20  2  0  0  0  0
  8  9  1  0  0  0  0
  8 10  1  0  0  0  0
  8 28  1  0  0  0  0
  9 29  1  0  0  0  0
 10 11  1  0  0  0  0
 10 30  1  0  0  0  0
 10 31  1  0  0  0  0
 11 18  1  0  0  0  0
 11 12  1  0  0  0  0
 12 13  2  0  0  0  0
 12 32  1  0  0  0  0
 13 14  1  0  0  0  0
 13 15  1  0  0  0  0
 15 16  2  0  0  0  0
 15 17  1  0  0  0  0
 17 21  1  0  0  0  0
 17 18  1  0  0  0  0
 18 19  2  0  0  0  0
 20 33  1  0  0  0  0
M  END
> <s_m_source_file>
AV-unprocessed.smi

> <i_m_source_file_index>
3033

> <i_lp_mmshare_version>
43012

> <i_f3d_flags>
0

> <s_epik_input>
W0NIM11PYzFbY0hdW2NIXVtjSF1jKFtjSF0xKVtDQEhdKFtPSF0pW0NIMl1uMltjSF1jKENsKWMoPU8pW25IXWMyPU8=

> <s_epik_cmdline>
J2VwaWtfcHl0aG9uJywgJy1waCcsICc3LjAnLCAnLXRuJywgJzgnLCAnLW1hJywgJzIwMCcsICctbWV0YWxfYmluZGluZycsICctaW1hZScsICc8aW5maWxlLm1hZT4nLCAnLW9tYWUnLCAnPG91dGZpbGUubWFlPic=

> <r_lp_tautomer_probability>
0.999537

> <r_epik_Ionization_Penalty>
0.0292058

> <r_epik_Ionization_Penalty_Charging>
0.0292057

> <r_epik_Ionization_Penalty_Neutral>
7.1713e-08

> <r_epik_State_Penalty>
0.0240115

> <r_epik_Charging_Adjusted_Penalty>
0.0532172

> <i_epik_Tot_Q>
0

> <i_epik_Tot_abs_Q>
0

> <r_epik_Metal_State_Penalty>
2.21956

> <b_epik_Metal_Only>
0

> <s_lp_Force_Field>
OPLS_2005

> <r_lp_Energy>
16.8707

> <b_lp_Chiralities_Consistent>
1

> <s_lp_Variant>
AV-unprocessed.smi:3033-1

> <Gold.Version>
5.8.1

> <Gold.Id.Protein>
6NUR|6NUR_protein|mol2

> <Gold.PLP.Fitness>
43.9878

> <Gold.PLP.PLP>
-42.7618

> <Gold.PLP.part.hbond>
-3.3923

> <Gold.PLP.part.metal>
0.0000

> <Gold.PLP.part.buried>
-1.9760

> <Gold.PLP.part.nonpolar>
-35.1276

> <Gold.PLP.part.repulsive>
0.1559

> <Gold.PLP.ligand.clash>
0.0000

> <Gold.PLP.ligand.torsion>
0.8950

> <Gold.PLP.Chemscore.Hbond>
1.0000

> <Gold.PLP.Chemscore.CHOScore>
0.0000

> <Gold.PLP.Chemscore.Metal>
0.0000

> <Gold.Chemscore.Hbonds>
donor molecule, donor type, donor heavy atom, donor atom, acceptor molecule, acceptor atom, score
      P1  H  7997  8009       L1    19  1.00

> <Gold.PLP.Chemscore.Internal.Correction>
0.0160

> <Gold.Rescore>
     Score         DG    S(hbond)    S(metal)    S(lipo)     H(rot)  DE(clash)    DE(int)     intcor
     12.75     -13.39       0.99        0.00      94.19       2.51       0.06       0.58       ----

> <Gold.Chemscore.Fitness>
12.7518

> <Gold.Chemscore.DG>
-13.3891

> <Gold.Chemscore.ZeroCoef>
-5.4800

> <Gold.Chemscore.Hbond>
0.9928

> <Gold.Chemscore.Metal>
0.0000

> <Gold.Chemscore.Lipo>
94.1932

> <Gold.Chemscore.Internal_Hbond>
0.0000

> <Gold.Chemscore.DEClash>
0.0570

> <Gold.Chemscore.DEInternal>
0.5803

> <Gold.Chemscore.Rot>
2.5107

> <Gold.Chemscore.Internal.Correction>
   9.000000E+99

> <Gold.Chemscore.Hbonds>
donor molecule, donor type, donor heavy atom, donor atom, acceptor molecule, acceptor atom, score
      P1  H  7997  8009       L1    19  1.00

> <Gold.Chemscore.Hbond.Weighted>
-3.3159

> <Gold.Chemscore.Metal.Weighted>
-0.0000

> <Gold.Chemscore.Lipo.Weighted>
-11.0206

> <Gold.Chemscore.Internal_Hbond.Weighted>
0.0000

> <Gold.Chemscore.DEClash.Weighted>
0.0570

> <Gold.Chemscore.DEInternal.Weighted>
0.5803

> <Gold.Chemscore.Rot.Weighted>
6.4274

> <Gold.Chemscore.Internal.Correction.Weighted>
   9.000000E+99

> <Gold.Protein.RotatedTorsions>
[ 6907 6896 6895 6894 ] final -154.14 input  -60.11 | X-H torsion
[ 7974 7965 7964 7962 ] final -111.10 input  175.53 | X-H torsion
[ 8008 7997 7996 7995 ] final  127.46 input   59.86 | X-H torsion
[ 10167 10162 10161 10158 ] final  -70.10 input  -65.29 | X-H torsion
[ 10718 10713 10712 10709 ] final -120.06 input   66.30 | X-H torsion
[ 10763 10752 10751 10750 ] final  151.93 input  -60.55 | X-H torsion
[ 11005 11000 10999 10996 ] final  -81.16 input  -57.11 | X-H torsion

> <Gold.Protein.ActiveResidues>
 VAL166  LYS551  ARG553  GLY616  TRP617  ASP618  TYR619  PRO620  LYS621  CYS622 
 ASP623  PHE694  ASN695  SER759  ASP760  ASP761  ALA762  ILE779  LEU786  VAL792 
 PHE793  MET794  SER795  GLU796  ALA797  LYS798  CYS799  TRP800  GLU811  SER814 

> <Gold.Protein.RotatedAtoms>
  151.2531  133.4340  159.2612 H   0  0  0  0  0  0  0  0  0  0  0  0  # atno 6907 bound_to 6896
  151.0599  134.9730  159.8265 H   0  0  0  0  0  0  0  0  0  0  0  0  # atno 6908 bound_to 6896
  152.5396  134.2481  159.8941 H   0  0  0  0  0  0  0  0  0  0  0  0  # atno 6909 bound_to 6896
  145.1602  140.8874  143.3595 H   0  0  0  0  0  0  0  0  0  0  0  0  # atno 7974 bound_to 7965
  156.2891  140.2668  156.2276 H   0  0  0  0  0  0  0  0  0  0  0  0  # atno 8008 bound_to 7997
  155.0104  140.0387  157.2415 H   0  0  0  0  0  0  0  0  0  0  0  0  # atno 8009 bound_to 7997
  154.7523  140.2745  155.6287 H   0  0  0  0  0  0  0  0  0  0  0  0  # atno 8010 bound_to 7997
  140.5379  143.2317  151.7144 H   0  0  0  0  0  0  0  0  0  0  0  0  # atno 10167 bound_to 10162
  156.1229  130.6337  150.9494 H   0  0  0  0  0  0  0  0  0  0  0  0  # atno 10718 bound_to 10713
  154.1118  135.2838  155.3229 H   0  0  0  0  0  0  0  0  0  0  0  0  # atno 10763 bound_to 10752
  154.6484  135.5377  153.7876 H   0  0  0  0  0  0  0  0  0  0  0  0  # atno 10764 bound_to 10752
  153.0343  135.6504  154.1276 H   0  0  0  0  0  0  0  0  0  0  0  0  # atno 10765 bound_to 10752
  141.1667  133.7183  156.8381 H   0  0  0  0  0  0  0  0  0  0  0  0  # atno 11005 bound_to 11000
  145.0339  139.3317  143.6011 LP  0  0  0  0  0  0  0  0  0  0  0  0  # atno 17320 bound_to 7965
  146.3483  139.9687  142.8709 LP  0  0  0  0  0  0  0  0  0  0  0  0  # atno 17321 bound_to 7965
  139.4977  144.4015  152.0176 LP  0  0  0  0  0  0  0  0  0  0  0  0  # atno 17342 bound_to 10162
  140.3121  144.3525  150.6031 LP  0  0  0  0  0  0  0  0  0  0  0  0  # atno 17343 bound_to 10162
  157.6412  131.0910  150.8248 LP  0  0  0  0  0  0  0  0  0  0  0  0  # atno 17370 bound_to 10713
  156.8342  130.5026  149.5328 LP  0  0  0  0  0  0  0  0  0  0  0  0  # atno 17371 bound_to 10713
  140.2003  134.8902  157.3161 LP  0  0  0  0  0  0  0  0  0  0  0  0  # atno 17394 bound_to 11000
  140.2194  134.4041  155.7573 LP  0  0  0  0  0  0  0  0  0  0  0  0  # atno 17395 bound_to 11000

$$$$
