AV-unprocessed.smi:356|AV-procd|sdf|2410|dock7
  -GOLD-   2262022343D 1   1.00000     0.00000
 Structure written by MMmdl.
 42 44  0  0  0  0  0  0  0  0  2 V2000
  151.7417  138.8895  155.1265 C   0  0  0  0  0  0  0  0  0  0  0  0
  151.7415  139.9448  156.1866 C   0  0  0  0  0  0  0  0  0  0  0  0
  152.4773  139.8394  157.2928 N   0  0  0  0  0  0  0  0  0  0  0  0
  152.1848  141.0105  157.9647 C   0  0  0  0  0  0  0  0  0  0  0  0
  152.6482  141.4966  159.2081 C   0  0  0  0  0  0  0  0  0  0  0  0
  152.2007  142.7404  159.6998 C   0  0  0  0  0  0  0  0  0  0  0  0
  151.2858  143.5146  158.9574 C   0  0  0  0  0  0  0  0  0  0  0  0
  150.8106  143.0487  157.7164 C   0  0  0  0  0  0  0  0  0  0  0  0
  151.2600  141.8060  157.2301 C   0  0  0  0  0  0  0  0  0  0  0  0
  150.9904  141.0688  156.0803 N   0  0  0  0  0  0  0  0  0  0  0  0
  150.0897  141.4462  154.9999 C   0  0  0  0  0  0  0  0  0  0  0  0
  148.6506  140.9308  155.2077 C   0  0  2  0  0  0  0  0  0  0  0  0
  148.6845  139.5204  155.1223 O   0  0  0  0  0  0  0  0  0  0  0  0
  147.6434  141.4672  154.1660 C   0  0  0  0  0  0  0  0  0  0  0  0
  146.8682  142.6321  154.6628 N   0  3  0  0  0  0  0  0  0  0  0  0
  145.8521  143.1275  153.7007 C   0  0  0  0  0  0  0  0  0  0  0  0
  145.1216  144.3538  154.2741 C   0  0  0  0  0  0  0  0  0  0  0  0
  144.5321  144.0197  155.5245 O   0  0  0  0  0  0  0  0  0  0  0  0
  145.5059  143.6266  156.4833 C   0  0  0  0  0  0  0  0  0  0  0  0
  146.2455  142.3745  155.9831 C   0  0  0  0  0  0  0  0  0  0  0  0
  152.4456  138.0957  155.3785 H   0  0  0  0  0  0  0  0  0  0  0  0
  152.0381  139.3144  154.1676 H   0  0  0  0  0  0  0  0  0  0  0  0
  150.7508  138.4474  155.0296 H   0  0  0  0  0  0  0  0  0  0  0  0
  153.3497  140.9116  159.7844 H   0  0  0  0  0  0  0  0  0  0  0  0
  152.5623  143.1027  160.6511 H   0  0  0  0  0  0  0  0  0  0  0  0
  150.9498  144.4669  159.3415 H   0  0  0  0  0  0  0  0  0  0  0  0
  150.1091  143.6402  157.1473 H   0  0  0  0  0  0  0  0  0  0  0  0
  150.0902  142.5339  154.9170 H   0  0  0  0  0  0  0  0  0  0  0  0
  150.4959  141.0745  154.0587 H   0  0  0  0  0  0  0  0  0  0  0  0
  148.3296  141.1958  156.2137 H   0  0  0  0  0  0  0  0  0  0  0  0
  149.5739  139.2497  154.9491 H   0  0  0  0  0  0  0  0  0  0  0  0
  148.1468  141.7557  153.2429 H   0  0  0  0  0  0  0  0  0  0  0  0
  146.9600  140.6590  153.9004 H   0  0  0  0  0  0  0  0  0  0  0  0
  146.3188  143.3992  152.7545 H   0  0  0  0  0  0  0  0  0  0  0  0
  145.1336  142.3347  153.4860 H   0  0  0  0  0  0  0  0  0  0  0  0
  145.8064  145.1950  154.3939 H   0  0  0  0  0  0  0  0  0  0  0  0
  144.3371  144.6773  153.5897 H   0  0  0  0  0  0  0  0  0  0  0  0
  146.2041  144.4446  156.6684 H   0  0  0  0  0  0  0  0  0  0  0  0
  145.0056  143.4147  157.4284 H   0  0  0  0  0  0  0  0  0  0  0  0
  145.5512  141.5364  155.9034 H   0  0  0  0  0  0  0  0  0  0  0  0
  147.0115  142.0896  156.7055 H   0  0  0  0  0  0  0  0  0  0  0  0
  147.5354  143.3778  154.8045 H   0  0  0  0  0  0  0  0  0  0  0  0
  1  2  1  0  0  0  0
  1 21  1  0  0  0  0
  1 22  1  0  0  0  0
  1 23  1  0  0  0  0
  2 10  1  0  0  0  0
  2  3  2  0  0  0  0
  3  4  1  0  0  0  0
  4  9  2  0  0  0  0
  4  5  1  0  0  0  0
  5  6  2  0  0  0  0
  5 24  1  0  0  0  0
  6  7  1  0  0  0  0
  6 25  1  0  0  0  0
  7  8  2  0  0  0  0
  7 26  1  0  0  0  0
  8  9  1  0  0  0  0
  8 27  1  0  0  0  0
  9 10  1  0  0  0  0
 10 11  1  0  0  0  0
 11 12  1  0  0  0  0
 11 28  1  0  0  0  0
 11 29  1  0  0  0  0
 12 13  1  0  0  0  0
 12 14  1  0  0  0  0
 12 30  1  0  0  0  0
 13 31  1  0  0  0  0
 14 15  1  0  0  0  0
 14 32  1  0  0  0  0
 14 33  1  0  0  0  0
 15 20  1  0  0  0  0
 15 16  1  0  0  0  0
 15 42  1  0  0  0  0
 16 17  1  0  0  0  0
 16 34  1  0  0  0  0
 16 35  1  0  0  0  0
 17 18  1  0  0  0  0
 17 36  1  0  0  0  0
 17 37  1  0  0  0  0
 18 19  1  0  0  0  0
 19 20  1  0  0  0  0
 19 38  1  0  0  0  0
 19 39  1  0  0  0  0
 20 40  1  0  0  0  0
 20 41  1  0  0  0  0
M  CHG  1  15   1
M  END
> <s_m_source_file>
AV-unprocessed.smi

> <i_m_source_file_index>
356

> <i_lp_mmshare_version>
43012

> <i_f3d_flags>
0

> <s_epik_input>
W2NIXTFbY0hdW2NIXVtjSF1jKGMxMiluKGMobjIpW0NIM10pW0NIMl1bQ0BIXShbT0hdKVtDSDJdTjNbQ0gyXVtDSDJdT1tDSDJdW0NIMl0z

> <s_epik_cmdline>
J2VwaWtfcHl0aG9uJywgJy1waCcsICc3LjAnLCAnLXRuJywgJzgnLCAnLW1hJywgJzIwMCcsICctbWV0YWxfYmluZGluZycsICctaW1hZScsICc8aW5maWxlLm1hZT4nLCAnLW9tYWUnLCAnPG91dGZpbGUubWFlPic=

> <r_epik_Ionization_Penalty>
0.706388

> <r_epik_Ionization_Penalty_Charging>
0.608065

> <r_epik_Ionization_Penalty_Neutral>
0.0983237

> <r_epik_State_Penalty>
0.742533

> <r_epik_Charging_Adjusted_Penalty>
1.3506

> <i_epik_Tot_Q>
1

> <i_epik_Tot_abs_Q>
1

> <r_epik_Metal_State_Penalty>
0.651809

> <b_epik_Metal_Only>
0

> <s_lp_Force_Field>
OPLS_2005

> <r_lp_Energy>
21.62

> <b_lp_Chiralities_Consistent>
1

> <s_lp_Variant>
AV-unprocessed.smi:356-3

> <Gold.Version>
5.8.1

> <Gold.Id.Protein>
6NUR|6NUR_protein|mol2

> <Gold.PLP.Fitness>
44.5402

> <Gold.PLP.PLP>
-37.4034

> <Gold.PLP.part.hbond>
-2.0000

> <Gold.PLP.part.metal>
0.0000

> <Gold.PLP.part.buried>
-4.8574

> <Gold.PLP.part.nonpolar>
-31.2346

> <Gold.PLP.part.repulsive>
0.2311

> <Gold.PLP.ligand.clash>
0.0000

> <Gold.PLP.ligand.torsion>
0.9426

> <Gold.PLP.Chemscore.Hbond>
3.0000

> <Gold.PLP.Chemscore.CHOScore>
0.0000

> <Gold.PLP.Chemscore.Metal>
0.0000

> <Gold.Chemscore.Hbonds>
donor molecule, donor type, donor heavy atom, donor atom, acceptor molecule, acceptor atom, score
      L1  H    15    42       P1  8028  1.95
      P1  H  7997  8010       L1     3  1.00

> <Gold.PLP.Chemscore.Internal.Correction>
0.0221

> <Gold.Rescore>
     Score         DG    S(hbond)    S(metal)    S(lipo)     H(rot)  DE(clash)    DE(int)     intcor
     12.45     -13.56       0.55        0.00      98.48       2.07       0.16       0.95       ----

> <Gold.Chemscore.Fitness>
12.4522

> <Gold.Chemscore.DG>
-13.5578

> <Gold.Chemscore.ZeroCoef>
-5.4800

> <Gold.Chemscore.Hbond>
0.5519

> <Gold.Chemscore.Metal>
0.0000

> <Gold.Chemscore.Lipo>
98.4820

> <Gold.Chemscore.Internal_Hbond>
0.0000

> <Gold.Chemscore.DEClash>
0.1588

> <Gold.Chemscore.DEInternal>
0.9468

> <Gold.Chemscore.Rot>
2.0656

> <Gold.Chemscore.Internal.Correction>
   9.000000E+99

> <Gold.Chemscore.Hbonds>
donor molecule, donor type, donor heavy atom, donor atom, acceptor molecule, acceptor atom, score
      L1  H    15    42       P1  8028  0.28
      P1  H  7997  8010       L1     3  0.16

> <Gold.Chemscore.Hbond.Weighted>
-1.8433

> <Gold.Chemscore.Metal.Weighted>
-0.0000

> <Gold.Chemscore.Lipo.Weighted>
-11.5224

> <Gold.Chemscore.Internal_Hbond.Weighted>
0.0000

> <Gold.Chemscore.DEClash.Weighted>
0.1588

> <Gold.Chemscore.DEInternal.Weighted>
0.9468

> <Gold.Chemscore.Rot.Weighted>
5.2879

> <Gold.Chemscore.Internal.Correction.Weighted>
   9.000000E+99

> <Gold.Protein.RotatedTorsions>
[ 6907 6896 6895 6894 ] final  118.99 input  -60.11 | X-H torsion
[ 7974 7965 7964 7962 ] final  178.08 input  175.53 | X-H torsion
[ 8008 7997 7996 7995 ] final   64.70 input   59.86 | X-H torsion
[ 10167 10162 10161 10158 ] final -134.18 input  -65.29 | X-H torsion
[ 10718 10713 10712 10709 ] final -170.38 input   66.30 | X-H torsion
[ 10763 10752 10751 10750 ] final -113.19 input  -60.55 | X-H torsion
[ 11005 11000 10999 10996 ] final -168.88 input  -57.11 | X-H torsion

> <Gold.Protein.ActiveResidues>
 VAL166  LYS551  ARG553  GLY616  TRP617  ASP618  TYR619  PRO620  LYS621  CYS622 
 ASP623  PHE694  ASN695  SER759  ASP760  ASP761  ALA762  ILE779  LEU786  VAL792 
 PHE793  MET794  SER795  GLU796  ALA797  LYS798  CYS799  TRP800  GLU811  SER814 

> <Gold.Protein.RotatedAtoms>
  152.4504  133.7617  159.6750 H   0  0  0  0  0  0  0  0  0  0  0  0  # atno 6907 bound_to 6896
  150.8414  133.7920  159.3065 H   0  0  0  0  0  0  0  0  0  0  0  0  # atno 6908 bound_to 6896
  151.5543  135.1069  160.0009 H   0  0  0  0  0  0  0  0  0  0  0  0  # atno 6909 bound_to 6896
  144.7160  140.0343  143.6438 H   0  0  0  0  0  0  0  0  0  0  0  0  # atno 7974 bound_to 7965
  155.6502  140.3497  155.4745 H   0  0  0  0  0  0  0  0  0  0  0  0  # atno 8008 bound_to 7997
  155.9854  140.1183  157.0711 H   0  0  0  0  0  0  0  0  0  0  0  0  # atno 8009 bound_to 7997
  154.4203  140.1130  156.5478 H   0  0  0  0  0  0  0  0  0  0  0  0  # atno 8010 bound_to 7997
  139.8906  143.6727  152.2613 H   0  0  0  0  0  0  0  0  0  0  0  0  # atno 10167 bound_to 10162
  156.7253  130.9285  151.3100 H   0  0  0  0  0  0  0  0  0  0  0  0  # atno 10718 bound_to 10713
  154.8385  135.4463  154.1311 H   0  0  0  0  0  0  0  0  0  0  0  0  # atno 10763 bound_to 10752
  153.2521  135.6927  153.7674 H   0  0  0  0  0  0  0  0  0  0  0  0  # atno 10764 bound_to 10752
  153.6982  135.3376  155.3194 H   0  0  0  0  0  0  0  0  0  0  0  0  # atno 10765 bound_to 10752
  140.5370  134.5560  157.5090 H   0  0  0  0  0  0  0  0  0  0  0  0  # atno 11005 bound_to 11000
  146.0076  139.3143  143.0890 LP  0  0  0  0  0  0  0  0  0  0  0  0  # atno 17320 bound_to 7965
  145.8720  140.9414  143.0646 LP  0  0  0  0  0  0  0  0  0  0  0  0  # atno 17321 bound_to 7965
  139.7113  144.7619  151.1108 LP  0  0  0  0  0  0  0  0  0  0  0  0  # atno 17342 bound_to 10162
  140.7727  143.5327  150.9404 LP  0  0  0  0  0  0  0  0  0  0  0  0  # atno 17343 bound_to 10162
  157.6881  130.9206  150.0441 LP  0  0  0  0  0  0  0  0  0  0  0  0  # atno 17370 bound_to 10713
  156.1566  130.3643  149.9360 LP  0  0  0  0  0  0  0  0  0  0  0  0  # atno 17371 bound_to 10713
  139.9524  134.7594  156.0418 LP  0  0  0  0  0  0  0  0  0  0  0  0  # atno 17394 bound_to 11000
  141.1249  133.6602  156.3311 LP  0  0  0  0  0  0  0  0  0  0  0  0  # atno 17395 bound_to 11000

$$$$
