AV-unprocessed.smi:1239|AV-procd|sdf|5188|dock6
  -GOLD-   22720 4273D 1   1.00000     0.00000
 Structure written by MMmdl.
 47 48  0  0  0  0  0  0  0  0  1 V2000
  147.6929  142.9140  153.3445 C   0  0  0  0  0  0  0  0  0  0  0  0
  148.5252  141.7068  152.8414 C   0  0  1  0  0  0  0  0  0  0  0  0
  149.9992  141.8797  153.3123 C   0  0  0  0  0  0  0  0  0  0  0  0
  150.1247  142.5473  154.6054 N   0  0  0  0  0  0  0  0  0  0  0  0
  150.8405  142.0899  155.6424 C   0  0  0  0  0  0  0  0  0  0  0  0
  151.4658  141.0300  155.6197 O   0  0  0  0  0  0  0  0  0  0  0  0
  150.7657  142.9289  156.6895 N   0  0  0  0  0  0  0  0  0  0  0  0
  151.3919  142.8215  157.9607 C   0  0  0  0  0  0  0  0  0  0  0  0
  151.2261  143.7472  159.0163 C   0  0  0  0  0  0  0  0  0  0  0  0
  151.8889  143.5177  160.2375 C   0  0  0  0  0  0  0  0  0  0  0  0
  152.6995  142.3647  160.3831 C   0  0  0  0  0  0  0  0  0  0  0  0
  153.3864  142.0925  161.5884 N   0  0  0  0  0  0  0  0  0  0  0  0
  152.8823  142.6309  162.8476 C   0  0  0  0  0  0  0  0  0  0  0  0
  154.5350  141.1951  161.5915 C   0  0  0  0  0  0  0  0  0  0  0  0
  152.8426  141.4746  159.3707 N   0  0  0  0  0  0  0  0  0  0  0  0
  152.2055  141.6979  158.2029 C   0  0  0  0  0  0  0  0  0  0  0  0
  147.9344  140.4044  153.2294 N   0  0  0  0  0  0  0  0  0  0  0  0
  147.7522  140.2723  154.6798 C   0  0  0  0  0  0  0  0  0  0  0  0
  147.1714  138.9070  155.0879 C   0  0  0  0  0  0  0  0  0  0  0  0
  148.0065  137.8647  154.6034 O   0  0  0  0  0  0  0  0  0  0  0  0
  148.1471  137.9084  153.1904 C   0  0  0  0  0  0  0  0  0  0  0  0
  148.7382  139.2652  152.7707 C   0  0  0  0  0  0  0  0  0  0  0  0
  148.1539  143.8696  153.0978 H   0  0  0  0  0  0  0  0  0  0  0  0
  147.5661  142.8811  154.4270 H   0  0  0  0  0  0  0  0  0  0  0  0
  146.7041  142.9534  152.8900 H   0  0  0  0  0  0  0  0  0  0  0  0
  148.5287  141.7572  151.7515 H   0  0  0  0  0  0  0  0  0  0  0  0
  150.4816  140.9047  153.3868 H   0  0  0  0  0  0  0  0  0  0  0  0
  150.5884  142.4612  152.6046 H   0  0  0  0  0  0  0  0  0  0  0  0
  149.6364  143.4242  154.7133 H   0  0  0  0  0  0  0  0  0  0  0  0
  150.1474  143.7193  156.5796 H   0  0  0  0  0  0  0  0  0  0  0  0
  150.5964  144.6182  158.9236 H   0  0  0  0  0  0  0  0  0  0  0  0
  151.7571  144.2294  161.0383 H   0  0  0  0  0  0  0  0  0  0  0  0
  151.8774  142.2573  163.0474 H   0  0  0  0  0  0  0  0  0  0  0  0
  152.8475  143.7203  162.8130 H   0  0  0  0  0  0  0  0  0  0  0  0
  153.5178  142.3451  163.6859 H   0  0  0  0  0  0  0  0  0  0  0  0
  155.3370  141.5982  160.9727 H   0  0  0  0  0  0  0  0  0  0  0  0
  154.2561  140.2131  161.2082 H   0  0  0  0  0  0  0  0  0  0  0  0
  154.9297  141.0583  162.5983 H   0  0  0  0  0  0  0  0  0  0  0  0
  152.3554  140.9534  157.4345 H   0  0  0  0  0  0  0  0  0  0  0  0
  148.7048  140.4278  155.1886 H   0  0  0  0  0  0  0  0  0  0  0  0
  147.0651  141.0286  155.0531 H   0  0  0  0  0  0  0  0  0  0  0  0
  147.1059  138.8337  156.1735 H   0  0  0  0  0  0  0  0  0  0  0  0
  146.1596  138.7851  154.6978 H   0  0  0  0  0  0  0  0  0  0  0  0
  148.8017  137.0965  152.8737 H   0  0  0  0  0  0  0  0  0  0  0  0
  147.1794  137.7442  152.7137 H   0  0  0  0  0  0  0  0  0  0  0  0
  148.8115  139.2576  151.6847 H   0  0  0  0  0  0  0  0  0  0  0  0
  149.7550  139.3509  153.1572 H   0  0  0  0  0  0  0  0  0  0  0  0
  1  2  1  0  0  0  0
  1 23  1  0  0  0  0
  1 24  1  0  0  0  0
  1 25  1  0  0  0  0
  2  3  1  0  0  0  0
  2 17  1  0  0  0  0
  2 26  1  0  0  0  0
  3  4  1  0  0  0  0
  3 27  1  0  0  0  0
  3 28  1  0  0  0  0
  4  5  1  0  0  0  0
  4 29  1  0  0  0  0
  5  6  2  0  0  0  0
  5  7  1  0  0  0  0
  7  8  1  0  0  0  0
  7 30  1  0  0  0  0
  8 16  1  0  0  0  0
  8  9  2  0  0  0  0
  9 10  1  0  0  0  0
  9 31  1  0  0  0  0
 10 11  2  0  0  0  0
 10 32  1  0  0  0  0
 11 12  1  0  0  0  0
 11 15  1  0  0  0  0
 12 13  1  0  0  0  0
 12 14  1  0  0  0  0
 13 33  1  0  0  0  0
 13 34  1  0  0  0  0
 13 35  1  0  0  0  0
 14 36  1  0  0  0  0
 14 37  1  0  0  0  0
 14 38  1  0  0  0  0
 15 16  2  0  0  0  0
 16 39  1  0  0  0  0
 17 22  1  0  0  0  0
 17 18  1  0  0  0  0
 18 19  1  0  0  0  0
 18 40  1  0  0  0  0
 18 41  1  0  0  0  0
 19 20  1  0  0  0  0
 19 42  1  0  0  0  0
 19 43  1  0  0  0  0
 20 21  1  0  0  0  0
 21 22  1  0  0  0  0
 21 44  1  0  0  0  0
 21 45  1  0  0  0  0
 22 46  1  0  0  0  0
 22 47  1  0  0  0  0
M  END
> <s_m_source_file>
AV-unprocessed.smi

> <i_m_source_file_index>
1239

> <i_lp_mmshare_version>
43012

> <i_f3d_flags>
0

> <s_epik_input>
W0NIMl0xW0NIMl1PW0NIMl1bQ0gyXU4xW0NASF0oW0NIM10pW0NIMl1bTkhdQyg9TylbTkhdYzJbY0hdW2NIXWMoTihbQ0gzXSlbQ0gzXSluW2NIXTI=

> <s_epik_cmdline>
J2VwaWtfcHl0aG9uJywgJy1waCcsICc3LjAnLCAnLXRuJywgJzgnLCAnLW1hJywgJzIwMCcsICctbWV0YWxfYmluZGluZycsICctaW1hZScsICc8aW5maWxlLm1hZT4nLCAnLW9tYWUnLCAnPG91dGZpbGUubWFlPic=

> <r_lp_tautomer_probability>
1

> <r_epik_Ionization_Penalty>
0.87526

> <r_epik_Ionization_Penalty_Charging>
0

> <r_epik_Ionization_Penalty_Neutral>
0.87526

> <r_epik_State_Penalty>
0.859346

> <r_epik_Charging_Adjusted_Penalty>
0.859346

> <i_epik_Tot_Q>
0

> <i_epik_Tot_abs_Q>
0

> <r_epik_Metal_State_Penalty>
0.538105

> <b_epik_Metal_Only>
0

> <s_lp_Force_Field>
OPLS_2005

> <r_lp_Energy>
32.4423

> <b_lp_Chiralities_Consistent>
1

> <s_lp_Variant>
AV-unprocessed.smi:1239-4

> <Gold.Version>
5.8.1

> <Gold.Id.Protein>
6NUR|6NUR_protein|mol2

> <Gold.PLP.Fitness>
46.1906

> <Gold.PLP.PLP>
-41.4687

> <Gold.PLP.part.hbond>
-2.0000

> <Gold.PLP.part.metal>
0.0000

> <Gold.PLP.part.buried>
-5.3528

> <Gold.PLP.part.nonpolar>
-34.2722

> <Gold.PLP.part.repulsive>
0.3346

> <Gold.PLP.ligand.clash>
0.0000

> <Gold.PLP.ligand.torsion>
0.6687

> <Gold.PLP.Chemscore.Hbond>
2.0000

> <Gold.PLP.Chemscore.CHOScore>
0.0000

> <Gold.PLP.Chemscore.Metal>
0.0000

> <Gold.Chemscore.Hbonds>
donor molecule, donor type, donor heavy atom, donor atom, acceptor molecule, acceptor atom, score
      L1  H     4    29       P1  8028  1.00
      L1  H     7    30       P1  8028  1.00
      P1  H  7989  7998       L1     6  0.38

> <Gold.PLP.Chemscore.Internal.Correction>
0.0594

> <Gold.Rescore>
     Score         DG    S(hbond)    S(metal)    S(lipo)     H(rot)  DE(clash)    DE(int)     intcor
     16.46     -18.67       1.97        0.00      87.85       1.44       0.11       2.10       ----

> <Gold.Chemscore.Fitness>
16.4561

> <Gold.Chemscore.DG>
-18.6682

> <Gold.Chemscore.ZeroCoef>
-5.4800

> <Gold.Chemscore.Hbond>
1.9726

> <Gold.Chemscore.Metal>
0.0000

> <Gold.Chemscore.Lipo>
87.8496

> <Gold.Chemscore.Internal_Hbond>
0.0000

> <Gold.Chemscore.DEClash>
0.1139

> <Gold.Chemscore.DEInternal>
2.0982

> <Gold.Chemscore.Rot>
1.4370

> <Gold.Chemscore.Internal.Correction>
   9.000000E+99

> <Gold.Chemscore.Hbonds>
donor molecule, donor type, donor heavy atom, donor atom, acceptor molecule, acceptor atom, score
      L1  H     4    29       P1  8028  0.98
      L1  H     7    30       P1  8028  0.98
      P1  H  7989  7998       L1     6  0.07

> <Gold.Chemscore.Hbond.Weighted>
-6.5884

> <Gold.Chemscore.Metal.Weighted>
-0.0000

> <Gold.Chemscore.Lipo.Weighted>
-10.2784

> <Gold.Chemscore.Internal_Hbond.Weighted>
0.0000

> <Gold.Chemscore.DEClash.Weighted>
0.1139

> <Gold.Chemscore.DEInternal.Weighted>
2.0982

> <Gold.Chemscore.Rot.Weighted>
3.6786

> <Gold.Chemscore.Internal.Correction.Weighted>
   9.000000E+99

> <Gold.Protein.RotatedTorsions>
[ 6907 6896 6895 6894 ] final  -21.52 input  -60.11 | X-H torsion
[ 7974 7965 7964 7962 ] final   20.32 input  175.53 | X-H torsion
[ 8008 7997 7996 7995 ] final  -77.55 input   59.86 | X-H torsion
[ 10167 10162 10161 10158 ] final -115.46 input  -65.29 | X-H torsion
[ 10718 10713 10712 10709 ] final  173.01 input   66.30 | X-H torsion
[ 10763 10752 10751 10750 ] final  -55.41 input  -60.55 | X-H torsion
[ 11005 11000 10999 10996 ] final  173.57 input  -57.11 | X-H torsion

> <Gold.Protein.ActiveResidues>
 VAL166  LYS551  ARG553  GLY616  TRP617  ASP618  TYR619  PRO620  LYS621  CYS622 
 ASP623  PHE694  ASN695  SER759  ASP760  ASP761  ALA762  ILE779  LEU786  VAL792 
 PHE793  MET794  SER795  GLU796  ALA797  LYS798  CYS799  TRP800  GLU811  SER814 

> <Gold.Protein.RotatedAtoms>
  151.2321  135.0558  159.8991 H   0  0  0  0  0  0  0  0  0  0  0  0  # atno 6907 bound_to 6896
  152.5403  134.0526  159.8127 H   0  0  0  0  0  0  0  0  0  0  0  0  # atno 6908 bound_to 6896
  151.0707  133.5420  159.2659 H   0  0  0  0  0  0  0  0  0  0  0  0  # atno 6909 bound_to 6896
  146.2116  139.8187  142.8684 H   0  0  0  0  0  0  0  0  0  0  0  0  # atno 7974 bound_to 7965
  154.5606  140.0708  156.8813 H   0  0  0  0  0  0  0  0  0  0  0  0  # atno 8008 bound_to 7997
  155.2818  140.3372  155.4239 H   0  0  0  0  0  0  0  0  0  0  0  0  # atno 8009 bound_to 7997
  156.2039  140.1732  156.7826 H   0  0  0  0  0  0  0  0  0  0  0  0  # atno 8010 bound_to 7997
  140.0899  143.4709  152.1876 H   0  0  0  0  0  0  0  0  0  0  0  0  # atno 10167 bound_to 10162
  156.9706  131.0089  151.2906 H   0  0  0  0  0  0  0  0  0  0  0  0  # atno 10718 bound_to 10713
  154.1903  135.6428  153.5058 H   0  0  0  0  0  0  0  0  0  0  0  0  # atno 10763 bound_to 10752
  153.0036  135.5427  154.6422 H   0  0  0  0  0  0  0  0  0  0  0  0  # atno 10764 bound_to 10752
  154.5809  135.2925  155.0707 H   0  0  0  0  0  0  0  0  0  0  0  0  # atno 10765 bound_to 10752
  140.3419  134.7269  157.4208 H   0  0  0  0  0  0  0  0  0  0  0  0  # atno 11005 bound_to 11000
  145.3119  141.0222  143.3549 LP  0  0  0  0  0  0  0  0  0  0  0  0  # atno 17320 bound_to 7965
  144.8929  139.4750  143.6669 LP  0  0  0  0  0  0  0  0  0  0  0  0  # atno 17321 bound_to 7965
  139.5731  144.7473  151.3838 LP  0  0  0  0  0  0  0  0  0  0  0  0  # atno 17342 bound_to 10162
  140.7034  143.7575  150.7441 LP  0  0  0  0  0  0  0  0  0  0  0  0  # atno 17343 bound_to 10162
  157.5595  130.8236  149.8247 LP  0  0  0  0  0  0  0  0  0  0  0  0  # atno 17370 bound_to 10713
  156.0284  130.3772  150.1756 LP  0  0  0  0  0  0  0  0  0  0  0  0  # atno 17371 bound_to 10713
  140.0774  134.5778  155.8577 LP  0  0  0  0  0  0  0  0  0  0  0  0  # atno 17394 bound_to 11000
  141.2036  133.6633  156.6073 LP  0  0  0  0  0  0  0  0  0  0  0  0  # atno 17395 bound_to 11000

$$$$
