AV-unprocessed.smi:99|AV-procd|sdf|879|dock1
  -GOLD-   2262017353D 1   1.00000     0.00000
 Structure written by MMmdl.
 53 56  0  0  0  0  0  0  0  0  1 V2000
  146.6062  135.4019  158.3247 O   0  0  0  0  0  0  0  0  0  0  0  0
  147.4356  134.7025  158.9097 C   0  0  0  0  0  0  0  0  0  0  0  0
  148.4708  134.1006  158.2935 O   0  0  0  0  0  0  0  0  0  0  0  0
  148.6638  134.2765  156.9004 C   0  0  0  0  0  0  0  0  0  0  0  0
  149.9506  133.5478  156.4737 C   0  0  2  0  0  0  0  0  0  0  0  0
  151.0882  134.1986  157.0410 O   0  0  0  0  0  0  0  0  0  0  0  0
  151.7065  135.0575  156.1202 C   0  0  2  0  0  0  0  0  0  0  0  0
  151.7451  136.4665  156.6800 N   0  0  0  0  0  0  0  0  0  0  0  0
  151.2358  136.7897  157.9323 C   0  0  0  0  0  0  0  0  0  0  0  0
  151.2672  138.0443  158.4407 C   0  0  0  0  0  0  0  0  0  0  0  0
  151.8565  139.1392  157.6770 C   0  0  0  0  0  0  0  0  0  0  0  0
  151.9305  140.3068  158.0535 O   0  0  0  0  0  0  0  0  0  0  0  0
  152.3609  138.7690  156.4272 N   0  0  0  0  0  0  0  0  0  0  0  0
  152.3337  137.4801  155.8928 C   0  0  0  0  0  0  0  0  0  0  0  0
  152.8068  137.2629  154.7779 O   0  0  0  0  0  0  0  0  0  0  0  0
  150.9330  134.9471  154.7865 C   0  0  2  0  0  0  0  0  0  0  0  0
  150.0029  136.0019  154.5913 O   0  0  0  0  0  0  0  0  0  0  0  0
  150.2428  133.6038  154.9750 C   0  0  2  0  0  0  0  0  0  0  0  0
  149.1041  133.4067  154.1434 O   0  0  0  0  0  0  0  0  0  0  0  0
  148.7018  132.1666  153.7955 C   0  0  0  0  0  0  0  0  0  0  0  0
  149.2485  131.1347  154.1898 O   0  0  0  0  0  0  0  0  0  0  0  0
  147.5281  132.1787  152.8759 C   0  0  0  0  0  0  0  0  0  0  0  0
  147.1465  133.3902  152.2533 C   0  0  0  0  0  0  0  0  0  0  0  0
  146.0400  133.4315  151.3828 C   0  0  0  0  0  0  0  0  0  0  0  0
  145.3009  132.2623  151.1252 C   0  0  0  0  0  0  0  0  0  0  0  0
  145.6702  131.0509  151.7383 C   0  0  0  0  0  0  0  0  0  0  0  0
  146.7771  131.0072  152.6081 C   0  0  0  0  0  0  0  0  0  0  0  0
  147.3982  134.4332  160.3757 C   0  0  0  0  0  0  0  0  0  0  0  0
  146.2208  134.7242  161.1040 C   0  0  0  0  0  0  0  0  0  0  0  0
  146.1567  134.4823  162.4900 C   0  0  0  0  0  0  0  0  0  0  0  0
  147.2698  133.9480  163.1650 C   0  0  0  0  0  0  0  0  0  0  0  0
  148.4474  133.6560  162.4521 C   0  0  0  0  0  0  0  0  0  0  0  0
  148.5131  133.8964  161.0658 C   0  0  0  0  0  0  0  0  0  0  0  0
  152.7793  139.4950  155.8641 H   0  0  0  0  0  0  0  0  0  0  0  0
  147.8041  133.8594  156.3747 H   0  0  0  0  0  0  0  0  0  0  0  0
  148.7109  135.3378  156.6577 H   0  0  0  0  0  0  0  0  0  0  0  0
  149.9067  132.5109  156.8084 H   0  0  0  0  0  0  0  0  0  0  0  0
  152.7498  134.7460  156.0353 H   0  0  0  0  0  0  0  0  0  0  0  0
  150.7907  136.0271  158.5516 H   0  0  0  0  0  0  0  0  0  0  0  0
  150.8551  138.2390  159.4203 H   0  0  0  0  0  0  0  0  0  0  0  0
  151.6324  134.9354  153.9499 H   0  0  0  0  0  0  0  0  0  0  0  0
  149.7992  136.0558  153.6701 H   0  0  0  0  0  0  0  0  0  0  0  0
  150.9737  132.8187  154.7732 H   0  0  0  0  0  0  0  0  0  0  0  0
  147.6982  134.3010  152.4366 H   0  0  0  0  0  0  0  0  0  0  0  0
  145.7580  134.3622  150.9125 H   0  0  0  0  0  0  0  0  0  0  0  0
  144.4516  132.2946  150.4586 H   0  0  0  0  0  0  0  0  0  0  0  0
  145.1033  130.1527  151.5425 H   0  0  0  0  0  0  0  0  0  0  0  0
  147.0320  130.0607  153.0622 H   0  0  0  0  0  0  0  0  0  0  0  0
  145.3534  135.1348  160.6070 H   0  0  0  0  0  0  0  0  0  0  0  0
  145.2521  134.7067  163.0354 H   0  0  0  0  0  0  0  0  0  0  0  0
  147.2205  133.7623  164.2277 H   0  0  0  0  0  0  0  0  0  0  0  0
  149.3028  133.2465  162.9691 H   0  0  0  0  0  0  0  0  0  0  0  0
  149.4331  133.6633  160.5495 H   0  0  0  0  0  0  0  0  0  0  0  0
  1  2  2  0  0  0  0
  2  3  1  0  0  0  0
  2 28  1  0  0  0  0
  3  4  1  0  0  0  0
  4  5  1  0  0  0  0
  4 35  1  0  0  0  0
  4 36  1  0  0  0  0
  5 18  1  0  0  0  0
  5  6  1  0  0  0  0
  5 37  1  0  0  0  0
  6  7  1  0  0  0  0
  7  8  1  0  0  0  0
  7 16  1  0  0  0  0
  7 38  1  0  0  0  0
  8 14  1  0  0  0  0
  8  9  1  0  0  0  0
  9 10  2  0  0  0  0
  9 39  1  0  0  0  0
 10 11  1  0  0  0  0
 10 40  1  0  0  0  0
 11 12  2  0  0  0  0
 11 13  1  0  0  0  0
 13 34  1  0  0  0  0
 13 14  1  0  0  0  0
 14 15  2  0  0  0  0
 16 17  1  0  0  0  0
 16 18  1  0  0  0  0
 16 41  1  0  0  0  0
 17 42  1  0  0  0  0
 18 19  1  0  0  0  0
 18 43  1  0  0  0  0
 19 20  1  0  0  0  0
 20 21  2  0  0  0  0
 20 22  1  0  0  0  0
 22 27  1  0  0  0  0
 22 23  2  0  0  0  0
 23 24  1  0  0  0  0
 23 44  1  0  0  0  0
 24 25  2  0  0  0  0
 24 45  1  0  0  0  0
 25 26  1  0  0  0  0
 25 46  1  0  0  0  0
 26 27  2  0  0  0  0
 26 47  1  0  0  0  0
 27 48  1  0  0  0  0
 28 33  1  0  0  0  0
 28 29  2  0  0  0  0
 29 30  1  0  0  0  0
 29 49  1  0  0  0  0
 30 31  2  0  0  0  0
 30 50  1  0  0  0  0
 31 32  1  0  0  0  0
 31 51  1  0  0  0  0
 32 33  2  0  0  0  0
 32 52  1  0  0  0  0
 33 53  1  0  0  0  0
M  END
> <s_m_source_file>
AV-unprocessed.smi

> <i_m_source_file_index>
99

> <i_lp_mmshare_version>
43012

> <i_f3d_flags>
0

> <s_epik_input>
W2NIXTFbY0hdW2NIXVtjSF1bY0hdYzFDKD1PKU9bQ0gyXVtDQEBIXTJPW0NAQEhdKG4zW2NIXVtjSF1jKD1PKVtuSF1jMz1PKVtDQEBIXShbT0hdKVtDQEhdMk9DKD1PKWM0W2NIXVtjSF1bY0hdW2NIXVtjSF00

> <s_epik_cmdline>
J2VwaWtfcHl0aG9uJywgJy1waCcsICc3LjAnLCAnLXRuJywgJzgnLCAnLW1hJywgJzIwMCcsICctbWV0YWxfYmluZGluZycsICctaW1hZScsICc8aW5maWxlLm1hZT4nLCAnLW9tYWUnLCAnPG91dGZpbGUubWFlPic=

> <r_lp_tautomer_probability>
1

> <r_epik_Ionization_Penalty>
0.00454555

> <r_epik_Ionization_Penalty_Charging>
0.0045191

> <r_epik_Ionization_Penalty_Neutral>
2.64449e-05

> <r_epik_State_Penalty>
-0

> <r_epik_Charging_Adjusted_Penalty>
0.0045191

> <i_epik_Tot_Q>
0

> <i_epik_Tot_abs_Q>
0

> <r_epik_Metal_State_Penalty>
1.27877

> <b_epik_Metal_Only>
0

> <s_epik_Chemistry_Notes>
This compound has an ester and may undergo hydrolysis at high or low pH. This compound contains an acetal/aminal-like group ( X-CH(R)-Y where X, Y are N, S, or O) that may be acid/base labile, releasing an aldehyde.

> <s_lp_Force_Field>
OPLS_2005

> <r_lp_Energy>
46.8858

> <b_lp_Chiralities_Consistent>
1

> <s_lp_Variant>
AV-unprocessed.smi:99-15

> <Gold.Version>
5.8.1

> <Gold.Id.Protein>
6NUR|6NUR_protein|mol2

> <Gold.PLP.Fitness>
48.6065

> <Gold.PLP.PLP>
-42.7064

> <Gold.PLP.part.hbond>
-3.0000

> <Gold.PLP.part.metal>
0.0000

> <Gold.PLP.part.buried>
-5.2478

> <Gold.PLP.part.nonpolar>
-34.5298

> <Gold.PLP.part.repulsive>
0.3024

> <Gold.PLP.ligand.clash>
0.0000

> <Gold.PLP.ligand.torsion>
0.5018

> <Gold.PLP.Chemscore.Hbond>
2.1471

> <Gold.PLP.Chemscore.CHOScore>
0.0000

> <Gold.PLP.Chemscore.Metal>
0.0000

> <Gold.Chemscore.Hbonds>
donor molecule, donor type, donor heavy atom, donor atom, acceptor molecule, acceptor atom, score
      L1  H    17    42       P1  7948  0.90
      P1  H  6896  6907       L1     6  0.14
      P1  H 10752 10765       L1    15  0.43

> <Gold.PLP.Chemscore.Internal.Correction>
0.4623

> <Gold.Rescore>
     Score         DG    S(hbond)    S(metal)    S(lipo)     H(rot)  DE(clash)    DE(int)     intcor
     15.96     -17.09       2.26        0.00     104.42       3.19       0.37       0.77       ----

> <Gold.Chemscore.Fitness>
15.9590

> <Gold.Chemscore.DG>
-17.0912

> <Gold.Chemscore.ZeroCoef>
-5.4800

> <Gold.Chemscore.Hbond>
2.2640

> <Gold.Chemscore.Metal>
0.0000

> <Gold.Chemscore.Lipo>
104.4157

> <Gold.Chemscore.Internal_Hbond>
0.0000

> <Gold.Chemscore.DEClash>
0.3669

> <Gold.Chemscore.DEInternal>
0.7653

> <Gold.Chemscore.Rot>
3.1903

> <Gold.Chemscore.Internal.Correction>
   9.000000E+99

> <Gold.Chemscore.Hbonds>
donor molecule, donor type, donor heavy atom, donor atom, acceptor molecule, acceptor atom, score
      L1  H    17    42       P1  7948  0.18
      P1  H  6896  6907       L1     6  0.06
      P1  H 10752 10765       L1    15  0.33

> <Gold.Chemscore.Hbond.Weighted>
-7.5617

> <Gold.Chemscore.Metal.Weighted>
-0.0000

> <Gold.Chemscore.Lipo.Weighted>
-12.2166

> <Gold.Chemscore.Internal_Hbond.Weighted>
0.0000

> <Gold.Chemscore.DEClash.Weighted>
0.3669

> <Gold.Chemscore.DEInternal.Weighted>
0.7653

> <Gold.Chemscore.Rot.Weighted>
8.1671

> <Gold.Chemscore.Internal.Correction.Weighted>
   9.000000E+99

> <Gold.Protein.RotatedTorsions>
[ 6907 6896 6895 6894 ] final -109.49 input  -60.11 | X-H torsion
[ 7974 7965 7964 7962 ] final -103.50 input  175.53 | X-H torsion
[ 8008 7997 7996 7995 ] final -143.06 input   59.86 | X-H torsion
[ 10167 10162 10161 10158 ] final  103.48 input  -65.29 | X-H torsion
[ 10718 10713 10712 10709 ] final   23.02 input   66.30 | X-H torsion
[ 10763 10752 10751 10750 ] final  176.10 input  -60.55 | X-H torsion
[ 11005 11000 10999 10996 ] final  -10.33 input  -57.11 | X-H torsion

> <Gold.Protein.ActiveResidues>
 VAL166  LYS551  ARG553  GLY616  TRP617  ASP618  TYR619  PRO620  LYS621  CYS622 
 ASP623  PHE694  ASN695  SER759  ASP760  ASP761  ALA762  ILE779  LEU786  VAL792 
 PHE793  MET794  SER795  GLU796  ALA797  LYS798  CYS799  TRP800  GLU811  SER814 

> <Gold.Protein.RotatedAtoms>
  150.7565  133.9522  159.3488 H   0  0  0  0  0  0  0  0  0  0  0  0  # atno 6907 bound_to 6896
  151.7440  135.0846  160.0329 H   0  0  0  0  0  0  0  0  0  0  0  0  # atno 6908 bound_to 6896
  152.3510  133.6142  159.5981 H   0  0  0  0  0  0  0  0  0  0  0  0  # atno 6909 bound_to 6896
  145.2552  140.9251  143.3072 H   0  0  0  0  0  0  0  0  0  0  0  0  # atno 7974 bound_to 7965
  155.5044  140.0578  157.2934 H   0  0  0  0  0  0  0  0  0  0  0  0  # atno 8008 bound_to 7997
  154.4575  140.1980  156.0287 H   0  0  0  0  0  0  0  0  0  0  0  0  # atno 8009 bound_to 7997
  156.0827  140.3245  155.7718 H   0  0  0  0  0  0  0  0  0  0  0  0  # atno 8010 bound_to 7997
  139.7259  144.7047  151.0799 H   0  0  0  0  0  0  0  0  0  0  0  0  # atno 10167 bound_to 10162
  157.1603  130.6714  149.6042 H   0  0  0  0  0  0  0  0  0  0  0  0  # atno 10718 bound_to 10713
  154.4765  135.2773  155.1603 H   0  0  0  0  0  0  0  0  0  0  0  0  # atno 10763 bound_to 10752
  154.3330  135.6186  153.5564 H   0  0  0  0  0  0  0  0  0  0  0  0  # atno 10764 bound_to 10752
  152.9870  135.5770  154.5157 H   0  0  0  0  0  0  0  0  0  0  0  0  # atno 10765 bound_to 10752
  140.7436  133.8650  155.8987 H   0  0  0  0  0  0  0  0  0  0  0  0  # atno 11005 bound_to 11000
  144.9468  139.4127  143.6422 LP  0  0  0  0  0  0  0  0  0  0  0  0  # atno 17320 bound_to 7965
  146.3291  139.8455  142.8882 LP  0  0  0  0  0  0  0  0  0  0  0  0  # atno 17321 bound_to 7965
  140.7762  143.5106  150.9658 LP  0  0  0  0  0  0  0  0  0  0  0  0  # atno 17342 bound_to 10162
  139.8793  143.7092  152.3158 LP  0  0  0  0  0  0  0  0  0  0  0  0  # atno 17343 bound_to 10162
  155.9755  130.4714  150.6462 LP  0  0  0  0  0  0  0  0  0  0  0  0  # atno 17370 bound_to 10713
  157.4138  131.0827  151.1196 LP  0  0  0  0  0  0  0  0  0  0  0  0  # atno 17371 bound_to 10713
  140.9815  134.1400  157.4490 LP  0  0  0  0  0  0  0  0  0  0  0  0  # atno 17394 bound_to 11000
  139.8801  135.0012  156.6052 LP  0  0  0  0  0  0  0  0  0  0  0  0  # atno 17395 bound_to 11000

$$$$
