#       Name:                AV-unprocessed.smi:21
#       Creating user name   scv26
#       Creation time:       Thu Mar 26 15:39:22 2020


#       File generated by GOLD software.
#

@<TRIPOS>MOLECULE
AV-unprocessed.smi:21
    71    74     1
SMALL
NO_CHARGES


@<TRIPOS>ATOM
      1 ****        -2.5785  -5.9107  -0.7485 C.3            1 S1                 0.0000
      2 ****        -2.3537  -4.5105  -0.7246 O.3            1 S1                 0.0000
      3 ****        -2.8072  -3.8846   0.4676 C.3            1 S1                 0.0000
      4 ****        -2.3185  -2.4291   0.5255 C.3            1 S1                 0.0000
      5 ****        -3.6035  -1.5849   0.5361 C.3            1 S1                 0.0000
      6 ****        -3.4477  -0.2277   1.2571 C.3            1 S1                 0.0000
      7 ****        -2.5224   0.6732   0.5692 N.pl3          1 S1                 0.0000
      8 ****        -2.9415   1.2730  -0.6908 C.3            1 S1                 0.0000
      9 ****        -1.1970   0.5951   0.8609 C.ar           1 S1                 0.0000
     10 ****        -0.8366   0.5332   2.1697 N.ar           1 S1                 0.0000
     11 ****         0.4503   0.4527   2.5179 C.ar           1 S1                 0.0000
     12 ****         1.5259   0.4182   1.7309 N.ar           1 S1                 0.0000
     13 ****         1.1758   0.4733   0.4147 C.ar           1 S1                 0.0000
     14 ****        -0.1477   0.5610  -0.1062 C.ar           1 S1                 0.0000
     15 ****        -0.0990   0.5705  -1.4966 N.2            1 S1                 0.0000
     16 ****         1.1725   0.5013  -1.7788 C.2            1 S1                 0.0000
     17 ****         2.0108   0.4611  -0.6888 N.pl3          1 S1                 0.0000
     18 ****         3.4602   0.3767  -0.7107 C.3            1 S1                 0.0000
     19 ****         4.1958   1.6162  -0.1289 C.3            1 S1                 0.0000
     20 ****         5.7173   1.3314  -0.0974 C.3            1 S1                 0.0000
     21 ****         6.0212   0.2500   0.7595 O.3            1 S1                 0.0000
     22 ****         3.8744   2.9334  -0.8978 C.3            1 S1                 0.0000
     23 ****         4.7289   4.1335  -0.5147 C.3            1 S1                 0.0000
     24 ****         3.9008   5.3002  -1.0303 C.3            1 S1                 0.0000
     25 ****         2.5659   4.9312  -0.7284 O.3            1 S1                 0.0000
     26 ****         2.4644   3.5113  -0.6738 C.3            1 S1                 0.0000
     27 ****        -4.6119  -2.4624   1.1085 N.3            1 S1                 0.0000
     28 ****        -5.9802  -2.0245   0.8662 C.3            1 S1                 0.0000
     29 ****        -4.3354  -3.7497   0.5017 C.3            1 S1                 0.0000
     30 ****        -2.4446  -4.4177   1.3485 H              1 S1                 0.0000
     31 ****        -3.8754  -1.3942  -0.5038 H              1 S1                 0.0000
     32 ****        -2.1913  -6.3256  -1.6790 H              1 S1                 0.0000
     33 ****        -3.6414  -6.1480  -0.6940 H              1 S1                 0.0000
     34 ****        -2.0666  -6.4059   0.0775 H              1 S1                 0.0000
     35 ****        -1.7450  -2.2748   1.4406 H              1 S1                 0.0000
     36 ****        -1.6732  -2.1686  -0.3145 H              1 S1                 0.0000
     37 ****        -4.4115   0.2789   1.3019 H              1 S1                 0.0000
     38 ****        -3.1568  -0.3876   2.2955 H              1 S1                 0.0000
     39 ****        -2.3599   2.1689  -0.9104 H              1 S1                 0.0000
     40 ****        -3.9911   1.5630  -0.6428 H              1 S1                 0.0000
     41 ****        -2.8245   0.5677  -1.5136 H              1 S1                 0.0000
     42 ****         0.6456   0.4106   3.5793 H              1 S1                 0.0000
     43 ****         1.5353   0.4895  -2.7963 H              1 S1                 0.0000
     44 ****         3.7296  -0.5229  -0.1569 H              1 S1                 0.0000
     45 ****         3.7804   0.2057  -1.7393 H              1 S1                 0.0000
     46 ****         3.8787   1.7540   0.9056 H              1 S1                 0.0000
     47 ****         6.0936   1.1166  -1.0980 H              1 S1                 0.0000
     48 ****         6.2774   2.1860   0.2790 H              1 S1                 0.0000
     49 ****         6.9568   0.1182   0.7571 H              1 S1                 0.0000
     50 ****         4.0113   2.7616  -1.9668 H              1 S1                 0.0000
     51 ****         4.8334   4.2018   0.5692 H              1 S1                 0.0000
     52 ****         5.7248   4.1119  -0.9579 H              1 S1                 0.0000
     53 ****         4.1709   6.2494  -0.5674 H              1 S1                 0.0000
     54 ****         4.0089   5.4000  -2.1113 H              1 S1                 0.0000
     55 ****         1.7585   3.1660  -1.4280 H              1 S1                 0.0000
     56 ****         2.0706   3.2411   0.3064 H              1 S1                 0.0000
     57 ****        -6.6898  -2.7510   1.2630 H              1 S1                 0.0000
     58 ****        -6.1765  -1.9074  -0.2002 H              1 S1                 0.0000
     59 ****        -6.1796  -1.0716   1.3558 H              1 S1                 0.0000
     60 ****        -4.7222  -3.7663  -0.5189 H              1 S1                 0.0000
     61 ****        -4.8123  -4.5632   1.0492 H              1 S1                 0.0000
     62 ****        -2.8330  -4.0995  -1.5000 LP             1 S1                 0.0000
     63 ****        -1.3714  -4.3459  -0.8147 LP             1 S1                 0.0000
     64 ****        -1.5415   0.5481   2.8788 LP             1 S1                 0.0000
     65 ****         2.4673   0.3595   2.0631 LP             1 S1                 0.0000
     66 ****        -0.8664   0.6194  -2.1359 LP             1 S1                 0.0000
     67 ****         5.5635  -0.5772   0.4337 LP             1 S1                 0.0000
     68 ****         5.7125   0.4583   1.6876 LP             1 S1                 0.0000
     69 ****         1.9549   5.2817  -1.4382 LP             1 S1                 0.0000
     70 ****         2.3055   5.3179   0.1563 LP             1 S1                 0.0000
     71 ****        -4.5558  -2.4788   2.1068 LP             1 S1                 0.0000
@<TRIPOS>BOND
    1    1    2 1     
    2    1   32 1     
    3    1   33 1     
    4    1   34 1     
    5    2    3 1     
    6    3   30 1     
    7    3   29 1     
    8    3    4 1     
    9    4    5 1     
   10    4   35 1     
   11    4   36 1     
   12    5   31 1     
   13    5    6 1     
   14    5   27 1     
   15    6    7 1     
   16    6   37 1     
   17    6   38 1     
   18    7    8 1     
   19    7    9 1     
   20    8   39 1     
   21    8   40 1     
   22    8   41 1     
   23    9   14 ar    
   24    9   10 ar    
   25   10   11 ar    
   26   11   12 ar    
   27   11   42 1     
   28   12   13 ar    
   29   13   17 1     
   30   13   14 ar    
   31   14   15 1     
   32   15   16 2     
   33   16   17 1     
   34   16   43 1     
   35   17   18 1     
   36   18   19 1     
   37   18   44 1     
   38   18   45 1     
   39   19   20 1     
   40   19   22 1     
   41   19   46 1     
   42   20   21 1     
   43   20   47 1     
   44   20   48 1     
   45   21   49 1     
   46   22   26 1     
   47   22   23 1     
   48   22   50 1     
   49   23   24 1     
   50   23   51 1     
   51   23   52 1     
   52   24   25 1     
   53   24   53 1     
   54   24   54 1     
   55   25   26 1     
   56   26   55 1     
   57   26   56 1     
   58   27   28 1     
   59   27   29 1     
   60   28   57 1     
   61   28   58 1     
   62   28   59 1     
   63   29   60 1     
   64   29   61 1     
   65    2   62 1     
   66    2   63 1     
   67   10   64 1     
   68   12   65 1     
   69   15   66 1     
   70   21   67 1     
   71   21   68 1     
   72   25   69 1     
   73   25   70 1     
   74   27   71 1     
@<TRIPOS>SUBSTRUCTURE
      1 S1             1
@<TRIPOS>SET
LONE_PAIRS      STATIC     ATOMS    <user>   **** ""
10 62 63 64 65 66 67 68 69 70 71
DONOR_HYDROGENS      STATIC     ATOMS    <user>   **** ""
1 49
ATOM$BLUE        STATIC     ATOMS    COLORGROUP SYSTEM
10 62 63 64 65 66 67 68 69 70 71
ATOM$RED        STATIC     ATOMS    COLORGROUP SYSTEM
1 49
