AV-unprocessed.smi:1712|AV-procd|sdf|6902|dock8
  -GOLD-   22720 8103D 1   1.00000     0.00000
 Structure written by MMmdl.
 37 38  0  0  0  0  0  0  0  0  1 V2000
  147.7236  140.4313  155.7561 C   0  0  0  0  0  0  0  0  0  0  0  0
  147.8467  139.0399  155.0837 C   0  0  1  0  0  0  0  0  0  0  0  0
  147.4549  139.1622  153.5832 C   0  0  0  0  0  0  0  0  0  0  0  0
  147.3437  137.8697  152.9102 N   0  0  0  0  0  0  0  0  0  0  0  0
  146.2046  137.3086  152.4787 C   0  0  0  0  0  0  0  0  0  0  0  0
  145.0945  137.8243  152.6116 O   0  0  0  0  0  0  0  0  0  0  0  0
  146.4380  136.1216  151.8953 N   0  0  0  0  0  0  0  0  0  0  0  0
  145.4824  135.2288  151.3475 C   0  0  0  0  0  0  0  0  0  0  0  0
  145.7150  133.8493  151.0965 C   0  0  0  0  0  0  0  0  0  0  0  0
  144.6418  133.2631  150.5853 N   0  0  0  0  0  0  0  0  0  0  0  0
  143.7262  134.2551  150.5084 N   0  0  0  0  0  0  0  0  0  0  0  0
  144.1936  135.4691  150.9615 C   0  0  0  0  0  0  0  0  0  0  0  0
  149.1779  138.4194  155.2866 N   0  0  0  0  0  0  0  0  0  0  0  0
  149.1538  136.9602  155.1304 C   0  0  0  0  0  0  0  0  0  0  0  0
  150.5384  136.3155  155.3150 C   0  0  0  0  0  0  0  0  0  0  0  0
  151.4585  136.8867  154.3960 O   0  0  0  0  0  0  0  0  0  0  0  0
  151.5748  138.2927  154.5643 C   0  0  0  0  0  0  0  0  0  0  0  0
  150.1985  138.9540  154.3767 C   0  0  0  0  0  0  0  0  0  0  0  0
  142.7968  134.0900  150.1490 H   0  0  0  0  0  0  0  0  0  0  0  0
  146.7463  140.8842  155.5953 H   0  0  0  0  0  0  0  0  0  0  0  0
  148.4735  141.1234  155.3714 H   0  0  0  0  0  0  0  0  0  0  0  0
  147.8309  140.3831  156.8385 H   0  0  0  0  0  0  0  0  0  0  0  0
  147.1023  138.3958  155.5546 H   0  0  0  0  0  0  0  0  0  0  0  0
  146.5379  139.7454  153.4828 H   0  0  0  0  0  0  0  0  0  0  0  0
  148.2175  139.6951  153.0190 H   0  0  0  0  0  0  0  0  0  0  0  0
  148.2051  137.3662  152.7580 H   0  0  0  0  0  0  0  0  0  0  0  0
  147.4002  135.8202  151.8451 H   0  0  0  0  0  0  0  0  0  0  0  0
  146.6082  133.2658  151.2651 H   0  0  0  0  0  0  0  0  0  0  0  0
  143.5818  136.3589  150.9660 H   0  0  0  0  0  0  0  0  0  0  0  0
  148.4942  136.5058  155.8672 H   0  0  0  0  0  0  0  0  0  0  0  0
  148.7606  136.6993  154.1468 H   0  0  0  0  0  0  0  0  0  0  0  0
  150.8967  136.4552  156.3362 H   0  0  0  0  0  0  0  0  0  0  0  0
  150.4821  135.2412  155.1398 H   0  0  0  0  0  0  0  0  0  0  0  0
  151.9799  138.5175  155.5521 H   0  0  0  0  0  0  0  0  0  0  0  0
  152.2836  138.6805  153.8325 H   0  0  0  0  0  0  0  0  0  0  0  0
  149.8751  138.8270  153.3426 H   0  0  0  0  0  0  0  0  0  0  0  0
  150.3390  140.0209  154.5373 H   0  0  0  0  0  0  0  0  0  0  0  0
  1  2  1  0  0  0  0
  1 20  1  0  0  0  0
  1 21  1  0  0  0  0
  1 22  1  0  0  0  0
  2  3  1  0  0  0  0
  2 13  1  0  0  0  0
  2 23  1  0  0  0  0
  3  4  1  0  0  0  0
  3 24  1  0  0  0  0
  3 25  1  0  0  0  0
  4  5  1  0  0  0  0
  4 26  1  0  0  0  0
  5  6  2  0  0  0  0
  5  7  1  0  0  0  0
  7  8  1  0  0  0  0
  7 27  1  0  0  0  0
  8 12  2  0  0  0  0
  8  9  1  0  0  0  0
  9 10  2  0  0  0  0
  9 28  1  0  0  0  0
 10 11  1  0  0  0  0
 11 19  1  0  0  0  0
 11 12  1  0  0  0  0
 12 29  1  0  0  0  0
 13 18  1  0  0  0  0
 13 14  1  0  0  0  0
 14 15  1  0  0  0  0
 14 30  1  0  0  0  0
 14 31  1  0  0  0  0
 15 16  1  0  0  0  0
 15 32  1  0  0  0  0
 15 33  1  0  0  0  0
 16 17  1  0  0  0  0
 17 18  1  0  0  0  0
 17 34  1  0  0  0  0
 17 35  1  0  0  0  0
 18 36  1  0  0  0  0
 18 37  1  0  0  0  0
M  END
> <s_m_source_file>
AV-unprocessed.smi

> <i_m_source_file_index>
1712

> <i_lp_mmshare_version>
43012

> <i_f3d_flags>
0

> <s_epik_input>
W0NIMl0xW0NIMl1PW0NIMl1bQ0gyXU4xW0NASF0oW0NIM10pW0NIMl1bTkhdQyg9TylbTkhdYzJbY0hdbltuSF1bY0hdMg==

> <s_epik_cmdline>
J2VwaWtfcHl0aG9uJywgJy1waCcsICc3LjAnLCAnLXRuJywgJzgnLCAnLW1hJywgJzIwMCcsICctbWV0YWxfYmluZGluZycsICctaW1hZScsICc8aW5maWxlLm1hZT4nLCAnLW9tYWUnLCAnPG91dGZpbGUubWFlPic=

> <r_lp_tautomer_probability>
0.5

> <r_epik_Ionization_Penalty>
0.242772

> <r_epik_Ionization_Penalty_Charging>
0

> <r_epik_Ionization_Penalty_Neutral>
0.242772

> <r_epik_State_Penalty>
0.233765

> <r_epik_Charging_Adjusted_Penalty>
0.233765

> <i_epik_Tot_Q>
0

> <i_epik_Tot_abs_Q>
0

> <r_epik_Metal_State_Penalty>
0.233764

> <b_epik_Metal_Only>
0

> <s_lp_Force_Field>
OPLS_2005

> <r_lp_Energy>
31.3121

> <b_lp_Chiralities_Consistent>
1

> <s_lp_Variant>
AV-unprocessed.smi:1712-2

> <Gold.Version>
5.8.1

> <Gold.Id.Protein>
6NUR|6NUR_protein|mol2

> <Gold.PLP.Fitness>
37.0344

> <Gold.PLP.PLP>
-23.3270

> <Gold.PLP.part.hbond>
-3.6253

> <Gold.PLP.part.metal>
0.0000

> <Gold.PLP.part.buried>
-5.2939

> <Gold.PLP.part.nonpolar>
-17.0503

> <Gold.PLP.part.repulsive>
1.8082

> <Gold.PLP.ligand.clash>
0.0000

> <Gold.PLP.ligand.torsion>
0.4791

> <Gold.PLP.Chemscore.Hbond>
3.8720

> <Gold.PLP.Chemscore.CHOScore>
1.0000

> <Gold.PLP.Chemscore.Metal>
0.0000

> <Gold.Chemscore.Hbonds>
donor molecule, donor type, donor heavy atom, donor atom, acceptor molecule, acceptor atom, score
      L1  H     4    26       P1  7948  0.91
      L1  H     7    27       P1  7948  0.98
      L1  H    11    19       P1 10186  1.00
      P1  H 10752 10765       L1    16  1.00
      L1  C    12    29       P1 10171  1.00

> <Gold.PLP.Chemscore.Internal.Correction>
0.0495

> <Gold.Rescore>
     Score         DG    S(hbond)    S(metal)    S(lipo)     H(rot)  DE(clash)    DE(int)     intcor
     17.85     -19.31       3.68        0.00      48.72       1.63       0.58       0.88       ----

> <Gold.Chemscore.Fitness>
17.8460

> <Gold.Chemscore.DG>
-19.3074

> <Gold.Chemscore.ZeroCoef>
-5.4800

> <Gold.Chemscore.Hbond>
3.6833

> <Gold.Chemscore.Metal>
0.0000

> <Gold.Chemscore.Lipo>
48.7241

> <Gold.Chemscore.Internal_Hbond>
0.0000

> <Gold.Chemscore.DEClash>
0.5803

> <Gold.Chemscore.DEInternal>
0.8811

> <Gold.Chemscore.Rot>
1.6311

> <Gold.Chemscore.Internal.Correction>
   9.000000E+99

> <Gold.Chemscore.Hbonds>
donor molecule, donor type, donor heavy atom, donor atom, acceptor molecule, acceptor atom, score
      L1  H     4    26       P1  7948  0.89
      L1  H     7    27       P1  7948  0.91
      L1  H    11    19       P1 10186  0.96
      P1  H 10752 10765       L1    16  0.65

> <Gold.Chemscore.Hbond.Weighted>
-12.3024

> <Gold.Chemscore.Metal.Weighted>
-0.0000

> <Gold.Chemscore.Lipo.Weighted>
-5.7007

> <Gold.Chemscore.Internal_Hbond.Weighted>
0.0000

> <Gold.Chemscore.DEClash.Weighted>
0.5803

> <Gold.Chemscore.DEInternal.Weighted>
0.8811

> <Gold.Chemscore.Rot.Weighted>
4.1757

> <Gold.Chemscore.Internal.Correction.Weighted>
   9.000000E+99

> <Gold.Protein.RotatedTorsions>
[ 6907 6896 6895 6894 ] final   48.42 input  -60.11 | X-H torsion
[ 7974 7965 7964 7962 ] final  132.63 input  175.53 | X-H torsion
[ 8008 7997 7996 7995 ] final  104.93 input   59.86 | X-H torsion
[ 10167 10162 10161 10158 ] final   67.78 input  -65.29 | X-H torsion
[ 10718 10713 10712 10709 ] final  -47.83 input   66.30 | X-H torsion
[ 10763 10752 10751 10750 ] final  158.35 input  -60.55 | X-H torsion
[ 11005 11000 10999 10996 ] final  -88.16 input  -57.11 | X-H torsion

> <Gold.Protein.ActiveResidues>
 VAL166  LYS551  ARG553  GLY616  TRP617  ASP618  TYR619  PRO620  LYS621  CYS622 
 ASP623  PHE694  ASN695  SER759  ASP760  ASP761  ALA762  ILE779  LEU786  VAL792 
 PHE793  MET794  SER795  GLU796  ALA797  LYS798  CYS799  TRP800  GLU811  SER814 

> <Gold.Protein.RotatedAtoms>
  152.2793  134.7846  160.0399 H   0  0  0  0  0  0  0  0  0  0  0  0  # atno 6907 bound_to 6896
  151.8431  133.3422  159.3657 H   0  0  0  0  0  0  0  0  0  0  0  0  # atno 6908 bound_to 6896
  150.7183  134.5300  159.5740 H   0  0  0  0  0  0  0  0  0  0  0  0  # atno 6909 bound_to 6896
  144.9949  139.4369  143.5321 H   0  0  0  0  0  0  0  0  0  0  0  0  # atno 7974 bound_to 7965
  156.1616  140.3139  155.8816 H   0  0  0  0  0  0  0  0  0  0  0  0  # atno 8008 bound_to 7997
  155.3771  140.0485  157.3061 H   0  0  0  0  0  0  0  0  0  0  0  0  # atno 8009 bound_to 7997
  154.5152  140.2179  155.9091 H   0  0  0  0  0  0  0  0  0  0  0  0  # atno 8010 bound_to 7997
  140.0858  144.5031  150.7132 H   0  0  0  0  0  0  0  0  0  0  0  0  # atno 10167 bound_to 10162
  156.2046  130.4158  149.9195 H   0  0  0  0  0  0  0  0  0  0  0  0  # atno 10718 bound_to 10713
  154.2147  135.2784  155.2946 H   0  0  0  0  0  0  0  0  0  0  0  0  # atno 10763 bound_to 10752
  154.5750  135.5607  153.7135 H   0  0  0  0  0  0  0  0  0  0  0  0  # atno 10764 bound_to 10752
  153.0056  135.6331  154.2286 H   0  0  0  0  0  0  0  0  0  0  0  0  # atno 10765 bound_to 10752
  141.1606  133.7553  156.9411 H   0  0  0  0  0  0  0  0  0  0  0  0  # atno 11005 bound_to 11000
  146.3439  139.9303  142.8754 LP  0  0  0  0  0  0  0  0  0  0  0  0  # atno 17320 bound_to 7965
  145.2234  140.9944  143.4032 LP  0  0  0  0  0  0  0  0  0  0  0  0  # atno 17321 bound_to 7965
  140.7054  143.2464  151.4741 LP  0  0  0  0  0  0  0  0  0  0  0  0  # atno 17342 bound_to 10162
  139.5753  144.1833  152.1894 LP  0  0  0  0  0  0  0  0  0  0  0  0  # atno 17343 bound_to 10162
  156.6893  130.8889  151.3586 LP  0  0  0  0  0  0  0  0  0  0  0  0  # atno 17370 bound_to 10713
  157.7005  130.9328  150.0772 LP  0  0  0  0  0  0  0  0  0  0  0  0  # atno 17371 bound_to 10713
  140.1321  134.9349  157.2351 LP  0  0  0  0  0  0  0  0  0  0  0  0  # atno 17394 bound_to 11000
  140.2940  134.3207  155.7307 LP  0  0  0  0  0  0  0  0  0  0  0  0  # atno 17395 bound_to 11000

$$$$
