AV-unprocessed.smi:2889|AV-procd|sdf|11115|dock6
  -GOLD-   2272015583D 1   1.00000     0.00000
 Structure written by MMmdl.
 35 36  0  0  0  0  0  0  0  0  2 V2000
  153.9430  141.2210  161.6363 C   0  0  0  0  0  0  0  0  0  0  0  0
  153.8193  140.7747  159.8820 S   0  0  0  0  0  0  0  0  0  0  0  0
  152.5104  141.9131  159.3186 C   0  0  1  0  0  0  0  0  0  0  0  0
  153.0195  143.3746  159.4482 C   0  0  0  0  0  0  0  0  0  0  0  0
  151.9917  144.4240  158.9795 C   0  0  0  0  0  0  0  0  0  0  0  0
  151.5486  144.0966  157.5406 C   0  0  0  0  0  0  0  0  0  0  0  0
  151.0177  142.6494  157.4049 C   0  0  0  0  0  0  0  0  0  0  0  0
  152.0251  141.5699  157.8785 C   0  0  2  0  0  0  0  0  0  0  0  0
  151.3815  140.2638  157.8543 N   0  5  0  0  0  0  0  0  0  0  0  0
  151.8741  139.1377  156.7964 S   0  0  0  0  0  0  0  0  0  0  0  0
  152.7586  139.6826  155.7529 O   0  0  0  0  0  0  0  0  0  0  0  0
  152.3085  137.9020  157.4678 O   0  0  0  0  0  0  0  0  0  0  0  0
  150.2763  138.7225  155.9680 C   0  0  0  0  0  0  0  0  0  0  0  0
  149.6486  139.9554  155.3756 C   0  0  0  0  0  0  0  0  0  0  0  0
  148.5281  140.6934  155.8502 C   0  0  0  0  0  0  0  0  0  0  0  0
  148.3972  141.6990  154.9373 C   0  0  0  0  0  0  0  0  0  0  0  0
  149.3452  141.5914  153.9727 O   0  0  0  0  0  0  0  0  0  0  0  0
  150.1371  140.4734  154.2587 N   0  0  0  0  0  0  0  0  0  0  0  0
  154.7210  140.6292  162.1178 H   0  0  0  0  0  0  0  0  0  0  0  0
  153.0016  141.0339  162.1524 H   0  0  0  0  0  0  0  0  0  0  0  0
  154.1960  142.2756  161.7440 H   0  0  0  0  0  0  0  0  0  0  0  0
  151.6674  141.8099  160.0037 H   0  0  0  0  0  0  0  0  0  0  0  0
  153.2804  143.5754  160.4878 H   0  0  0  0  0  0  0  0  0  0  0  0
  153.9448  143.5022  158.8821 H   0  0  0  0  0  0  0  0  0  0  0  0
  151.1265  144.4159  159.6436 H   0  0  0  0  0  0  0  0  0  0  0  0
  152.4193  145.4257  159.0286 H   0  0  0  0  0  0  0  0  0  0  0  0
  150.7726  144.7975  157.2323 H   0  0  0  0  0  0  0  0  0  0  0  0
  152.3838  144.2568  156.8557 H   0  0  0  0  0  0  0  0  0  0  0  0
  150.0953  142.5635  157.9816 H   0  0  0  0  0  0  0  0  0  0  0  0
  150.7407  142.4681  156.3659 H   0  0  0  0  0  0  0  0  0  0  0  0
  152.8932  141.6033  157.2184 H   0  0  0  0  0  0  0  0  0  0  0  0
  150.4913  137.9878  155.1919 H   0  0  0  0  0  0  0  0  0  0  0  0
  149.6193  138.2457  156.6948 H   0  0  0  0  0  0  0  0  0  0  0  0
  147.9241  140.5155  156.7277 H   0  0  0  0  0  0  0  0  0  0  0  0
  147.7115  142.5274  154.8396 H   0  0  0  0  0  0  0  0  0  0  0  0
  1  2  1  0  0  0  0
  1 19  1  0  0  0  0
  1 20  1  0  0  0  0
  1 21  1  0  0  0  0
  2  3  1  0  0  0  0
  3  8  1  0  0  0  0
  3  4  1  0  0  0  0
  3 22  1  0  0  0  0
  4  5  1  0  0  0  0
  4 23  1  0  0  0  0
  4 24  1  0  0  0  0
  5  6  1  0  0  0  0
  5 25  1  0  0  0  0
  5 26  1  0  0  0  0
  6  7  1  0  0  0  0
  6 27  1  0  0  0  0
  6 28  1  0  0  0  0
  7  8  1  0  0  0  0
  7 29  1  0  0  0  0
  7 30  1  0  0  0  0
  8  9  1  0  0  0  0
  8 31  1  0  0  0  0
  9 10  1  0  0  0  0
 10 11  2  0  0  0  0
 10 12  2  0  0  0  0
 10 13  1  0  0  0  0
 13 14  1  0  0  0  0
 13 32  1  0  0  0  0
 13 33  1  0  0  0  0
 14 18  2  0  0  0  0
 14 15  1  0  0  0  0
 15 16  2  0  0  0  0
 15 34  1  0  0  0  0
 16 17  1  0  0  0  0
 16 35  1  0  0  0  0
 17 18  1  0  0  0  0
M  CHG  1   9  -1
M  END
> <s_m_source_file>
AV-unprocessed.smi

> <i_m_source_file_index>
2889

> <i_lp_mmshare_version>
43012

> <i_f3d_flags>
0

> <s_epik_input>
W0NIM11TW0NAQEhdMVtDSDJdW0NIMl1bQ0gyXVtDSDJdW0NASF0xW05IXVMoPU8pKD1PKVtDSDJdYzJbY0hdW2NIXW9uMg==

> <s_epik_cmdline>
J2VwaWtfcHl0aG9uJywgJy1waCcsICc3LjAnLCAnLXRuJywgJzgnLCAnLW1hJywgJzIwMCcsICctbWV0YWxfYmluZGluZycsICctaW1hZScsICc8aW5maWxlLm1hZT4nLCAnLW9tYWUnLCAnPG91dGZpbGUubWFlPic=

> <r_lp_tautomer_probability>
1

> <r_epik_Ionization_Penalty>
4.65467

> <r_epik_Ionization_Penalty_Charging>
4.65467

> <r_epik_Ionization_Penalty_Neutral>
2.71476e-10

> <r_epik_State_Penalty>
4.65444

> <r_epik_Charging_Adjusted_Penalty>
9.30911

> <i_epik_Tot_Q>
-1

> <i_epik_Tot_abs_Q>
1

> <r_epik_Metal_State_Penalty>
0.901484

> <b_epik_Metal_Only>
1

> <s_lp_Force_Field>
OPLS_2005

> <r_lp_Energy>
9.1096

> <b_lp_Chiralities_Consistent>
1

> <s_lp_Variant>
AV-unprocessed.smi:2889-8

> <Gold.Version>
5.8.1

> <Gold.Id.Protein>
6NUR|6NUR_protein|mol2

> <Gold.PLP.Fitness>
44.6142

> <Gold.PLP.PLP>
-36.0431

> <Gold.PLP.part.hbond>
-4.0000

> <Gold.PLP.part.metal>
0.0000

> <Gold.PLP.part.buried>
-2.9585

> <Gold.PLP.part.nonpolar>
-28.9324

> <Gold.PLP.part.repulsive>
0.3129

> <Gold.PLP.ligand.clash>
0.0000

> <Gold.PLP.ligand.torsion>
0.8261

> <Gold.PLP.Chemscore.Hbond>
2.4288

> <Gold.PLP.Chemscore.CHOScore>
0.6420

> <Gold.PLP.Chemscore.Metal>
0.0000

> <Gold.Chemscore.Hbonds>
donor molecule, donor type, donor heavy atom, donor atom, acceptor molecule, acceptor atom, score
      P1  H  7989  7998       L1    18  0.86
      P1  H  7997  8010       L1    11  1.00
      P1  H  8011  8017       L1    17  0.64
      L1  C    16    35       P1  8028  0.52

> <Gold.PLP.Chemscore.Internal.Correction>
1.0107

> <Gold.Rescore>
     Score         DG    S(hbond)    S(metal)    S(lipo)     H(rot)  DE(clash)    DE(int)     intcor
     18.61     -19.55       1.75        0.00     103.89       1.53       0.12       0.82       ----

> <Gold.Chemscore.Fitness>
18.6069

> <Gold.Chemscore.DG>
-19.5496

> <Gold.Chemscore.ZeroCoef>
-5.4800

> <Gold.Chemscore.Hbond>
1.7469

> <Gold.Chemscore.Metal>
0.0000

> <Gold.Chemscore.Lipo>
103.8929

> <Gold.Chemscore.Internal_Hbond>
0.0000

> <Gold.Chemscore.DEClash>
0.1214

> <Gold.Chemscore.DEInternal>
0.8212

> <Gold.Chemscore.Rot>
1.5314

> <Gold.Chemscore.Internal.Correction>
   9.000000E+99

> <Gold.Chemscore.Hbonds>
donor molecule, donor type, donor heavy atom, donor atom, acceptor molecule, acceptor atom, score
      P1  H  7989  7998       L1    18  0.25
      P1  H  7997  8010       L1    11  0.93
      P1  H  8011  8017       L1    17  0.55

> <Gold.Chemscore.Hbond.Weighted>
-5.8346

> <Gold.Chemscore.Metal.Weighted>
-0.0000

> <Gold.Chemscore.Lipo.Weighted>
-12.1555

> <Gold.Chemscore.Internal_Hbond.Weighted>
0.0000

> <Gold.Chemscore.DEClash.Weighted>
0.1214

> <Gold.Chemscore.DEInternal.Weighted>
0.8212

> <Gold.Chemscore.Rot.Weighted>
3.9205

> <Gold.Chemscore.Internal.Correction.Weighted>
   9.000000E+99

> <Gold.Protein.RotatedTorsions>
[ 6907 6896 6895 6894 ] final  -37.34 input  -60.11 | X-H torsion
[ 7974 7965 7964 7962 ] final  -81.83 input  175.53 | X-H torsion
[ 8008 7997 7996 7995 ] final   80.63 input   59.86 | X-H torsion
[ 10167 10162 10161 10158 ] final  -77.39 input  -65.29 | X-H torsion
[ 10718 10713 10712 10709 ] final  -13.69 input   66.30 | X-H torsion
[ 10763 10752 10751 10750 ] final  -55.38 input  -60.55 | X-H torsion
[ 11005 11000 10999 10996 ] final -177.50 input  -57.11 | X-H torsion

> <Gold.Protein.ActiveResidues>
 VAL166  LYS551  ARG553  GLY616  TRP617  ASP618  TYR619  PRO620  LYS621  CYS622 
 ASP623  PHE694  ASN695  SER759  ASP760  ASP761  ALA762  ILE779  LEU786  VAL792 
 PHE793  MET794  SER795  GLU796  ALA797  LYS798  CYS799  TRP800  GLU811  SER814 

> <Gold.Protein.RotatedAtoms>
  151.0159  134.9432  159.8032 H   0  0  0  0  0  0  0  0  0  0  0  0  # atno 6907 bound_to 6896
  152.5314  134.2967  159.9073 H   0  0  0  0  0  0  0  0  0  0  0  0  # atno 6908 bound_to 6896
  151.2974  133.4096  159.2671 H   0  0  0  0  0  0  0  0  0  0  0  0  # atno 6909 bound_to 6896
  145.5414  140.9509  143.1549 H   0  0  0  0  0  0  0  0  0  0  0  0  # atno 7974 bound_to 7965
  155.8862  140.3441  155.5923 H   0  0  0  0  0  0  0  0  0  0  0  0  # atno 8008 bound_to 7997
  155.7663  140.0839  157.2149 H   0  0  0  0  0  0  0  0  0  0  0  0  # atno 8009 bound_to 7997
  154.4029  140.1526  156.2878 H   0  0  0  0  0  0  0  0  0  0  0  0  # atno 8010 bound_to 7997
  140.4775  143.2410  151.8110 H   0  0  0  0  0  0  0  0  0  0  0  0  # atno 10167 bound_to 10162
  156.6266  130.4890  149.6144 H   0  0  0  0  0  0  0  0  0  0  0  0  # atno 10718 bound_to 10713
  154.1899  135.6429  153.5057 H   0  0  0  0  0  0  0  0  0  0  0  0  # atno 10763 bound_to 10752
  153.0037  135.5426  154.6426 H   0  0  0  0  0  0  0  0  0  0  0  0  # atno 10764 bound_to 10752
  154.5812  135.2925  155.0703 H   0  0  0  0  0  0  0  0  0  0  0  0  # atno 10765 bound_to 10752
  140.4403  134.6438  157.4754 H   0  0  0  0  0  0  0  0  0  0  0  0  # atno 11005 bound_to 11000
  144.7575  139.7038  143.7248 LP  0  0  0  0  0  0  0  0  0  0  0  0  # atno 17320 bound_to 7965
  146.1978  139.5255  142.9763 LP  0  0  0  0  0  0  0  0  0  0  0  0  # atno 17321 bound_to 7965
  139.4828  144.4815  151.9300 LP  0  0  0  0  0  0  0  0  0  0  0  0  # atno 17342 bound_to 10162
  140.3900  144.2627  150.5900 LP  0  0  0  0  0  0  0  0  0  0  0  0  # atno 17343 bound_to 10162
  156.2268  130.6771  151.1424 LP  0  0  0  0  0  0  0  0  0  0  0  0  # atno 17370 bound_to 10713
  157.7212  131.0680  150.6126 LP  0  0  0  0  0  0  0  0  0  0  0  0  # atno 17371 bound_to 10713
  140.0074  134.6742  155.9433 LP  0  0  0  0  0  0  0  0  0  0  0  0  # atno 17394 bound_to 11000
  141.1708  133.6537  156.4646 LP  0  0  0  0  0  0  0  0  0  0  0  0  # atno 17395 bound_to 11000

$$$$
