AV-unprocessed.smi:2140|AV-procd|sdf|8715|dock4
  -GOLD-   2272011483D 1   1.00000     0.00000
 Structure written by MMmdl.
 39 40  0  0  0  0  0  0  0  0  1 V2000
  150.8235  135.0476  156.2848 C   0  0  0  0  0  0  0  0  0  0  0  0
  150.0747  135.9114  155.2377 C   0  0  1  0  0  0  0  0  0  0  0  0
  148.5808  135.4744  155.2011 C   0  0  0  0  0  0  0  0  0  0  0  0
  148.1329  135.0407  153.8805 N   0  0  0  0  0  0  0  0  0  0  0  0
  146.9706  134.4234  153.6265 C   0  0  0  0  0  0  0  0  0  0  0  0
  146.1460  134.1449  154.4968 O   0  0  0  0  0  0  0  0  0  0  0  0
  146.8280  134.1795  152.3127 N   0  0  0  0  0  0  0  0  0  0  0  0
  145.7435  133.5505  151.6441 C   0  0  0  0  0  0  0  0  0  0  0  0
  144.3850  133.7009  152.0142 C   0  0  0  0  0  0  0  0  0  0  0  0
  143.4009  133.0082  151.2828 C   0  0  0  0  0  0  0  0  0  0  0  0
  143.8103  132.1864  150.2148 C   0  0  0  0  0  0  0  0  0  0  0  0
  145.1023  132.0227  149.8602 N   0  0  0  0  0  0  0  0  0  0  0  0
  146.0401  132.6890  150.5667 C   0  0  0  0  0  0  0  0  0  0  0  0
  150.2517  137.3652  155.4617 N   0  0  0  0  0  0  0  0  0  0  0  0
  151.6551  137.7840  155.3672 C   0  0  0  0  0  0  0  0  0  0  0  0
  151.8418  139.2965  155.5766 C   0  0  0  0  0  0  0  0  0  0  0  0
  151.0610  140.0094  154.6277 O   0  0  0  0  0  0  0  0  0  0  0  0
  149.6797  139.6935  154.7304 C   0  0  0  0  0  0  0  0  0  0  0  0
  149.4736  138.1825  154.5230 C   0  0  0  0  0  0  0  0  0  0  0  0
  150.6492  133.9811  156.1477 H   0  0  0  0  0  0  0  0  0  0  0  0
  150.5149  135.3020  157.2993 H   0  0  0  0  0  0  0  0  0  0  0  0
  151.9041  135.1663  156.2209 H   0  0  0  0  0  0  0  0  0  0  0  0
  150.5046  135.6711  154.2640 H   0  0  0  0  0  0  0  0  0  0  0  0
  148.4186  134.6528  155.8994 H   0  0  0  0  0  0  0  0  0  0  0  0
  147.9112  136.2760  155.5098 H   0  0  0  0  0  0  0  0  0  0  0  0
  148.7497  135.2348  153.1054 H   0  0  0  0  0  0  0  0  0  0  0  0
  147.5536  134.5433  151.7125 H   0  0  0  0  0  0  0  0  0  0  0  0
  144.0812  134.3166  152.8464 H   0  0  0  0  0  0  0  0  0  0  0  0
  142.3556  133.1014  151.5380 H   0  0  0  0  0  0  0  0  0  0  0  0
  143.0810  131.6415  149.6337 H   0  0  0  0  0  0  0  0  0  0  0  0
  147.0630  132.5320  150.2564 H   0  0  0  0  0  0  0  0  0  0  0  0
  152.2577  137.2825  156.1223 H   0  0  0  0  0  0  0  0  0  0  0  0
  152.0621  137.4996  154.3955 H   0  0  0  0  0  0  0  0  0  0  0  0
  151.5541  139.5852  156.5890 H   0  0  0  0  0  0  0  0  0  0  0  0
  152.8896  139.5695  155.4520 H   0  0  0  0  0  0  0  0  0  0  0  0
  149.2981  140.0056  155.7038 H   0  0  0  0  0  0  0  0  0  0  0  0
  149.1300  140.2570  153.9763 H   0  0  0  0  0  0  0  0  0  0  0  0
  149.7359  137.9184  153.4974 H   0  0  0  0  0  0  0  0  0  0  0  0
  148.4084  137.9936  154.6365 H   0  0  0  0  0  0  0  0  0  0  0  0
  1  2  1  0  0  0  0
  1 20  1  0  0  0  0
  1 21  1  0  0  0  0
  1 22  1  0  0  0  0
  2  3  1  0  0  0  0
  2 14  1  0  0  0  0
  2 23  1  0  0  0  0
  3  4  1  0  0  0  0
  3 24  1  0  0  0  0
  3 25  1  0  0  0  0
  4  5  1  0  0  0  0
  4 26  1  0  0  0  0
  5  6  2  0  0  0  0
  5  7  1  0  0  0  0
  7  8  1  0  0  0  0
  7 27  1  0  0  0  0
  8 13  1  0  0  0  0
  8  9  2  0  0  0  0
  9 10  1  0  0  0  0
  9 28  1  0  0  0  0
 10 11  2  0  0  0  0
 10 29  1  0  0  0  0
 11 12  1  0  0  0  0
 11 30  1  0  0  0  0
 12 13  2  0  0  0  0
 13 31  1  0  0  0  0
 14 19  1  0  0  0  0
 14 15  1  0  0  0  0
 15 16  1  0  0  0  0
 15 32  1  0  0  0  0
 15 33  1  0  0  0  0
 16 17  1  0  0  0  0
 16 34  1  0  0  0  0
 16 35  1  0  0  0  0
 17 18  1  0  0  0  0
 18 19  1  0  0  0  0
 18 36  1  0  0  0  0
 18 37  1  0  0  0  0
 19 38  1  0  0  0  0
 19 39  1  0  0  0  0
M  END
> <s_m_source_file>
AV-unprocessed.smi

> <i_m_source_file_index>
2140

> <i_lp_mmshare_version>
43012

> <i_f3d_flags>
0

> <s_epik_input>
W0NIMl0xW0NIMl1PW0NIMl1bQ0gyXU4xW0NASF0oW0NIM10pW0NIMl1bTkhdQyg9TylbTkhdYzJbY0hdW2NIXVtjSF1uW2NIXTI=

> <s_epik_cmdline>
J2VwaWtfcHl0aG9uJywgJy1waCcsICc3LjAnLCAnLXRuJywgJzgnLCAnLW1hJywgJzIwMCcsICctbWV0YWxfYmluZGluZycsICctaW1hZScsICc8aW5maWxlLm1hZT4nLCAnLW9tYWUnLCAnPG91dGZpbGUubWFlPic=

> <r_epik_Ionization_Penalty>
0.270748

> <r_epik_Ionization_Penalty_Charging>
0

> <r_epik_Ionization_Penalty_Neutral>
0.270748

> <r_epik_State_Penalty>
0.268258

> <r_epik_Charging_Adjusted_Penalty>
0.268258

> <i_epik_Tot_Q>
0

> <i_epik_Tot_abs_Q>
0

> <r_epik_Metal_State_Penalty>
0.264828

> <b_epik_Metal_Only>
0

> <s_lp_Force_Field>
OPLS_2005

> <r_lp_Energy>
31.3995

> <b_lp_Chiralities_Consistent>
1

> <s_lp_Variant>
AV-unprocessed.smi:2140-2

> <Gold.Version>
5.8.1

> <Gold.Id.Protein>
6NUR|6NUR_protein|mol2

> <Gold.PLP.Fitness>
41.0612

> <Gold.PLP.PLP>
-30.4137

> <Gold.PLP.part.hbond>
-2.6571

> <Gold.PLP.part.metal>
0.0000

> <Gold.PLP.part.buried>
-5.3711

> <Gold.PLP.part.nonpolar>
-23.7782

> <Gold.PLP.part.repulsive>
0.4142

> <Gold.PLP.ligand.clash>
0.0000

> <Gold.PLP.ligand.torsion>
1.0871

> <Gold.PLP.Chemscore.Hbond>
2.4039

> <Gold.PLP.Chemscore.CHOScore>
1.8617

> <Gold.PLP.Chemscore.Metal>
0.0000

> <Gold.Chemscore.Hbonds>
donor molecule, donor type, donor heavy atom, donor atom, acceptor molecule, acceptor atom, score
      L1  H     4    26       P1  7948  0.88
      L1  H     7    27       P1  7948  0.51
      P1  H  7989  7998       L1    17  0.99
      L1  C    11    30       P1 10952  0.81
      L1  C    13    31       P1 10747  0.99

> <Gold.PLP.Chemscore.Internal.Correction>
0.0248

> <Gold.Rescore>
     Score         DG    S(hbond)    S(metal)    S(lipo)     H(rot)  DE(clash)    DE(int)     intcor
     17.26     -18.98       2.75        0.00      69.05       1.47       0.01       1.71       ----

> <Gold.Chemscore.Fitness>
17.2641

> <Gold.Chemscore.DG>
-18.9789

> <Gold.Chemscore.ZeroCoef>
-5.4800

> <Gold.Chemscore.Hbond>
2.7508

> <Gold.Chemscore.Metal>
0.0000

> <Gold.Chemscore.Lipo>
69.0523

> <Gold.Chemscore.Internal_Hbond>
0.0000

> <Gold.Chemscore.DEClash>
0.0089

> <Gold.Chemscore.DEInternal>
1.7059

> <Gold.Chemscore.Rot>
1.4719

> <Gold.Chemscore.Internal.Correction>
   9.000000E+99

> <Gold.Chemscore.Hbonds>
donor molecule, donor type, donor heavy atom, donor atom, acceptor molecule, acceptor atom, score
      L1  H     4    26       P1  7948  0.55
      L1  H     7    27       P1  7948  0.18
      P1  H  7989  7998       L1    17  0.93

> <Gold.Chemscore.Hbond.Weighted>
-9.1878

> <Gold.Chemscore.Metal.Weighted>
-0.0000

> <Gold.Chemscore.Lipo.Weighted>
-8.0791

> <Gold.Chemscore.Internal_Hbond.Weighted>
0.0000

> <Gold.Chemscore.DEClash.Weighted>
0.0089

> <Gold.Chemscore.DEInternal.Weighted>
1.7059

> <Gold.Chemscore.Rot.Weighted>
3.7681

> <Gold.Chemscore.Internal.Correction.Weighted>
   9.000000E+99

> <Gold.Protein.RotatedTorsions>
[ 6907 6896 6895 6894 ] final -126.78 input  -60.11 | X-H torsion
[ 7974 7965 7964 7962 ] final -107.40 input  175.53 | X-H torsion
[ 8008 7997 7996 7995 ] final   -6.59 input   59.86 | X-H torsion
[ 10167 10162 10161 10158 ] final  -88.74 input  -65.29 | X-H torsion
[ 10718 10713 10712 10709 ] final -141.94 input   66.30 | X-H torsion
[ 10763 10752 10751 10750 ] final  -72.35 input  -60.55 | X-H torsion
[ 11005 11000 10999 10996 ] final   16.25 input  -57.11 | X-H torsion

> <Gold.Protein.ActiveResidues>
 VAL166  LYS551  ARG553  GLY616  TRP617  ASP618  TYR619  PRO620  LYS621  CYS622 
 ASP623  PHE694  ASN695  SER759  ASP760  ASP761  ALA762  ILE779  LEU786  VAL792 
 PHE793  MET794  SER795  GLU796  ALA797  LYS798  CYS799  TRP800  GLU811  SER814 

> <Gold.Protein.RotatedAtoms>
  150.9005  133.7125  159.2880 H   0  0  0  0  0  0  0  0  0  0  0  0  # atno 6907 bound_to 6896
  151.4645  135.1039  159.9743 H   0  0  0  0  0  0  0  0  0  0  0  0  # atno 6908 bound_to 6896
  152.4874  133.8360  159.7183 H   0  0  0  0  0  0  0  0  0  0  0  0  # atno 6909 bound_to 6896
  145.2058  140.9076  143.3343 H   0  0  0  0  0  0  0  0  0  0  0  0  # atno 7974 bound_to 7965
  154.5922  140.2429  155.7905 H   0  0  0  0  0  0  0  0  0  0  0  0  # atno 8008 bound_to 7997
  156.2255  140.2984  156.0010 H   0  0  0  0  0  0  0  0  0  0  0  0  # atno 8009 bound_to 7997
  155.2354  140.0405  157.2958 H   0  0  0  0  0  0  0  0  0  0  0  0  # atno 8010 bound_to 7997
  140.3717  143.2791  151.9492 H   0  0  0  0  0  0  0  0  0  0  0  0  # atno 10167 bound_to 10162
  156.3399  130.7632  151.1766 H   0  0  0  0  0  0  0  0  0  0  0  0  # atno 10718 bound_to 10713
  154.4445  135.5932  153.6151 H   0  0  0  0  0  0  0  0  0  0  0  0  # atno 10763 bound_to 10752
  152.9808  135.6006  154.3681 H   0  0  0  0  0  0  0  0  0  0  0  0  # atno 10764 bound_to 10752
  154.3535  135.2841  155.2338 H   0  0  0  0  0  0  0  0  0  0  0  0  # atno 10765 bound_to 10752
  140.4492  134.1242  155.7700 H   0  0  0  0  0  0  0  0  0  0  0  0  # atno 11005 bound_to 11000
  144.9903  139.3696  143.6218 LP  0  0  0  0  0  0  0  0  0  0  0  0  # atno 17320 bound_to 7965
  146.3408  139.9083  142.8784 LP  0  0  0  0  0  0  0  0  0  0  0  0  # atno 17321 bound_to 7965
  139.4803  144.5900  151.7787 LP  0  0  0  0  0  0  0  0  0  0  0  0  # atno 17342 bound_to 10162
  140.5026  144.1146  150.5975 LP  0  0  0  0  0  0  0  0  0  0  0  0  # atno 17343 bound_to 10162
  157.7445  131.0457  150.4858 LP  0  0  0  0  0  0  0  0  0  0  0  0  # atno 17370 bound_to 10713
  156.5036  130.4123  149.6339 LP  0  0  0  0  0  0  0  0  0  0  0  0  # atno 17371 bound_to 10713
  141.1672  133.8680  157.1681 LP  0  0  0  0  0  0  0  0  0  0  0  0  # atno 17394 bound_to 11000
  140.0018  135.0024  157.0206 LP  0  0  0  0  0  0  0  0  0  0  0  0  # atno 17395 bound_to 11000

$$$$
