AV-unprocessed.smi:2901|AV-procd|sdf|11150|dock4
  -GOLD-   2272016 33D 1   1.00000     0.00000
 Structure written by MMmdl.
 40 41  0  0  0  0  0  0  0  0  1 V2000
  147.8086  141.3198  154.3590 C   0  0  0  0  0  0  0  0  0  0  0  0
  148.7463  140.1838  154.5819 C   0  0  0  0  0  0  0  0  0  0  0  0
  150.0773  140.2170  154.5597 N   0  0  0  0  0  0  0  0  0  0  0  0
  150.4680  138.9112  154.8222 C   0  0  0  0  0  0  0  0  0  0  0  0
  151.9085  138.5081  154.9002 C   0  0  0  0  0  0  0  0  0  0  0  0
  152.3552  138.2509  156.3484 C   0  0  0  0  0  0  0  0  0  0  0  0
  151.8186  139.2502  157.2650 N   0  0  0  0  0  0  0  0  0  0  0  0
  152.5489  139.9563  158.1394 C   0  0  0  0  0  0  0  0  0  0  0  0
  153.7690  139.8468  158.2642 O   0  0  0  0  0  0  0  0  0  0  0  0
  151.7906  140.7946  158.8594 N   0  0  0  0  0  0  0  0  0  0  0  0
  152.2920  141.7094  159.8785 C   0  0  0  0  0  0  0  0  0  0  0  0
  151.5675  143.0643  159.8253 C   0  0  1  0  0  0  0  0  0  0  0  0
  152.0755  144.0697  160.8561 C   0  0  0  0  0  0  0  0  0  0  0  0
  151.6366  145.3795  160.2428 C   0  0  0  0  0  0  0  0  0  0  0  0
  151.8580  145.1248  158.7536 C   0  0  0  0  0  0  0  0  0  0  0  0
  151.7738  143.7129  158.5733 O   0  0  0  0  0  0  0  0  0  0  0  0
  149.3379  138.1544  154.9999 C   0  0  0  0  0  0  0  0  0  0  0  0
  149.1160  136.7139  155.3153 C   0  0  0  0  0  0  0  0  0  0  0  0
  148.2354  138.9511  154.8463 O   0  0  0  0  0  0  0  0  0  0  0  0
  148.3539  142.2031  154.0252 H   0  0  0  0  0  0  0  0  0  0  0  0
  147.2859  141.5584  155.2853 H   0  0  0  0  0  0  0  0  0  0  0  0
  147.0742  141.0536  153.5987 H   0  0  0  0  0  0  0  0  0  0  0  0
  152.0725  137.6140  154.2976 H   0  0  0  0  0  0  0  0  0  0  0  0
  152.5352  139.2840  154.4584 H   0  0  0  0  0  0  0  0  0  0  0  0
  152.0109  137.2693  156.6754 H   0  0  0  0  0  0  0  0  0  0  0  0
  153.4447  138.2349  156.4133 H   0  0  0  0  0  0  0  0  0  0  0  0
  150.8224  139.4112  157.2333 H   0  0  0  0  0  0  0  0  0  0  0  0
  150.7969  140.8095  158.6830 H   0  0  0  0  0  0  0  0  0  0  0  0
  152.1222  141.2435  160.8494 H   0  0  0  0  0  0  0  0  0  0  0  0
  153.3712  141.8442  159.7866 H   0  0  0  0  0  0  0  0  0  0  0  0
  150.4937  142.9252  159.9624 H   0  0  0  0  0  0  0  0  0  0  0  0
  151.6641  143.9041  161.8521 H   0  0  0  0  0  0  0  0  0  0  0  0
  153.1639  144.0362  160.9236 H   0  0  0  0  0  0  0  0  0  0  0  0
  150.5773  145.5469  160.4422 H   0  0  0  0  0  0  0  0  0  0  0  0
  152.1948  146.2382  160.6170 H   0  0  0  0  0  0  0  0  0  0  0  0
  151.1272  145.6470  158.1356 H   0  0  0  0  0  0  0  0  0  0  0  0
  152.8528  145.4529  158.4508 H   0  0  0  0  0  0  0  0  0  0  0  0
  149.9900  136.2827  155.8040 H   0  0  0  0  0  0  0  0  0  0  0  0
  148.9223  136.1459  154.4054 H   0  0  0  0  0  0  0  0  0  0  0  0
  148.2628  136.5890  155.9822 H   0  0  0  0  0  0  0  0  0  0  0  0
  1  2  1  0  0  0  0
  1 20  1  0  0  0  0
  1 21  1  0  0  0  0
  1 22  1  0  0  0  0
  2 19  1  0  0  0  0
  2  3  2  0  0  0  0
  3  4  1  0  0  0  0
  4  5  1  0  0  0  0
  4 17  2  0  0  0  0
  5  6  1  0  0  0  0
  5 23  1  0  0  0  0
  5 24  1  0  0  0  0
  6  7  1  0  0  0  0
  6 25  1  0  0  0  0
  6 26  1  0  0  0  0
  7  8  1  0  0  0  0
  7 27  1  0  0  0  0
  8  9  2  0  0  0  0
  8 10  1  0  0  0  0
 10 11  1  0  0  0  0
 10 28  1  0  0  0  0
 11 12  1  0  0  0  0
 11 29  1  0  0  0  0
 11 30  1  0  0  0  0
 12 16  1  0  0  0  0
 12 13  1  0  0  0  0
 12 31  1  0  0  0  0
 13 14  1  0  0  0  0
 13 32  1  0  0  0  0
 13 33  1  0  0  0  0
 14 15  1  0  0  0  0
 14 34  1  0  0  0  0
 14 35  1  0  0  0  0
 15 16  1  0  0  0  0
 15 36  1  0  0  0  0
 15 37  1  0  0  0  0
 17 18  1  0  0  0  0
 17 19  1  0  0  0  0
 18 38  1  0  0  0  0
 18 39  1  0  0  0  0
 18 40  1  0  0  0  0
M  END
> <s_m_source_file>
AV-unprocessed.smi

> <i_m_source_file_index>
2901

> <i_lp_mmshare_version>
43012

> <i_f3d_flags>
0

> <s_epik_input>
W0NIM11jMW5jKGMobzEpW0NIM10pW0NIMl1bQ0gyXVtOSF1DKD1PKVtOSF1bQ0gyXVtDQEBIXTJbQ0gyXVtDSDJdW0NIMl1PMg==

> <s_epik_cmdline>
J2VwaWtfcHl0aG9uJywgJy1waCcsICc3LjAnLCAnLXRuJywgJzgnLCAnLW1hJywgJzIwMCcsICctbWV0YWxfYmluZGluZycsICctaW1hZScsICc8aW5maWxlLm1hZT4nLCAnLW9tYWUnLCAnPG91dGZpbGUubWFlPic=

> <r_lp_tautomer_probability>
1

> <r_epik_Ionization_Penalty>
9.58254e-05

> <r_epik_Ionization_Penalty_Charging>
0

> <r_epik_Ionization_Penalty_Neutral>
9.58254e-05

> <r_epik_State_Penalty>
-0

> <r_epik_Charging_Adjusted_Penalty>
0

> <i_epik_Tot_Q>
0

> <i_epik_Tot_abs_Q>
0

> <r_epik_Metal_State_Penalty>
-0

> <b_epik_Metal_Only>
0

> <s_lp_Force_Field>
OPLS_2005

> <r_lp_Energy>
8.56878

> <b_lp_Chiralities_Consistent>
1

> <s_lp_Variant>
AV-unprocessed.smi:2901-2

> <Gold.Version>
5.8.1

> <Gold.Id.Protein>
6NUR|6NUR_protein|mol2

> <Gold.PLP.Fitness>
43.9841

> <Gold.PLP.PLP>
-38.7684

> <Gold.PLP.part.hbond>
-2.0000

> <Gold.PLP.part.metal>
0.0000

> <Gold.PLP.part.buried>
-4.2369

> <Gold.PLP.part.nonpolar>
-32.4395

> <Gold.PLP.part.repulsive>
0.4698

> <Gold.PLP.ligand.clash>
0.0000

> <Gold.PLP.ligand.torsion>
0.4129

> <Gold.PLP.Chemscore.Hbond>
1.9920

> <Gold.PLP.Chemscore.CHOScore>
0.0000

> <Gold.PLP.Chemscore.Metal>
0.0000

> <Gold.Chemscore.Hbonds>
donor molecule, donor type, donor heavy atom, donor atom, acceptor molecule, acceptor atom, score
      P1  H  7989  7998       L1     3  1.00
      P1  H  7997  8009       L1     9  0.91

> <Gold.PLP.Chemscore.Internal.Correction>
0.0656

> <Gold.Rescore>
     Score         DG    S(hbond)    S(metal)    S(lipo)     H(rot)  DE(clash)    DE(int)     intcor
     17.25     -17.64       1.87        0.00      92.59       1.92       0.06       0.33       ----

> <Gold.Chemscore.Fitness>
17.2525

> <Gold.Chemscore.DG>
-17.6403

> <Gold.Chemscore.ZeroCoef>
-5.4800

> <Gold.Chemscore.Hbond>
1.8664

> <Gold.Chemscore.Metal>
0.0000

> <Gold.Chemscore.Lipo>
92.5921

> <Gold.Chemscore.Internal_Hbond>
0.0000

> <Gold.Chemscore.DEClash>
0.0569

> <Gold.Chemscore.DEInternal>
0.3309

> <Gold.Chemscore.Rot>
1.9167

> <Gold.Chemscore.Internal.Correction>
   9.000000E+99

> <Gold.Chemscore.Hbonds>
donor molecule, donor type, donor heavy atom, donor atom, acceptor molecule, acceptor atom, score
      P1  H  7989  7998       L1     3  0.32
      P1  H  7997  8009       L1     9  0.81

> <Gold.Chemscore.Hbond.Weighted>
-6.2338

> <Gold.Chemscore.Metal.Weighted>
-0.0000

> <Gold.Chemscore.Lipo.Weighted>
-10.8333

> <Gold.Chemscore.Internal_Hbond.Weighted>
0.0000

> <Gold.Chemscore.DEClash.Weighted>
0.0569

> <Gold.Chemscore.DEInternal.Weighted>
0.3309

> <Gold.Chemscore.Rot.Weighted>
4.9069

> <Gold.Chemscore.Internal.Correction.Weighted>
   9.000000E+99

> <Gold.Protein.RotatedTorsions>
[ 6907 6896 6895 6894 ] final   -9.10 input  -60.11 | X-H torsion
[ 7974 7965 7964 7962 ] final   54.05 input  175.53 | X-H torsion
[ 8008 7997 7996 7995 ] final  154.76 input   59.86 | X-H torsion
[ 10167 10162 10161 10158 ] final -144.49 input  -65.29 | X-H torsion
[ 10718 10713 10712 10709 ] final  158.27 input   66.30 | X-H torsion
[ 10763 10752 10751 10750 ] final -108.55 input  -60.55 | X-H torsion
[ 11005 11000 10999 10996 ] final   38.46 input  -57.11 | X-H torsion

> <Gold.Protein.ActiveResidues>
 VAL166  LYS551  ARG553  GLY616  TRP617  ASP618  TYR619  PRO620  LYS621  CYS622 
 ASP623  PHE694  ASN695  SER759  ASP760  ASP761  ALA762  ILE779  LEU786  VAL792 
 PHE793  MET794  SER795  GLU796  ALA797  LYS798  CYS799  TRP800  GLU811  SER814 

> <Gold.Protein.RotatedAtoms>
  151.4231  135.1000  159.9619 H   0  0  0  0  0  0  0  0  0  0  0  0  # atno 6907 bound_to 6896
  152.4982  133.8688  159.7298 H   0  0  0  0  0  0  0  0  0  0  0  0  # atno 6908 bound_to 6896
  150.9209  133.6824  159.2860 H   0  0  0  0  0  0  0  0  0  0  0  0  # atno 6909 bound_to 6896
  145.9649  139.4093  143.0226 H   0  0  0  0  0  0  0  0  0  0  0  0  # atno 7974 bound_to 7965
  156.2514  140.1958  156.6695 H   0  0  0  0  0  0  0  0  0  0  0  0  # atno 8008 bound_to 7997
  154.6403  140.0584  156.9863 H   0  0  0  0  0  0  0  0  0  0  0  0  # atno 8009 bound_to 7997
  155.1573  140.3256  155.4421 H   0  0  0  0  0  0  0  0  0  0  0  0  # atno 8010 bound_to 7997
  139.7894  143.7988  152.2648 H   0  0  0  0  0  0  0  0  0  0  0  0  # atno 10167 bound_to 10162
  157.1802  131.0630  151.2136 H   0  0  0  0  0  0  0  0  0  0  0  0  # atno 10718 bound_to 10713
  154.8142  135.4633  154.0598 H   0  0  0  0  0  0  0  0  0  0  0  0  # atno 10763 bound_to 10752
  153.2004  135.6868  153.8245 H   0  0  0  0  0  0  0  0  0  0  0  0  # atno 10764 bound_to 10752
  153.7731  135.3267  155.3332 H   0  0  0  0  0  0  0  0  0  0  0  0  # atno 10765 bound_to 10752
  140.2124  134.3738  155.8042 H   0  0  0  0  0  0  0  0  0  0  0  0  # atno 11005 bound_to 11000
  145.7988  140.9780  143.1009 LP  0  0  0  0  0  0  0  0  0  0  0  0  # atno 17320 bound_to 7965
  144.6823  139.9776  143.7483 LP  0  0  0  0  0  0  0  0  0  0  0  0  # atno 17321 bound_to 7965
  139.8074  144.7349  150.9743 LP  0  0  0  0  0  0  0  0  0  0  0  0  # atno 17342 bound_to 10162
  140.7820  143.4284  151.0732 LP  0  0  0  0  0  0  0  0  0  0  0  0  # atno 17343 bound_to 10162
  157.3960  130.7307  149.6732 LP  0  0  0  0  0  0  0  0  0  0  0  0  # atno 17370 bound_to 10713
  155.9725  130.4133  150.4078 LP  0  0  0  0  0  0  0  0  0  0  0  0  # atno 17371 bound_to 10713
  141.2226  133.7150  156.8441 LP  0  0  0  0  0  0  0  0  0  0  0  0  # atno 17394 bound_to 11000
  140.1936  134.8948  157.3089 LP  0  0  0  0  0  0  0  0  0  0  0  0  # atno 17395 bound_to 11000

$$$$
