#       Name:                AV-unprocessed.smi:3318
#       Creating user name   scv26
#       Creation time:       Fri Mar 27 19:10:34 2020


#       File generated by GOLD software.
#

@<TRIPOS>MOLECULE
AV-unprocessed.smi:3318
    46    47     1
SMALL
NO_CHARGES


@<TRIPOS>ATOM
      1 ****        -5.6926  -3.1877   1.5301 C.3            1 S1                 0.0000
      2 ****        -4.2171  -2.7863   1.4260 C.3            1 S1                 0.0000
      3 ****        -3.9003  -2.0590   0.1079 C.3            1 S1                 0.0000
      4 ****        -2.4513  -1.7755  -0.0526 N.4            1 S1                 1.0000
      5 ****        -1.9733  -0.6525   0.7973 C.3            1 S1                 0.0000
      6 ****        -0.4487  -0.4801   0.6893 C.3            1 S1                 0.0000
      7 ****        -0.0160  -0.2711  -0.7750 C.3            1 S1                 0.0000
      8 ****         1.4360  -0.2396  -0.8993 N.3            1 S1                 0.0000
      9 ****         1.9930   1.0408  -0.4872 C.3            1 S1                 0.0000
     10 ****         3.5155   1.0316  -0.6796 C.3            1 S1                 0.0000
     11 ****         4.1448   2.3491  -0.2681 C.ar           1 S1                 0.0000
     12 ****         4.5038   3.3104  -1.2369 C.ar           1 S1                 0.0000
     13 ****         5.0707   4.5234  -0.8004 C.ar           1 S1                 0.0000
     14 ****         5.2552   4.7278   0.5807 C.ar           1 S1                 0.0000
     15 ****         4.8632   3.7053   1.4675 C.ar           1 S1                 0.0000
     16 ****         4.3181   2.5389   1.0596 N.ar           1 S1                 0.0000
     17 ****        -0.5507  -1.4308  -1.6303 C.3            1 S1                 0.0000
     18 ****        -2.0731  -1.5765  -1.4754 C.3            1 S1                 0.0000
     19 ****        -5.8903  -3.6980   2.4730 H              1 S1                 0.0000
     20 ****        -5.9763  -3.8626   0.7223 H              1 S1                 0.0000
     21 ****        -6.3433  -2.3141   1.4821 H              1 S1                 0.0000
     22 ****        -3.9690  -2.1577   2.2805 H              1 S1                 0.0000
     23 ****        -3.5982  -3.6803   1.5085 H              1 S1                 0.0000
     24 ****        -4.2302  -2.6975  -0.7127 H              1 S1                 0.0000
     25 ****        -4.4730  -1.1338   0.0268 H              1 S1                 0.0000
     26 ****        -2.4751   0.2698   0.5001 H              1 S1                 0.0000
     27 ****        -2.2313  -0.8282   1.8408 H              1 S1                 0.0000
     28 ****        -0.1439   0.3641   1.3078 H              1 S1                 0.0000
     29 ****         0.0453  -1.3609   1.1029 H              1 S1                 0.0000
     30 ****        -0.4334   0.6621  -1.1572 H              1 S1                 0.0000
     31 ****         1.8520  -0.9910  -0.3673 H              1 S1                 0.0000
     32 ****         1.5486   1.8420  -1.0792 H              1 S1                 0.0000
     33 ****         1.7582   1.2364   0.5589 H              1 S1                 0.0000
     34 ****         3.9651   0.2282  -0.0937 H              1 S1                 0.0000
     35 ****         3.7615   0.8269  -1.7227 H              1 S1                 0.0000
     36 ****         4.3463   3.1264  -2.2896 H              1 S1                 0.0000
     37 ****         5.3570   5.2837  -1.5118 H              1 S1                 0.0000
     38 ****         5.6858   5.6460   0.9515 H              1 S1                 0.0000
     39 ****         4.9892   3.8282   2.5330 H              1 S1                 0.0000
     40 ****        -0.3037  -1.2669  -2.6802 H              1 S1                 0.0000
     41 ****        -0.0678  -2.3658  -1.3409 H              1 S1                 0.0000
     42 ****        -2.4103  -2.4264  -2.0699 H              1 S1                 0.0000
     43 ****        -2.5788  -0.6929  -1.8686 H              1 S1                 0.0000
     44 ****        -1.9631  -2.6052   0.2531 H              1 S1                 0.0000
     45 ****         1.6543  -0.3631  -1.8674 LP             1 S1                 0.0000
     46 ****         4.0507   1.8367   1.7195 LP             1 S1                 0.0000
@<TRIPOS>BOND
    1    1    2 1     
    2    1   19 1     
    3    1   20 1     
    4    1   21 1     
    5    2    3 1     
    6    2   22 1     
    7    2   23 1     
    8    3    4 1     
    9    3   24 1     
   10    3   25 1     
   11    4   18 1     
   12    4    5 1     
   13    4   44 1     
   14    5    6 1     
   15    5   26 1     
   16    5   27 1     
   17    6    7 1     
   18    6   28 1     
   19    6   29 1     
   20    7    8 1     
   21    7   17 1     
   22    7   30 1     
   23    8    9 1     
   24    8   31 1     
   25    9   10 1     
   26    9   32 1     
   27    9   33 1     
   28   10   11 1     
   29   10   34 1     
   30   10   35 1     
   31   11   16 ar    
   32   11   12 ar    
   33   12   13 ar    
   34   12   36 1     
   35   13   14 ar    
   36   13   37 1     
   37   14   15 ar    
   38   14   38 1     
   39   15   16 ar    
   40   15   39 1     
   41   17   18 1     
   42   17   40 1     
   43   17   41 1     
   44   18   42 1     
   45   18   43 1     
   46    8   45 1     
   47   16   46 1     
@<TRIPOS>SUBSTRUCTURE
      1 S1             1
@<TRIPOS>SET
LONE_PAIRS      STATIC     ATOMS    <user>   **** ""
2 45 46
DONOR_HYDROGENS      STATIC     ATOMS    <user>   **** ""
2 44 31
ATOM$BLUE        STATIC     ATOMS    COLORGROUP SYSTEM
2 45 46
ATOM$RED        STATIC     ATOMS    COLORGROUP SYSTEM
2 44 31
