AV-unprocessed.smi:1007|AV-procd|sdf|4400|dock7
  -GOLD-   22720 2333D 1   1.00000     0.00000
 Structure written by MMmdl.
 56 58  0  0  0  0  0  0  0  0  2 V2000
  146.7757  133.5291  151.8974 C   0  0  0  0  0  0  0  0  0  0  0  0
  147.3687  134.2650  152.9533 O   0  0  0  0  0  0  0  0  0  0  0  0
  146.4328  135.0781  153.6415 C   0  0  0  0  0  0  0  0  0  0  0  0
  147.1764  135.9140  154.6947 C   0  0  0  0  0  0  0  0  0  0  0  0
  147.9143  137.0581  154.1020 N   0  3  0  0  0  0  0  0  0  0  0  0
  148.9184  137.6642  155.0175 C   0  0  0  0  0  0  0  0  0  0  0  0
  149.6674  138.8149  154.3123 C   0  0  0  0  0  0  0  0  0  0  0  0
  148.7785  139.8559  153.7967 N   0  0  0  0  0  0  0  0  0  0  0  0
  148.1867  140.6745  154.8649 C   0  0  0  0  0  0  0  0  0  0  0  0
  149.0800  140.9741  156.0893 C   0  0  2  0  0  0  0  0  0  0  0  0
  148.4464  141.9051  156.9451 O   0  0  0  0  0  0  0  0  0  0  0  0
  150.5171  141.4120  155.7377 C   0  0  0  0  0  0  0  0  0  0  0  0
  151.4543  141.1503  156.8147 N   0  0  0  0  0  0  0  0  0  0  0  0
  152.3357  140.1351  156.8978 C   0  0  0  0  0  0  0  0  0  0  0  0
  153.1041  140.0835  157.9820 N   0  0  0  0  0  0  0  0  0  0  0  0
  152.6671  141.1919  158.6868 C   0  0  0  0  0  0  0  0  0  0  0  0
  153.0789  141.7054  159.9361 C   0  0  0  0  0  0  0  0  0  0  0  0
  152.4850  142.8702  160.4724 C   0  0  0  0  0  0  0  0  0  0  0  0
  152.9586  143.3874  161.8191 C   0  0  0  0  0  0  0  0  0  0  0  0
  151.4616  143.5408  159.7552 C   0  0  0  0  0  0  0  0  0  0  0  0
  150.8117  144.7960  160.3100 C   0  0  0  0  0  0  0  0  0  0  0  0
  151.0375  143.0407  158.5064 C   0  0  0  0  0  0  0  0  0  0  0  0
  151.6359  141.8807  157.9837 C   0  0  0  0  0  0  0  0  0  0  0  0
  147.8101  139.2275  152.8949 C   0  0  0  0  0  0  0  0  0  0  0  0
  147.0007  138.0986  153.5628 C   0  0  0  0  0  0  0  0  0  0  0  0
  147.5346  132.9241  151.4012 H   0  0  0  0  0  0  0  0  0  0  0  0
  146.3342  134.1925  151.1524 H   0  0  0  0  0  0  0  0  0  0  0  0
  146.0014  132.8576  152.2711 H   0  0  0  0  0  0  0  0  0  0  0  0
  145.9440  135.7473  152.9316 H   0  0  0  0  0  0  0  0  0  0  0  0
  145.6489  134.4696  154.0928 H   0  0  0  0  0  0  0  0  0  0  0  0
  146.4427  136.2858  155.4113 H   0  0  0  0  0  0  0  0  0  0  0  0
  147.8674  135.2867  155.2596 H   0  0  0  0  0  0  0  0  0  0  0  0
  148.4295  138.0179  155.9258 H   0  0  0  0  0  0  0  0  0  0  0  0
  149.6456  136.9149  155.3268 H   0  0  0  0  0  0  0  0  0  0  0  0
  150.3972  139.2542  154.9934 H   0  0  0  0  0  0  0  0  0  0  0  0
  150.2472  138.4025  153.4852 H   0  0  0  0  0  0  0  0  0  0  0  0
  147.7895  141.6084  154.4677 H   0  0  0  0  0  0  0  0  0  0  0  0
  147.3175  140.1364  155.2456 H   0  0  0  0  0  0  0  0  0  0  0  0
  149.1417  140.0512  156.6673 H   0  0  0  0  0  0  0  0  0  0  0  0
  148.6851  142.7765  156.6668 H   0  0  0  0  0  0  0  0  0  0  0  0
  150.8635  140.8840  154.8485 H   0  0  0  0  0  0  0  0  0  0  0  0
  150.5537  142.4764  155.5023 H   0  0  0  0  0  0  0  0  0  0  0  0
  152.4200  139.3936  156.1166 H   0  0  0  0  0  0  0  0  0  0  0  0
  153.8587  141.1945  160.4817 H   0  0  0  0  0  0  0  0  0  0  0  0
  152.1339  143.4094  162.5317 H   0  0  0  0  0  0  0  0  0  0  0  0
  153.3594  144.3965  161.7213 H   0  0  0  0  0  0  0  0  0  0  0  0
  153.7427  142.7545  162.2359 H   0  0  0  0  0  0  0  0  0  0  0  0
  150.0340  145.1694  159.6431 H   0  0  0  0  0  0  0  0  0  0  0  0
  151.5530  145.5856  160.4346 H   0  0  0  0  0  0  0  0  0  0  0  0
  150.3530  144.5943  161.2782 H   0  0  0  0  0  0  0  0  0  0  0  0
  150.2591  143.5413  157.9498 H   0  0  0  0  0  0  0  0  0  0  0  0
  147.1372  139.9730  152.4744 H   0  0  0  0  0  0  0  0  0  0  0  0
  148.3451  138.8127  152.0395 H   0  0  0  0  0  0  0  0  0  0  0  0
  146.3354  137.6508  152.8236 H   0  0  0  0  0  0  0  0  0  0  0  0
  146.3663  138.4904  154.3588 H   0  0  0  0  0  0  0  0  0  0  0  0
  148.4220  136.6929  153.3084 H   0  0  0  0  0  0  0  0  0  0  0  0
  1  2  1  0  0  0  0
  1 26  1  0  0  0  0
  1 27  1  0  0  0  0
  1 28  1  0  0  0  0
  2  3  1  0  0  0  0
  3  4  1  0  0  0  0
  3 29  1  0  0  0  0
  3 30  1  0  0  0  0
  4  5  1  0  0  0  0
  4 31  1  0  0  0  0
  4 32  1  0  0  0  0
  5 25  1  0  0  0  0
  5  6  1  0  0  0  0
  5 56  1  0  0  0  0
  6  7  1  0  0  0  0
  6 33  1  0  0  0  0
  6 34  1  0  0  0  0
  7  8  1  0  0  0  0
  7 35  1  0  0  0  0
  7 36  1  0  0  0  0
  8  9  1  0  0  0  0
  8 24  1  0  0  0  0
  9 10  1  0  0  0  0
  9 37  1  0  0  0  0
  9 38  1  0  0  0  0
 10 11  1  0  0  0  0
 10 12  1  0  0  0  0
 10 39  1  0  0  0  0
 11 40  1  0  0  0  0
 12 13  1  0  0  0  0
 12 41  1  0  0  0  0
 12 42  1  0  0  0  0
 13 23  1  0  0  0  0
 13 14  1  0  0  0  0
 14 15  2  0  0  0  0
 14 43  1  0  0  0  0
 15 16  1  0  0  0  0
 16 23  2  0  0  0  0
 16 17  1  0  0  0  0
 17 18  2  0  0  0  0
 17 44  1  0  0  0  0
 18 19  1  0  0  0  0
 18 20  1  0  0  0  0
 19 45  1  0  0  0  0
 19 46  1  0  0  0  0
 19 47  1  0  0  0  0
 20 21  1  0  0  0  0
 20 22  2  0  0  0  0
 21 48  1  0  0  0  0
 21 49  1  0  0  0  0
 21 50  1  0  0  0  0
 22 23  1  0  0  0  0
 22 51  1  0  0  0  0
 24 25  1  0  0  0  0
 24 52  1  0  0  0  0
 24 53  1  0  0  0  0
 25 54  1  0  0  0  0
 25 55  1  0  0  0  0
M  CHG  1   5   1
M  END
> <s_m_source_file>
AV-unprocessed.smi

> <i_m_source_file_index>
1007

> <i_lp_mmshare_version>
43012

> <i_f3d_flags>
0

> <s_epik_input>
W0NIM11PW0NIMl1bQ0gyXU4xW0NIMl1bQ0gyXU4oW0NIMl1bQ0gyXTEpW0NIMl1bQ0BIXShbT0hdKVtDSDJdbihbY0hdbjIpYyhjMjMpW2NIXWMoW0NIM10pYyhbY0hdMylbQ0gzXQ==

> <s_epik_cmdline>
J2VwaWtfcHl0aG9uJywgJy1waCcsICc3LjAnLCAnLXRuJywgJzgnLCAnLW1hJywgJzIwMCcsICctbWV0YWxfYmluZGluZycsICctaW1hZScsICc8aW5maWxlLm1hZT4nLCAnLW9tYWUnLCAnPG91dGZpbGUubWFlPic=

> <r_epik_Ionization_Penalty>
0.186009

> <r_epik_Ionization_Penalty_Charging>
0.0613973

> <r_epik_Ionization_Penalty_Neutral>
0.124612

> <r_epik_State_Penalty>
1.21927

> <r_epik_Charging_Adjusted_Penalty>
1.28067

> <i_epik_Tot_Q>
1

> <i_epik_Tot_abs_Q>
1

> <r_epik_Metal_State_Penalty>
1.13901

> <b_epik_Metal_Only>
0

> <s_lp_Force_Field>
OPLS_2005

> <r_lp_Energy>
39.6127

> <b_lp_Chiralities_Consistent>
1

> <s_lp_Variant>
AV-unprocessed.smi:1007-3

> <Gold.Version>
5.8.1

> <Gold.Id.Protein>
6NUR|6NUR_protein|mol2

> <Gold.PLP.Fitness>
51.9444

> <Gold.PLP.PLP>
-41.3515

> <Gold.PLP.part.hbond>
-3.0000

> <Gold.PLP.part.metal>
0.0000

> <Gold.PLP.part.buried>
-4.8368

> <Gold.PLP.part.nonpolar>
-35.1449

> <Gold.PLP.part.repulsive>
2.5873

> <Gold.PLP.ligand.clash>
0.0000

> <Gold.PLP.ligand.torsion>
0.8798

> <Gold.PLP.Chemscore.Hbond>
4.0000

> <Gold.PLP.Chemscore.CHOScore>
0.0000

> <Gold.PLP.Chemscore.Metal>
0.0000

> <Gold.Chemscore.Hbonds>
donor molecule, donor type, donor heavy atom, donor atom, acceptor molecule, acceptor atom, score
      L1  H     5    56       P1  7948  2.00
      L1  H    11    40       P1  8028  0.60
      P1  H  7997  8008       L1    15  0.30

> <Gold.PLP.Chemscore.Internal.Correction>
0.3525

> <Gold.Rescore>
     Score         DG    S(hbond)    S(metal)    S(lipo)     H(rot)  DE(clash)    DE(int)     intcor
     18.36     -20.96       2.43        0.00     119.08       2.56       1.60       1.00       ----

> <Gold.Chemscore.Fitness>
18.3620

> <Gold.Chemscore.DG>
-20.9620

> <Gold.Chemscore.ZeroCoef>
-5.4800

> <Gold.Chemscore.Hbond>
2.4258

> <Gold.Chemscore.Metal>
0.0000

> <Gold.Chemscore.Lipo>
119.0755

> <Gold.Chemscore.Internal_Hbond>
0.0000

> <Gold.Chemscore.DEClash>
1.5987

> <Gold.Chemscore.DEInternal>
1.0014

> <Gold.Chemscore.Rot>
2.5594

> <Gold.Chemscore.Internal.Correction>
   9.000000E+99

> <Gold.Chemscore.Hbonds>
donor molecule, donor type, donor heavy atom, donor atom, acceptor molecule, acceptor atom, score
      L1  H     5    56       P1  7948  0.99
      L1  H    11    40       P1  8028  0.56

> <Gold.Chemscore.Hbond.Weighted>
-8.1023

> <Gold.Chemscore.Metal.Weighted>
-0.0000

> <Gold.Chemscore.Lipo.Weighted>
-13.9318

> <Gold.Chemscore.Internal_Hbond.Weighted>
0.0000

> <Gold.Chemscore.DEClash.Weighted>
1.5987

> <Gold.Chemscore.DEInternal.Weighted>
1.0014

> <Gold.Chemscore.Rot.Weighted>
6.5522

> <Gold.Chemscore.Internal.Correction.Weighted>
   9.000000E+99

> <Gold.Protein.RotatedTorsions>
[ 6907 6896 6895 6894 ] final -142.66 input  -60.11 | X-H torsion
[ 7974 7965 7964 7962 ] final   -1.24 input  175.53 | X-H torsion
[ 8008 7997 7996 7995 ] final  -73.12 input   59.86 | X-H torsion
[ 10167 10162 10161 10158 ] final  120.09 input  -65.29 | X-H torsion
[ 10718 10713 10712 10709 ] final  -50.99 input   66.30 | X-H torsion
[ 10763 10752 10751 10750 ] final  173.82 input  -60.55 | X-H torsion
[ 11005 11000 10999 10996 ] final   26.62 input  -57.11 | X-H torsion

> <Gold.Protein.ActiveResidues>
 VAL166  LYS551  ARG553  GLY616  TRP617  ASP618  TYR619  PRO620  LYS621  CYS622 
 ASP623  PHE694  ASN695  SER759  ASP760  ASP761  ALA762  ILE779  LEU786  VAL792 
 PHE793  MET794  SER795  GLU796  ALA797  LYS798  CYS799  TRP800  GLU811  SER814 

> <Gold.Protein.RotatedAtoms>
  151.0900  133.5323  159.2615 H   0  0  0  0  0  0  0  0  0  0  0  0  # atno 6907 bound_to 6896
  151.2194  135.0512  159.8953 H   0  0  0  0  0  0  0  0  0  0  0  0  # atno 6908 bound_to 6896
  152.5433  134.0704  159.8245 H   0  0  0  0  0  0  0  0  0  0  0  0  # atno 6909 bound_to 6896
  146.2419  140.1390  142.8336 H   0  0  0  0  0  0  0  0  0  0  0  0  # atno 7974 bound_to 7965
  154.5221  140.0785  156.8191 H   0  0  0  0  0  0  0  0  0  0  0  0  # atno 8008 bound_to 7997
  155.3553  140.3415  155.4221 H   0  0  0  0  0  0  0  0  0  0  0  0  # atno 8009 bound_to 7997
  156.1692  140.1614  156.8464 H   0  0  0  0  0  0  0  0  0  0  0  0  # atno 8010 bound_to 7997
  139.6004  144.7055  151.3076 H   0  0  0  0  0  0  0  0  0  0  0  0  # atno 10167 bound_to 10162
  156.1751  130.4150  149.9589 H   0  0  0  0  0  0  0  0  0  0  0  0  # atno 10718 bound_to 10713
  154.4454  135.2763  155.1818 H   0  0  0  0  0  0  0  0  0  0  0  0  # atno 10763 bound_to 10752
  154.3667  135.6117  153.5722 H   0  0  0  0  0  0  0  0  0  0  0  0  # atno 10764 bound_to 10752
  152.9843  135.5847  154.4789 H   0  0  0  0  0  0  0  0  0  0  0  0  # atno 10765 bound_to 10752
  140.3350  134.2395  155.7697 H   0  0  0  0  0  0  0  0  0  0  0  0  # atno 11005 bound_to 11000
  145.0262  140.8834  143.5137 LP  0  0  0  0  0  0  0  0  0  0  0  0  # atno 17320 bound_to 7965
  145.1447  139.2551  143.5472 LP  0  0  0  0  0  0  0  0  0  0  0  0  # atno 17321 bound_to 7965
  140.7245  143.7042  150.7820 LP  0  0  0  0  0  0  0  0  0  0  0  0  # atno 17342 bound_to 10162
  140.0617  143.5148  152.2624 LP  0  0  0  0  0  0  0  0  0  0  0  0  # atno 17343 bound_to 10162
  156.7378  130.9068  151.3630 LP  0  0  0  0  0  0  0  0  0  0  0  0  # atno 17370 bound_to 10713
  157.6830  130.9158  150.0314 LP  0  0  0  0  0  0  0  0  0  0  0  0  # atno 17371 bound_to 10713
  141.2053  133.7862  157.0238 LP  0  0  0  0  0  0  0  0  0  0  0  0  # atno 17394 bound_to 11000
  140.0828  134.9638  157.1652 LP  0  0  0  0  0  0  0  0  0  0  0  0  # atno 17395 bound_to 11000

$$$$
