AV-unprocessed.smi:2171|AV-procd|sdf|8830|dock7
  -GOLD-   2272012 23D 1   1.00000     0.00000
 Structure written by MMmdl.
 39 41  0  0  0  0  0  0  0  0  2 V2000
  151.9012  136.3617  156.0512 O   0  0  0  0  0  0  0  0  0  0  0  0
  151.2849  137.1908  155.3829 C   0  0  0  0  0  0  0  0  0  0  0  0
  151.9894  138.4642  154.9060 C   0  0  0  0  0  0  0  0  0  0  0  0
  151.5273  139.6416  155.6221 N   0  0  0  0  0  0  0  0  0  0  0  0
  151.7573  139.9904  156.9370 C   0  0  0  0  0  0  0  0  0  0  0  0
  151.1187  141.1763  157.1610 C   0  0  0  0  0  0  0  0  0  0  0  0
  150.5201  141.4805  155.9065 C   0  0  0  0  0  0  0  0  0  0  0  0
  150.7667  140.5610  154.9876 N   0  0  0  0  0  0  0  0  0  0  0  0
  149.9911  137.0525  155.0498 N   0  0  0  0  0  0  0  0  0  0  0  0
  149.1552  135.8956  155.3640 C   0  0  2  0  0  0  0  0  0  0  0  0
  149.6903  134.5880  154.7490 C   0  0  0  0  0  0  0  0  0  0  0  0
  148.4418  133.8547  154.2485 C   0  0  0  0  0  0  0  0  0  0  0  0
  147.5546  134.9524  153.8467 N   0  3  1  0  0  0  0  0  0  0  0  0
  146.1445  134.6424  153.5365 C   0  0  0  0  0  0  0  0  0  0  0  0
  145.4792  135.9140  152.9674 C   0  0  0  0  0  0  0  0  0  0  0  0
  145.6769  137.1407  153.8870 C   0  0  0  0  0  0  0  0  0  0  0  0
  147.1577  137.3323  154.2813 C   0  0  0  0  0  0  0  0  0  0  0  0
  147.6965  136.0117  154.8608 C   0  0  2  0  0  0  0  0  0  0  0  0
  153.0654  138.3602  155.0504 H   0  0  0  0  0  0  0  0  0  0  0  0
  151.8212  138.6108  153.8378 H   0  0  0  0  0  0  0  0  0  0  0  0
  152.3485  139.3723  157.5968 H   0  0  0  0  0  0  0  0  0  0  0  0
  151.0857  141.7420  158.0804 H   0  0  0  0  0  0  0  0  0  0  0  0
  149.9181  142.3361  155.6383 H   0  0  0  0  0  0  0  0  0  0  0  0
  149.5668  137.7877  154.5028 H   0  0  0  0  0  0  0  0  0  0  0  0
  149.1322  135.7652  156.4479 H   0  0  0  0  0  0  0  0  0  0  0  0
  150.3422  134.8069  153.9015 H   0  0  0  0  0  0  0  0  0  0  0  0
  150.2654  133.9934  155.4597 H   0  0  0  0  0  0  0  0  0  0  0  0
  148.6543  133.1762  153.4218 H   0  0  0  0  0  0  0  0  0  0  0  0
  147.9813  133.2843  155.0569 H   0  0  0  0  0  0  0  0  0  0  0  0
  146.0966  133.8338  152.8064 H   0  0  0  0  0  0  0  0  0  0  0  0
  145.6281  134.2997  154.4343 H   0  0  0  0  0  0  0  0  0  0  0  0
  145.9074  136.1323  151.9880 H   0  0  0  0  0  0  0  0  0  0  0  0
  144.4157  135.7375  152.8034 H   0  0  0  0  0  0  0  0  0  0  0  0
  145.3003  138.0397  153.3985 H   0  0  0  0  0  0  0  0  0  0  0  0
  145.0790  137.0100  154.7901 H   0  0  0  0  0  0  0  0  0  0  0  0
  147.7413  137.6332  153.4103 H   0  0  0  0  0  0  0  0  0  0  0  0
  147.2409  138.1351  155.0146 H   0  0  0  0  0  0  0  0  0  0  0  0
  147.0623  135.7392  155.7073 H   0  0  0  0  0  0  0  0  0  0  0  0
  147.9574  135.3246  152.9986 H   0  0  0  0  0  0  0  0  0  0  0  0
  1  2  2  0  0  0  0
  2  3  1  0  0  0  0
  2  9  1  0  0  0  0
  3  4  1  0  0  0  0
  3 19  1  0  0  0  0
  3 20  1  0  0  0  0
  4  8  1  0  0  0  0
  4  5  1  0  0  0  0
  5  6  2  0  0  0  0
  5 21  1  0  0  0  0
  6  7  1  0  0  0  0
  6 22  1  0  0  0  0
  7  8  2  0  0  0  0
  7 23  1  0  0  0  0
  9 10  1  0  0  0  0
  9 24  1  0  0  0  0
 10 18  1  0  0  0  0
 10 11  1  0  0  0  0
 10 25  1  0  0  0  0
 11 12  1  0  0  0  0
 11 26  1  0  0  0  0
 11 27  1  0  0  0  0
 12 13  1  0  0  0  0
 12 28  1  0  0  0  0
 12 29  1  0  0  0  0
 13 18  1  0  0  0  0
 13 14  1  0  0  0  0
 13 39  1  0  0  0  0
 14 15  1  0  0  0  0
 14 30  1  0  0  0  0
 14 31  1  0  0  0  0
 15 16  1  0  0  0  0
 15 32  1  0  0  0  0
 15 33  1  0  0  0  0
 16 17  1  0  0  0  0
 16 34  1  0  0  0  0
 16 35  1  0  0  0  0
 17 18  1  0  0  0  0
 17 36  1  0  0  0  0
 17 37  1  0  0  0  0
 18 38  1  0  0  0  0
M  CHG  1  13   1
M  END
> <s_m_source_file>
AV-unprocessed.smi

> <i_m_source_file_index>
2171

> <i_lp_mmshare_version>
43012

> <i_f3d_flags>
0

> <s_epik_input>
bjFbY0hdW2NIXVtjSF1uMVtDSDJdQyg9TylbTkhdW0NASF0oW0NIMl1bQ0gyXTIpW0NAQEhdKE4yMylbQ0gyXVtDSDJdW0NIMl1bQ0gyXTM=

> <s_epik_cmdline>
J2VwaWtfcHl0aG9uJywgJy1waCcsICc3LjAnLCAnLXRuJywgJzgnLCAnLW1hJywgJzIwMCcsICctbWV0YWxfYmluZGluZycsICctaW1hZScsICc8aW5maWxlLm1hZT4nLCAnLW9tYWUnLCAnPG91dGZpbGUubWFlPic=

> <r_lp_tautomer_probability>
1

> <r_epik_Ionization_Penalty>
0.00204179

> <r_epik_Ionization_Penalty_Charging>
0.00203239

> <r_epik_Ionization_Penalty_Neutral>
9.40205e-06

> <r_epik_State_Penalty>
0.00138983

> <r_epik_Charging_Adjusted_Penalty>
0.00342221

> <i_epik_Tot_Q>
1

> <i_epik_Tot_abs_Q>
1

> <r_epik_Metal_State_Penalty>
-0

> <b_epik_Metal_Only>
0

> <s_lp_Force_Field>
OPLS_2005

> <r_lp_Energy>
41.8247

> <b_lp_Chiralities_Consistent>
1

> <s_lp_Variant>
AV-unprocessed.smi:2171-5

> <Gold.Version>
5.8.1

> <Gold.Id.Protein>
6NUR|6NUR_protein|mol2

> <Gold.PLP.Fitness>
40.2388

> <Gold.PLP.PLP>
-25.8330

> <Gold.PLP.part.hbond>
-3.0000

> <Gold.PLP.part.metal>
0.0000

> <Gold.PLP.part.buried>
-1.7905

> <Gold.PLP.part.nonpolar>
-21.1322

> <Gold.PLP.part.repulsive>
0.1390

> <Gold.PLP.ligand.clash>
0.0000

> <Gold.PLP.ligand.torsion>
0.2218

> <Gold.PLP.Chemscore.Hbond>
3.9840

> <Gold.PLP.Chemscore.CHOScore>
0.9652

> <Gold.PLP.Chemscore.Metal>
0.0000

> <Gold.Chemscore.Hbonds>
donor molecule, donor type, donor heavy atom, donor atom, acceptor molecule, acceptor atom, score
      L1  H    13    39       P1  7948  2.00
      P1  H  7989  7998       L1     8  0.99
      P1  H 10752 10765       L1     1  0.90
      L1  C     7    23       P1  8028  0.84

> <Gold.PLP.Chemscore.Internal.Correction>
0.0016

> <Gold.Rescore>
     Score         DG    S(hbond)    S(metal)    S(lipo)     H(rot)  DE(clash)    DE(int)     intcor
     15.21     -15.48       2.32        0.00      50.86       1.44       0.05       0.22       ----

> <Gold.Chemscore.Fitness>
15.2066

> <Gold.Chemscore.DG>
-15.4769

> <Gold.Chemscore.ZeroCoef>
-5.4800

> <Gold.Chemscore.Hbond>
2.3160

> <Gold.Chemscore.Metal>
0.0000

> <Gold.Chemscore.Lipo>
50.8598

> <Gold.Chemscore.Internal_Hbond>
0.0000

> <Gold.Chemscore.DEClash>
0.0543

> <Gold.Chemscore.DEInternal>
0.2161

> <Gold.Chemscore.Rot>
1.4410

> <Gold.Chemscore.Internal.Correction>
   9.000000E+99

> <Gold.Chemscore.Hbonds>
donor molecule, donor type, donor heavy atom, donor atom, acceptor molecule, acceptor atom, score
      L1  H    13    39       P1  7948  1.00
      P1  H  7989  7998       L1     8  0.42
      P1  H 10752 10765       L1     1  0.20

> <Gold.Chemscore.Hbond.Weighted>
-7.7353

> <Gold.Chemscore.Metal.Weighted>
-0.0000

> <Gold.Chemscore.Lipo.Weighted>
-5.9506

> <Gold.Chemscore.Internal_Hbond.Weighted>
0.0000

> <Gold.Chemscore.DEClash.Weighted>
0.0543

> <Gold.Chemscore.DEInternal.Weighted>
0.2161

> <Gold.Chemscore.Rot.Weighted>
3.6889

> <Gold.Chemscore.Internal.Correction.Weighted>
   9.000000E+99

> <Gold.Protein.RotatedTorsions>
[ 6907 6896 6895 6894 ] final -161.12 input  -60.11 | X-H torsion
[ 7974 7965 7964 7962 ] final   31.66 input  175.53 | X-H torsion
[ 8008 7997 7996 7995 ] final  -14.40 input   59.86 | X-H torsion
[ 10167 10162 10161 10158 ] final  -21.50 input  -65.29 | X-H torsion
[ 10718 10713 10712 10709 ] final -105.78 input   66.30 | X-H torsion
[ 10763 10752 10751 10750 ] final -177.76 input  -60.55 | X-H torsion
[ 11005 11000 10999 10996 ] final -163.32 input  -57.11 | X-H torsion

> <Gold.Protein.ActiveResidues>
 VAL166  LYS551  ARG553  GLY616  TRP617  ASP618  TYR619  PRO620  LYS621  CYS622 
 ASP623  PHE694  ASN695  SER759  ASP760  ASP761  ALA762  ILE779  LEU786  VAL792 
 PHE793  MET794  SER795  GLU796  ALA797  LYS798  CYS799  TRP800  GLU811  SER814 

> <Gold.Protein.RotatedAtoms>
  151.3597  133.3894  159.2688 H   0  0  0  0  0  0  0  0  0  0  0  0  # atno 6907 bound_to 6896
  150.9736  134.9105  159.7813 H   0  0  0  0  0  0  0  0  0  0  0  0  # atno 6908 bound_to 6896
  152.5193  134.3559  159.9320 H   0  0  0  0  0  0  0  0  0  0  0  0  # atno 6909 bound_to 6896
  146.1536  139.6627  142.9082 H   0  0  0  0  0  0  0  0  0  0  0  0  # atno 7974 bound_to 7965
  154.5213  140.2224  155.8971 H   0  0  0  0  0  0  0  0  0  0  0  0  # atno 8008 bound_to 7997
  156.1665  140.3131  155.8862 H   0  0  0  0  0  0  0  0  0  0  0  0  # atno 8009 bound_to 7997
  155.3646  140.0463  157.3037 H   0  0  0  0  0  0  0  0  0  0  0  0  # atno 8010 bound_to 7997
  140.7282  143.4622  151.0364 H   0  0  0  0  0  0  0  0  0  0  0  0  # atno 10167 bound_to 10162
  156.0361  130.5580  150.7587 H   0  0  0  0  0  0  0  0  0  0  0  0  # atno 10718 bound_to 10713
  154.5562  135.2816  155.0963 H   0  0  0  0  0  0  0  0  0  0  0  0  # atno 10763 bound_to 10752
  154.2389  135.6360  153.5204 H   0  0  0  0  0  0  0  0  0  0  0  0  # atno 10764 bound_to 10752
  153.0016  135.5555  154.6142 H   0  0  0  0  0  0  0  0  0  0  0  0  # atno 10765 bound_to 10752
  140.5994  134.4963  157.5203 H   0  0  0  0  0  0  0  0  0  0  0  0  # atno 11005 bound_to 11000
  145.4764  141.0437  143.2670 LP  0  0  0  0  0  0  0  0  0  0  0  0  # atno 17320 bound_to 7965
  144.7935  139.6282  143.7103 LP  0  0  0  0  0  0  0  0  0  0  0  0  # atno 17321 bound_to 7965
  139.8307  143.7694  152.3179 LP  0  0  0  0  0  0  0  0  0  0  0  0  # atno 17342 bound_to 10162
  139.7809  144.7445  151.0089 LP  0  0  0  0  0  0  0  0  0  0  0  0  # atno 17343 bound_to 10162
  157.5112  131.0925  151.0196 LP  0  0  0  0  0  0  0  0  0  0  0  0  # atno 17370 bound_to 10713
  157.0550  130.5802  149.5376 LP  0  0  0  0  0  0  0  0  0  0  0  0  # atno 17371 bound_to 10713
  139.9239  134.8094  156.1127 LP  0  0  0  0  0  0  0  0  0  0  0  0  # atno 17394 bound_to 11000
  141.0882  133.6725  156.2483 LP  0  0  0  0  0  0  0  0  0  0  0  0  # atno 17395 bound_to 11000

$$$$
