#       Name:                AV-unprocessed.smi:1093
#       Creating user name   scv26
#       Creation time:       Fri Mar 27 03:27:32 2020


#       File generated by GOLD software.
#

@<TRIPOS>MOLECULE
AV-unprocessed.smi:1093
    50    51     1
SMALL
NO_CHARGES


@<TRIPOS>ATOM
      1 ****        -5.8041   0.1881  -2.5742 C.3            1 S1                 0.0000
      2 ****        -5.9544   0.2968  -1.0498 C.3            1 S1                 0.0000
      3 ****        -4.7752   0.9268  -0.4037 N.4            1 S1                 1.0000
      4 ****        -5.1020   1.4856   0.9340 C.3            1 S1                 0.0000
      5 ****        -3.9084   2.2564   1.5214 C.3            1 S1                 0.0000
      6 ****        -2.6593   1.3691   1.5934 C.3            1 S1                 0.0000
      7 ****        -2.3560   0.7727   0.2077 C.3            1 S1                 0.0000
      8 ****        -1.2174  -0.1396   0.2762 N.am           1 S1                 0.0000
      9 ****         0.0699   0.2252   0.1846 C.2            1 S1                 0.0000
     10 ****         0.4339   1.3912   0.0354 O.2            1 S1                 0.0000
     11 ****         0.8882  -0.8359   0.2961 N.am           1 S1                 0.0000
     12 ****         2.3075  -0.8710   0.2183 C.ar           1 S1                 0.0000
     13 ****         2.9680  -2.0078   0.7294 C.ar           1 S1                 0.0000
     14 ****         4.3736  -2.0951   0.6590 C.ar           1 S1                 0.0000
     15 ****         5.1167  -1.0443   0.0672 C.ar           1 S1                 0.0000
     16 ****         6.5243  -1.0586  -0.0425 N.pl3          1 S1                 0.0000
     17 ****         7.2157   0.0873  -0.6225 C.3            1 S1                 0.0000
     18 ****         7.2849  -2.1481   0.5559 C.3            1 S1                 0.0000
     19 ****         4.4365   0.0216  -0.4210 N.pl3          1 S1                 1.0000
     20 ****         3.0926   0.1473  -0.3729 C.ar           1 S1                 0.0000
     21 ****        -3.5888   0.0309  -0.3437 C.3            1 S1                 0.0000
     22 ****        -6.7243  -0.1867  -3.0230 H              1 S1                 0.0000
     23 ****        -5.0055  -0.4950  -2.8613 H              1 S1                 0.0000
     24 ****        -5.5935   1.1607  -3.0201 H              1 S1                 0.0000
     25 ****        -6.8392   0.9023  -0.8488 H              1 S1                 0.0000
     26 ****        -6.1453  -0.6830  -0.6095 H              1 S1                 0.0000
     27 ****        -5.9560   2.1593   0.8551 H              1 S1                 0.0000
     28 ****        -5.3964   0.6774   1.6056 H              1 S1                 0.0000
     29 ****        -3.7000   3.1331   0.9065 H              1 S1                 0.0000
     30 ****        -4.1580   2.6287   2.5154 H              1 S1                 0.0000
     31 ****        -1.8109   1.9522   1.9536 H              1 S1                 0.0000
     32 ****        -2.8198   0.5698   2.3185 H              1 S1                 0.0000
     33 ****        -2.1194   1.5860  -0.4817 H              1 S1                 0.0000
     34 ****        -1.4258  -1.1190   0.4059 H              1 S1                 0.0000
     35 ****         0.4441  -1.7201   0.4972 H              1 S1                 0.0000
     36 ****         2.4036  -2.8122   1.1784 H              1 S1                 0.0000
     37 ****         4.8588  -2.9723   1.0599 H              1 S1                 0.0000
     38 ****         6.8808   0.2604  -1.6458 H              1 S1                 0.0000
     39 ****         8.2939  -0.0711  -0.6483 H              1 S1                 0.0000
     40 ****         7.0235   0.9870  -0.0369 H              1 S1                 0.0000
     41 ****         7.0148  -3.1012   0.1001 H              1 S1                 0.0000
     42 ****         7.0921  -2.2051   1.6279 H              1 S1                 0.0000
     43 ****         8.3570  -2.0066   0.4176 H              1 S1                 0.0000
     44 ****         2.7079   1.0511  -0.8208 H              1 S1                 0.0000
     45 ****        -3.8207  -0.8359   0.2780 H              1 S1                 0.0000
     46 ****        -3.3558  -0.3477  -1.3386 H              1 S1                 0.0000
     47 ****        -4.5207   1.7151  -0.9820 H              1 S1                 0.0000
     48 ****         4.9708   0.7754  -0.8533 H              1 S1                 0.0000
     49 ****        -0.2449   2.1232  -0.0235 LP             1 S1                 0.0000
     50 ****         1.4084   1.6067  -0.0269 LP             1 S1                 0.0000
@<TRIPOS>BOND
    1    1    2 1     
    2    1   22 1     
    3    1   23 1     
    4    1   24 1     
    5    2    3 1     
    6    2   25 1     
    7    2   26 1     
    8    3   21 1     
    9    3    4 1     
   10    3   47 1     
   11    4    5 1     
   12    4   27 1     
   13    4   28 1     
   14    5    6 1     
   15    5   29 1     
   16    5   30 1     
   17    6    7 1     
   18    6   31 1     
   19    6   32 1     
   20    7    8 1     
   21    7   21 1     
   22    7   33 1     
   23    8    9 am    
   24    8   34 1     
   25    9   10 2     
   26    9   11 am    
   27   11   12 1     
   28   11   35 1     
   29   12   20 ar    
   30   12   13 ar    
   31   13   14 ar    
   32   13   36 1     
   33   14   15 ar    
   34   14   37 1     
   35   15   16 1     
   36   15   19 ar    
   37   16   17 1     
   38   16   18 1     
   39   17   38 1     
   40   17   39 1     
   41   17   40 1     
   42   18   41 1     
   43   18   42 1     
   44   18   43 1     
   45   19   20 ar    
   46   19   48 1     
   47   20   44 1     
   48   21   45 1     
   49   21   46 1     
   50   10   49 1     
   51   10   50 1     
@<TRIPOS>SUBSTRUCTURE
      1 S1             1
@<TRIPOS>SET
LONE_PAIRS      STATIC     ATOMS    <user>   **** ""
2 49 50
DONOR_HYDROGENS      STATIC     ATOMS    <user>   **** ""
4 47 34 35 48
ATOM$BLUE        STATIC     ATOMS    COLORGROUP SYSTEM
2 49 50
ATOM$RED        STATIC     ATOMS    COLORGROUP SYSTEM
4 47 34 35 48
