#       Name:                AV-unprocessed.smi:164
#       Creating user name   scv26
#       Creation time:       Thu Mar 26 19:11:48 2020


#       File generated by GOLD software.
#

@<TRIPOS>MOLECULE
AV-unprocessed.smi:164
    63    65     1
SMALL
NO_CHARGES


@<TRIPOS>ATOM
      1 ****        -3.2515   5.7392   2.8141 C.3            1 S1                 0.0000
      2 ****        -2.8458   4.9138   1.6051 C.ar           1 S1                 0.0000
      3 ****        -2.7813   5.5379   0.3424 C.ar           1 S1                 0.0000
      4 ****        -2.4147   4.8018  -0.7980 C.ar           1 S1                 0.0000
      5 ****        -2.0971   3.4344  -0.6862 C.ar           1 S1                 0.0000
      6 ****        -1.7075   2.6507  -1.9261 C.3            1 S1                 0.0000
      7 ****        -2.1412   2.8040   0.5784 C.ar           1 S1                 0.0000
      8 ****        -1.8192   1.4755   0.6777 O.3            1 S1                 0.0000
      9 ****        -0.4549   1.2450   1.0044 C.3            1 S1                 0.0000
     10 ****        -0.1888  -0.2641   1.1188 C.3            1 S1                 0.0000
     11 ****        -0.6947  -0.6932   2.3668 O.3            1 S1                 0.0000
     12 ****        -0.8240  -1.0748  -0.0326 C.3            1 S1                 0.0000
     13 ****        -0.1113  -2.3068  -0.3264 N.am           1 S1                 0.0000
     14 ****        -0.5532  -3.4950   0.3044 C.2            1 S1                 0.0000
     15 ****        -1.5123  -3.5102   1.0778 O.2            1 S1                 0.0000
     16 ****         0.2264  -4.6823  -0.0282 C.2            1 S1                 0.0000
     17 ****        -0.1168  -5.8703   0.4977 F              1 S1                 0.0000
     18 ****         1.2909  -4.6100  -0.8565 C.2            1 S1                 0.0000
     19 ****         1.7181  -3.4263  -1.4367 N.am           1 S1                 0.0000
     20 ****         2.9209  -3.3680  -2.3555 C.3            1 S1                 0.0000
     21 ****         4.1095  -2.6842  -1.6524 C.3            1 S1                 0.0000
     22 ****         5.2334  -3.6837  -1.8427 C.3            1 S1                 0.0000
     23 ****         4.4765  -5.0015  -1.9098 C.3            1 S1                 0.0000
     24 ****         3.3326  -4.6646  -2.6838 O.3            1 S1                 0.0000
     25 ****         1.0114  -2.2302  -1.1842 C.2            1 S1                 0.0000
     26 ****         1.3762  -1.1640  -1.6864 O.2            1 S1                 0.0000
     27 ****        -2.5354   3.5363   1.7266 C.ar           1 S1                 0.0000
     28 ****        -2.6231   2.8469   3.0819 C.3            1 S1                 0.0000
     29 ****        -3.3116   6.7998   2.5686 H              1 S1                 0.0000
     30 ****        -2.5261   5.6259   3.6201 H              1 S1                 0.0000
     31 ****        -4.2292   5.4231   3.1787 H              1 S1                 0.0000
     32 ****        -3.0186   6.5869   0.2407 H              1 S1                 0.0000
     33 ****        -2.3775   5.2929  -1.7594 H              1 S1                 0.0000
     34 ****        -2.2047   1.6803  -1.9416 H              1 S1                 0.0000
     35 ****        -0.6302   2.4862  -1.9475 H              1 S1                 0.0000
     36 ****        -1.9876   3.1844  -2.8348 H              1 S1                 0.0000
     37 ****         0.1707   1.6548   0.2103 H              1 S1                 0.0000
     38 ****        -0.1720   1.7603   1.9240 H              1 S1                 0.0000
     39 ****         0.8918  -0.4123   1.1355 H              1 S1                 0.0000
     40 ****        -0.5408  -1.6220   2.4502 H              1 S1                 0.0000
     41 ****        -1.8747  -1.3083   0.1483 H              1 S1                 0.0000
     42 ****        -0.8358  -0.4973  -0.9590 H              1 S1                 0.0000
     43 ****         1.8187  -5.5289  -1.0600 H              1 S1                 0.0000
     44 ****         2.5781  -2.8558  -3.2564 H              1 S1                 0.0000
     45 ****         4.3202  -1.7114  -2.0977 H              1 S1                 0.0000
     46 ****         3.8958  -2.5499  -0.5907 H              1 S1                 0.0000
     47 ****         5.7449  -3.4984  -2.7881 H              1 S1                 0.0000
     48 ****         5.9715  -3.6554  -1.0407 H              1 S1                 0.0000
     49 ****         5.0559  -5.7992  -2.3747 H              1 S1                 0.0000
     50 ****         4.1765  -5.3280  -0.9131 H              1 S1                 0.0000
     51 ****        -2.6178   1.7607   2.9942 H              1 S1                 0.0000
     52 ****        -3.5435   3.1186   3.5983 H              1 S1                 0.0000
     53 ****        -1.7788   3.1387   3.7065 H              1 S1                 0.0000
     54 ****        -2.0130   1.0365  -0.1997 LP             1 S1                 0.0000
     55 ****        -2.3888   1.0641   1.3892 LP             1 S1                 0.0000
     56 ****        -1.6763  -0.5086   2.4142 LP             1 S1                 0.0000
     57 ****        -0.2279  -0.2065   3.1051 LP             1 S1                 0.0000
     58 ****        -2.0066  -2.6643   1.2780 LP             1 S1                 0.0000
     59 ****        -1.7963  -4.3685   1.5052 LP             1 S1                 0.0000
     60 ****         3.5624  -4.7065  -3.6562 LP             1 S1                 0.0000
     61 ****         2.5942  -5.3098  -2.4878 LP             1 S1                 0.0000
     62 ****         0.8741  -0.3216  -1.4910 LP             1 S1                 0.0000
     63 ****         2.1740  -1.1423  -2.2890 LP             1 S1                 0.0000
@<TRIPOS>BOND
    1    1    2 1     
    2    1   29 1     
    3    1   30 1     
    4    1   31 1     
    5    2   27 ar    
    6    2    3 ar    
    7    3    4 ar    
    8    3   32 1     
    9    4    5 ar    
   10    4   33 1     
   11    5    6 1     
   12    5    7 ar    
   13    6   34 1     
   14    6   35 1     
   15    6   36 1     
   16    7    8 1     
   17    7   27 ar    
   18    8    9 1     
   19    9   10 1     
   20    9   37 1     
   21    9   38 1     
   22   10   11 1     
   23   10   12 1     
   24   10   39 1     
   25   11   40 1     
   26   12   13 1     
   27   12   41 1     
   28   12   42 1     
   29   13   25 am    
   30   13   14 am    
   31   14   15 2     
   32   14   16 1     
   33   16   17 1     
   34   16   18 2     
   35   18   19 1     
   36   18   43 1     
   37   19   20 1     
   38   19   25 am    
   39   20   24 1     
   40   20   21 1     
   41   20   44 1     
   42   21   22 1     
   43   21   45 1     
   44   21   46 1     
   45   22   23 1     
   46   22   47 1     
   47   22   48 1     
   48   23   24 1     
   49   23   49 1     
   50   23   50 1     
   51   25   26 2     
   52   27   28 1     
   53   28   51 1     
   54   28   52 1     
   55   28   53 1     
   56    8   54 1     
   57    8   55 1     
   58   11   56 1     
   59   11   57 1     
   60   15   58 1     
   61   15   59 1     
   62   24   60 1     
   63   24   61 1     
   64   26   62 1     
   65   26   63 1     
@<TRIPOS>SUBSTRUCTURE
      1 S1             1
@<TRIPOS>SET
LONE_PAIRS      STATIC     ATOMS    <user>   **** ""
10 54 55 56 57 58 59 60 61 62 63
DONOR_HYDROGENS      STATIC     ATOMS    <user>   **** ""
1 40
ATOM$BLUE        STATIC     ATOMS    COLORGROUP SYSTEM
10 54 55 56 57 58 59 60 61 62 63
ATOM$RED        STATIC     ATOMS    COLORGROUP SYSTEM
1 40
