AV-unprocessed.smi:3068|AV-procd|sdf|11698|dock5
  -GOLD-   2272017103D 1   1.00000     0.00000
 Structure written by MMmdl.
 40 42  0  0  0  0  0  0  0  0  2 V2000
  151.5687  137.3090  154.3779 N   0  0  0  0  0  0  0  0  0  0  0  0
  150.8046  138.1768  154.3283 C   0  0  0  0  0  0  0  0  0  0  0  0
  149.8438  139.2708  154.2658 C   0  0  0  0  0  0  0  0  0  0  0  0
  150.3273  140.5170  154.4764 N   0  0  0  0  0  0  0  0  0  0  0  0
  149.4481  141.5396  154.4179 C   0  0  0  0  0  0  0  0  0  0  0  0
  148.0830  141.3238  154.1473 C   0  0  0  0  0  0  0  0  0  0  0  0
  147.5921  140.0843  153.9348 N   0  0  0  0  0  0  0  0  0  0  0  0
  148.4647  139.0469  153.9919 C   0  0  0  0  0  0  0  0  0  0  0  0
  147.9681  137.7477  153.7760 N   0  0  0  0  0  0  0  0  0  0  0  0
  146.7405  137.2744  154.4045 C   0  0  0  0  0  0  0  0  0  0  0  0
  146.0043  136.2329  153.5449 C   0  0  2  0  0  0  0  0  0  0  0  0
  146.7750  134.9018  153.4835 C   0  0  0  0  0  0  0  0  0  0  0  0
  146.0847  133.9408  152.5930 N   0  3  2  0  0  0  0  0  0  0  0  0
  146.7719  132.6258  152.5381 C   0  0  0  0  0  0  0  0  0  0  0  0
  145.9804  131.6237  151.6831 C   0  0  0  0  0  0  0  0  0  0  0  0
  145.7392  132.1802  150.2739 C   0  0  0  0  0  0  0  0  0  0  0  0
  145.0533  133.5505  150.3599 C   0  0  0  0  0  0  0  0  0  0  0  0
  145.8582  134.5246  151.2429 C   0  0  1  0  0  0  0  0  0  0  0  0
  145.1442  135.8846  151.3720 C   0  0  0  0  0  0  0  0  0  0  0  0
  145.8924  136.7449  152.2212 O   0  0  0  0  0  0  0  0  0  0  0  0
  149.8353  142.5336  154.5865 H   0  0  0  0  0  0  0  0  0  0  0  0
  147.3844  142.1461  154.1011 H   0  0  0  0  0  0  0  0  0  0  0  0
  148.4143  137.1553  153.0898 H   0  0  0  0  0  0  0  0  0  0  0  0
  146.9940  136.8425  155.3729 H   0  0  0  0  0  0  0  0  0  0  0  0
  146.0896  138.1240  154.6138 H   0  0  0  0  0  0  0  0  0  0  0  0
  145.0091  136.0529  153.9556 H   0  0  0  0  0  0  0  0  0  0  0  0
  147.7907  135.0705  153.1219 H   0  0  0  0  0  0  0  0  0  0  0  0
  146.8572  134.4750  154.4839 H   0  0  0  0  0  0  0  0  0  0  0  0
  147.7765  132.7542  152.1317 H   0  0  0  0  0  0  0  0  0  0  0  0
  146.8861  132.2316  153.5488 H   0  0  0  0  0  0  0  0  0  0  0  0
  146.5182  130.6770  151.6237 H   0  0  0  0  0  0  0  0  0  0  0  0
  145.0244  131.4077  152.1620 H   0  0  0  0  0  0  0  0  0  0  0  0
  146.6891  132.2747  149.7461 H   0  0  0  0  0  0  0  0  0  0  0  0
  145.1272  131.4879  149.6951 H   0  0  0  0  0  0  0  0  0  0  0  0
  144.9328  133.9645  149.3581 H   0  0  0  0  0  0  0  0  0  0  0  0
  144.0479  133.4276  150.7657 H   0  0  0  0  0  0  0  0  0  0  0  0
  146.8324  134.6921  150.7794 H   0  0  0  0  0  0  0  0  0  0  0  0
  145.0528  136.3563  150.3932 H   0  0  0  0  0  0  0  0  0  0  0  0
  144.1318  135.7641  151.7615 H   0  0  0  0  0  0  0  0  0  0  0  0
  145.1727  133.7760  152.9946 H   0  0  0  0  0  0  0  0  0  0  0  0
  1  2  3  0  0  0  0
  2  3  1  0  0  0  0
  3  8  1  0  0  0  0
  3  4  2  0  0  0  0
  4  5  1  0  0  0  0
  5  6  2  0  0  0  0
  5 21  1  0  0  0  0
  6  7  1  0  0  0  0
  6 22  1  0  0  0  0
  7  8  2  0  0  0  0
  8  9  1  0  0  0  0
  9 10  1  0  0  0  0
  9 23  1  0  0  0  0
 10 11  1  0  0  0  0
 10 24  1  0  0  0  0
 10 25  1  0  0  0  0
 11 20  1  0  0  0  0
 11 12  1  0  0  0  0
 11 26  1  0  0  0  0
 12 13  1  0  0  0  0
 12 27  1  0  0  0  0
 12 28  1  0  0  0  0
 13 18  1  0  0  0  0
 13 14  1  0  0  0  0
 13 40  1  0  0  0  0
 14 15  1  0  0  0  0
 14 29  1  0  0  0  0
 14 30  1  0  0  0  0
 15 16  1  0  0  0  0
 15 31  1  0  0  0  0
 15 32  1  0  0  0  0
 16 17  1  0  0  0  0
 16 33  1  0  0  0  0
 16 34  1  0  0  0  0
 17 18  1  0  0  0  0
 17 35  1  0  0  0  0
 17 36  1  0  0  0  0
 18 19  1  0  0  0  0
 18 37  1  0  0  0  0
 19 20  1  0  0  0  0
 19 38  1  0  0  0  0
 19 39  1  0  0  0  0
M  CHG  1  13   1
M  END
> <s_m_source_file>
AV-unprocessed.smi

> <i_m_source_file_index>
3068

> <i_lp_mmshare_version>
43012

> <i_f3d_flags>
0

> <s_epik_input>
TiNDYzFuW2NIXVtjSF1uYzFbTkhdW0NIMl1bQ0BIXShbQ0gyXTIpT1tDSDJdW0NAQEhdKE4yMylbQ0gyXVtDSDJdW0NIMl1bQ0gyXTM=

> <s_epik_cmdline>
J2VwaWtfcHl0aG9uJywgJy1waCcsICc3LjAnLCAnLXRuJywgJzgnLCAnLW1hJywgJzIwMCcsICctbWV0YWxfYmluZGluZycsICctaW1hZScsICc8aW5maWxlLm1hZT4nLCAnLW9tYWUnLCAnPG91dGZpbGUubWFlPic=

> <r_epik_Ionization_Penalty>
0.0804321

> <r_epik_Ionization_Penalty_Charging>
0.0803403

> <r_epik_Ionization_Penalty_Neutral>
9.17277e-05

> <r_epik_State_Penalty>
0.0711481

> <r_epik_Charging_Adjusted_Penalty>
0.151488

> <i_epik_Tot_Q>
1

> <i_epik_Tot_abs_Q>
1

> <r_epik_Metal_State_Penalty>
0.0711481

> <b_epik_Metal_Only>
0

> <s_lp_Force_Field>
OPLS_2005

> <r_lp_Energy>
36.4506

> <b_lp_Chiralities_Consistent>
1

> <s_lp_Variant>
AV-unprocessed.smi:3068-1

> <Gold.Version>
5.8.1

> <Gold.Id.Protein>
6NUR|6NUR_protein|mol2

> <Gold.PLP.Fitness>
42.8667

> <Gold.PLP.PLP>
-32.8788

> <Gold.PLP.part.hbond>
-3.0000

> <Gold.PLP.part.metal>
0.0000

> <Gold.PLP.part.buried>
-2.9693

> <Gold.PLP.part.nonpolar>
-27.0601

> <Gold.PLP.part.repulsive>
0.7288

> <Gold.PLP.ligand.clash>
0.0000

> <Gold.PLP.ligand.torsion>
0.6183

> <Gold.PLP.Chemscore.Hbond>
3.0000

> <Gold.PLP.Chemscore.CHOScore>
0.7406

> <Gold.PLP.Chemscore.Metal>
0.0000

> <Gold.Chemscore.Hbonds>
donor molecule, donor type, donor heavy atom, donor atom, acceptor molecule, acceptor atom, score
      L1  H     9    23       P1  7948  1.00
      P1  H  7989  7998       L1     4  0.94
      P1  H 10752 10765       L1     1  0.73
      L1  C     5    21       P1  8028  0.83

> <Gold.PLP.Chemscore.Internal.Correction>
0.0028

> <Gold.Rescore>
     Score         DG    S(hbond)    S(metal)    S(lipo)     H(rot)  DE(clash)    DE(int)     intcor
     16.43     -17.27       1.96        0.00      73.65       1.32       0.11       0.74       ----

> <Gold.Chemscore.Fitness>
16.4301

> <Gold.Chemscore.DG>
-17.2720

> <Gold.Chemscore.ZeroCoef>
-5.4800

> <Gold.Chemscore.Hbond>
1.9618

> <Gold.Chemscore.Metal>
0.0000

> <Gold.Chemscore.Lipo>
73.6484

> <Gold.Chemscore.Internal_Hbond>
0.0000

> <Gold.Chemscore.DEClash>
0.1052

> <Gold.Chemscore.DEInternal>
0.7366

> <Gold.Chemscore.Rot>
1.3193

> <Gold.Chemscore.Internal.Correction>
   9.000000E+99

> <Gold.Chemscore.Hbonds>
donor molecule, donor type, donor heavy atom, donor atom, acceptor molecule, acceptor atom, score
      L1  H     9    23       P1  7948  0.99
      P1  H  7989  7998       L1     4  0.51
      P1  H 10752 10765       L1     1  0.72

> <Gold.Chemscore.Hbond.Weighted>
-6.5525

> <Gold.Chemscore.Metal.Weighted>
-0.0000

> <Gold.Chemscore.Lipo.Weighted>
-8.6169

> <Gold.Chemscore.Internal_Hbond.Weighted>
0.0000

> <Gold.Chemscore.DEClash.Weighted>
0.1052

> <Gold.Chemscore.DEInternal.Weighted>
0.7366

> <Gold.Chemscore.Rot.Weighted>
3.3774

> <Gold.Chemscore.Internal.Correction.Weighted>
   9.000000E+99

> <Gold.Protein.RotatedTorsions>
[ 6907 6896 6895 6894 ] final  123.41 input  -60.11 | X-H torsion
[ 7974 7965 7964 7962 ] final -121.98 input  175.53 | X-H torsion
[ 8008 7997 7996 7995 ] final  -20.48 input   59.86 | X-H torsion
[ 10167 10162 10161 10158 ] final   36.14 input  -65.29 | X-H torsion
[ 10718 10713 10712 10709 ] final -155.81 input   66.30 | X-H torsion
[ 10763 10752 10751 10750 ] final  163.73 input  -60.55 | X-H torsion
[ 11005 11000 10999 10996 ] final    0.33 input  -57.11 | X-H torsion

> <Gold.Protein.ActiveResidues>
 VAL166  LYS551  ARG553  GLY616  TRP617  ASP618  TYR619  PRO620  LYS621  CYS622 
 ASP623  PHE694  ASN695  SER759  ASP760  ASP761  ALA762  ILE779  LEU786  VAL792 
 PHE793  MET794  SER795  GLU796  ALA797  LYS798  CYS799  TRP800  GLU811  SER814 

> <Gold.Protein.RotatedAtoms>
  152.4163  133.7044  159.6442 H   0  0  0  0  0  0  0  0  0  0  0  0  # atno 6907 bound_to 6896
  150.8041  133.8533  159.3220 H   0  0  0  0  0  0  0  0  0  0  0  0  # atno 6908 bound_to 6896
  151.6262  135.1029  160.0163 H   0  0  0  0  0  0  0  0  0  0  0  0  # atno 6909 bound_to 6896
  145.0344  140.8094  143.4304 H   0  0  0  0  0  0  0  0  0  0  0  0  # atno 7974 bound_to 7965
  154.4767  140.2061  155.9861 H   0  0  0  0  0  0  0  0  0  0  0  0  # atno 8008 bound_to 7997
  156.1100  140.3230  155.8030 H   0  0  0  0  0  0  0  0  0  0  0  0  # atno 8009 bound_to 7997
  155.4651  140.0527  157.2977 H   0  0  0  0  0  0  0  0  0  0  0  0  # atno 8010 bound_to 7997
  140.4156  144.1532  150.6143 H   0  0  0  0  0  0  0  0  0  0  0  0  # atno 10167 bound_to 10162
  156.5180  130.8465  151.2671 H   0  0  0  0  0  0  0  0  0  0  0  0  # atno 10718 bound_to 10713
  154.2982  135.2759  155.2623 H   0  0  0  0  0  0  0  0  0  0  0  0  # atno 10763 bound_to 10752
  154.5072  135.5792  153.6580 H   0  0  0  0  0  0  0  0  0  0  0  0  # atno 10764 bound_to 10752
  152.9904  135.6172  154.3151 H   0  0  0  0  0  0  0  0  0  0  0  0  # atno 10765 bound_to 10752
  140.6278  133.9603  155.8258 H   0  0  0  0  0  0  0  0  0  0  0  0  # atno 11005 bound_to 11000
  145.1728  139.2394  143.5333 LP  0  0  0  0  0  0  0  0  0  0  0  0  # atno 17320 bound_to 7965
  146.3502  140.1484  142.8593 LP  0  0  0  0  0  0  0  0  0  0  0  0  # atno 17321 bound_to 7965
  140.4590  143.2456  151.9245 LP  0  0  0  0  0  0  0  0  0  0  0  0  # atno 17342 bound_to 10162
  139.4782  144.5486  151.8420 LP  0  0  0  0  0  0  0  0  0  0  0  0  # atno 17343 bound_to 10162
  157.7441  130.9927  150.2646 LP  0  0  0  0  0  0  0  0  0  0  0  0  # atno 17370 bound_to 10713
  156.3177  130.3781  149.7604 LP  0  0  0  0  0  0  0  0  0  0  0  0  # atno 17371 bound_to 10713
  141.0697  134.0224  157.3543 LP  0  0  0  0  0  0  0  0  0  0  0  0  # atno 17394 bound_to 11000
  139.9128  135.0193  156.7761 LP  0  0  0  0  0  0  0  0  0  0  0  0  # atno 17395 bound_to 11000

$$$$
