AV-unprocessed.smi:3036|AV-procd|sdf|11582|dock10
  -GOLD-   2272016553D 1   1.00000     0.00000
 Structure written by MMmdl.
 42 43  0  0  0  0  0  0  0  0  2 V2000
  144.7416  135.8390  152.9420 C   0  0  0  0  0  0  0  0  0  0  0  0
  144.6809  136.6728  151.6554 C   0  0  2  0  0  0  0  0  0  0  0  0
  145.6531  136.1326  150.5886 C   0  0  0  0  0  0  0  0  0  0  0  0
  145.5521  134.6923  150.4295 N   0  0  0  0  0  0  0  0  0  0  0  0
  144.4159  133.9204  150.3090 C   0  0  0  0  0  0  0  0  0  0  0  0
  144.8195  132.6239  150.1658 C   0  0  0  0  0  0  0  0  0  0  0  0
  146.2391  132.7034  150.2132 C   0  0  0  0  0  0  0  0  0  0  0  0
  146.6750  133.9432  150.3689 N   0  0  0  0  0  0  0  0  0  0  0  0
  144.9837  138.0880  151.9639 N   0  3  0  0  0  0  0  0  0  0  0  0
  146.3644  138.3384  152.4306 C   0  0  0  0  0  0  0  0  0  0  0  0
  146.4356  138.5285  153.9588 C   0  0  0  0  0  0  0  0  0  0  0  0
  146.9661  139.8999  154.4191 C   0  0  0  0  0  0  0  0  0  0  0  0
  146.2445  140.6147  155.1167 O   0  0  0  0  0  0  0  0  0  0  0  0
  148.2112  140.2805  154.0447 N   0  0  0  0  0  0  0  0  0  0  0  0
  148.8301  141.5373  154.4764 C   0  0  0  0  0  0  0  0  0  0  0  0
  150.0585  141.2029  155.3418 C   0  0  0  0  0  0  0  0  0  0  0  0
  150.9645  140.3918  154.5980 O   0  0  0  0  0  0  0  0  0  0  0  0
  150.3812  139.1736  154.1425 C   0  0  0  0  0  0  0  0  0  0  0  0
  149.1599  139.4844  153.2589 C   0  0  0  0  0  0  0  0  0  0  0  0
  144.4953  134.7951  152.7447 H   0  0  0  0  0  0  0  0  0  0  0  0
  144.0324  136.2086  153.6836 H   0  0  0  0  0  0  0  0  0  0  0  0
  145.7362  135.8669  153.3886 H   0  0  0  0  0  0  0  0  0  0  0  0
  143.6662  136.5947  151.2609 H   0  0  0  0  0  0  0  0  0  0  0  0
  145.4748  136.6099  149.6235 H   0  0  0  0  0  0  0  0  0  0  0  0
  146.6814  136.3686  150.8659 H   0  0  0  0  0  0  0  0  0  0  0  0
  143.4263  134.3525  150.3327 H   0  0  0  0  0  0  0  0  0  0  0  0
  144.1953  131.7506  150.0461 H   0  0  0  0  0  0  0  0  0  0  0  0
  146.9603  131.9031  150.1378 H   0  0  0  0  0  0  0  0  0  0  0  0
  144.8164  138.6448  151.1373 H   0  0  0  0  0  0  0  0  0  0  0  0
  146.9874  137.4875  152.1511 H   0  0  0  0  0  0  0  0  0  0  0  0
  146.7717  139.2095  151.9150 H   0  0  0  0  0  0  0  0  0  0  0  0
  145.4426  138.3677  154.3807 H   0  0  0  0  0  0  0  0  0  0  0  0
  147.0866  137.7571  154.3718 H   0  0  0  0  0  0  0  0  0  0  0  0
  149.1315  142.1113  153.5991 H   0  0  0  0  0  0  0  0  0  0  0  0
  148.1494  142.1787  155.0374 H   0  0  0  0  0  0  0  0  0  0  0  0
  150.5693  142.1177  155.6421 H   0  0  0  0  0  0  0  0  0  0  0  0
  149.7609  140.6870  156.2560 H   0  0  0  0  0  0  0  0  0  0  0  0
  151.1270  138.6166  153.5751 H   0  0  0  0  0  0  0  0  0  0  0  0
  150.0981  138.5536  154.9946 H   0  0  0  0  0  0  0  0  0  0  0  0
  148.7442  138.5568  152.8695 H   0  0  0  0  0  0  0  0  0  0  0  0
  149.4697  140.0586  152.3846 H   0  0  0  0  0  0  0  0  0  0  0  0
  144.3477  138.3889  152.6892 H   0  0  0  0  0  0  0  0  0  0  0  0
  1  2  1  0  0  0  0
  1 20  1  0  0  0  0
  1 21  1  0  0  0  0
  1 22  1  0  0  0  0
  2  3  1  0  0  0  0
  2  9  1  0  0  0  0
  2 23  1  0  0  0  0
  3  4  1  0  0  0  0
  3 24  1  0  0  0  0
  3 25  1  0  0  0  0
  4  8  1  0  0  0  0
  4  5  1  0  0  0  0
  5  6  2  0  0  0  0
  5 26  1  0  0  0  0
  6  7  1  0  0  0  0
  6 27  1  0  0  0  0
  7  8  2  0  0  0  0
  7 28  1  0  0  0  0
  9 10  1  0  0  0  0
  9 29  1  0  0  0  0
  9 42  1  0  0  0  0
 10 11  1  0  0  0  0
 10 30  1  0  0  0  0
 10 31  1  0  0  0  0
 11 12  1  0  0  0  0
 11 32  1  0  0  0  0
 11 33  1  0  0  0  0
 12 13  2  0  0  0  0
 12 14  1  0  0  0  0
 14 19  1  0  0  0  0
 14 15  1  0  0  0  0
 15 16  1  0  0  0  0
 15 34  1  0  0  0  0
 15 35  1  0  0  0  0
 16 17  1  0  0  0  0
 16 36  1  0  0  0  0
 16 37  1  0  0  0  0
 17 18  1  0  0  0  0
 18 19  1  0  0  0  0
 18 38  1  0  0  0  0
 18 39  1  0  0  0  0
 19 40  1  0  0  0  0
 19 41  1  0  0  0  0
M  CHG  1   9   1
M  END
> <s_m_source_file>
AV-unprocessed.smi

> <i_m_source_file_index>
3036

> <i_lp_mmshare_version>
43012

> <i_f3d_flags>
0

> <s_epik_input>
bjFbY0hdW2NIXVtjSF1uMVtDSDJdW0NAQEhdKFtDSDNdKVtOSF1bQ0gyXVtDSDJdQyg9TylOMltDSDJdW0NIMl1PW0NIMl1bQ0gyXTI=

> <s_epik_cmdline>
J2VwaWtfcHl0aG9uJywgJy1waCcsICc3LjAnLCAnLXRuJywgJzgnLCAnLW1hJywgJzIwMCcsICctbWV0YWxfYmluZGluZycsICctaW1hZScsICc8aW5maWxlLm1hZT4nLCAnLW9tYWUnLCAnPG91dGZpbGUubWFlPic=

> <r_lp_tautomer_probability>
1

> <r_epik_Ionization_Penalty>
0.00797109

> <r_epik_Ionization_Penalty_Charging>
0.0079672

> <r_epik_Ionization_Penalty_Neutral>
3.88864e-06

> <r_epik_State_Penalty>
0.00597998

> <r_epik_Charging_Adjusted_Penalty>
0.0139472

> <i_epik_Tot_Q>
1

> <i_epik_Tot_abs_Q>
1

> <r_epik_Metal_State_Penalty>
0.00598029

> <b_epik_Metal_Only>
0

> <s_lp_Force_Field>
OPLS_2005

> <r_lp_Energy>
23.8433

> <b_lp_Chiralities_Consistent>
1

> <s_lp_Variant>
AV-unprocessed.smi:3036-1

> <Gold.Version>
5.8.1

> <Gold.Id.Protein>
6NUR|6NUR_protein|mol2

> <Gold.PLP.Fitness>
45.1702

> <Gold.PLP.PLP>
-32.5669

> <Gold.PLP.part.hbond>
-2.5832

> <Gold.PLP.part.metal>
0.0000

> <Gold.PLP.part.buried>
1.8050

> <Gold.PLP.part.nonpolar>
-31.9576

> <Gold.PLP.part.repulsive>
0.4215

> <Gold.PLP.ligand.clash>
0.0000

> <Gold.PLP.ligand.torsion>
0.9201

> <Gold.PLP.Chemscore.Hbond>
2.8560

> <Gold.PLP.Chemscore.CHOScore>
1.9298

> <Gold.PLP.Chemscore.Metal>
0.0000

> <Gold.Chemscore.Hbonds>
donor molecule, donor type, donor heavy atom, donor atom, acceptor molecule, acceptor atom, score
      L1  H     9    29       P1 10171  0.78
      L1  H     9    42       P1 10175  0.34
      P1  H  7989  7998       L1    17  0.60
      L1  C     5    26       P1 10186  0.98
      L1  C     7    28       P1 10747  1.00

> <Gold.PLP.Chemscore.Internal.Correction>
0.0861

> <Gold.Rescore>
     Score         DG    S(hbond)    S(metal)    S(lipo)     H(rot)  DE(clash)    DE(int)     intcor
     11.23     -14.70       1.60        0.00      78.26       2.07       1.72       1.75       ----

> <Gold.Chemscore.Fitness>
11.2279

> <Gold.Chemscore.DG>
-14.6987

> <Gold.Chemscore.ZeroCoef>
-5.4800

> <Gold.Chemscore.Hbond>
1.6035

> <Gold.Chemscore.Metal>
0.0000

> <Gold.Chemscore.Lipo>
78.2647

> <Gold.Chemscore.Internal_Hbond>
0.0000

> <Gold.Chemscore.DEClash>
1.7179

> <Gold.Chemscore.DEInternal>
1.7530

> <Gold.Chemscore.Rot>
2.0680

> <Gold.Chemscore.Internal.Correction>
   9.000000E+99

> <Gold.Chemscore.Hbonds>
donor molecule, donor type, donor heavy atom, donor atom, acceptor molecule, acceptor atom, score
      L1  H     9    29       P1 10171  0.77
      L1  H     9    42       P1 10175  0.18
      P1  H  7989  7998       L1    17  0.27

> <Gold.Chemscore.Hbond.Weighted>
-5.3558

> <Gold.Chemscore.Metal.Weighted>
-0.0000

> <Gold.Chemscore.Lipo.Weighted>
-9.1570

> <Gold.Chemscore.Internal_Hbond.Weighted>
0.0000

> <Gold.Chemscore.DEClash.Weighted>
1.7179

> <Gold.Chemscore.DEInternal.Weighted>
1.7530

> <Gold.Chemscore.Rot.Weighted>
5.2941

> <Gold.Chemscore.Internal.Correction.Weighted>
   9.000000E+99

> <Gold.Protein.RotatedTorsions>
[ 6907 6896 6895 6894 ] final  163.79 input  -60.11 | X-H torsion
[ 7974 7965 7964 7962 ] final  146.82 input  175.53 | X-H torsion
[ 8008 7997 7996 7995 ] final  -71.19 input   59.86 | X-H torsion
[ 10167 10162 10161 10158 ] final -140.12 input  -65.29 | X-H torsion
[ 10718 10713 10712 10709 ] final  -32.88 input   66.30 | X-H torsion
[ 10763 10752 10751 10750 ] final  -86.90 input  -60.55 | X-H torsion
[ 11005 11000 10999 10996 ] final  -50.59 input  -57.11 | X-H torsion

> <Gold.Protein.ActiveResidues>
 VAL166  LYS551  ARG553  GLY616  TRP617  ASP618  TYR619  PRO620  LYS621  CYS622 
 ASP623  PHE694  ASN695  SER759  ASP760  ASP761  ALA762  ILE779  LEU786  VAL792 
 PHE793  MET794  SER795  GLU796  ALA797  LYS798  CYS799  TRP800  GLU811  SER814 

> <Gold.Protein.RotatedAtoms>
  151.9198  133.3582  159.3892 H   0  0  0  0  0  0  0  0  0  0  0  0  # atno 6907 bound_to 6896
  150.7039  134.4646  159.5406 H   0  0  0  0  0  0  0  0  0  0  0  0  # atno 6908 bound_to 6896
  152.2268  134.8360  160.0530 H   0  0  0  0  0  0  0  0  0  0  0  0  # atno 6909 bound_to 6896
  144.8641  139.5952  143.5917 H   0  0  0  0  0  0  0  0  0  0  0  0  # atno 7974 bound_to 7965
  154.5068  140.0820  156.7911 H   0  0  0  0  0  0  0  0  0  0  0  0  # atno 8008 bound_to 7997
  155.3874  140.3431  155.4231 H   0  0  0  0  0  0  0  0  0  0  0  0  # atno 8009 bound_to 7997
  156.1526  140.1563  156.8733 H   0  0  0  0  0  0  0  0  0  0  0  0  # atno 8010 bound_to 7997
  139.8312  143.7444  152.2666 H   0  0  0  0  0  0  0  0  0  0  0  0  # atno 10167 bound_to 10162
  156.3695  130.4337  149.7557 H   0  0  0  0  0  0  0  0  0  0  0  0  # atno 10718 bound_to 10713
  154.6277  135.5432  153.7645 H   0  0  0  0  0  0  0  0  0  0  0  0  # atno 10763 bound_to 10752
  153.0269  135.6428  154.1348 H   0  0  0  0  0  0  0  0  0  0  0  0  # atno 10764 bound_to 10752
  154.1279  135.2916  155.3172 H   0  0  0  0  0  0  0  0  0  0  0  0  # atno 10765 bound_to 10752
  141.0824  133.6650  156.3754 H   0  0  0  0  0  0  0  0  0  0  0  0  # atno 11005 bound_to 11000
  146.2882  139.7064  142.9180 LP  0  0  0  0  0  0  0  0  0  0  0  0  # atno 17320 bound_to 7965
  145.4256  141.0410  143.2939 LP  0  0  0  0  0  0  0  0  0  0  0  0  # atno 17321 bound_to 7965
  139.7652  144.7494  151.0304 LP  0  0  0  0  0  0  0  0  0  0  0  0  # atno 17342 bound_to 10162
  140.7806  143.4706  151.0152 LP  0  0  0  0  0  0  0  0  0  0  0  0  # atno 17343 bound_to 10162
  156.4690  130.7987  151.3006 LP  0  0  0  0  0  0  0  0  0  0  0  0  # atno 17370 bound_to 10713
  157.7482  131.0042  150.3066 LP  0  0  0  0  0  0  0  0  0  0  0  0  # atno 17371 bound_to 10713
  140.5438  134.6094  157.5388 LP  0  0  0  0  0  0  0  0  0  0  0  0  # atno 17394 bound_to 11000
  139.9639  134.7405  156.0178 LP  0  0  0  0  0  0  0  0  0  0  0  0  # atno 17395 bound_to 11000

$$$$
