AV-unprocessed.smi:1417|AV-procd|sdf|5767|dock2
  -GOLD-   22720 5403D 1   1.00000     0.00000
 Structure written by MMmdl.
 40 41  0  0  0  0  0  0  0  0  2 V2000
  153.5287  142.0045  160.5912 C   0  0  0  0  0  0  0  0  0  0  0  0
  152.3265  142.3804  159.7944 C   0  0  0  0  0  0  0  0  0  0  0  0
  151.8989  142.0446  158.5409 C   0  0  0  0  0  0  0  0  0  0  0  0
  150.6721  142.7602  158.4201 C   0  0  0  0  0  0  0  0  0  0  0  0
  149.8073  142.7648  157.2955 N   0  0  0  0  0  0  0  0  0  0  0  0
  149.2518  141.7170  156.6643 C   0  0  0  0  0  0  0  0  0  0  0  0
  149.4033  140.5352  156.9721 O   0  0  0  0  0  0  0  0  0  0  0  0
  148.4953  142.1192  155.6324 N   0  0  0  0  0  0  0  0  0  0  0  0
  147.7408  141.2385  154.7409 C   0  0  2  0  0  0  0  0  0  0  0  0
  147.1436  142.0065  153.5446 C   0  0  0  0  0  0  0  0  0  0  0  0
  145.9954  142.9369  153.9730 C   0  0  0  0  0  0  0  0  0  0  0  0
  144.9346  142.1810  154.6910 N   0  3  2  0  0  0  0  0  0  0  0  0
  143.7392  143.0070  155.0018 C   0  0  0  0  0  0  0  0  0  0  0  0
  142.5317  142.1735  155.4439 C   0  0  0  0  0  0  0  0  0  0  0  0
  142.2318  141.1058  154.7007 N   0  0  0  0  0  0  0  0  0  0  0  0
  141.8688  142.4927  156.4293 O   0  0  0  0  0  0  0  0  0  0  0  0
  145.4733  141.4891  155.8898 C   0  0  0  0  0  0  0  0  0  0  0  0
  146.6158  140.5277  155.5132 C   0  0  0  0  0  0  0  0  0  0  0  0
  150.3863  143.4661  159.4984 N   0  0  0  0  0  0  0  0  0  0  0  0
  151.4420  143.2273  160.3861 O   0  0  0  0  0  0  0  0  0  0  0  0
  154.2249  141.4174  159.9922 H   0  0  0  0  0  0  0  0  0  0  0  0
  153.2453  141.4104  161.4601 H   0  0  0  0  0  0  0  0  0  0  0  0
  154.0525  142.8930  160.9439 H   0  0  0  0  0  0  0  0  0  0  0  0
  152.3963  141.3914  157.8399 H   0  0  0  0  0  0  0  0  0  0  0  0
  149.5829  143.6791  156.9317 H   0  0  0  0  0  0  0  0  0  0  0  0
  148.4239  143.1112  155.4595 H   0  0  0  0  0  0  0  0  0  0  0  0
  148.4259  140.4765  154.3641 H   0  0  0  0  0  0  0  0  0  0  0  0
  147.9156  142.5784  153.0287 H   0  0  0  0  0  0  0  0  0  0  0  0
  146.7647  141.2902  152.8144 H   0  0  0  0  0  0  0  0  0  0  0  0
  146.3745  143.7348  154.6132 H   0  0  0  0  0  0  0  0  0  0  0  0
  145.5800  143.4181  153.0875 H   0  0  0  0  0  0  0  0  0  0  0  0
  143.9660  143.6853  155.8253 H   0  0  0  0  0  0  0  0  0  0  0  0
  143.4817  143.6307  154.1440 H   0  0  0  0  0  0  0  0  0  0  0  0
  141.4491  140.5171  154.9469 H   0  0  0  0  0  0  0  0  0  0  0  0
  142.7950  140.8859  153.8912 H   0  0  0  0  0  0  0  0  0  0  0  0
  145.8191  142.2285  156.6137 H   0  0  0  0  0  0  0  0  0  0  0  0
  144.6785  140.9212  156.3745 H   0  0  0  0  0  0  0  0  0  0  0  0
  146.2124  139.7237  154.8957 H   0  0  0  0  0  0  0  0  0  0  0  0
  147.0143  140.0492  156.4088 H   0  0  0  0  0  0  0  0  0  0  0  0
  144.6161  141.4551  154.0641 H   0  0  0  0  0  0  0  0  0  0  0  0
  1  2  1  0  0  0  0
  1 21  1  0  0  0  0
  1 22  1  0  0  0  0
  1 23  1  0  0  0  0
  2 20  1  0  0  0  0
  2  3  2  0  0  0  0
  3  4  1  0  0  0  0
  3 24  1  0  0  0  0
  4  5  1  0  0  0  0
  4 19  2  0  0  0  0
  5  6  1  0  0  0  0
  5 25  1  0  0  0  0
  6  7  2  0  0  0  0
  6  8  1  0  0  0  0
  8  9  1  0  0  0  0
  8 26  1  0  0  0  0
  9 18  1  0  0  0  0
  9 10  1  0  0  0  0
  9 27  1  0  0  0  0
 10 11  1  0  0  0  0
 10 28  1  0  0  0  0
 10 29  1  0  0  0  0
 11 12  1  0  0  0  0
 11 30  1  0  0  0  0
 11 31  1  0  0  0  0
 12 13  1  0  0  0  0
 12 17  1  0  0  0  0
 12 40  1  0  0  0  0
 13 14  1  0  0  0  0
 13 32  1  0  0  0  0
 13 33  1  0  0  0  0
 14 15  1  0  0  0  0
 14 16  2  0  0  0  0
 15 34  1  0  0  0  0
 15 35  1  0  0  0  0
 17 18  1  0  0  0  0
 17 36  1  0  0  0  0
 17 37  1  0  0  0  0
 18 38  1  0  0  0  0
 18 39  1  0  0  0  0
 19 20  1  0  0  0  0
M  CHG  1  12   1
M  END
> <s_m_source_file>
AV-unprocessed.smi

> <i_m_source_file_index>
1417

> <i_lp_mmshare_version>
43012

> <i_f3d_flags>
0

> <s_epik_input>
W0NIM11jMVtjSF1jKG5vMSlbTkhdQyg9TylbTkhdW0NIXTJbQ0gyXVtDSDJdTihbQ0gyXVtDSDJdMilbQ0gyXUMoPU8pW05IMl0=

> <s_epik_cmdline>
J2VwaWtfcHl0aG9uJywgJy1waCcsICc3LjAnLCAnLXRuJywgJzgnLCAnLW1hJywgJzIwMCcsICctbWV0YWxfYmluZGluZycsICctaW1hZScsICc8aW5maWxlLm1hZT4nLCAnLW9tYWUnLCAnPG91dGZpbGUubWFlPic=

> <r_epik_Ionization_Penalty>
0.867698

> <r_epik_Ionization_Penalty_Charging>
0.867623

> <r_epik_Ionization_Penalty_Neutral>
7.46743e-05

> <r_epik_State_Penalty>
0.904669

> <r_epik_Charging_Adjusted_Penalty>
1.77229

> <i_epik_Tot_Q>
1

> <i_epik_Tot_abs_Q>
1

> <r_epik_Metal_State_Penalty>
0.930696

> <b_epik_Metal_Only>
0

> <s_lp_Force_Field>
OPLS_2005

> <r_lp_Energy>
12.5471

> <b_lp_Chiralities_Consistent>
1

> <s_lp_Variant>
AV-unprocessed.smi:1417-3

> <Gold.Version>
5.8.1

> <Gold.Id.Protein>
6NUR|6NUR_protein|mol2

> <Gold.PLP.Fitness>
43.1297

> <Gold.PLP.PLP>
-29.9221

> <Gold.PLP.part.hbond>
-6.1589

> <Gold.PLP.part.metal>
0.0000

> <Gold.PLP.part.buried>
-3.0524

> <Gold.PLP.part.nonpolar>
-20.0950

> <Gold.PLP.part.repulsive>
0.3448

> <Gold.PLP.ligand.clash>
0.0000

> <Gold.PLP.ligand.torsion>
0.7478

> <Gold.PLP.Chemscore.Hbond>
4.8850

> <Gold.PLP.Chemscore.CHOScore>
0.0000

> <Gold.PLP.Chemscore.Metal>
0.0000

> <Gold.Chemscore.Hbonds>
donor molecule, donor type, donor heavy atom, donor atom, acceptor molecule, acceptor atom, score
      L1  H     5    25       P1  8028  1.00
      L1  H     8    26       P1  8028  1.00
      L1  H    12    40       P1 10175  1.85
      L1  H    15    35       P1 10175  1.00

> <Gold.PLP.Chemscore.Internal.Correction>
0.0481

> <Gold.Rescore>
     Score         DG    S(hbond)    S(metal)    S(lipo)     H(rot)  DE(clash)    DE(int)     intcor
     17.89     -18.93       3.62        0.00      56.51       2.05       0.27       0.78       ----

> <Gold.Chemscore.Fitness>
17.8889

> <Gold.Chemscore.DG>
-18.9343

> <Gold.Chemscore.ZeroCoef>
-5.4800

> <Gold.Chemscore.Hbond>
3.6166

> <Gold.Chemscore.Metal>
0.0000

> <Gold.Chemscore.Lipo>
56.5113

> <Gold.Chemscore.Internal_Hbond>
0.0000

> <Gold.Chemscore.DEClash>
0.2696

> <Gold.Chemscore.DEInternal>
0.7758

> <Gold.Chemscore.Rot>
2.0457

> <Gold.Chemscore.Internal.Correction>
   9.000000E+99

> <Gold.Chemscore.Hbonds>
donor molecule, donor type, donor heavy atom, donor atom, acceptor molecule, acceptor atom, score
      L1  H     5    25       P1  8028  0.91
      L1  H     8    26       P1  8028  0.97
      L1  H    12    40       P1 10175  0.31
      L1  H    15    35       P1 10175  0.30

> <Gold.Chemscore.Hbond.Weighted>
-12.0796

> <Gold.Chemscore.Metal.Weighted>
-0.0000

> <Gold.Chemscore.Lipo.Weighted>
-6.6118

> <Gold.Chemscore.Internal_Hbond.Weighted>
0.0000

> <Gold.Chemscore.DEClash.Weighted>
0.2696

> <Gold.Chemscore.DEInternal.Weighted>
0.7758

> <Gold.Chemscore.Rot.Weighted>
5.2371

> <Gold.Chemscore.Internal.Correction.Weighted>
   9.000000E+99

> <Gold.Protein.RotatedTorsions>
[ 6907 6896 6895 6894 ] final   89.67 input  -60.11 | X-H torsion
[ 7974 7965 7964 7962 ] final -122.11 input  175.53 | X-H torsion
[ 8008 7997 7996 7995 ] final -126.30 input   59.86 | X-H torsion
[ 10167 10162 10161 10158 ] final  -52.62 input  -65.29 | X-H torsion
[ 10718 10713 10712 10709 ] final   -1.75 input   66.30 | X-H torsion
[ 10763 10752 10751 10750 ] final  -56.00 input  -60.55 | X-H torsion
[ 11005 11000 10999 10996 ] final  -44.84 input  -57.11 | X-H torsion

> <Gold.Protein.ActiveResidues>
 VAL166  LYS551  ARG553  GLY616  TRP617  ASP618  TYR619  PRO620  LYS621  CYS622 
 ASP623  PHE694  ASN695  SER759  ASP760  ASP761  ALA762  ILE779  LEU786  VAL792 
 PHE793  MET794  SER795  GLU796  ALA797  LYS798  CYS799  TRP800  GLU811  SER814 

> <Gold.Protein.RotatedAtoms>
  152.5438  134.1931  159.8681 H   0  0  0  0  0  0  0  0  0  0  0  0  # atno 6907 bound_to 6896
  151.1925  133.4652  159.2602 H   0  0  0  0  0  0  0  0  0  0  0  0  # atno 6908 bound_to 6896
  151.1069  135.0017  159.8531 H   0  0  0  0  0  0  0  0  0  0  0  0  # atno 6909 bound_to 6896
  145.0330  140.8083  143.4312 H   0  0  0  0  0  0  0  0  0  0  0  0  # atno 7974 bound_to 7965
  155.2275  140.0424  157.2957 H   0  0  0  0  0  0  0  0  0  0  0  0  # atno 8008 bound_to 7997
  154.5910  140.2426  155.7891 H   0  0  0  0  0  0  0  0  0  0  0  0  # atno 8009 bound_to 7997
  156.2259  140.2955  156.0074 H   0  0  0  0  0  0  0  0  0  0  0  0  # atno 8010 bound_to 7997
  140.6528  143.2578  151.4674 H   0  0  0  0  0  0  0  0  0  0  0  0  # atno 10167 bound_to 10162
  156.8009  130.5392  149.5722 H   0  0  0  0  0  0  0  0  0  0  0  0  # atno 10718 bound_to 10713
  154.1997  135.6413  153.5083 H   0  0  0  0  0  0  0  0  0  0  0  0  # atno 10763 bound_to 10752
  153.0015  135.5448  154.6328 H   0  0  0  0  0  0  0  0  0  0  0  0  # atno 10764 bound_to 10752
  154.5738  135.2919  155.0774 H   0  0  0  0  0  0  0  0  0  0  0  0  # atno 10765 bound_to 10752
  141.0477  133.6755  156.2929 H   0  0  0  0  0  0  0  0  0  0  0  0  # atno 11005 bound_to 11000
  145.1745  139.2385  143.5324 LP  0  0  0  0  0  0  0  0  0  0  0  0  # atno 17320 bound_to 7965
  146.3501  140.1504  142.8592 LP  0  0  0  0  0  0  0  0  0  0  0  0  # atno 17321 bound_to 7965
  139.5745  144.1850  152.1884 LP  0  0  0  0  0  0  0  0  0  0  0  0  # atno 17342 bound_to 10162
  140.1156  144.5418  150.6896 LP  0  0  0  0  0  0  0  0  0  0  0  0  # atno 17343 bound_to 10162
  156.1102  130.6034  151.0034 LP  0  0  0  0  0  0  0  0  0  0  0  0  # atno 17370 bound_to 10713
  157.6554  131.0890  150.7959 LP  0  0  0  0  0  0  0  0  0  0  0  0  # atno 17371 bound_to 10713
  140.6115  134.5453  157.5534 LP  0  0  0  0  0  0  0  0  0  0  0  0  # atno 17394 bound_to 11000
  139.9325  134.7937  156.0892 LP  0  0  0  0  0  0  0  0  0  0  0  0  # atno 17395 bound_to 11000

$$$$
