AV-unprocessed.smi:3|AV-procd|sdf|32|dock7
  -GOLD-   2262015143D 1   1.00000     0.00000
 Structure written by MMmdl.
 33 35  0  0  0  0  0  0  0  0  1 V2000
  150.7072  142.3150  157.2765 C   0  0  0  0  0  0  0  0  0  0  0  0
  151.6595  141.2254  157.4334 N   0  0  0  0  0  0  0  0  0  0  0  0
  152.0893  140.4842  156.2506 C   0  0  0  0  0  0  0  0  0  0  0  0
  151.0235  139.5012  155.7704 C   0  0  1  0  0  0  0  0  0  0  0  0
  149.8286  140.0063  154.9473 C   0  0  0  0  0  0  0  0  0  0  0  0
  149.9203  138.7497  154.0771 C   0  0  2  0  0  0  0  0  0  0  0  0
  148.9954  137.7173  154.3421 O   0  0  0  0  0  0  0  0  0  0  0  0
  151.3460  138.5576  154.6037 C   0  0  0  0  0  0  0  0  0  0  0  0
  152.4680  141.1477  158.5869 C   0  0  0  0  0  0  0  0  0  0  0  0
  153.3443  140.1140  158.6570 N   0  0  0  0  0  0  0  0  0  0  0  0
  154.1317  140.0232  159.7580 C   0  0  0  0  0  0  0  0  0  0  0  0
  154.1672  140.8547  160.8273 N   0  0  0  0  0  0  0  0  0  0  0  0
  153.3020  141.9100  160.7749 C   0  0  0  0  0  0  0  0  0  0  0  0
  153.1475  142.8779  161.6723 N   0  0  0  0  0  0  0  0  0  0  0  0
  152.2072  143.7006  161.1798 C   0  0  0  0  0  0  0  0  0  0  0  0
  151.6972  143.2814  159.8922 C   0  0  0  0  0  0  0  0  0  0  0  0
  152.4385  142.0797  159.6639 C   0  0  0  0  0  0  0  0  0  0  0  0
  150.6471  138.8955  156.5969 H   0  0  0  0  0  0  0  0  0  0  0  0
  149.9036  138.9804  153.0116 H   0  0  0  0  0  0  0  0  0  0  0  0
  150.3179  142.6449  158.2401 H   0  0  0  0  0  0  0  0  0  0  0  0
  149.8591  141.9859  156.6753 H   0  0  0  0  0  0  0  0  0  0  0  0
  151.1678  143.1620  156.7686 H   0  0  0  0  0  0  0  0  0  0  0  0
  152.3722  141.1654  155.4478 H   0  0  0  0  0  0  0  0  0  0  0  0
  153.0007  139.9422  156.5040 H   0  0  0  0  0  0  0  0  0  0  0  0
  148.9055  140.1050  155.5197 H   0  0  0  0  0  0  0  0  0  0  0  0
  150.0491  140.9179  154.3895 H   0  0  0  0  0  0  0  0  0  0  0  0
  149.0428  137.1111  153.6187 H   0  0  0  0  0  0  0  0  0  0  0  0
  152.0989  138.9607  153.9247 H   0  0  0  0  0  0  0  0  0  0  0  0
  151.5892  137.5389  154.9076 H   0  0  0  0  0  0  0  0  0  0  0  0
  154.8147  139.1872  159.7839 H   0  0  0  0  0  0  0  0  0  0  0  0
  151.8956  144.5845  161.7225 H   0  0  0  0  0  0  0  0  0  0  0  0
  150.9517  143.7674  159.2773 H   0  0  0  0  0  0  0  0  0  0  0  0
  154.8125  140.6679  161.5815 H   0  0  0  0  0  0  0  0  0  0  0  0
  1  2  1  0  0  0  0
  1 20  1  0  0  0  0
  1 21  1  0  0  0  0
  1 22  1  0  0  0  0
  2  3  1  0  0  0  0
  2  9  1  0  0  0  0
  3  4  1  0  0  0  0
  3 23  1  0  0  0  0
  3 24  1  0  0  0  0
  4 18  1  0  0  0  0
  4  8  1  0  0  0  0
  4  5  1  0  0  0  0
  5  6  1  0  0  0  0
  5 25  1  0  0  0  0
  5 26  1  0  0  0  0
  6 19  1  0  0  0  0
  6  7  1  0  0  0  0
  6  8  1  0  0  0  0
  7 27  1  0  0  0  0
  8 28  1  0  0  0  0
  8 29  1  0  0  0  0
  9 17  2  0  0  0  0
  9 10  1  0  0  0  0
 10 11  2  0  0  0  0
 11 12  1  0  0  0  0
 11 30  1  0  0  0  0
 12 13  1  0  0  0  0
 12 33  1  0  0  0  0
 13 17  1  0  0  0  0
 13 14  2  0  0  0  0
 14 15  1  0  0  0  0
 15 16  2  0  0  0  0
 15 31  1  0  0  0  0
 16 17  1  0  0  0  0
 16 32  1  0  0  0  0
M  END
> <s_m_source_file>
AV-unprocessed.smi

> <i_m_source_file_index>
3

> <i_lp_mmshare_version>
43012

> <i_f3d_flags>
0

> <s_epik_input>
W25IXTFbY0hdW2NIXWMoYzEyKWMobltjSF1uMilOKFtDSDNdKVtDSDJdW0NASF0zW0NIMl1bQ0BASF0oW09IXSlbQ0gyXTM=

> <s_epik_cmdline>
J2VwaWtfcHl0aG9uJywgJy1waCcsICc3LjAnLCAnLXRuJywgJzgnLCAnLW1hJywgJzIwMCcsICctbWV0YWxfYmluZGluZycsICctaW1hZScsICc8aW5maWxlLm1hZT4nLCAnLW9tYWUnLCAnPG91dGZpbGUubWFlPic=

> <r_lp_tautomer_probability>
1.75997e-05

> <r_epik_Ionization_Penalty>
5.52529

> <r_epik_Ionization_Penalty_Charging>
0

> <r_epik_Ionization_Penalty_Neutral>
5.52529

> <r_epik_State_Penalty>
8.99615

> <r_epik_Charging_Adjusted_Penalty>
8.99615

> <i_epik_Tot_Q>
0

> <i_epik_Tot_abs_Q>
0

> <r_epik_Metal_State_Penalty>
6.01519

> <b_epik_Metal_Only>
1

> <s_lp_Force_Field>
OPLS_2005

> <r_lp_Energy>
26.4435

> <b_lp_Chiralities_Consistent>
1

> <s_lp_Variant>
AV-unprocessed.smi:3-6

> <Gold.Version>
5.8.1

> <Gold.Id.Protein>
6NUR|6NUR_protein|mol2

> <Gold.PLP.Fitness>
40.9656

> <Gold.PLP.PLP>
-35.3877

> <Gold.PLP.part.hbond>
-2.0000

> <Gold.PLP.part.metal>
0.0000

> <Gold.PLP.part.buried>
-3.0439

> <Gold.PLP.part.nonpolar>
-29.2498

> <Gold.PLP.part.repulsive>
0.0830

> <Gold.PLP.ligand.clash>
1.3557

> <Gold.PLP.ligand.torsion>
0.2860

> <Gold.PLP.Chemscore.Hbond>
1.9913

> <Gold.PLP.Chemscore.CHOScore>
0.0000

> <Gold.PLP.Chemscore.Metal>
0.0000

> <Gold.Chemscore.Hbonds>
donor molecule, donor type, donor heavy atom, donor atom, acceptor molecule, acceptor atom, score
      L1  H     7    27       P1  7948  1.00
      P1  H  7997  8008       L1    10  0.99

> <Gold.PLP.Chemscore.Internal.Correction>
1.5319

> <Gold.Rescore>
     Score         DG    S(hbond)    S(metal)    S(lipo)     H(rot)  DE(clash)    DE(int)     intcor
     12.50     -14.25       1.38        0.00      75.73       1.84       0.30       1.45       ----

> <Gold.Chemscore.Fitness>
12.5047

> <Gold.Chemscore.DG>
-14.2508

> <Gold.Chemscore.ZeroCoef>
-5.4800

> <Gold.Chemscore.Hbond>
1.3831

> <Gold.Chemscore.Metal>
0.0000

> <Gold.Chemscore.Lipo>
75.7317

> <Gold.Chemscore.Internal_Hbond>
0.0000

> <Gold.Chemscore.DEClash>
0.3008

> <Gold.Chemscore.DEInternal>
1.4452

> <Gold.Chemscore.Rot>
1.8396

> <Gold.Chemscore.Internal.Correction>
   9.000000E+99

> <Gold.Chemscore.Hbonds>
donor molecule, donor type, donor heavy atom, donor atom, acceptor molecule, acceptor atom, score
      L1  H     7    27       P1  7948  0.99
      P1  H  7997  8008       L1    10  0.31

> <Gold.Chemscore.Hbond.Weighted>
-4.6196

> <Gold.Chemscore.Metal.Weighted>
-0.0000

> <Gold.Chemscore.Lipo.Weighted>
-8.8606

> <Gold.Chemscore.Internal_Hbond.Weighted>
0.0000

> <Gold.Chemscore.DEClash.Weighted>
0.3008

> <Gold.Chemscore.DEInternal.Weighted>
1.4452

> <Gold.Chemscore.Rot.Weighted>
4.7095

> <Gold.Chemscore.Internal.Correction.Weighted>
   9.000000E+99

> <Gold.Protein.RotatedTorsions>
[ 6907 6896 6895 6894 ] final   74.00 input  -60.11 | X-H torsion
[ 7974 7965 7964 7962 ] final  151.93 input  175.53 | X-H torsion
[ 8008 7997 7996 7995 ] final  -92.82 input   59.86 | X-H torsion
[ 10167 10162 10161 10158 ] final  -66.61 input  -65.29 | X-H torsion
[ 10718 10713 10712 10709 ] final   99.55 input   66.30 | X-H torsion
[ 10763 10752 10751 10750 ] final    5.84 input  -60.55 | X-H torsion
[ 11005 11000 10999 10996 ] final  -15.16 input  -57.11 | X-H torsion

> <Gold.Protein.ActiveResidues>
 VAL166  LYS551  ARG553  GLY616  TRP617  ASP618  TYR619  PRO620  LYS621  CYS622 
 ASP623  PHE694  ASN695  SER759  ASP760  ASP761  ALA762  ILE779  LEU786  VAL792 
 PHE793  MET794  SER795  GLU796  ALA797  LYS798  CYS799  TRP800  GLU811  SER814 

> <Gold.Protein.RotatedAtoms>
  152.4953  134.4336  159.9520 H   0  0  0  0  0  0  0  0  0  0  0  0  # atno 6907 bound_to 6896
  151.4316  133.3662  159.2777 H   0  0  0  0  0  0  0  0  0  0  0  0  # atno 6908 bound_to 6896
  150.9150  134.8591  159.7511 H   0  0  0  0  0  0  0  0  0  0  0  0  # atno 6909 bound_to 6896
  144.8257  139.6602  143.6081 H   0  0  0  0  0  0  0  0  0  0  0  0  # atno 7974 bound_to 7965
  154.7279  140.0505  157.0700 H   0  0  0  0  0  0  0  0  0  0  0  0  # atno 8008 bound_to 7997
  155.0340  140.3161  155.4729 H   0  0  0  0  0  0  0  0  0  0  0  0  # atno 8009 bound_to 7997
  156.2834  140.2145  156.5462 H   0  0  0  0  0  0  0  0  0  0  0  0  # atno 8010 bound_to 7997
  140.5644  143.2314  151.6664 H   0  0  0  0  0  0  0  0  0  0  0  0  # atno 10167 bound_to 10162
  157.6873  131.0673  150.4965 H   0  0  0  0  0  0  0  0  0  0  0  0  # atno 10718 bound_to 10713
  153.2547  135.6917  153.7641 H   0  0  0  0  0  0  0  0  0  0  0  0  # atno 10763 bound_to 10752
  153.6723  135.3342  155.3157 H   0  0  0  0  0  0  0  0  0  0  0  0  # atno 10764 bound_to 10752
  154.8408  135.4503  154.1517 H   0  0  0  0  0  0  0  0  0  0  0  0  # atno 10765 bound_to 10752
  140.7938  133.8267  155.9404 H   0  0  0  0  0  0  0  0  0  0  0  0  # atno 11005 bound_to 11000
  146.2563  139.6309  142.9393 LP  0  0  0  0  0  0  0  0  0  0  0  0  # atno 17320 bound_to 7965
  145.5005  141.0437  143.2543 LP  0  0  0  0  0  0  0  0  0  0  0  0  # atno 17321 bound_to 7965
  139.5086  144.3607  152.0565 LP  0  0  0  0  0  0  0  0  0  0  0  0  # atno 17342 bound_to 10162
  140.2737  144.3936  150.6142 LP  0  0  0  0  0  0  0  0  0  0  0  0  # atno 17343 bound_to 10162
  156.5289  130.4180  149.6212 LP  0  0  0  0  0  0  0  0  0  0  0  0  # atno 17370 bound_to 10713
  156.3087  130.7217  151.2105 LP  0  0  0  0  0  0  0  0  0  0  0  0  # atno 17371 bound_to 10713
  140.9363  134.1957  157.4829 LP  0  0  0  0  0  0  0  0  0  0  0  0  # atno 17394 bound_to 11000
  139.8728  134.9854  156.5279 LP  0  0  0  0  0  0  0  0  0  0  0  0  # atno 17395 bound_to 11000

$$$$
