#       Name:                AV-unprocessed.smi:2559
#       Creating user name   scv26
#       Creation time:       Fri Mar 27 14:08:22 2020


#       File generated by GOLD software.
#

@<TRIPOS>MOLECULE
AV-unprocessed.smi:2559
    53    55     1
SMALL
NO_CHARGES


@<TRIPOS>ATOM
      1 ****        -1.5066   4.1974   2.3613 C.3            1 S1                 0.0000
      2 ****        -1.0574   2.8728   2.8015 N.am           1 S1                 0.0000
      3 ****        -0.8245   2.5600   4.1163 C.2            1 S1                 0.0000
      4 ****        -1.0085   3.4252   4.9726 O.2            1 S1                 0.0000
      5 ****        -0.3914   1.2950   4.4514 N.pl3          1 S1                -1.0000
      6 ****        -0.1503   0.2662   3.5788 C.2            1 S1                 0.0000
      7 ****         0.2690  -0.8533   3.8657 O.2            1 S1                 0.0000
      8 ****        -0.4426   0.6429   2.1767 C.2            1 S1                 0.0000
      9 ****        -0.8591   1.8823   1.8042 C.2            1 S1                 0.0000
     10 ****        -1.0103   1.9736   0.4301 N.2            1 S1                 0.0000
     11 ****        -0.6931   0.7462   0.0137 C.2            1 S1                 0.0000
     12 ****        -0.6930   0.3778  -1.3326 N.pl3          1 S1                 0.0000
     13 ****        -0.1187   1.2055  -2.3922 C.3            1 S1                 0.0000
     14 ****         0.7857   0.3807  -3.3256 C.3            1 S1                 0.0000
     15 ****         0.0075  -0.7885  -3.9441 C.3            1 S1                 0.0000
     16 ****        -0.6820  -1.5997  -2.8392 C.3            1 S1                 0.0000
     17 ****        -1.5130  -0.6766  -1.9306 C.3            1 S1                 0.0000
     18 ****        -0.3275  -0.1138   1.0038 N.pl3          1 S1                 0.0000
     19 ****         0.1370  -1.4953   0.8699 C.3            1 S1                 0.0000
     20 ****         1.6341  -1.5888   0.5052 C.3            1 S1                 0.0000
     21 ****         2.4076  -0.8769   1.4510 O.3            1 S1                 0.0000
     22 ****         2.1483  -3.0377   0.4717 C.3            1 S1                 0.0000
     23 ****         1.5290  -3.7676  -0.5661 O.3            1 S1                 0.0000
     24 ****        -1.7172   4.8948   3.1726 H              1 S1                 0.0000
     25 ****        -2.4199   4.1041   1.7730 H              1 S1                 0.0000
     26 ****        -0.7453   4.6532   1.7276 H              1 S1                 0.0000
     27 ****        -0.9233   1.6751  -2.9596 H              1 S1                 0.0000
     28 ****         0.4615   2.0147  -1.9473 H              1 S1                 0.0000
     29 ****         1.1923   1.0172  -4.1118 H              1 S1                 0.0000
     30 ****         1.6383  -0.0020  -2.7630 H              1 S1                 0.0000
     31 ****        -0.7416  -0.4027  -4.6366 H              1 S1                 0.0000
     32 ****         0.6744  -1.4259  -4.5251 H              1 S1                 0.0000
     33 ****        -1.3202  -2.3657  -3.2801 H              1 S1                 0.0000
     34 ****         0.0688  -2.1233  -2.2480 H              1 S1                 0.0000
     35 ****        -2.0165  -1.2519  -1.1545 H              1 S1                 0.0000
     36 ****        -2.3093  -0.2099  -2.5120 H              1 S1                 0.0000
     37 ****        -0.0696  -2.0424   1.7865 H              1 S1                 0.0000
     38 ****        -0.4597  -2.0063   0.1200 H              1 S1                 0.0000
     39 ****         1.8028  -1.1236  -0.4668 H              1 S1                 0.0000
     40 ****         2.1851  -1.1884   2.3161 H              1 S1                 0.0000
     41 ****         3.2255  -3.0554   0.3015 H              1 S1                 0.0000
     42 ****         1.9639  -3.5385   1.4228 H              1 S1                 0.0000
     43 ****         1.8711  -4.6484  -0.5574 H              1 S1                 0.0000
     44 ****        -1.3221   4.3359   4.7038 LP             1 S1                 0.0000
     45 ****        -0.8444   3.2172   5.9368 LP             1 S1                 0.0000
     46 ****        -0.2389   1.1107   5.4223 LP             1 S1                 0.0000
     47 ****         0.4686  -1.0836   4.8181 LP             1 S1                 0.0000
     48 ****         0.4104  -1.5337   3.1466 LP             1 S1                 0.0000
     49 ****        -1.2886   2.7643  -0.1152 LP             1 S1                 0.0000
     50 ****         2.2081   0.1006   1.3827 LP             1 S1                 0.0000
     51 ****         3.3800  -1.0316   1.2765 LP             1 S1                 0.0000
     52 ****         1.7274  -3.3371  -1.4466 LP             1 S1                 0.0000
     53 ****         0.5398  -3.7882  -0.4206 LP             1 S1                 0.0000
@<TRIPOS>BOND
    1    1    2 1     
    2    1   24 1     
    3    1   25 1     
    4    1   26 1     
    5    2    9 1     
    6    2    3 am    
    7    3    4 2     
    8    3    5 1     
    9    5    6 1     
   10    6    7 2     
   11    6    8 1     
   12    8   18 1     
   13    8    9 2     
   14    9   10 1     
   15   10   11 2     
   16   11   12 1     
   17   11   18 1     
   18   12   17 1     
   19   12   13 1     
   20   13   14 1     
   21   13   27 1     
   22   13   28 1     
   23   14   15 1     
   24   14   29 1     
   25   14   30 1     
   26   15   16 1     
   27   15   31 1     
   28   15   32 1     
   29   16   17 1     
   30   16   33 1     
   31   16   34 1     
   32   17   35 1     
   33   17   36 1     
   34   18   19 1     
   35   19   20 1     
   36   19   37 1     
   37   19   38 1     
   38   20   21 1     
   39   20   22 1     
   40   20   39 1     
   41   21   40 1     
   42   22   23 1     
   43   22   41 1     
   44   22   42 1     
   45   23   43 1     
   46    4   44 1     
   47    4   45 1     
   48    5   46 1     
   49    7   47 1     
   50    7   48 1     
   51   10   49 1     
   52   21   50 1     
   53   21   51 1     
   54   23   52 1     
   55   23   53 1     
@<TRIPOS>SUBSTRUCTURE
      1 S1             1
@<TRIPOS>SET
LONE_PAIRS      STATIC     ATOMS    <user>   **** ""
10 44 45 46 47 48 49 50 51 52 53
DONOR_HYDROGENS      STATIC     ATOMS    <user>   **** ""
2 40 43
ATOM$BLUE        STATIC     ATOMS    COLORGROUP SYSTEM
10 44 45 46 47 48 49 50 51 52 53
ATOM$RED        STATIC     ATOMS    COLORGROUP SYSTEM
2 40 43
