AV-unprocessed.smi:592|AV-procd|sdf|3010|dock4
  -GOLD-   2262023513D 1   1.00000     0.00000
 Structure written by MMmdl.
 27 28  0  0  0  0  0  0  0  0  1 V2000
  150.9470  141.1112  158.1278 O   0  0  0  0  0  0  0  0  0  0  0  0
  151.0229  142.1988  157.5565 C   0  0  0  0  0  0  0  0  0  0  0  0
  151.6999  143.3849  158.2792 C   0  0  0  0  0  0  0  0  0  0  0  0
  152.3392  143.0140  159.5536 N   0  0  0  0  0  0  0  0  0  0  0  0
  152.0542  143.8240  160.6711 C   0  0  0  0  0  0  0  0  0  0  0  0
  152.5817  143.5772  161.8805 C   0  0  0  0  0  0  0  0  0  0  0  0
  153.4663  142.4451  162.0210 C   0  0  0  0  0  0  0  0  0  0  0  0
  153.7416  141.6604  160.9602 C   0  0  0  0  0  0  0  0  0  0  0  0
  153.1622  141.9230  159.6375 C   0  0  0  0  0  0  0  0  0  0  0  0
  153.4019  141.2058  158.6656 O   0  0  0  0  0  0  0  0  0  0  0  0
  150.5188  142.3223  156.3091 N   0  0  0  0  0  0  0  0  0  0  0  0
  149.8796  141.3747  155.5054 C   0  0  0  0  0  0  0  0  0  0  0  0
  150.4254  140.3898  154.8817 N   0  0  0  0  0  0  0  0  0  0  0  0
  149.4111  139.6075  154.1879 C   0  0  0  0  0  0  0  0  0  0  0  0
  148.0649  140.3735  154.1198 C   0  0  0  0  0  0  0  0  0  0  0  0
  148.1319  141.6787  155.3519 S   0  0  0  0  0  0  0  0  0  0  0  0
  152.4415  143.8374  157.6187 H   0  0  0  0  0  0  0  0  0  0  0  0
  150.9519  144.1581  158.4590 H   0  0  0  0  0  0  0  0  0  0  0  0
  151.3785  144.6458  160.4832 H   0  0  0  0  0  0  0  0  0  0  0  0
  152.3475  144.2063  162.7266 H   0  0  0  0  0  0  0  0  0  0  0  0
  153.9091  142.2259  162.9814 H   0  0  0  0  0  0  0  0  0  0  0  0
  154.4055  140.8176  161.0841 H   0  0  0  0  0  0  0  0  0  0  0  0
  150.6179  143.2447  155.9108 H   0  0  0  0  0  0  0  0  0  0  0  0
  149.7520  139.3544  153.1834 H   0  0  0  0  0  0  0  0  0  0  0  0
  149.2708  138.6625  154.7141 H   0  0  0  0  0  0  0  0  0  0  0  0
  147.9430  140.8358  153.1397 H   0  0  0  0  0  0  0  0  0  0  0  0
  147.2105  139.7180  154.2894 H   0  0  0  0  0  0  0  0  0  0  0  0
  1  2  2  0  0  0  0
  2  3  1  0  0  0  0
  2 11  1  0  0  0  0
  3  4  1  0  0  0  0
  3 17  1  0  0  0  0
  3 18  1  0  0  0  0
  4  9  1  0  0  0  0
  4  5  1  0  0  0  0
  5  6  2  0  0  0  0
  5 19  1  0  0  0  0
  6  7  1  0  0  0  0
  6 20  1  0  0  0  0
  7  8  2  0  0  0  0
  7 21  1  0  0  0  0
  8  9  1  0  0  0  0
  8 22  1  0  0  0  0
  9 10  2  0  0  0  0
 11 12  1  0  0  0  0
 11 23  1  0  0  0  0
 12 16  1  0  0  0  0
 12 13  2  0  0  0  0
 13 14  1  0  0  0  0
 14 15  1  0  0  0  0
 14 24  1  0  0  0  0
 14 25  1  0  0  0  0
 15 16  1  0  0  0  0
 15 26  1  0  0  0  0
 15 27  1  0  0  0  0
M  END
> <s_m_source_file>
AV-unprocessed.smi

> <i_m_source_file_index>
592

> <i_lp_mmshare_version>
43012

> <i_f3d_flags>
0

> <s_epik_input>
UzFbQ0gyXVtDSDJdTj1DMVtOSF1DKD1PKVtDSDJdbjJbY0hdW2NIXVtjSF1bY0hdYzI9Tw==

> <s_epik_cmdline>
J2VwaWtfcHl0aG9uJywgJy1waCcsICc3LjAnLCAnLXRuJywgJzgnLCAnLW1hJywgJzIwMCcsICctbWV0YWxfYmluZGluZycsICctaW1hZScsICc8aW5maWxlLm1hZT4nLCAnLW9tYWUnLCAnPG91dGZpbGUubWFlPic=

> <r_lp_tautomer_probability>
1

> <r_epik_Ionization_Penalty>
0.0449927

> <r_epik_Ionization_Penalty_Charging>
2.12211e-07

> <r_epik_Ionization_Penalty_Neutral>
0.0449925

> <r_epik_State_Penalty>
0.0415249

> <r_epik_Charging_Adjusted_Penalty>
0.0415251

> <i_epik_Tot_Q>
0

> <i_epik_Tot_abs_Q>
0

> <r_epik_Metal_State_Penalty>
0.0415666

> <b_epik_Metal_Only>
0

> <s_epik_Chemistry_Notes>
This compound has an imine and may undergo hydrolysis.

> <s_lp_Force_Field>
OPLS_2005

> <r_lp_Energy>
28.1841

> <b_lp_Chiralities_Consistent>
1

> <s_lp_Variant>
AV-unprocessed.smi:592-1

> <Gold.Version>
5.8.1

> <Gold.Id.Protein>
6NUR|6NUR_protein|mol2

> <Gold.PLP.Fitness>
40.8490

> <Gold.PLP.PLP>
-38.9377

> <Gold.PLP.part.hbond>
-2.9101

> <Gold.PLP.part.metal>
0.0000

> <Gold.PLP.part.buried>
-1.1214

> <Gold.PLP.part.nonpolar>
-34.5581

> <Gold.PLP.part.repulsive>
0.1746

> <Gold.PLP.ligand.clash>
0.0000

> <Gold.PLP.ligand.torsion>
0.8659

> <Gold.PLP.Chemscore.Hbond>
1.2132

> <Gold.PLP.Chemscore.CHOScore>
0.0000

> <Gold.PLP.Chemscore.Metal>
0.0000

> <Gold.Chemscore.Hbonds>
donor molecule, donor type, donor heavy atom, donor atom, acceptor molecule, acceptor atom, score
      L1  H    11    23       P1  8028  0.19
      P1  H  7989  7998       L1    13  1.00
      P1  H  7997  8010       L1    10  0.14

> <Gold.PLP.Chemscore.Internal.Correction>
0.0036

> <Gold.Rescore>
     Score         DG    S(hbond)    S(metal)    S(lipo)     H(rot)  DE(clash)    DE(int)     intcor
      8.52     -15.84       1.53        0.00      73.93       1.33       1.63       5.68       ----

> <Gold.Chemscore.Fitness>
8.5195

> <Gold.Chemscore.DG>
-15.8379

> <Gold.Chemscore.ZeroCoef>
-5.4800

> <Gold.Chemscore.Hbond>
1.5316

> <Gold.Chemscore.Metal>
0.0000

> <Gold.Chemscore.Lipo>
73.9281

> <Gold.Chemscore.Internal_Hbond>
0.0000

> <Gold.Chemscore.DEClash>
1.6342

> <Gold.Chemscore.DEInternal>
5.6843

> <Gold.Chemscore.Rot>
1.3309

> <Gold.Chemscore.Internal.Correction>
   9.000000E+99

> <Gold.Chemscore.Hbonds>
donor molecule, donor type, donor heavy atom, donor atom, acceptor molecule, acceptor atom, score
      L1  H    11    23       P1  8028  0.19
      P1  H  7989  7998       L1    13  0.35
      P1  H  7997  8010       L1    10  0.14

> <Gold.Chemscore.Hbond.Weighted>
-5.1154

> <Gold.Chemscore.Metal.Weighted>
-0.0000

> <Gold.Chemscore.Lipo.Weighted>
-8.6496

> <Gold.Chemscore.Internal_Hbond.Weighted>
0.0000

> <Gold.Chemscore.DEClash.Weighted>
1.6342

> <Gold.Chemscore.DEInternal.Weighted>
5.6843

> <Gold.Chemscore.Rot.Weighted>
3.4071

> <Gold.Chemscore.Internal.Correction.Weighted>
   9.000000E+99

> <Gold.Protein.RotatedTorsions>
[ 6907 6896 6895 6894 ] final    3.84 input  -60.11 | X-H torsion
[ 7974 7965 7964 7962 ] final  -55.90 input  175.53 | X-H torsion
[ 8008 7997 7996 7995 ] final   26.66 input   59.86 | X-H torsion
[ 10167 10162 10161 10158 ] final   62.84 input  -65.29 | X-H torsion
[ 10718 10713 10712 10709 ] final    6.18 input   66.30 | X-H torsion
[ 10763 10752 10751 10750 ] final   56.01 input  -60.55 | X-H torsion
[ 11005 11000 10999 10996 ] final  158.83 input  -57.11 | X-H torsion

> <Gold.Protein.ActiveResidues>
 VAL166  LYS551  ARG553  GLY616  TRP617  ASP618  TYR619  PRO620  LYS621  CYS622 
 ASP623  PHE694  ASN695  SER759  ASP760  ASP761  ALA762  ILE779  LEU786  VAL792 
 PHE793  MET794  SER795  GLU796  ALA797  LYS798  CYS799  TRP800  GLU811  SER814 

> <Gold.Protein.RotatedAtoms>
  151.6317  135.1022  160.0122 H   0  0  0  0  0  0  0  0  0  0  0  0  # atno 6907 bound_to 6896
  152.4103  133.6948  159.6400 H   0  0  0  0  0  0  0  0  0  0  0  0  # atno 6908 bound_to 6896
  150.7994  133.8553  159.3257 H   0  0  0  0  0  0  0  0  0  0  0  0  # atno 6909 bound_to 6896
  145.8688  140.8231  142.9899 H   0  0  0  0  0  0  0  0  0  0  0  0  # atno 7974 bound_to 7965
  155.0307  140.3158  155.4759 H   0  0  0  0  0  0  0  0  0  0  0  0  # atno 8008 bound_to 7997
  156.2874  140.2181  156.5371 H   0  0  0  0  0  0  0  0  0  0  0  0  # atno 8009 bound_to 7997
  154.7373  140.0476  157.0767 H   0  0  0  0  0  0  0  0  0  0  0  0  # atno 8010 bound_to 7997
  140.1395  144.4567  150.6819 H   0  0  0  0  0  0  0  0  0  0  0  0  # atno 10167 bound_to 10162
  156.9184  130.5782  149.5647 H   0  0  0  0  0  0  0  0  0  0  0  0  # atno 10718 bound_to 10713
  152.9825  135.5691  154.5160 H   0  0  0  0  0  0  0  0  0  0  0  0  # atno 10763 bound_to 10752
  154.4656  135.2783  155.1683 H   0  0  0  0  0  0  0  0  0  0  0  0  # atno 10764 bound_to 10752
  154.3252  135.6260  153.5579 H   0  0  0  0  0  0  0  0  0  0  0  0  # atno 10765 bound_to 10752
  140.1903  134.8412  157.2904 H   0  0  0  0  0  0  0  0  0  0  0  0  # atno 11005 bound_to 11000
  144.6726  140.1208  143.7450 LP  0  0  0  0  0  0  0  0  0  0  0  0  # atno 17320 bound_to 7965
  145.9161  139.2517  143.1409 LP  0  0  0  0  0  0  0  0  0  0  0  0  # atno 17321 bound_to 7965
  140.6769  143.2309  151.5485 LP  0  0  0  0  0  0  0  0  0  0  0  0  # atno 17342 bound_to 10162
  139.5479  144.2472  152.1476 LP  0  0  0  0  0  0  0  0  0  0  0  0  # atno 17343 bound_to 10162
  156.0503  130.5573  150.8973 LP  0  0  0  0  0  0  0  0  0  0  0  0  # atno 17370 bound_to 10713
  157.5923  131.0944  150.9098 LP  0  0  0  0  0  0  0  0  0  0  0  0  # atno 17371 bound_to 10713
  140.2167  134.4072  155.7585 LP  0  0  0  0  0  0  0  0  0  0  0  0  # atno 17394 bound_to 11000
  141.2226  133.7145  156.8425 LP  0  0  0  0  0  0  0  0  0  0  0  0  # atno 17395 bound_to 11000

$$$$
