#       Name:                AV-unprocessed.smi:2215
#       Creating user name   scv26
#       Creation time:       Fri Mar 27 12:17:58 2020


#       File generated by GOLD software.
#

@<TRIPOS>MOLECULE
AV-unprocessed.smi:2215
    45    46     1
SMALL
NO_CHARGES


@<TRIPOS>ATOM
      1 ****        -6.0529   3.6689   1.0089 C.3            1 S1                 0.0000
      2 ****        -4.8863   2.7056   1.0734 C.ar           1 S1                 0.0000
      3 ****        -5.0823   1.3396   1.3514 C.ar           1 S1                 0.0000
      4 ****        -3.9608   0.4895   1.4012 C.ar           1 S1                 0.0000
      5 ****        -2.6723   1.0234   1.1739 C.ar           1 S1                 0.0000
      6 ****        -1.6103   0.0836   1.2540 N.am           1 S1                 0.0000
      7 ****        -0.2919   0.3030   1.1058 C.2            1 S1                 0.0000
      8 ****         0.2263   1.3904   0.8500 O.2            1 S1                 0.0000
      9 ****         0.4088  -0.8280   1.2720 N.am           1 S1                 0.0000
     10 ****         1.8621  -0.9346   1.1843 C.3            1 S1                 0.0000
     11 ****         2.3787  -0.9457  -0.2750 C.3            1 S1                 0.0000
     12 ****         1.7628  -2.1103  -1.0860 C.3            1 S1                 0.0000
     13 ****         2.2919  -2.1562  -2.5277 C.3            1 S1                 0.0000
     14 ****         3.8235  -2.2444  -2.5527 C.3            1 S1                 0.0000
     15 ****         4.4478  -1.0760  -1.7782 C.3            1 S1                 0.0000
     16 ****         3.9251  -1.0173  -0.3308 C.3            1 S1                 0.0000
     17 ****         4.4920   0.1203   0.2879 O.3            1 S1                 0.0000
     18 ****        -2.4940   2.3406   0.9038 N.ar           1 S1                 0.0000
     19 ****        -3.5694   3.1544   0.8552 C.ar           1 S1                 0.0000
     20 ****        -6.9745   3.1972   1.3510 H              1 S1                 0.0000
     21 ****        -6.2032   4.0120  -0.0149 H              1 S1                 0.0000
     22 ****        -5.8622   4.5384   1.6385 H              1 S1                 0.0000
     23 ****        -6.0730   0.9457   1.5247 H              1 S1                 0.0000
     24 ****        -4.0936  -0.5612   1.6144 H              1 S1                 0.0000
     25 ****        -1.8862  -0.8648   1.4602 H              1 S1                 0.0000
     26 ****        -0.0969  -1.6767   1.4793 H              1 S1                 0.0000
     27 ****         2.3106  -0.1158   1.7492 H              1 S1                 0.0000
     28 ****         2.1629  -1.8519   1.6910 H              1 S1                 0.0000
     29 ****         2.0723  -0.0133  -0.7525 H              1 S1                 0.0000
     30 ****         1.9812  -3.0578  -0.5914 H              1 S1                 0.0000
     31 ****         0.6764  -2.0220  -1.1144 H              1 S1                 0.0000
     32 ****         1.8621  -3.0090  -3.0537 H              1 S1                 0.0000
     33 ****         1.9665  -1.2649  -3.0657 H              1 S1                 0.0000
     34 ****         4.1454  -3.1902  -2.1149 H              1 S1                 0.0000
     35 ****         4.1808  -2.2419  -3.5830 H              1 S1                 0.0000
     36 ****         5.5342  -1.1738  -1.7802 H              1 S1                 0.0000
     37 ****         4.2203  -0.1414  -2.2931 H              1 S1                 0.0000
     38 ****         4.2687  -1.9007   0.2090 H              1 S1                 0.0000
     39 ****         4.1823   0.8920  -0.1614 H              1 S1                 0.0000
     40 ****        -3.3714   4.1938   0.6372 H              1 S1                 0.0000
     41 ****        -0.3460   2.2024   0.7353 LP             1 S1                 0.0000
     42 ****         1.2194   1.4615   0.7569 LP             1 S1                 0.0000
     43 ****         5.4892   0.0738   0.2301 LP             1 S1                 0.0000
     44 ****         4.2150   0.1552   1.2481 LP             1 S1                 0.0000
     45 ****        -1.5766   2.7043   0.7426 LP             1 S1                 0.0000
@<TRIPOS>BOND
    1    1    2 1     
    2    1   20 1     
    3    1   21 1     
    4    1   22 1     
    5    2   19 ar    
    6    2    3 ar    
    7    3    4 ar    
    8    3   23 1     
    9    4    5 ar    
   10    4   24 1     
   11    5    6 1     
   12    5   18 ar    
   13    6    7 am    
   14    6   25 1     
   15    7    8 2     
   16    7    9 am    
   17    9   10 1     
   18    9   26 1     
   19   10   11 1     
   20   10   27 1     
   21   10   28 1     
   22   11   16 1     
   23   11   12 1     
   24   11   29 1     
   25   12   13 1     
   26   12   30 1     
   27   12   31 1     
   28   13   14 1     
   29   13   32 1     
   30   13   33 1     
   31   14   15 1     
   32   14   34 1     
   33   14   35 1     
   34   15   16 1     
   35   15   36 1     
   36   15   37 1     
   37   16   17 1     
   38   16   38 1     
   39   17   39 1     
   40   18   19 ar    
   41   19   40 1     
   42    8   41 1     
   43    8   42 1     
   44   17   43 1     
   45   17   44 1     
   46   18   45 1     
@<TRIPOS>SUBSTRUCTURE
      1 S1             1
@<TRIPOS>SET
LONE_PAIRS      STATIC     ATOMS    <user>   **** ""
5 41 42 43 44 45
DONOR_HYDROGENS      STATIC     ATOMS    <user>   **** ""
3 25 26 39
ATOM$BLUE        STATIC     ATOMS    COLORGROUP SYSTEM
5 41 42 43 44 45
ATOM$RED        STATIC     ATOMS    COLORGROUP SYSTEM
3 25 26 39
