AV-unprocessed.smi:1278|AV-procd|sdf|5347|dock9
  -GOLD-   22720 4483D 1   1.00000     0.00000
 Structure written by MMmdl.
 39 40  0  0  0  0  0  0  0  0  2 V2000
  144.5036  133.1378  149.7542 C   0  0  0  0  0  0  0  0  0  0  0  0
  145.5848  133.6945  150.6915 C   0  0  2  0  0  0  0  0  0  0  0  0
  145.9310  132.6930  151.8063 C   0  0  0  0  0  0  0  0  0  0  0  0
  146.9904  133.2857  152.7434 C   0  0  0  0  0  0  0  0  0  0  0  0
  146.5333  134.6432  153.2999 C   0  0  0  0  0  0  0  0  0  0  0  0
  146.2121  135.5921  152.2028 N   0  3  2  0  0  0  0  0  0  0  0  0
  145.8939  136.9487  152.7146 C   0  0  0  0  0  0  0  0  0  0  0  0
  146.2097  138.0549  151.6892 C   0  0  0  0  0  0  0  0  0  0  0  0
  147.3626  138.8497  152.0978 N   0  0  0  0  0  0  0  0  0  0  0  0
  147.5695  139.3108  153.3400 C   0  0  0  0  0  0  0  0  0  0  0  0
  146.7946  139.1018  154.2741 O   0  0  0  0  0  0  0  0  0  0  0  0
  148.7137  140.0128  153.4191 N   0  0  0  0  0  0  0  0  0  0  0  0
  149.2821  140.6350  154.5618 C   0  0  0  0  0  0  0  0  0  0  0  0
  150.5951  140.6927  154.8137 N   0  0  0  0  0  0  0  0  0  0  0  0
  150.8715  141.3700  156.0038 C   0  0  0  0  0  0  0  0  0  0  0  0
  149.7491  141.8255  156.6498 C   0  0  0  0  0  0  0  0  0  0  0  0
  148.2915  141.4175  155.7846 S   0  0  0  0  0  0  0  0  0  0  0  0
  145.1617  135.0470  151.3003 C   0  0  0  0  0  0  0  0  0  0  0  0
  143.5701  132.9566  150.2881 H   0  0  0  0  0  0  0  0  0  0  0  0
  144.8192  132.1949  149.3068 H   0  0  0  0  0  0  0  0  0  0  0  0
  144.2921  133.8328  148.9410 H   0  0  0  0  0  0  0  0  0  0  0  0
  146.4831  133.8594  150.0942 H   0  0  0  0  0  0  0  0  0  0  0  0
  145.0346  132.4454  152.3769 H   0  0  0  0  0  0  0  0  0  0  0  0
  146.2959  131.7587  151.3780 H   0  0  0  0  0  0  0  0  0  0  0  0
  147.1897  132.5952  153.5637 H   0  0  0  0  0  0  0  0  0  0  0  0
  147.9318  133.4070  152.2056 H   0  0  0  0  0  0  0  0  0  0  0  0
  145.6584  134.5149  153.9393 H   0  0  0  0  0  0  0  0  0  0  0  0
  147.3260  135.0555  153.9253 H   0  0  0  0  0  0  0  0  0  0  0  0
  144.8486  136.9827  153.0259 H   0  0  0  0  0  0  0  0  0  0  0  0
  146.4855  137.1451  153.6102 H   0  0  0  0  0  0  0  0  0  0  0  0
  146.4317  137.6094  150.7191 H   0  0  0  0  0  0  0  0  0  0  0  0
  145.3578  138.7181  151.5370 H   0  0  0  0  0  0  0  0  0  0  0  0
  148.0457  139.0671  151.3863 H   0  0  0  0  0  0  0  0  0  0  0  0
  149.2441  140.1088  152.5658 H   0  0  0  0  0  0  0  0  0  0  0  0
  151.8989  141.4833  156.3167 H   0  0  0  0  0  0  0  0  0  0  0  0
  149.6923  142.3740  157.5783 H   0  0  0  0  0  0  0  0  0  0  0  0
  144.9615  135.7502  150.4925 H   0  0  0  0  0  0  0  0  0  0  0  0
  144.2289  134.9351  151.8559 H   0  0  0  0  0  0  0  0  0  0  0  0
  147.0551  135.6829  151.6542 H   0  0  0  0  0  0  0  0  0  0  0  0
  1  2  1  0  0  0  0
  1 19  1  0  0  0  0
  1 20  1  0  0  0  0
  1 21  1  0  0  0  0
  2 18  1  0  0  0  0
  2  3  1  0  0  0  0
  2 22  1  0  0  0  0
  3  4  1  0  0  0  0
  3 23  1  0  0  0  0
  3 24  1  0  0  0  0
  4  5  1  0  0  0  0
  4 25  1  0  0  0  0
  4 26  1  0  0  0  0
  5  6  1  0  0  0  0
  5 27  1  0  0  0  0
  5 28  1  0  0  0  0
  6  7  1  0  0  0  0
  6 18  1  0  0  0  0
  6 39  1  0  0  0  0
  7  8  1  0  0  0  0
  7 29  1  0  0  0  0
  7 30  1  0  0  0  0
  8  9  1  0  0  0  0
  8 31  1  0  0  0  0
  8 32  1  0  0  0  0
  9 10  1  0  0  0  0
  9 33  1  0  0  0  0
 10 11  2  0  0  0  0
 10 12  1  0  0  0  0
 12 13  1  0  0  0  0
 12 34  1  0  0  0  0
 13 17  1  0  0  0  0
 13 14  2  0  0  0  0
 14 15  1  0  0  0  0
 15 16  2  0  0  0  0
 15 35  1  0  0  0  0
 16 17  1  0  0  0  0
 16 36  1  0  0  0  0
 18 37  1  0  0  0  0
 18 38  1  0  0  0  0
M  CHG  1   6   1
M  END
> <s_m_source_file>
AV-unprocessed.smi

> <i_m_source_file_index>
1278

> <i_lp_mmshare_version>
43012

> <i_f3d_flags>
0

> <s_epik_input>
W0NIM11bQ0BASF0xW0NIMl1bQ0gyXVtDSDJdTihbQ0gyXTEpW0NIMl1bQ0gyXVtOSF1DKD1PKVtOSF1jMm5bY0hdW2NIXXMy

> <s_epik_cmdline>
J2VwaWtfcHl0aG9uJywgJy1waCcsICc3LjAnLCAnLXRuJywgJzgnLCAnLW1hJywgJzIwMCcsICctbWV0YWxfYmluZGluZycsICctaW1hZScsICc8aW5maWxlLm1hZT4nLCAnLW9tYWUnLCAnPG91dGZpbGUubWFlPic=

> <r_lp_tautomer_probability>
0.999

> <r_epik_Ionization_Penalty>
0.00222194

> <r_epik_Ionization_Penalty_Charging>
0.00208169

> <r_epik_Ionization_Penalty_Neutral>
0.000140251

> <r_epik_State_Penalty>
0.00142585

> <r_epik_Charging_Adjusted_Penalty>
0.00350754

> <i_epik_Tot_Q>
1

> <i_epik_Tot_abs_Q>
1

> <r_epik_Metal_State_Penalty>
0.0570424

> <b_epik_Metal_Only>
0

> <s_lp_Force_Field>
OPLS_2005

> <r_lp_Energy>
14.0127

> <b_lp_Chiralities_Consistent>
1

> <s_lp_Variant>
AV-unprocessed.smi:1278-1

> <Gold.Version>
5.8.1

> <Gold.Id.Protein>
6NUR|6NUR_protein|mol2

> <Gold.PLP.Fitness>
44.4753

> <Gold.PLP.PLP>
-32.6179

> <Gold.PLP.part.hbond>
-4.9907

> <Gold.PLP.part.metal>
0.0000

> <Gold.PLP.part.buried>
-3.0957

> <Gold.PLP.part.nonpolar>
-24.9993

> <Gold.PLP.part.repulsive>
0.4070

> <Gold.PLP.ligand.clash>
0.0000

> <Gold.PLP.ligand.torsion>
0.9708

> <Gold.PLP.Chemscore.Hbond>
4.5920

> <Gold.PLP.Chemscore.CHOScore>
0.0000

> <Gold.PLP.Chemscore.Metal>
0.0000

> <Gold.Chemscore.Hbonds>
donor molecule, donor type, donor heavy atom, donor atom, acceptor molecule, acceptor atom, score
      L1  H     6    39       P1  7948  1.66
      L1  H     9    33       P1  7957  0.85
      L1  H    12    34       P1  7957  0.81
      P1  H  7989  7998       L1    14  0.91

> <Gold.PLP.Chemscore.Internal.Correction>
0.0230

> <Gold.Rescore>
     Score         DG    S(hbond)    S(metal)    S(lipo)     H(rot)  DE(clash)    DE(int)     intcor
     17.14     -20.42       3.64        0.00      58.86       1.60       0.05       3.22       ----

> <Gold.Chemscore.Fitness>
17.1412

> <Gold.Chemscore.DG>
-20.4159

> <Gold.Chemscore.ZeroCoef>
-5.4800

> <Gold.Chemscore.Hbond>
3.6362

> <Gold.Chemscore.Metal>
0.0000

> <Gold.Chemscore.Lipo>
58.8644

> <Gold.Chemscore.Internal_Hbond>
0.0000

> <Gold.Chemscore.DEClash>
0.0504

> <Gold.Chemscore.DEInternal>
3.2242

> <Gold.Chemscore.Rot>
1.6001

> <Gold.Chemscore.Internal.Correction>
   9.000000E+99

> <Gold.Chemscore.Hbonds>
donor molecule, donor type, donor heavy atom, donor atom, acceptor molecule, acceptor atom, score
      L1  H     6    39       P1  7948  0.82
      L1  H     9    33       P1  7957  0.62
      L1  H    12    34       P1  7957  0.80
      P1  H  7989  7998       L1    14  0.80

> <Gold.Chemscore.Hbond.Weighted>
-12.1451

> <Gold.Chemscore.Metal.Weighted>
-0.0000

> <Gold.Chemscore.Lipo.Weighted>
-6.8871

> <Gold.Chemscore.Internal_Hbond.Weighted>
0.0000

> <Gold.Chemscore.DEClash.Weighted>
0.0504

> <Gold.Chemscore.DEInternal.Weighted>
3.2242

> <Gold.Chemscore.Rot.Weighted>
4.0963

> <Gold.Chemscore.Internal.Correction.Weighted>
   9.000000E+99

> <Gold.Protein.RotatedTorsions>
[ 6907 6896 6895 6894 ] final -114.70 input  -60.11 | X-H torsion
[ 7974 7965 7964 7962 ] final -141.51 input  175.53 | X-H torsion
[ 8008 7997 7996 7995 ] final   98.00 input   59.86 | X-H torsion
[ 10167 10162 10161 10158 ] final   68.53 input  -65.29 | X-H torsion
[ 10718 10713 10712 10709 ] final  -68.84 input   66.30 | X-H torsion
[ 10763 10752 10751 10750 ] final  154.27 input  -60.55 | X-H torsion
[ 11005 11000 10999 10996 ] final  -67.52 input  -57.11 | X-H torsion

> <Gold.Protein.ActiveResidues>
 VAL166  LYS551  ARG553  GLY616  TRP617  ASP618  TYR619  PRO620  LYS621  CYS622 
 ASP623  PHE694  ASN695  SER759  ASP760  ASP761  ALA762  ILE779  LEU786  VAL792 
 PHE793  MET794  SER795  GLU796  ALA797  LYS798  CYS799  TRP800  GLU811  SER814 

> <Gold.Protein.RotatedAtoms>
  150.7922  133.8763  159.3272 H   0  0  0  0  0  0  0  0  0  0  0  0  # atno 6907 bound_to 6896
  151.6598  135.0989  160.0187 H   0  0  0  0  0  0  0  0  0  0  0  0  # atno 6908 bound_to 6896
  152.3998  133.6762  159.6342 H   0  0  0  0  0  0  0  0  0  0  0  0  # atno 6909 bound_to 6896
  144.8513  140.6070  143.5388 H   0  0  0  0  0  0  0  0  0  0  0  0  # atno 7974 bound_to 7965
  156.0959  140.3250  155.7877 H   0  0  0  0  0  0  0  0  0  0  0  0  # atno 8008 bound_to 7997
  155.4919  140.0562  157.2969 H   0  0  0  0  0  0  0  0  0  0  0  0  # atno 8009 bound_to 7997
  154.4666  140.1992  156.0118 H   0  0  0  0  0  0  0  0  0  0  0  0  # atno 8010 bound_to 7997
  140.0777  144.5098  150.7183 H   0  0  0  0  0  0  0  0  0  0  0  0  # atno 10167 bound_to 10162
  156.0485  130.4302  150.2059 H   0  0  0  0  0  0  0  0  0  0  0  0  # atno 10718 bound_to 10713
  154.1496  135.2816  155.3139 H   0  0  0  0  0  0  0  0  0  0  0  0  # atno 10763 bound_to 10752
  154.6227  135.5462  153.7596 H   0  0  0  0  0  0  0  0  0  0  0  0  # atno 10764 bound_to 10752
  153.0225  135.6443  154.1641 H   0  0  0  0  0  0  0  0  0  0  0  0  # atno 10765 bound_to 10752
  141.1510  133.6721  156.6305 H   0  0  0  0  0  0  0  0  0  0  0  0  # atno 11005 bound_to 11000
  145.4493  139.1525  143.3927 LP  0  0  0  0  0  0  0  0  0  0  0  0  # atno 17320 bound_to 7965
  146.2787  140.4619  142.8785 LP  0  0  0  0  0  0  0  0  0  0  0  0  # atno 17321 bound_to 7965
  140.7094  143.2493  151.4629 LP  0  0  0  0  0  0  0  0  0  0  0  0  # atno 17342 bound_to 10162
  139.5798  144.1735  152.1953 LP  0  0  0  0  0  0  0  0  0  0  0  0  # atno 17343 bound_to 10162
  157.0145  130.9961  151.3356 LP  0  0  0  0  0  0  0  0  0  0  0  0  # atno 17370 bound_to 10713
  157.5387  130.8105  149.8002 LP  0  0  0  0  0  0  0  0  0  0  0  0  # atno 17371 bound_to 10713
  140.3470  134.7800  157.4439 LP  0  0  0  0  0  0  0  0  0  0  0  0  # atno 17394 bound_to 11000
  140.0891  134.5625  155.8462 LP  0  0  0  0  0  0  0  0  0  0  0  0  # atno 17395 bound_to 11000

$$$$
