#       Name:                AV-unprocessed.smi:2158
#       Creating user name   scv26
#       Creation time:       Fri Mar 27 11:57:02 2020


#       File generated by GOLD software.
#

@<TRIPOS>MOLECULE
AV-unprocessed.smi:2158
    37    37     1
SMALL
NO_CHARGES


@<TRIPOS>ATOM
      1 ****        -2.5355  -1.0041  -2.3479 C.3            1 S1                 0.0000
      2 ****        -2.8492  -1.7060  -1.0185 C.3            1 S1                 0.0000
      3 ****        -2.2284  -1.0120   0.2080 C.3            1 S1                 0.0000
      4 ****        -2.6655  -1.6818   1.5203 C.3            1 S1                 0.0000
      5 ****        -0.7715  -1.0191   0.1040 N.am           1 S1                 0.0000
      6 ****         0.0517  -0.0904   0.6134 C.2            1 S1                 0.0000
      7 ****        -0.3412   0.8779   1.2655 O.2            1 S1                 0.0000
      8 ****         1.5501  -0.3145   0.3704 C.3            1 S1                 0.0000
      9 ****         2.2970   0.9431   0.2120 N.am           1 S1                 0.0000
     10 ****         2.9734   1.4488   1.3363 C.2            1 S1                 0.0000
     11 ****         3.6787   2.5947   1.2848 C.2            1 S1                 0.0000
     12 ****         3.7304   3.3172   0.0199 C.2            1 S1                 0.0000
     13 ****         4.3726   4.3635  -0.0460 O.2            1 S1                 0.0000
     14 ****         3.0541   2.7880  -1.0416 N.pl3          1 S1                -1.0000
     15 ****         2.3384   1.6225  -0.9738 C.2            1 S1                 0.0000
     16 ****         1.7323   1.1638  -1.9430 O.2            1 S1                 0.0000
     17 ****        -3.0351  -1.5055  -3.1769 H              1 S1                 0.0000
     18 ****        -1.4660  -1.0032  -2.5603 H              1 S1                 0.0000
     19 ****        -2.8745   0.0320  -2.3338 H              1 S1                 0.0000
     20 ****        -3.9320  -1.7482  -0.8962 H              1 S1                 0.0000
     21 ****        -2.5097  -2.7415  -1.0688 H              1 S1                 0.0000
     22 ****        -2.5816   0.0211   0.2193 H              1 S1                 0.0000
     23 ****        -3.7506  -1.6686   1.6239 H              1 S1                 0.0000
     24 ****        -2.2493  -1.1648   2.3857 H              1 S1                 0.0000
     25 ****        -2.3391  -2.7214   1.5640 H              1 S1                 0.0000
     26 ****        -0.3573  -1.7798  -0.4146 H              1 S1                 0.0000
     27 ****         1.9459  -0.8899   1.2082 H              1 S1                 0.0000
     28 ****         1.6946  -0.9490  -0.5062 H              1 S1                 0.0000
     29 ****         2.8784   0.8573   2.2350 H              1 S1                 0.0000
     30 ****         4.1902   2.9712   2.1583 H              1 S1                 0.0000
     31 ****        -1.3185   1.0011   1.4381 LP             1 S1                 0.0000
     32 ****         0.3170   1.5407   1.6222 LP             1 S1                 0.0000
     33 ****         4.8507   4.7084   0.7617 LP             1 S1                 0.0000
     34 ****         4.4167   4.8696  -0.9074 LP             1 S1                 0.0000
     35 ****         3.0829   3.2767  -1.9136 LP             1 S1                 0.0000
     36 ****         1.2215   0.3086  -1.8544 LP             1 S1                 0.0000
     37 ****         1.7509   1.6465  -2.8186 LP             1 S1                 0.0000
@<TRIPOS>BOND
    1    1    2 1     
    2    1   17 1     
    3    1   18 1     
    4    1   19 1     
    5    2    3 1     
    6    2   20 1     
    7    2   21 1     
    8    3    4 1     
    9    3    5 1     
   10    3   22 1     
   11    4   23 1     
   12    4   24 1     
   13    4   25 1     
   14    5    6 am    
   15    5   26 1     
   16    6    7 2     
   17    6    8 1     
   18    8    9 1     
   19    8   27 1     
   20    8   28 1     
   21    9   15 am    
   22    9   10 1     
   23   10   11 2     
   24   10   29 1     
   25   11   12 1     
   26   11   30 1     
   27   12   13 2     
   28   12   14 1     
   29   14   15 1     
   30   15   16 2     
   31    7   31 1     
   32    7   32 1     
   33   13   33 1     
   34   13   34 1     
   35   14   35 1     
   36   16   36 1     
   37   16   37 1     
@<TRIPOS>SUBSTRUCTURE
      1 S1             1
@<TRIPOS>SET
LONE_PAIRS      STATIC     ATOMS    <user>   **** ""
7 31 32 33 34 35 36 37
DONOR_HYDROGENS      STATIC     ATOMS    <user>   **** ""
1 26
ATOM$BLUE        STATIC     ATOMS    COLORGROUP SYSTEM
7 31 32 33 34 35 36 37
ATOM$RED        STATIC     ATOMS    COLORGROUP SYSTEM
1 26
