#       Name:                AV-unprocessed.smi:671
#       Creating user name   scv26
#       Creation time:       Fri Mar 27 00:24:45 2020


#       File generated by GOLD software.
#

@<TRIPOS>MOLECULE
AV-unprocessed.smi:671
    52    53     1
SMALL
NO_CHARGES


@<TRIPOS>ATOM
      1 ****         3.3058  -5.3570  -3.6931 C.3            1 S1                 0.0000
      2 ****         3.4432  -4.2825  -4.7191 C.2            1 S1                 0.0000
      3 ****         3.6914  -4.5028  -6.0377 N.pl3          1 S1                 1.0000
      4 ****         3.7555  -3.3373  -6.6973 N.pl3          1 S1                 0.0000
      5 ****         4.0157  -3.3499  -8.1370 C.3            1 S1                 0.0000
      6 ****         3.5572  -2.2969  -5.8388 C.2            1 S1                 0.0000
      7 ****         3.5639  -0.8589  -6.2454 C.3            1 S1                 0.0000
      8 ****         3.3552  -2.8923  -4.5859 C.2            1 S1                 0.0000
      9 ****         3.0875  -2.1786  -3.2909 C.3            1 S1                 0.0000
     10 ****         1.5835  -2.0846  -2.9527 C.3            1 S1                 0.0000
     11 ****         0.8293  -1.1177  -3.8785 C.3            1 S1                 0.0000
     12 ****         1.4064  -1.6463  -1.5663 N.am           1 S1                 0.0000
     13 ****         1.4758  -2.3870  -0.4446 C.2            1 S1                 0.0000
     14 ****         1.7134  -3.5925  -0.4778 O.2            1 S1                 0.0000
     15 ****         1.2674  -1.7020   0.6927 N.am           1 S1                 0.0000
     16 ****         1.2660  -2.2674   2.0384 C.3            1 S1                 0.0000
     17 ****         1.7707  -1.2279   3.0580 C.3            1 S1                 0.0000
     18 ****         0.5737  -0.8768   3.9427 C.3            1 S1                 0.0000
     19 ****        -0.2900  -2.1331   3.9197 C.3            1 S1                 0.0000
     20 ****        -0.1636  -2.6494   2.4834 C.3            1 S1                 0.0000
     21 ****        -0.4791  -4.1452   2.3434 C.3            1 S1                 0.0000
     22 ****         2.3144  -5.3211  -3.2412 H              1 S1                 0.0000
     23 ****         4.0498  -5.2244  -2.9073 H              1 S1                 0.0000
     24 ****         3.4465  -6.3408  -4.1421 H              1 S1                 0.0000
     25 ****         3.4322  -2.5629  -8.6155 H              1 S1                 0.0000
     26 ****         3.7320  -4.3145  -8.5603 H              1 S1                 0.0000
     27 ****         5.0778  -3.1721  -8.3078 H              1 S1                 0.0000
     28 ****         3.5884  -0.2041  -5.3753 H              1 S1                 0.0000
     29 ****         2.6685  -0.6305  -6.8236 H              1 S1                 0.0000
     30 ****         4.4385  -0.6446  -6.8598 H              1 S1                 0.0000
     31 ****         3.6092  -2.7044  -2.4906 H              1 S1                 0.0000
     32 ****         3.5264  -1.1808  -3.2993 H              1 S1                 0.0000
     33 ****         1.1256  -3.0680  -3.0723 H              1 S1                 0.0000
     34 ****         0.8682  -1.4483  -4.9162 H              1 S1                 0.0000
     35 ****         1.2497  -0.1124  -3.8324 H              1 S1                 0.0000
     36 ****        -0.2232  -1.0506  -3.6007 H              1 S1                 0.0000
     37 ****         1.2353  -0.6591  -1.4385 H              1 S1                 0.0000
     38 ****         1.0862  -0.7119   0.6190 H              1 S1                 0.0000
     39 ****         1.9273  -3.1353   2.0828 H              1 S1                 0.0000
     40 ****         2.5515  -1.6792   3.6716 H              1 S1                 0.0000
     41 ****         2.2045  -0.3406   2.5945 H              1 S1                 0.0000
     42 ****         0.8689  -0.5872   4.9516 H              1 S1                 0.0000
     43 ****         0.0218  -0.0443   3.5058 H              1 S1                 0.0000
     44 ****         0.1150  -2.8647   4.6206 H              1 S1                 0.0000
     45 ****        -1.3238  -1.9359   4.2049 H              1 S1                 0.0000
     46 ****        -0.8824  -2.0914   1.8798 H              1 S1                 0.0000
     47 ****         0.2051  -4.7527   2.9367 H              1 S1                 0.0000
     48 ****        -0.3950  -4.4669   1.3051 H              1 S1                 0.0000
     49 ****        -1.4936  -4.3638   2.6767 H              1 S1                 0.0000
     50 ****         3.8190  -5.3844  -6.5186 H              1 S1                 0.0000
     51 ****         1.8614  -4.0490  -1.3551 LP             1 S1                 0.0000
     52 ****         1.7588  -4.1168   0.3725 LP             1 S1                 0.0000
@<TRIPOS>BOND
    1    1    2 1     
    2    1   22 1     
    3    1   23 1     
    4    1   24 1     
    5    2    8 1     
    6    2    3 2     
    7    3    4 1     
    8    3   50 1     
    9    4    5 1     
   10    4    6 1     
   11    5   25 1     
   12    5   26 1     
   13    5   27 1     
   14    6    7 1     
   15    6    8 2     
   16    7   28 1     
   17    7   29 1     
   18    7   30 1     
   19    8    9 1     
   20    9   10 1     
   21    9   31 1     
   22    9   32 1     
   23   10   11 1     
   24   10   12 1     
   25   10   33 1     
   26   11   34 1     
   27   11   35 1     
   28   11   36 1     
   29   12   13 am    
   30   12   37 1     
   31   13   14 2     
   32   13   15 am    
   33   15   16 1     
   34   15   38 1     
   35   16   20 1     
   36   16   17 1     
   37   16   39 1     
   38   17   18 1     
   39   17   40 1     
   40   17   41 1     
   41   18   19 1     
   42   18   42 1     
   43   18   43 1     
   44   19   20 1     
   45   19   44 1     
   46   19   45 1     
   47   20   21 1     
   48   20   46 1     
   49   21   47 1     
   50   21   48 1     
   51   21   49 1     
   52   14   51 1     
   53   14   52 1     
@<TRIPOS>SUBSTRUCTURE
      1 S1             1
@<TRIPOS>SET
LONE_PAIRS      STATIC     ATOMS    <user>   **** ""
2 51 52
DONOR_HYDROGENS      STATIC     ATOMS    <user>   **** ""
3 50 37 38
ATOM$BLUE        STATIC     ATOMS    COLORGROUP SYSTEM
2 51 52
ATOM$RED        STATIC     ATOMS    COLORGROUP SYSTEM
3 50 37 38
