AV-unprocessed.smi:2749|AV-procd|sdf|10588|dock2
  -GOLD-   2272015 33D 1   1.00000     0.00000
 Structure written by MMmdl.
 32 34  0  0  0  0  0  0  0  0  1 V2000
  154.2276  139.8035  158.9192 O   0  0  0  0  0  0  0  0  0  0  0  0
  154.4221  139.6433  160.1230 C   0  0  0  0  0  0  0  0  0  0  0  0
  154.0426  140.5821  161.0169 N   0  0  0  0  0  0  0  0  0  0  0  0
  153.4040  141.8468  160.8506 C   0  0  0  0  0  0  0  0  0  0  0  0
  153.4992  142.3821  159.5454 C   0  0  0  0  0  0  0  0  0  0  0  0
  152.9110  143.6295  159.2588 C   0  0  0  0  0  0  0  0  0  0  0  0
  152.2413  144.3131  160.2886 C   0  0  0  0  0  0  0  0  0  0  0  0
  151.6605  145.5149  160.0619 F   0  0  0  0  0  0  0  0  0  0  0  0
  152.1916  143.7157  161.5610 C   0  0  0  0  0  0  0  0  0  0  0  0
  152.7552  142.5200  161.8355 N   0  0  0  0  0  0  0  0  0  0  0  0
  155.0095  138.5462  160.6270 N   0  0  0  0  0  0  0  0  0  0  0  0
  155.5040  137.4036  159.8644 C   0  0  1  0  0  0  0  0  0  0  0  0
  156.1500  136.3502  160.7703 C   0  0  0  0  0  0  0  0  0  0  0  0
  155.2871  135.1142  160.4817 C   0  0  2  0  0  0  0  0  0  0  0  0
  155.5204  134.5628  159.0675 C   0  0  0  0  0  0  0  0  0  0  0  0
  154.8242  135.6129  158.2011 C   0  0  0  0  0  0  0  0  0  0  0  0
  154.3336  136.6110  159.2581 C   0  0  1  0  0  0  0  0  0  0  0  0
  154.0190  135.7229  160.3184 O   0  0  0  0  0  0  0  0  0  0  0  0
  154.2301  140.3369  161.9781 H   0  0  0  0  0  0  0  0  0  0  0  0
  154.0184  141.8442  158.7653 H   0  0  0  0  0  0  0  0  0  0  0  0
  152.9737  144.0528  158.2672 H   0  0  0  0  0  0  0  0  0  0  0  0
  151.6883  144.2086  162.3798 H   0  0  0  0  0  0  0  0  0  0  0  0
  155.1265  138.5013  161.6298 H   0  0  0  0  0  0  0  0  0  0  0  0
  156.1924  137.7204  159.0789 H   0  0  0  0  0  0  0  0  0  0  0  0
  157.2026  136.1843  160.5389 H   0  0  0  0  0  0  0  0  0  0  0  0
  156.0765  136.6257  161.8235 H   0  0  0  0  0  0  0  0  0  0  0  0
  155.3243  134.3561  161.2644 H   0  0  0  0  0  0  0  0  0  0  0  0
  156.5804  134.4557  158.8344 H   0  0  0  0  0  0  0  0  0  0  0  0
  155.0433  133.5898  158.9454 H   0  0  0  0  0  0  0  0  0  0  0  0
  155.4901  136.0707  157.4689 H   0  0  0  0  0  0  0  0  0  0  0  0
  153.9824  135.1700  157.6674 H   0  0  0  0  0  0  0  0  0  0  0  0
  153.4984  137.2267  158.9218 H   0  0  0  0  0  0  0  0  0  0  0  0
  1  2  2  0  0  0  0
  2  3  1  0  0  0  0
  2 11  1  0  0  0  0
  3  4  1  0  0  0  0
  3 19  1  0  0  0  0
  4 10  1  0  0  0  0
  4  5  2  0  0  0  0
  5  6  1  0  0  0  0
  5 20  1  0  0  0  0
  6  7  2  0  0  0  0
  6 21  1  0  0  0  0
  7  8  1  0  0  0  0
  7  9  1  0  0  0  0
  9 10  2  0  0  0  0
  9 22  1  0  0  0  0
 11 12  1  0  0  0  0
 11 23  1  0  0  0  0
 12 17  1  0  0  0  0
 12 13  1  0  0  0  0
 12 24  1  0  0  0  0
 13 14  1  0  0  0  0
 13 25  1  0  0  0  0
 13 26  1  0  0  0  0
 14 18  1  0  0  0  0
 14 15  1  0  0  0  0
 14 27  1  0  0  0  0
 15 16  1  0  0  0  0
 15 28  1  0  0  0  0
 15 29  1  0  0  0  0
 16 17  1  0  0  0  0
 16 30  1  0  0  0  0
 16 31  1  0  0  0  0
 17 18  1  0  0  0  0
 17 32  1  0  0  0  0
M  END
> <s_m_source_file>
AV-unprocessed.smi

> <i_m_source_file_index>
2749

> <i_lp_mmshare_version>
43012

> <i_f3d_flags>
0

> <s_epik_input>
W0NIMl0xW0NIMl1bQ0BIXShPMilbQ0BASF0oW0NIMl1bQ0BASF0xMilbTkhdQyg9TylbTkhdYzNbY0hdW2NIXWMoRilbY0hdbjM=

> <s_epik_cmdline>
J2VwaWtfcHl0aG9uJywgJy1waCcsICc3LjAnLCAnLXRuJywgJzgnLCAnLW1hJywgJzIwMCcsICctbWV0YWxfYmluZGluZycsICctaW1hZScsICc8aW5maWxlLm1hZT4nLCAnLW9tYWUnLCAnPG91dGZpbGUubWFlPic=

> <r_lp_tautomer_probability>
1

> <r_epik_Ionization_Penalty>
3.37159e-05

> <r_epik_Ionization_Penalty_Charging>
0

> <r_epik_Ionization_Penalty_Neutral>
3.37159e-05

> <r_epik_State_Penalty>
-0

> <r_epik_Charging_Adjusted_Penalty>
0

> <i_epik_Tot_Q>
0

> <i_epik_Tot_abs_Q>
0

> <r_epik_Metal_State_Penalty>
-0

> <b_epik_Metal_Only>
0

> <s_lp_Force_Field>
OPLS_2005

> <r_lp_Energy>
42.1361

> <b_lp_Chiralities_Consistent>
1

> <s_lp_Variant>
AV-unprocessed.smi:2749-4

> <Gold.Version>
5.8.1

> <Gold.Id.Protein>
6NUR|6NUR_protein|mol2

> <Gold.PLP.Fitness>
39.5896

> <Gold.PLP.PLP>
-33.8098

> <Gold.PLP.part.hbond>
-2.0000

> <Gold.PLP.part.metal>
0.0000

> <Gold.PLP.part.buried>
-5.5103

> <Gold.PLP.part.nonpolar>
-26.0645

> <Gold.PLP.part.repulsive>
0.1121

> <Gold.PLP.ligand.clash>
0.0000

> <Gold.PLP.ligand.torsion>
0.1250

> <Gold.PLP.Chemscore.Hbond>
2.0000

> <Gold.PLP.Chemscore.CHOScore>
0.0000

> <Gold.PLP.Chemscore.Metal>
0.0000

> <Gold.Chemscore.Hbonds>
donor molecule, donor type, donor heavy atom, donor atom, acceptor molecule, acceptor atom, score
      P1  H  6896  6908       L1    18  1.00
      P1  H  7997  8010       L1     1  1.00

> <Gold.PLP.Chemscore.Internal.Correction>
0.0299

> <Gold.Rescore>
     Score         DG    S(hbond)    S(metal)    S(lipo)     H(rot)  DE(clash)    DE(int)     intcor
     15.52     -17.06       1.98        0.00      64.36       1.00       0.00       1.54       ----

> <Gold.Chemscore.Fitness>
15.5184

> <Gold.Chemscore.DG>
-17.0629

> <Gold.Chemscore.ZeroCoef>
-5.4800

> <Gold.Chemscore.Hbond>
1.9797

> <Gold.Chemscore.Metal>
0.0000

> <Gold.Chemscore.Lipo>
64.3635

> <Gold.Chemscore.Internal_Hbond>
0.0000

> <Gold.Chemscore.DEClash>
0.0000

> <Gold.Chemscore.DEInternal>
1.5444

> <Gold.Chemscore.Rot>
1.0000

> <Gold.Chemscore.Internal.Correction>
   9.000000E+99

> <Gold.Chemscore.Hbonds>
donor molecule, donor type, donor heavy atom, donor atom, acceptor molecule, acceptor atom, score
      P1  H  6896  6908       L1    18  0.86
      P1  H  7997  8010       L1     1  0.98

> <Gold.Chemscore.Hbond.Weighted>
-6.6123

> <Gold.Chemscore.Metal.Weighted>
-0.0000

> <Gold.Chemscore.Lipo.Weighted>
-7.5305

> <Gold.Chemscore.Internal_Hbond.Weighted>
0.0000

> <Gold.Chemscore.DEClash.Weighted>
0.0000

> <Gold.Chemscore.DEInternal.Weighted>
1.5444

> <Gold.Chemscore.Rot.Weighted>
2.5600

> <Gold.Chemscore.Internal.Correction.Weighted>
   9.000000E+99

> <Gold.Protein.RotatedTorsions>
[ 6907 6896 6895 6894 ] final  -53.57 input  -60.11 | X-H torsion
[ 7974 7965 7964 7962 ] final   87.20 input  175.53 | X-H torsion
[ 8008 7997 7996 7995 ] final    1.69 input   59.86 | X-H torsion
[ 10167 10162 10161 10158 ] final   -1.67 input  -65.29 | X-H torsion
[ 10718 10713 10712 10709 ] final  -27.90 input   66.30 | X-H torsion
[ 10763 10752 10751 10750 ] final  109.54 input  -60.55 | X-H torsion
[ 11005 11000 10999 10996 ] final   60.43 input  -57.11 | X-H torsion

> <Gold.Protein.ActiveResidues>
 VAL166  LYS551  ARG553  GLY616  TRP617  ASP618  TYR619  PRO620  LYS621  CYS622 
 ASP623  PHE694  ASN695  SER759  ASP760  ASP761  ALA762  ILE779  LEU786  VAL792 
 PHE793  MET794  SER795  GLU796  ALA797  LYS798  CYS799  TRP800  GLU811  SER814 

> <Gold.Protein.RotatedAtoms>
  150.8414  134.7708  159.6935 H   0  0  0  0  0  0  0  0  0  0  0  0  # atno 6907 bound_to 6896
  152.4501  134.5409  159.9848 H   0  0  0  0  0  0  0  0  0  0  0  0  # atno 6908 bound_to 6896
  151.5548  133.3374  159.2995 H   0  0  0  0  0  0  0  0  0  0  0  0  # atno 6909 bound_to 6896
  145.5622  139.2305  143.2453 H   0  0  0  0  0  0  0  0  0  0  0  0  # atno 7974 bound_to 7965
  154.6827  140.2636  155.6892 H   0  0  0  0  0  0  0  0  0  0  0  0  # atno 8008 bound_to 7997
  156.2703  140.2807  156.1300 H   0  0  0  0  0  0  0  0  0  0  0  0  # atno 8009 bound_to 7997
  155.1008  140.0374  157.2686 H   0  0  0  0  0  0  0  0  0  0  0  0  # atno 8010 bound_to 7997
  140.6820  143.6747  150.8155 H   0  0  0  0  0  0  0  0  0  0  0  0  # atno 10167 bound_to 10162
  156.4321  130.4447  149.7110 H   0  0  0  0  0  0  0  0  0  0  0  0  # atno 10718 bound_to 10713
  153.4361  135.3777  155.2200 H   0  0  0  0  0  0  0  0  0  0  0  0  # atno 10763 bound_to 10752
  154.8752  135.3852  154.4209 H   0  0  0  0  0  0  0  0  0  0  0  0  # atno 10764 bound_to 10752
  153.4748  135.7087  153.6035 H   0  0  0  0  0  0  0  0  0  0  0  0  # atno 10765 bound_to 10752
  140.0232  134.6122  155.9610 H   0  0  0  0  0  0  0  0  0  0  0  0  # atno 11005 bound_to 11000
  146.1843  140.6447  142.9175 LP  0  0  0  0  0  0  0  0  0  0  0  0  # atno 17320 bound_to 7965
  144.7477  140.5112  143.6824 LP  0  0  0  0  0  0  0  0  0  0  0  0  # atno 17321 bound_to 7965
  140.0449  143.5308  152.2701 LP  0  0  0  0  0  0  0  0  0  0  0  0  # atno 17342 bound_to 10162
  139.6149  144.7617  151.2868 LP  0  0  0  0  0  0  0  0  0  0  0  0  # atno 17343 bound_to 10162
  156.4008  130.7674  151.2681 LP  0  0  0  0  0  0  0  0  0  0  0  0  # atno 17370 bound_to 10713
  157.7508  131.0240  150.3859 LP  0  0  0  0  0  0  0  0  0  0  0  0  # atno 17371 bound_to 10713
  141.1787  133.6543  156.4930 LP  0  0  0  0  0  0  0  0  0  0  0  0  # atno 17394 bound_to 11000
  140.4351  134.7066  157.4962 LP  0  0  0  0  0  0  0  0  0  0  0  0  # atno 17395 bound_to 11000

$$$$
