AV-unprocessed.smi:1581|AV-procd|sdf|6360|dock3
  -GOLD-   22720 6583D 1   1.00000     0.00000
 Structure written by MMmdl.
 34 35  0  0  0  0  0  0  0  0  1 V2000
  146.9294  138.7389  151.8948 C   0  0  0  0  0  0  0  0  0  0  0  0
  147.1419  139.4845  153.2076 C   0  0  0  0  0  0  0  0  0  0  0  0
  146.2679  139.4739  154.0736 O   0  0  0  0  0  0  0  0  0  0  0  0
  148.3085  140.1338  153.3383 N   0  0  0  0  0  0  0  0  0  0  0  0
  148.7064  140.9124  154.5076 C   0  0  0  0  0  0  0  0  0  0  0  0
  150.0543  140.5319  155.1084 C   0  0  0  0  0  0  0  0  0  0  0  0
  150.8476  139.5591  154.4694 C   0  0  0  0  0  0  0  0  0  0  0  0
  152.0954  139.2329  155.0316 C   0  0  0  0  0  0  0  0  0  0  0  0
  152.5726  139.8051  156.1562 N   0  0  0  0  0  0  0  0  0  0  0  0
  151.8191  140.7412  156.7841 C   0  0  0  0  0  0  0  0  0  0  0  0
  152.3227  141.3262  157.9654 N   0  0  0  0  0  0  0  0  0  0  0  0
  151.6154  142.5212  158.4187 C   0  0  0  0  0  0  0  0  0  0  0  0
  152.4143  143.2299  159.5265 C   0  0  0  0  0  0  0  0  0  0  0  0
  152.6960  142.3160  160.5815 O   0  0  0  0  0  0  0  0  0  0  0  0
  153.4822  141.2165  160.1345 C   0  0  0  0  0  0  0  0  0  0  0  0
  152.7119  140.4355  159.0568 C   0  0  0  0  0  0  0  0  0  0  0  0
  150.5568  141.1378  156.2824 C   0  0  0  0  0  0  0  0  0  0  0  0
  146.8865  139.4415  151.0622 H   0  0  0  0  0  0  0  0  0  0  0  0
  145.9959  138.1755  151.9153 H   0  0  0  0  0  0  0  0  0  0  0  0
  147.7461  138.0391  151.7162 H   0  0  0  0  0  0  0  0  0  0  0  0
  148.9665  140.0906  152.5737 H   0  0  0  0  0  0  0  0  0  0  0  0
  148.7087  141.9741  154.2549 H   0  0  0  0  0  0  0  0  0  0  0  0
  147.9434  140.7814  155.2749 H   0  0  0  0  0  0  0  0  0  0  0  0
  150.5105  139.0724  153.5660 H   0  0  0  0  0  0  0  0  0  0  0  0
  152.7281  138.4922  154.5654 H   0  0  0  0  0  0  0  0  0  0  0  0
  151.4422  143.2208  157.6022 H   0  0  0  0  0  0  0  0  0  0  0  0
  150.6354  142.2267  158.7965 H   0  0  0  0  0  0  0  0  0  0  0  0
  153.3437  143.6426  159.1312 H   0  0  0  0  0  0  0  0  0  0  0  0
  151.8400  144.0659  159.9261 H   0  0  0  0  0  0  0  0  0  0  0  0
  154.4391  141.5723  159.7486 H   0  0  0  0  0  0  0  0  0  0  0  0
  153.7022  140.5684  160.9828 H   0  0  0  0  0  0  0  0  0  0  0  0
  151.8196  139.9824  159.4914 H   0  0  0  0  0  0  0  0  0  0  0  0
  153.3379  139.6267  158.6777 H   0  0  0  0  0  0  0  0  0  0  0  0
  149.9883  141.9052  156.7857 H   0  0  0  0  0  0  0  0  0  0  0  0
  1  2  1  0  0  0  0
  1 18  1  0  0  0  0
  1 19  1  0  0  0  0
  1 20  1  0  0  0  0
  2  3  2  0  0  0  0
  2  4  1  0  0  0  0
  4  5  1  0  0  0  0
  4 21  1  0  0  0  0
  5  6  1  0  0  0  0
  5 22  1  0  0  0  0
  5 23  1  0  0  0  0
  6 17  1  0  0  0  0
  6  7  2  0  0  0  0
  7  8  1  0  0  0  0
  7 24  1  0  0  0  0
  8  9  2  0  0  0  0
  8 25  1  0  0  0  0
  9 10  1  0  0  0  0
 10 11  1  0  0  0  0
 10 17  2  0  0  0  0
 11 16  1  0  0  0  0
 11 12  1  0  0  0  0
 12 13  1  0  0  0  0
 12 26  1  0  0  0  0
 12 27  1  0  0  0  0
 13 14  1  0  0  0  0
 13 28  1  0  0  0  0
 13 29  1  0  0  0  0
 14 15  1  0  0  0  0
 15 16  1  0  0  0  0
 15 30  1  0  0  0  0
 15 31  1  0  0  0  0
 16 32  1  0  0  0  0
 16 33  1  0  0  0  0
 17 34  1  0  0  0  0
M  END
> <s_m_source_file>
AV-unprocessed.smi

> <i_m_source_file_index>
1581

> <i_lp_mmshare_version>
43012

> <i_f3d_flags>
0

> <s_epik_input>
W0NIM11DKD1PKVtOSF1bQ0gyXWMxW2NIXVtjSF1uYyhbY0hdMSlOMltDSDJdW0NIMl1PW0NIMl1bQ0gyXTI=

> <s_epik_cmdline>
J2VwaWtfcHl0aG9uJywgJy1waCcsICc3LjAnLCAnLXRuJywgJzgnLCAnLW1hJywgJzIwMCcsICctbWV0YWxfYmluZGluZycsICctaW1hZScsICc8aW5maWxlLm1hZT4nLCAnLW9tYWUnLCAnPG91dGZpbGUubWFlPic=

> <r_lp_tautomer_probability>
1

> <r_epik_Ionization_Penalty>
0.0056686

> <r_epik_Ionization_Penalty_Charging>
0

> <r_epik_Ionization_Penalty_Neutral>
0.0056686

> <r_epik_State_Penalty>
0.00415614

> <r_epik_Charging_Adjusted_Penalty>
0.00415614

> <i_epik_Tot_Q>
0

> <i_epik_Tot_abs_Q>
0

> <r_epik_Metal_State_Penalty>
-0

> <b_epik_Metal_Only>
0

> <s_lp_Force_Field>
OPLS_2005

> <r_lp_Energy>
12.8791

> <b_lp_Chiralities_Consistent>
1

> <s_lp_Variant>
AV-unprocessed.smi:1581-1

> <Gold.Version>
5.8.1

> <Gold.Id.Protein>
6NUR|6NUR_protein|mol2

> <Gold.PLP.Fitness>
41.7460

> <Gold.PLP.PLP>
-35.8599

> <Gold.PLP.part.hbond>
-2.0000

> <Gold.PLP.part.metal>
0.0000

> <Gold.PLP.part.buried>
-2.6169

> <Gold.PLP.part.nonpolar>
-31.4477

> <Gold.PLP.part.repulsive>
0.5302

> <Gold.PLP.ligand.clash>
0.0000

> <Gold.PLP.ligand.torsion>
0.2146

> <Gold.PLP.Chemscore.Hbond>
2.0000

> <Gold.PLP.Chemscore.CHOScore>
0.0000

> <Gold.PLP.Chemscore.Metal>
0.0000

> <Gold.Chemscore.Hbonds>
donor molecule, donor type, donor heavy atom, donor atom, acceptor molecule, acceptor atom, score
      L1  H     4    21       P1  7957  1.00
      P1  H  7997  8008       L1     9  0.98

> <Gold.PLP.Chemscore.Internal.Correction>
0.3153

> <Gold.Rescore>
     Score         DG    S(hbond)    S(metal)    S(lipo)     H(rot)  DE(clash)    DE(int)     intcor
     16.83     -17.15       1.85        0.00      80.71       1.54       0.07       0.24       ----

> <Gold.Chemscore.Fitness>
16.8335

> <Gold.Chemscore.DG>
-17.1493

> <Gold.Chemscore.ZeroCoef>
-5.4800

> <Gold.Chemscore.Hbond>
1.8505

> <Gold.Chemscore.Metal>
0.0000

> <Gold.Chemscore.Lipo>
80.7102

> <Gold.Chemscore.Internal_Hbond>
0.0000

> <Gold.Chemscore.DEClash>
0.0713

> <Gold.Chemscore.DEInternal>
0.2445

> <Gold.Chemscore.Rot>
1.5448

> <Gold.Chemscore.Internal.Correction>
   9.000000E+99

> <Gold.Chemscore.Hbonds>
donor molecule, donor type, donor heavy atom, donor atom, acceptor molecule, acceptor atom, score
      L1  H     4    21       P1  7957  0.95
      P1  H  7997  8008       L1     9  0.61

> <Gold.Chemscore.Hbond.Weighted>
-6.1808

> <Gold.Chemscore.Metal.Weighted>
-0.0000

> <Gold.Chemscore.Lipo.Weighted>
-9.4431

> <Gold.Chemscore.Internal_Hbond.Weighted>
0.0000

> <Gold.Chemscore.DEClash.Weighted>
0.0713

> <Gold.Chemscore.DEInternal.Weighted>
0.2445

> <Gold.Chemscore.Rot.Weighted>
3.9546

> <Gold.Chemscore.Internal.Correction.Weighted>
   9.000000E+99

> <Gold.Protein.RotatedTorsions>
[ 6907 6896 6895 6894 ] final -131.85 input  -60.11 | X-H torsion
[ 7974 7965 7964 7962 ] final   23.06 input  175.53 | X-H torsion
[ 8008 7997 7996 7995 ] final  -60.87 input   59.86 | X-H torsion
[ 10167 10162 10161 10158 ] final  117.74 input  -65.29 | X-H torsion
[ 10718 10713 10712 10709 ] final  103.79 input   66.30 | X-H torsion
[ 10763 10752 10751 10750 ] final  -20.16 input  -60.55 | X-H torsion
[ 11005 11000 10999 10996 ] final  122.79 input  -57.11 | X-H torsion

> <Gold.Protein.ActiveResidues>
 VAL166  LYS551  ARG553  GLY616  TRP617  ASP618  TYR619  PRO620  LYS621  CYS622 
 ASP623  PHE694  ASN695  SER759  ASP760  ASP761  ALA762  ILE779  LEU786  VAL792 
 PHE793  MET794  SER795  GLU796  ALA797  LYS798  CYS799  TRP800  GLU811  SER814 

> <Gold.Protein.RotatedAtoms>
  150.9557  133.6500  159.2763 H   0  0  0  0  0  0  0  0  0  0  0  0  # atno 6907 bound_to 6896
  151.3840  135.0943  159.9515 H   0  0  0  0  0  0  0  0  0  0  0  0  # atno 6908 bound_to 6896
  152.5128  133.9085  159.7531 H   0  0  0  0  0  0  0  0  0  0  0  0  # atno 6909 bound_to 6896
  146.2001  139.7797  142.8768 H   0  0  0  0  0  0  0  0  0  0  0  0  # atno 7974 bound_to 7965
  154.4420  140.1030  156.6342 H   0  0  0  0  0  0  0  0  0  0  0  0  # atno 8008 bound_to 7997
  155.5572  140.3487  155.4464 H   0  0  0  0  0  0  0  0  0  0  0  0  # atno 8009 bound_to 7997
  156.0486  140.1298  157.0065 H   0  0  0  0  0  0  0  0  0  0  0  0  # atno 8010 bound_to 7997
  139.6158  144.7091  151.2742 H   0  0  0  0  0  0  0  0  0  0  0  0  # atno 10167 bound_to 10162
  157.6761  131.0788  150.5609 H   0  0  0  0  0  0  0  0  0  0  0  0  # atno 10718 bound_to 10713
  153.6162  135.6994  153.5328 H   0  0  0  0  0  0  0  0  0  0  0  0  # atno 10763 bound_to 10752
  153.2976  135.4138  155.1223 H   0  0  0  0  0  0  0  0  0  0  0  0  # atno 10764 bound_to 10752
  154.8553  135.3641  154.5701 H   0  0  0  0  0  0  0  0  0  0  0  0  # atno 10765 bound_to 10752
  139.9284  134.9641  156.8162 H   0  0  0  0  0  0  0  0  0  0  0  0  # atno 11005 bound_to 11000
  145.3512  141.0308  143.3337 LP  0  0  0  0  0  0  0  0  0  0  0  0  # atno 17320 bound_to 7965
  144.8665  139.5101  143.6788 LP  0  0  0  0  0  0  0  0  0  0  0  0  # atno 17321 bound_to 7965
  140.7350  143.6749  150.8050 LP  0  0  0  0  0  0  0  0  0  0  0  0  # atno 17342 bound_to 10162
  140.0352  143.5402  152.2742 LP  0  0  0  0  0  0  0  0  0  0  0  0  # atno 17343 bound_to 10162
  156.5912  130.4329  149.5936 LP  0  0  0  0  0  0  0  0  0  0  0  0  # atno 17370 bound_to 10713
  156.2582  130.6947  151.1707 LP  0  0  0  0  0  0  0  0  0  0  0  0  # atno 17371 bound_to 10713
  140.6272  133.9939  155.7645 LP  0  0  0  0  0  0  0  0  0  0  0  0  # atno 17394 bound_to 11000
  141.0856  133.9995  157.3318 LP  0  0  0  0  0  0  0  0  0  0  0  0  # atno 17395 bound_to 11000

$$$$
