AV-unprocessed.smi:301|AV-procd|sdf|2270|dock2
  -GOLD-   2262022163D 1   1.00000     0.00000
 Structure written by MMmdl.
 32 33  0  0  0  0  0  0  0  0  1 V2000
  152.2720  144.7168  158.1945 C   0  0  0  0  0  0  0  0  0  0  0  0
  152.3618  143.3046  158.6624 C   0  0  0  0  0  0  0  0  0  0  0  0
  151.6794  142.2986  158.1098 N   0  0  0  0  0  0  0  0  0  0  0  0
  151.9269  141.0707  158.7335 C   0  0  0  0  0  0  0  0  0  0  0  0
  151.2408  139.8286  158.2420 C   0  0  0  0  0  0  0  0  0  0  0  0
  151.3791  139.6971  156.7224 C   0  0  0  0  0  0  0  0  0  0  0  0
  152.4892  139.7566  156.1922 O   0  0  0  0  0  0  0  0  0  0  0  0
  150.2437  139.5106  156.0316 N   0  0  0  0  0  0  0  0  0  0  0  0
  150.1607  139.3433  154.5851 C   0  0  0  0  0  0  0  0  0  0  0  0
  148.9745  140.1216  153.9920 C   0  0  2  0  0  0  0  0  0  0  0  0
  148.9075  141.5781  154.4390 C   0  0  0  0  0  0  0  0  0  0  0  0
  147.4615  141.9198  154.1500 C   0  0  0  0  0  0  0  0  0  0  0  0
  146.7357  140.5991  154.4165 C   0  0  0  0  0  0  0  0  0  0  0  0
  147.7390  139.5860  154.4487 O   0  0  0  0  0  0  0  0  0  0  0  0
  152.8251  141.1632  159.7685 C   0  0  0  0  0  0  0  0  0  0  0  0
  153.3795  142.7979  160.0050 S   0  0  0  0  0  0  0  0  0  0  0  0
  151.7400  144.7740  157.2443 H   0  0  0  0  0  0  0  0  0  0  0  0
  153.2718  145.1295  158.0594 H   0  0  0  0  0  0  0  0  0  0  0  0
  151.7397  145.3189  158.9309 H   0  0  0  0  0  0  0  0  0  0  0  0
  151.6686  138.9389  158.7057 H   0  0  0  0  0  0  0  0  0  0  0  0
  150.1867  139.8437  158.5233 H   0  0  0  0  0  0  0  0  0  0  0  0
  149.3758  139.4654  156.5457 H   0  0  0  0  0  0  0  0  0  0  0  0
  151.0956  139.6892  154.1432 H   0  0  0  0  0  0  0  0  0  0  0  0
  150.0769  138.2829  154.3412 H   0  0  0  0  0  0  0  0  0  0  0  0
  148.9906  140.0812  152.9012 H   0  0  0  0  0  0  0  0  0  0  0  0
  149.1052  141.6609  155.5088 H   0  0  0  0  0  0  0  0  0  0  0  0
  149.6121  142.2192  153.9085 H   0  0  0  0  0  0  0  0  0  0  0  0
  147.0881  142.7417  154.7617 H   0  0  0  0  0  0  0  0  0  0  0  0
  147.3504  142.2005  153.1016 H   0  0  0  0  0  0  0  0  0  0  0  0
  146.2196  140.6171  155.3768 H   0  0  0  0  0  0  0  0  0  0  0  0
  145.9992  140.3873  153.6408 H   0  0  0  0  0  0  0  0  0  0  0  0
  153.1891  140.3719  160.4068 H   0  0  0  0  0  0  0  0  0  0  0  0
  1  2  1  0  0  0  0
  1 17  1  0  0  0  0
  1 18  1  0  0  0  0
  1 19  1  0  0  0  0
  2 16  1  0  0  0  0
  2  3  2  0  0  0  0
  3  4  1  0  0  0  0
  4  5  1  0  0  0  0
  4 15  2  0  0  0  0
  5  6  1  0  0  0  0
  5 20  1  0  0  0  0
  5 21  1  0  0  0  0
  6  7  2  0  0  0  0
  6  8  1  0  0  0  0
  8  9  1  0  0  0  0
  8 22  1  0  0  0  0
  9 10  1  0  0  0  0
  9 23  1  0  0  0  0
  9 24  1  0  0  0  0
 10 14  1  0  0  0  0
 10 11  1  0  0  0  0
 10 25  1  0  0  0  0
 11 12  1  0  0  0  0
 11 26  1  0  0  0  0
 11 27  1  0  0  0  0
 12 13  1  0  0  0  0
 12 28  1  0  0  0  0
 12 29  1  0  0  0  0
 13 14  1  0  0  0  0
 13 30  1  0  0  0  0
 13 31  1  0  0  0  0
 15 16  1  0  0  0  0
 15 32  1  0  0  0  0
M  END
> <s_m_source_file>
AV-unprocessed.smi

> <i_m_source_file_index>
301

> <i_lp_mmshare_version>
43012

> <i_f3d_flags>
0

> <s_epik_input>
W0NIM11jMW5jKFtjSF1zMSlbQ0gyXUMoPU8pW05IXVtDSDJdW0NAQEhdMltDSDJdW0NIMl1bQ0gyXU8y

> <s_epik_cmdline>
J2VwaWtfcHl0aG9uJywgJy1waCcsICc3LjAnLCAnLXRuJywgJzgnLCAnLW1hJywgJzIwMCcsICctbWV0YWxfYmluZGluZycsICctaW1hZScsICc8aW5maWxlLm1hZT4nLCAnLW9tYWUnLCAnPG91dGZpbGUubWFlPic=

> <r_lp_tautomer_probability>
1

> <r_epik_Ionization_Penalty>
6.06873e-05

> <r_epik_Ionization_Penalty_Charging>
0

> <r_epik_Ionization_Penalty_Neutral>
6.06873e-05

> <r_epik_State_Penalty>
-0

> <r_epik_Charging_Adjusted_Penalty>
0

> <i_epik_Tot_Q>
0

> <i_epik_Tot_abs_Q>
0

> <r_epik_Metal_State_Penalty>
-0

> <b_epik_Metal_Only>
0

> <s_lp_Force_Field>
OPLS_2005

> <r_lp_Energy>
15.97

> <b_lp_Chiralities_Consistent>
1

> <s_lp_Variant>
AV-unprocessed.smi:301-1

> <Gold.Version>
5.8.1

> <Gold.Id.Protein>
6NUR|6NUR_protein|mol2

> <Gold.PLP.Fitness>
36.7036

> <Gold.PLP.PLP>
-34.3202

> <Gold.PLP.part.hbond>
-1.0000

> <Gold.PLP.part.metal>
0.0000

> <Gold.PLP.part.buried>
-1.1027

> <Gold.PLP.part.nonpolar>
-32.3025

> <Gold.PLP.part.repulsive>
0.1772

> <Gold.PLP.ligand.clash>
0.0000

> <Gold.PLP.ligand.torsion>
0.3147

> <Gold.PLP.Chemscore.Hbond>
1.0000

> <Gold.PLP.Chemscore.CHOScore>
0.0000

> <Gold.PLP.Chemscore.Metal>
0.0000

> <Gold.Chemscore.Hbonds>
donor molecule, donor type, donor heavy atom, donor atom, acceptor molecule, acceptor atom, score
      P1  H  7997  8010       L1     7  1.00

> <Gold.PLP.Chemscore.Internal.Correction>
0.0128

> <Gold.Rescore>
     Score         DG    S(hbond)    S(metal)    S(lipo)     H(rot)  DE(clash)    DE(int)     intcor
     15.57     -16.08       1.00        0.00      95.07       1.51       0.15       0.36       ----

> <Gold.Chemscore.Fitness>
15.5708

> <Gold.Chemscore.DG>
-16.0751

> <Gold.Chemscore.ZeroCoef>
-5.4800

> <Gold.Chemscore.Hbond>
0.9997

> <Gold.Chemscore.Metal>
0.0000

> <Gold.Chemscore.Lipo>
95.0695

> <Gold.Chemscore.Internal_Hbond>
0.0000

> <Gold.Chemscore.DEClash>
0.1484

> <Gold.Chemscore.DEInternal>
0.3558

> <Gold.Chemscore.Rot>
1.5106

> <Gold.Chemscore.Internal.Correction>
   9.000000E+99

> <Gold.Chemscore.Hbonds>
donor molecule, donor type, donor heavy atom, donor atom, acceptor molecule, acceptor atom, score
      P1  H  7997  8010       L1     7  1.00

> <Gold.Chemscore.Hbond.Weighted>
-3.3390

> <Gold.Chemscore.Metal.Weighted>
-0.0000

> <Gold.Chemscore.Lipo.Weighted>
-11.1231

> <Gold.Chemscore.Internal_Hbond.Weighted>
0.0000

> <Gold.Chemscore.DEClash.Weighted>
0.1484

> <Gold.Chemscore.DEInternal.Weighted>
0.3558

> <Gold.Chemscore.Rot.Weighted>
3.8670

> <Gold.Chemscore.Internal.Correction.Weighted>
   9.000000E+99

> <Gold.Protein.RotatedTorsions>
[ 6907 6896 6895 6894 ] final   77.08 input  -60.11 | X-H torsion
[ 7974 7965 7964 7962 ] final  178.23 input  175.53 | X-H torsion
[ 8008 7997 7996 7995 ] final   75.39 input   59.86 | X-H torsion
[ 10167 10162 10161 10158 ] final  -70.11 input  -65.29 | X-H torsion
[ 10718 10713 10712 10709 ] final  -49.24 input   66.30 | X-H torsion
[ 10763 10752 10751 10750 ] final  -34.81 input  -60.55 | X-H torsion
[ 11005 11000 10999 10996 ] final  162.05 input  -57.11 | X-H torsion

> <Gold.Protein.ActiveResidues>
 VAL166  LYS551  ARG553  GLY616  TRP617  ASP618  TYR619  PRO620  LYS621  CYS622 
 ASP623  PHE694  ASN695  SER759  ASP760  ASP761  ALA762  ILE779  LEU786  VAL792 
 PHE793  MET794  SER795  GLU796  ALA797  LYS798  CYS799  TRP800  GLU811  SER814 

> <Gold.Protein.RotatedAtoms>
  152.5102  134.3871  159.9370 H   0  0  0  0  0  0  0  0  0  0  0  0  # atno 6907 bound_to 6896
  151.3829  133.3809  159.2720 H   0  0  0  0  0  0  0  0  0  0  0  0  # atno 6908 bound_to 6896
  150.9491  134.8913  159.7719 H   0  0  0  0  0  0  0  0  0  0  0  0  # atno 6909 bound_to 6896
  144.7159  140.0366  143.6438 H   0  0  0  0  0  0  0  0  0  0  0  0  # atno 7974 bound_to 7965
  155.8122  140.3473  155.5464 H   0  0  0  0  0  0  0  0  0  0  0  0  # atno 8008 bound_to 7997
  155.8429  140.0944  157.1743 H   0  0  0  0  0  0  0  0  0  0  0  0  # atno 8009 bound_to 7997
  154.4005  140.1391  156.3738 H   0  0  0  0  0  0  0  0  0  0  0  0  # atno 8010 bound_to 7997
  140.5378  143.2317  151.7144 H   0  0  0  0  0  0  0  0  0  0  0  0  # atno 10167 bound_to 10162
  156.1912  130.4153  149.9369 H   0  0  0  0  0  0  0  0  0  0  0  0  # atno 10718 bound_to 10713
  153.8529  135.6847  153.4790 H   0  0  0  0  0  0  0  0  0  0  0  0  # atno 10763 bound_to 10752
  153.1387  135.4667  154.9460 H   0  0  0  0  0  0  0  0  0  0  0  0  # atno 10764 bound_to 10752
  154.7794  135.3264  154.7971 H   0  0  0  0  0  0  0  0  0  0  0  0  # atno 10765 bound_to 10752
  140.2219  134.8190  157.3229 H   0  0  0  0  0  0  0  0  0  0  0  0  # atno 11005 bound_to 11000
  146.0058  139.3129  143.0900 LP  0  0  0  0  0  0  0  0  0  0  0  0  # atno 17320 bound_to 7965
  145.8739  140.9403  143.0636 LP  0  0  0  0  0  0  0  0  0  0  0  0  # atno 17321 bound_to 7965
  139.4977  144.4015  152.0176 LP  0  0  0  0  0  0  0  0  0  0  0  0  # atno 17342 bound_to 10162
  140.3122  144.3525  150.6031 LP  0  0  0  0  0  0  0  0  0  0  0  0  # atno 17343 bound_to 10162
  156.7109  130.8969  151.3609 LP  0  0  0  0  0  0  0  0  0  0  0  0  # atno 17370 bound_to 10713
  157.6930  130.9253  150.0565 LP  0  0  0  0  0  0  0  0  0  0  0  0  # atno 17371 bound_to 10713
  140.1841  134.4453  155.7754 LP  0  0  0  0  0  0  0  0  0  0  0  0  # atno 17394 bound_to 11000
  141.2222  133.6997  156.7918 LP  0  0  0  0  0  0  0  0  0  0  0  0  # atno 17395 bound_to 11000

$$$$
