AV-unprocessed.smi:65|AV-procd|sdf|611|dock5
  -GOLD-   2262016503D 1   1.00000     0.00000
 Structure written by MMmdl.
 26 27  0  0  0  0  0  0  0  0  2 V2000
  146.7716  137.7574  152.0239 N   0  0  0  0  0  0  0  0  0  0  0  0
  145.6116  137.0220  152.0726 C   0  0  0  0  0  0  0  0  0  0  0  0
  144.4593  137.6569  152.3323 N   0  3  0  0  0  0  0  0  0  0  0  0
  143.3038  136.9497  152.3850 C   0  0  0  0  0  0  0  0  0  0  0  0
  143.3121  135.5590  152.1717 C   0  0  0  0  0  0  0  0  0  0  0  0
  144.5573  134.9616  151.9099 C   0  0  0  0  0  0  0  0  0  0  0  0
  144.6305  133.5800  151.6751 N   0  0  0  0  0  0  0  0  0  0  0  0
  143.6650  133.0903  150.6940 C   0  0  0  0  0  0  0  0  0  0  0  0
  144.4749  132.4314  149.5760 C   0  0  0  0  0  0  0  0  0  0  0  0
  145.7192  131.9519  150.3127 C   0  0  1  0  0  0  0  0  0  0  0  0
  146.8220  131.7685  149.4512 O   0  0  0  0  0  0  0  0  0  0  0  0
  145.9556  133.0728  151.3243 C   0  0  0  0  0  0  0  0  0  0  0  0
  145.6874  135.7040  151.8577 N   0  0  0  0  0  0  0  0  0  0  0  0
  147.6541  137.3061  151.8301 H   0  0  0  0  0  0  0  0  0  0  0  0
  146.7617  138.7477  152.2208 H   0  0  0  0  0  0  0  0  0  0  0  0
  142.4109  137.5202  152.5950 H   0  0  0  0  0  0  0  0  0  0  0  0
  142.4014  134.9785  152.2075 H   0  0  0  0  0  0  0  0  0  0  0  0
  143.0304  132.3518  151.1849 H   0  0  0  0  0  0  0  0  0  0  0  0
  143.0126  133.8742  150.3055 H   0  0  0  0  0  0  0  0  0  0  0  0
  143.9348  131.6278  149.0744 H   0  0  0  0  0  0  0  0  0  0  0  0
  144.7420  133.1806  148.8287 H   0  0  0  0  0  0  0  0  0  0  0  0
  145.5032  131.0190  150.8354 H   0  0  0  0  0  0  0  0  0  0  0  0
  147.5312  131.3880  149.9467 H   0  0  0  0  0  0  0  0  0  0  0  0
  146.5742  133.8555  150.8826 H   0  0  0  0  0  0  0  0  0  0  0  0
  146.4769  132.7051  152.2086 H   0  0  0  0  0  0  0  0  0  0  0  0
  144.4394  138.6648  152.4903 H   0  0  0  0  0  0  0  0  0  0  0  0
  1  2  1  0  0  0  0
  1 14  1  0  0  0  0
  1 15  1  0  0  0  0
  2 13  1  0  0  0  0
  2  3  2  0  0  0  0
  3  4  1  0  0  0  0
  3 26  1  0  0  0  0
  4  5  2  0  0  0  0
  4 16  1  0  0  0  0
  5  6  1  0  0  0  0
  5 17  1  0  0  0  0
  6  7  1  0  0  0  0
  6 13  2  0  0  0  0
  7 12  1  0  0  0  0
  7  8  1  0  0  0  0
  8  9  1  0  0  0  0
  8 18  1  0  0  0  0
  8 19  1  0  0  0  0
  9 10  1  0  0  0  0
  9 20  1  0  0  0  0
  9 21  1  0  0  0  0
 10 11  1  0  0  0  0
 10 12  1  0  0  0  0
 10 22  1  0  0  0  0
 11 23  1  0  0  0  0
 12 24  1  0  0  0  0
 12 25  1  0  0  0  0
M  CHG  1   3   1
M  END
> <s_m_source_file>
AV-unprocessed.smi

> <i_m_source_file_index>
65

> <i_lp_mmshare_version>
43012

> <i_f3d_flags>
0

> <s_epik_input>
W05IMl1jMW5bY0hdW2NIXWMobjEpTjJbQ0gyXVtDSDJdW0NAQEhdKFtPSF0pW0NIMl0y

> <s_epik_cmdline>
J2VwaWtfcHl0aG9uJywgJy1waCcsICc3LjAnLCAnLXRuJywgJzgnLCAnLW1hJywgJzIwMCcsICctbWV0YWxfYmluZGluZycsICctaW1hZScsICc8aW5maWxlLm1hZT4nLCAnLW9tYWUnLCAnPG91dGZpbGUubWFlPic=

> <r_lp_tautomer_probability>
0.575011

> <r_epik_Ionization_Penalty>
0.212468

> <r_epik_Ionization_Penalty_Charging>
0.212464

> <r_epik_Ionization_Penalty_Neutral>
4.40197e-06

> <r_epik_State_Penalty>
0.43682

> <r_epik_Charging_Adjusted_Penalty>
0.649284

> <i_epik_Tot_Q>
1

> <i_epik_Tot_abs_Q>
1

> <r_epik_Metal_State_Penalty>
0.733762

> <b_epik_Metal_Only>
0

> <s_lp_Force_Field>
OPLS_2005

> <r_lp_Energy>
27.649

> <b_lp_Chiralities_Consistent>
1

> <s_lp_Variant>
AV-unprocessed.smi:65-1

> <Gold.Version>
5.8.1

> <Gold.Id.Protein>
6NUR|6NUR_protein|mol2

> <Gold.PLP.Fitness>
41.1230

> <Gold.PLP.PLP>
-26.2961

> <Gold.PLP.part.hbond>
-4.0000

> <Gold.PLP.part.metal>
0.0000

> <Gold.PLP.part.buried>
-5.7282

> <Gold.PLP.part.nonpolar>
-17.3141

> <Gold.PLP.part.repulsive>
0.3902

> <Gold.PLP.ligand.clash>
0.0000

> <Gold.PLP.ligand.torsion>
0.1123

> <Gold.PLP.Chemscore.Hbond>
5.0000

> <Gold.PLP.Chemscore.CHOScore>
0.0000

> <Gold.PLP.Chemscore.Metal>
0.0000

> <Gold.Chemscore.Hbonds>
donor molecule, donor type, donor heavy atom, donor atom, acceptor molecule, acceptor atom, score
      L1  H     1    14       P1  7948  2.00
      L1  H     3    26       P1 10175  2.00
      L1  H    11    23       P1 10747  1.00

> <Gold.PLP.Chemscore.Internal.Correction>
0.0515

> <Gold.Rescore>
     Score         DG    S(hbond)    S(metal)    S(lipo)     H(rot)  DE(clash)    DE(int)     intcor
     16.51     -16.64       2.98        0.00      44.51       1.56       0.01       0.12       ----

> <Gold.Chemscore.Fitness>
16.5062

> <Gold.Chemscore.DG>
-16.6367

> <Gold.Chemscore.ZeroCoef>
-5.4800

> <Gold.Chemscore.Hbond>
2.9800

> <Gold.Chemscore.Metal>
0.0000

> <Gold.Chemscore.Lipo>
44.5058

> <Gold.Chemscore.Internal_Hbond>
0.0000

> <Gold.Chemscore.DEClash>
0.0058

> <Gold.Chemscore.DEInternal>
0.1247

> <Gold.Chemscore.Rot>
1.5640

> <Gold.Chemscore.Internal.Correction>
   9.000000E+99

> <Gold.Chemscore.Hbonds>
donor molecule, donor type, donor heavy atom, donor atom, acceptor molecule, acceptor atom, score
      L1  H     1    14       P1  7948  1.00
      L1  H     3    26       P1 10175  0.97
      L1  H    11    23       P1 10747  0.95

> <Gold.Chemscore.Hbond.Weighted>
-9.9534

> <Gold.Chemscore.Metal.Weighted>
-0.0000

> <Gold.Chemscore.Lipo.Weighted>
-5.2072

> <Gold.Chemscore.Internal_Hbond.Weighted>
0.0000

> <Gold.Chemscore.DEClash.Weighted>
0.0058

> <Gold.Chemscore.DEInternal.Weighted>
0.1247

> <Gold.Chemscore.Rot.Weighted>
4.0038

> <Gold.Chemscore.Internal.Correction.Weighted>
   9.000000E+99

> <Gold.Protein.RotatedTorsions>
[ 6907 6896 6895 6894 ] final  163.73 input  -60.11 | X-H torsion
[ 7974 7965 7964 7962 ] final  -35.38 input  175.53 | X-H torsion
[ 8008 7997 7996 7995 ] final  170.29 input   59.86 | X-H torsion
[ 10167 10162 10161 10158 ] final -146.90 input  -65.29 | X-H torsion
[ 10718 10713 10712 10709 ] final   44.81 input   66.30 | X-H torsion
[ 10763 10752 10751 10750 ] final -155.33 input  -60.55 | X-H torsion
[ 11005 11000 10999 10996 ] final   -4.25 input  -57.11 | X-H torsion

> <Gold.Protein.ActiveResidues>
 VAL166  LYS551  ARG553  GLY616  TRP617  ASP618  TYR619  PRO620  LYS621  CYS622 
 ASP623  PHE694  ASN695  SER759  ASP760  ASP761  ALA762  ILE779  LEU786  VAL792 
 PHE793  MET794  SER795  GLU796  ALA797  LYS798  CYS799  TRP800  GLU811  SER814 

> <Gold.Protein.RotatedAtoms>
  151.9208  133.3585  159.3895 H   0  0  0  0  0  0  0  0  0  0  0  0  # atno 6907 bound_to 6896
  150.7037  134.4637  159.5402 H   0  0  0  0  0  0  0  0  0  0  0  0  # atno 6908 bound_to 6896
  152.2260  134.8367  160.0530 H   0  0  0  0  0  0  0  0  0  0  0  0  # atno 6909 bound_to 6896
  146.0751  140.6152  142.8934 H   0  0  0  0  0  0  0  0  0  0  0  0  # atno 7974 bound_to 7965
  156.1379  140.1542  156.8966 H   0  0  0  0  0  0  0  0  0  0  0  0  # atno 8008 bound_to 7997
  154.4963  140.0837  156.7742 H   0  0  0  0  0  0  0  0  0  0  0  0  # atno 8009 bound_to 7997
  155.4134  140.3420  155.4267 H   0  0  0  0  0  0  0  0  0  0  0  0  # atno 8010 bound_to 7997
  139.7671  143.8292  152.2618 H   0  0  0  0  0  0  0  0  0  0  0  0  # atno 10167 bound_to 10162
  157.4308  130.8024  149.7601 H   0  0  0  0  0  0  0  0  0  0  0  0  # atno 10718 bound_to 10713
  154.7795  135.3170  154.8021 H   0  0  0  0  0  0  0  0  0  0  0  0  # atno 10763 bound_to 10752
  153.8736  135.6842  153.4776 H   0  0  0  0  0  0  0  0  0  0  0  0  # atno 10764 bound_to 10752
  153.1427  135.4732  154.9457 H   0  0  0  0  0  0  0  0  0  0  0  0  # atno 10765 bound_to 10752
  140.6782  133.9176  155.8538 H   0  0  0  0  0  0  0  0  0  0  0  0  # atno 11005 bound_to 11000
  144.7256  140.4514  143.6975 LP  0  0  0  0  0  0  0  0  0  0  0  0  # atno 17320 bound_to 7965
  145.6321  139.1538  143.2963 LP  0  0  0  0  0  0  0  0  0  0  0  0  # atno 17321 bound_to 7965
  139.8315  144.7251  150.9444 LP  0  0  0  0  0  0  0  0  0  0  0  0  # atno 17342 bound_to 10162
  140.7811  143.4065  151.1062 LP  0  0  0  0  0  0  0  0  0  0  0  0  # atno 17343 bound_to 10162
  155.9913  130.3939  150.2992 LP  0  0  0  0  0  0  0  0  0  0  0  0  # atno 17370 bound_to 10713
  157.1149  131.0231  151.3033 LP  0  0  0  0  0  0  0  0  0  0  0  0  # atno 17371 bound_to 10713
  141.0338  134.0718  157.3983 LP  0  0  0  0  0  0  0  0  0  0  0  0  # atno 17394 bound_to 11000
  139.8960  135.0143  156.7029 LP  0  0  0  0  0  0  0  0  0  0  0  0  # atno 17395 bound_to 11000

$$$$
