AV-unprocessed.smi:224|AV-procd|sdf|1720|dock3
  -GOLD-   2262020193D 1   1.00000     0.00000
 Structure written by MMmdl.
 56 59  0  0  0  0  0  0  0  0  2 V2000
  152.1107  144.3608  159.7202 C   0  0  0  0  0  0  0  0  0  0  0  0
  150.8803  144.0667  158.8521 C   0  0  1  0  0  0  0  0  0  0  0  0
  150.3728  145.3022  158.3895 O   0  0  0  0  0  0  0  0  0  0  0  0
  151.2332  143.1718  157.6468 C   0  0  0  0  0  0  0  0  0  0  0  0
  150.0677  142.4028  157.1363 N   0  3  2  0  0  0  0  0  0  0  0  0
  149.1821  141.8689  158.2064 C   0  0  0  0  0  0  0  0  0  0  0  0
  147.9248  141.2154  157.6049 C   0  0  0  0  0  0  0  0  0  0  0  0
  148.2772  140.2155  156.5988 N   0  0  0  0  0  0  0  0  0  0  0  0
  148.4255  138.9152  156.9705 C   0  0  0  0  0  0  0  0  0  0  0  0
  149.4394  138.1775  156.4437 N   0  0  0  0  0  0  0  0  0  0  0  0
  149.5895  136.8929  156.7780 C   0  0  0  0  0  0  0  0  0  0  0  0
  148.8546  136.1586  157.6135 N   0  0  0  0  0  0  0  0  0  0  0  0
  147.8470  136.8941  158.1636 C   0  0  0  0  0  0  0  0  0  0  0  0
  147.5613  138.2638  157.8977 C   0  0  0  0  0  0  0  0  0  0  0  0
  146.4617  138.6674  158.6469 N   0  0  0  0  0  0  0  0  0  0  0  0
  146.1111  137.5969  159.3055 C   0  0  0  0  0  0  0  0  0  0  0  0
  146.8967  136.4887  159.0846 N   0  0  0  0  0  0  0  0  0  0  0  0
  146.7368  135.1742  159.6869 C   0  0  0  0  0  0  0  0  0  0  0  0
  147.1109  135.1211  161.1907 C   0  0  2  0  0  0  0  0  0  0  0  0
  147.7496  133.8927  161.4819 O   0  0  0  0  0  0  0  0  0  0  0  0
  145.8957  135.2852  162.0889 C   0  0  0  0  0  0  0  0  0  0  0  0
  145.7505  136.8022  162.1913 C   0  0  0  0  0  0  0  0  0  0  0  0
  147.0580  137.3365  162.0053 O   0  0  0  0  0  0  0  0  0  0  0  0
  147.9716  136.2967  161.6709 C   0  0  0  0  0  0  0  0  0  0  0  0
  149.1519  140.7127  155.5380 C   0  0  0  0  0  0  0  0  0  0  0  0
  150.4239  141.3810  156.1065 C   0  0  2  0  0  0  0  0  0  0  0  0
  151.4554  140.3447  156.6034 C   0  0  0  0  0  0  0  0  0  0  0  0
  152.5337  143.4407  160.1240 H   0  0  0  0  0  0  0  0  0  0  0  0
  151.8529  145.0012  160.5646 H   0  0  0  0  0  0  0  0  0  0  0  0
  152.8920  144.8631  159.1484 H   0  0  0  0  0  0  0  0  0  0  0  0
  150.1246  143.5974  159.4809 H   0  0  0  0  0  0  0  0  0  0  0  0
  149.4587  145.1999  158.1747 H   0  0  0  0  0  0  0  0  0  0  0  0
  151.6329  143.8060  156.8535 H   0  0  0  0  0  0  0  0  0  0  0  0
  152.0309  142.4760  157.9119 H   0  0  0  0  0  0  0  0  0  0  0  0
  149.7308  141.1504  158.8158 H   0  0  0  0  0  0  0  0  0  0  0  0
  148.8721  142.6676  158.8786 H   0  0  0  0  0  0  0  0  0  0  0  0
  147.2971  140.7876  158.3875 H   0  0  0  0  0  0  0  0  0  0  0  0
  147.3160  141.9788  157.1190 H   0  0  0  0  0  0  0  0  0  0  0  0
  150.4162  136.3798  156.3091 H   0  0  0  0  0  0  0  0  0  0  0  0
  145.2692  137.5883  159.9828 H   0  0  0  0  0  0  0  0  0  0  0  0
  145.7018  134.8631  159.5410 H   0  0  0  0  0  0  0  0  0  0  0  0
  147.3469  134.4664  159.1241 H   0  0  0  0  0  0  0  0  0  0  0  0
  148.6841  134.0328  161.4846 H   0  0  0  0  0  0  0  0  0  0  0  0
  144.9994  134.7942  161.7082 H   0  0  0  0  0  0  0  0  0  0  0  0
  146.0988  134.8809  163.0823 H   0  0  0  0  0  0  0  0  0  0  0  0
  145.1037  137.1817  161.3997 H   0  0  0  0  0  0  0  0  0  0  0  0
  145.3286  137.1121  163.1476 H   0  0  0  0  0  0  0  0  0  0  0  0
  148.5045  136.0292  162.5848 H   0  0  0  0  0  0  0  0  0  0  0  0
  148.7177  136.6296  160.9506 H   0  0  0  0  0  0  0  0  0  0  0  0
  149.4320  139.9343  154.8304 H   0  0  0  0  0  0  0  0  0  0  0  0
  148.5849  141.4460  154.9635 H   0  0  0  0  0  0  0  0  0  0  0  0
  150.8908  141.9151  155.2779 H   0  0  0  0  0  0  0  0  0  0  0  0
  151.6668  139.6092  155.8267 H   0  0  0  0  0  0  0  0  0  0  0  0
  151.1062  139.7991  157.4790 H   0  0  0  0  0  0  0  0  0  0  0  0
  152.4050  140.8116  156.8644 H   0  0  0  0  0  0  0  0  0  0  0  0
  149.5069  143.0769  156.6353 H   0  0  0  0  0  0  0  0  0  0  0  0
  1  2  1  0  0  0  0
  1 28  1  0  0  0  0
  1 29  1  0  0  0  0
  1 30  1  0  0  0  0
  2  3  1  0  0  0  0
  2  4  1  0  0  0  0
  2 31  1  0  0  0  0
  3 32  1  0  0  0  0
  4  5  1  0  0  0  0
  4 33  1  0  0  0  0
  4 34  1  0  0  0  0
  5 26  1  0  0  0  0
  5  6  1  0  0  0  0
  5 56  1  0  0  0  0
  6  7  1  0  0  0  0
  6 35  1  0  0  0  0
  6 36  1  0  0  0  0
  7  8  1  0  0  0  0
  7 37  1  0  0  0  0
  7 38  1  0  0  0  0
  8  9  1  0  0  0  0
  8 25  1  0  0  0  0
  9 14  1  0  0  0  0
  9 10  2  0  0  0  0
 10 11  1  0  0  0  0
 11 12  2  0  0  0  0
 11 39  1  0  0  0  0
 12 13  1  0  0  0  0
 13 17  1  0  0  0  0
 13 14  2  0  0  0  0
 14 15  1  0  0  0  0
 15 16  2  0  0  0  0
 16 17  1  0  0  0  0
 16 40  1  0  0  0  0
 17 18  1  0  0  0  0
 18 19  1  0  0  0  0
 18 41  1  0  0  0  0
 18 42  1  0  0  0  0
 19 24  1  0  0  0  0
 19 20  1  0  0  0  0
 19 21  1  0  0  0  0
 20 43  1  0  0  0  0
 21 22  1  0  0  0  0
 21 44  1  0  0  0  0
 21 45  1  0  0  0  0
 22 23  1  0  0  0  0
 22 46  1  0  0  0  0
 22 47  1  0  0  0  0
 23 24  1  0  0  0  0
 24 48  1  0  0  0  0
 24 49  1  0  0  0  0
 25 26  1  0  0  0  0
 25 50  1  0  0  0  0
 25 51  1  0  0  0  0
 26 27  1  0  0  0  0
 26 52  1  0  0  0  0
 27 53  1  0  0  0  0
 27 54  1  0  0  0  0
 27 55  1  0  0  0  0
M  CHG  1   5   1
M  END
> <s_m_source_file>
AV-unprocessed.smi

> <i_m_source_file_index>
224

> <i_lp_mmshare_version>
43012

> <i_f3d_flags>
0

> <s_epik_input>
W0NIM11bQ0BIXShbT0hdKVtDSDJdTjFbQ0gyXVtDSDJdTihbQ0gyXVtDQEhdMVtDSDNdKWMobltjSF1uMiljKGMyMyluW2NIXW4zW0NIMl1bQ0BAXTQoW09IXSlbQ0gyXVtDSDJdT1tDSDJdNA==

> <s_epik_cmdline>
J2VwaWtfcHl0aG9uJywgJy1waCcsICc3LjAnLCAnLXRuJywgJzgnLCAnLW1hJywgJzIwMCcsICctbWV0YWxfYmluZGluZycsICctaW1hZScsICc8aW5maWxlLm1hZT4nLCAnLW9tYWUnLCAnPG91dGZpbGUubWFlPic=

> <r_lp_tautomer_probability>
1

> <r_epik_Ionization_Penalty>
0.00516958

> <r_epik_Ionization_Penalty_Charging>
0.00509693

> <r_epik_Ionization_Penalty_Neutral>
7.26542e-05

> <r_epik_State_Penalty>
-0

> <r_epik_Charging_Adjusted_Penalty>
0.00509693

> <i_epik_Tot_Q>
1

> <i_epik_Tot_abs_Q>
1

> <r_epik_Metal_State_Penalty>
-0

> <b_epik_Metal_Only>
0

> <s_lp_Force_Field>
OPLS_2005

> <r_lp_Energy>
52.1704

> <b_lp_Chiralities_Consistent>
1

> <s_lp_Variant>
AV-unprocessed.smi:224-14

> <Gold.Version>
5.8.1

> <Gold.Id.Protein>
6NUR|6NUR_protein|mol2

> <Gold.PLP.Fitness>
44.9814

> <Gold.PLP.PLP>
-36.5994

> <Gold.PLP.part.hbond>
-5.9044

> <Gold.PLP.part.metal>
0.0000

> <Gold.PLP.part.buried>
-5.0667

> <Gold.PLP.part.nonpolar>
-26.3398

> <Gold.PLP.part.repulsive>
0.0207

> <Gold.PLP.ligand.clash>
0.0000

> <Gold.PLP.ligand.torsion>
1.6267

> <Gold.PLP.Chemscore.Hbond>
3.7440

> <Gold.PLP.Chemscore.CHOScore>
0.0000

> <Gold.PLP.Chemscore.Metal>
0.0000

> <Gold.Chemscore.Hbonds>
donor molecule, donor type, donor heavy atom, donor atom, acceptor molecule, acceptor atom, score
      L1  H     3    32       P1  8029  0.91
      L1  H     5    56       P1  8028  2.00
      P1  H  6934  6947       L1    23  0.77

> <Gold.PLP.Chemscore.Internal.Correction>
0.4034

> <Gold.Rescore>
     Score         DG    S(hbond)    S(metal)    S(lipo)     H(rot)  DE(clash)    DE(int)     intcor
     11.45     -16.28       2.55        0.00      85.84       3.02       0.04       4.79       ----

> <Gold.Chemscore.Fitness>
11.4497

> <Gold.Chemscore.DG>
-16.2846

> <Gold.Chemscore.ZeroCoef>
-5.4800

> <Gold.Chemscore.Hbond>
2.5450

> <Gold.Chemscore.Metal>
0.0000

> <Gold.Chemscore.Lipo>
85.8403

> <Gold.Chemscore.Internal_Hbond>
0.0000

> <Gold.Chemscore.DEClash>
0.0429

> <Gold.Chemscore.DEInternal>
4.7921

> <Gold.Chemscore.Rot>
3.0231

> <Gold.Chemscore.Internal.Correction>
   9.000000E+99

> <Gold.Chemscore.Hbonds>
donor molecule, donor type, donor heavy atom, donor atom, acceptor molecule, acceptor atom, score
      L1  H     3    32       P1  8029  0.35
      L1  H     5    56       P1  8028  0.95
      P1  H  6934  6947       L1    23  0.64

> <Gold.Chemscore.Hbond.Weighted>
-8.5004

> <Gold.Chemscore.Metal.Weighted>
-0.0000

> <Gold.Chemscore.Lipo.Weighted>
-10.0433

> <Gold.Chemscore.Internal_Hbond.Weighted>
0.0000

> <Gold.Chemscore.DEClash.Weighted>
0.0429

> <Gold.Chemscore.DEInternal.Weighted>
4.7921

> <Gold.Chemscore.Rot.Weighted>
7.7391

> <Gold.Chemscore.Internal.Correction.Weighted>
   9.000000E+99

> <Gold.Protein.RotatedTorsions>
[ 6907 6896 6895 6894 ] final   55.08 input  -60.11 | X-H torsion
[ 7974 7965 7964 7962 ] final    9.39 input  175.53 | X-H torsion
[ 8008 7997 7996 7995 ] final    9.54 input   59.86 | X-H torsion
[ 10167 10162 10161 10158 ] final  -13.99 input  -65.29 | X-H torsion
[ 10718 10713 10712 10709 ] final   90.30 input   66.30 | X-H torsion
[ 10763 10752 10751 10750 ] final  -86.63 input  -60.55 | X-H torsion
[ 11005 11000 10999 10996 ] final   48.11 input  -57.11 | X-H torsion

> <Gold.Protein.ActiveResidues>
 VAL166  LYS551  ARG553  GLY616  TRP617  ASP618  TYR619  PRO620  LYS621  CYS622 
 ASP623  PHE694  ASN695  SER759  ASP760  ASP761  ALA762  ILE779  LEU786  VAL792 
 PHE793  MET794  SER795  GLU796  ALA797  LYS798  CYS799  TRP800  GLU811  SER814 

> <Gold.Protein.RotatedAtoms>
  152.3503  134.7015  160.0238 H   0  0  0  0  0  0  0  0  0  0  0  0  # atno 6907 bound_to 6896
  151.7371  133.3315  159.3364 H   0  0  0  0  0  0  0  0  0  0  0  0  # atno 6908 bound_to 6896
  150.7536  134.6245  159.6198 H   0  0  0  0  0  0  0  0  0  0  0  0  # atno 6909 bound_to 6896
  146.2404  139.9791  142.8438 H   0  0  0  0  0  0  0  0  0  0  0  0  # atno 7974 bound_to 7965
  154.7814  140.2819  155.6061 H   0  0  0  0  0  0  0  0  0  0  0  0  # atno 8008 bound_to 7997
  156.2950  140.2622  156.2568 H   0  0  0  0  0  0  0  0  0  0  0  0  # atno 8009 bound_to 7997
  154.9780  140.0375  157.2254 H   0  0  0  0  0  0  0  0  0  0  0  0  # atno 8010 bound_to 7997
  140.7193  143.5368  150.9455 H   0  0  0  0  0  0  0  0  0  0  0  0  # atno 10167 bound_to 10162
  157.6958  131.0365  150.3557 H   0  0  0  0  0  0  0  0  0  0  0  0  # atno 10718 bound_to 10713
  154.6246  135.5442  153.7612 H   0  0  0  0  0  0  0  0  0  0  0  0  # atno 10763 bound_to 10752
  153.0254  135.6421  154.1391 H   0  0  0  0  0  0  0  0  0  0  0  0  # atno 10764 bound_to 10752
  154.1324  135.2913  155.3162 H   0  0  0  0  0  0  0  0  0  0  0  0  # atno 10765 bound_to 10752
  140.1220  134.4817  155.8590 H   0  0  0  0  0  0  0  0  0  0  0  0  # atno 11005 bound_to 11000
  145.1608  140.9672  143.4378 LP  0  0  0  0  0  0  0  0  0  0  0  0  # atno 17320 bound_to 7965
  145.0118  139.3503  143.6116 LP  0  0  0  0  0  0  0  0  0  0  0  0  # atno 17321 bound_to 7965
  139.9090  143.6743  152.3118 LP  0  0  0  0  0  0  0  0  0  0  0  0  # atno 17342 bound_to 10162
  139.7119  144.7618  151.1097 LP  0  0  0  0  0  0  0  0  0  0  0  0  # atno 17343 bound_to 10162
  156.4000  130.3914  149.6967 LP  0  0  0  0  0  0  0  0  0  0  0  0  # atno 17370 bound_to 10713
  156.4287  130.7804  151.2824 LP  0  0  0  0  0  0  0  0  0  0  0  0  # atno 17371 bound_to 10713
  141.2153  133.6764  156.6906 LP  0  0  0  0  0  0  0  0  0  0  0  0  # atno 17394 bound_to 11000
  140.2953  134.8207  157.4052 LP  0  0  0  0  0  0  0  0  0  0  0  0  # atno 17395 bound_to 11000

$$$$
