AV-unprocessed.smi:2349|AV-procd|sdf|9371|dock2
  -GOLD-   2272012593D 1   1.00000     0.00000
 Structure written by MMmdl.
 52 53  0  0  0  0  0  0  0  0  1 V2000
  153.7358  142.5778  162.0558 C   0  0  0  0  0  0  0  0  0  0  0  0
  153.0679  142.5363  160.6974 C   0  0  0  0  0  0  0  0  0  0  0  0
  152.7149  143.7268  160.0275 C   0  0  0  0  0  0  0  0  0  0  0  0
  152.0957  143.6282  158.7666 C   0  0  0  0  0  0  0  0  0  0  0  0
  151.8522  142.3490  158.2266 C   0  0  0  0  0  0  0  0  0  0  0  0
  151.2005  142.1914  156.8633 C   0  0  0  0  0  0  0  0  0  0  0  0
  150.5226  140.8246  156.6678 C   0  0  0  0  0  0  0  0  0  0  0  0
  149.1437  140.9771  156.2221 N   0  0  0  0  0  0  0  0  0  0  0  0
  148.7576  141.2065  154.9579 C   0  0  0  0  0  0  0  0  0  0  0  0
  149.5694  141.3306  154.0396 O   0  0  0  0  0  0  0  0  0  0  0  0
  147.4136  141.2821  154.7829 N   0  0  0  0  0  0  0  0  0  0  0  0
  146.3890  141.2098  155.8383 C   0  0  0  0  0  0  0  0  0  0  0  0
  145.7977  142.6149  156.0472 C   0  0  0  0  0  0  0  0  0  0  0  0
  145.2059  143.1780  154.7351 C   0  0  0  0  0  0  0  0  0  0  0  0
  144.6990  144.6259  154.9384 C   0  0  0  0  0  0  0  0  0  0  0  0
  143.4120  144.7578  155.7784 C   0  0  0  0  0  0  0  0  0  0  0  0
  142.9214  143.7501  156.2910 O   0  0  0  0  0  0  0  0  0  0  0  0
  142.8582  145.9829  155.9360 N   0  0  0  0  0  0  0  0  0  0  0  0
  143.4931  147.1726  155.3642 C   0  0  0  0  0  0  0  0  0  0  0  0
  141.5954  146.2122  156.6427 C   0  0  0  0  0  0  0  0  0  0  0  0
  146.2335  143.0561  153.5816 C   0  0  0  0  0  0  0  0  0  0  0  0
  146.8136  141.6327  153.4906 C   0  0  0  0  0  0  0  0  0  0  0  0
  152.2403  141.2210  158.9811 C   0  0  0  0  0  0  0  0  0  0  0  0
  152.8378  141.3056  160.1888 N   0  0  0  0  0  0  0  0  0  0  0  0
  154.0198  143.5954  162.3255 H   0  0  0  0  0  0  0  0  0  0  0  0
  154.6364  141.9632  162.0583 H   0  0  0  0  0  0  0  0  0  0  0  0
  153.0580  142.1986  162.8208 H   0  0  0  0  0  0  0  0  0  0  0  0
  152.9138  144.6935  160.4661 H   0  0  0  0  0  0  0  0  0  0  0  0
  151.8166  144.5190  158.2232 H   0  0  0  0  0  0  0  0  0  0  0  0
  150.4654  142.9863  156.7299 H   0  0  0  0  0  0  0  0  0  0  0  0
  151.9542  142.3431  156.0898 H   0  0  0  0  0  0  0  0  0  0  0  0
  151.0886  140.2278  155.9510 H   0  0  0  0  0  0  0  0  0  0  0  0
  150.5204  140.2752  157.6103 H   0  0  0  0  0  0  0  0  0  0  0  0
  148.4253  140.8831  156.9252 H   0  0  0  0  0  0  0  0  0  0  0  0
  145.6036  140.5192  155.5276 H   0  0  0  0  0  0  0  0  0  0  0  0
  146.7535  140.8163  156.7871 H   0  0  0  0  0  0  0  0  0  0  0  0
  145.0269  142.5767  156.8178 H   0  0  0  0  0  0  0  0  0  0  0  0
  146.5758  143.2822  156.4212 H   0  0  0  0  0  0  0  0  0  0  0  0
  144.3522  142.5458  154.4847 H   0  0  0  0  0  0  0  0  0  0  0  0
  145.4712  145.2117  155.4380 H   0  0  0  0  0  0  0  0  0  0  0  0
  144.5517  145.0776  153.9571 H   0  0  0  0  0  0  0  0  0  0  0  0
  144.5709  147.1689  155.5343 H   0  0  0  0  0  0  0  0  0  0  0  0
  143.1101  148.0956  155.8009 H   0  0  0  0  0  0  0  0  0  0  0  0
  143.3184  147.2121  154.2882 H   0  0  0  0  0  0  0  0  0  0  0  0
  140.8333  145.4921  156.3421 H   0  0  0  0  0  0  0  0  0  0  0  0
  141.1842  147.2014  156.4398 H   0  0  0  0  0  0  0  0  0  0  0  0
  141.7432  146.1303  157.7201 H   0  0  0  0  0  0  0  0  0  0  0  0
  145.7757  143.3176  152.6278 H   0  0  0  0  0  0  0  0  0  0  0  0
  147.0467  143.7668  153.7361 H   0  0  0  0  0  0  0  0  0  0  0  0
  147.5243  141.5744  152.6651 H   0  0  0  0  0  0  0  0  0  0  0  0
  146.0238  140.9195  153.2502 H   0  0  0  0  0  0  0  0  0  0  0  0
  152.0782  140.2227  158.6017 H   0  0  0  0  0  0  0  0  0  0  0  0
  1  2  1  0  0  0  0
  1 25  1  0  0  0  0
  1 26  1  0  0  0  0
  1 27  1  0  0  0  0
  2 24  1  0  0  0  0
  2  3  2  0  0  0  0
  3  4  1  0  0  0  0
  3 28  1  0  0  0  0
  4  5  2  0  0  0  0
  4 29  1  0  0  0  0
  5  6  1  0  0  0  0
  5 23  1  0  0  0  0
  6  7  1  0  0  0  0
  6 30  1  0  0  0  0
  6 31  1  0  0  0  0
  7  8  1  0  0  0  0
  7 32  1  0  0  0  0
  7 33  1  0  0  0  0
  8  9  1  0  0  0  0
  8 34  1  0  0  0  0
  9 10  2  0  0  0  0
  9 11  1  0  0  0  0
 11 22  1  0  0  0  0
 11 12  1  0  0  0  0
 12 13  1  0  0  0  0
 12 35  1  0  0  0  0
 12 36  1  0  0  0  0
 13 14  1  0  0  0  0
 13 37  1  0  0  0  0
 13 38  1  0  0  0  0
 14 15  1  0  0  0  0
 14 21  1  0  0  0  0
 14 39  1  0  0  0  0
 15 16  1  0  0  0  0
 15 40  1  0  0  0  0
 15 41  1  0  0  0  0
 16 17  2  0  0  0  0
 16 18  1  0  0  0  0
 18 19  1  0  0  0  0
 18 20  1  0  0  0  0
 19 42  1  0  0  0  0
 19 43  1  0  0  0  0
 19 44  1  0  0  0  0
 20 45  1  0  0  0  0
 20 46  1  0  0  0  0
 20 47  1  0  0  0  0
 21 22  1  0  0  0  0
 21 48  1  0  0  0  0
 21 49  1  0  0  0  0
 22 50  1  0  0  0  0
 22 51  1  0  0  0  0
 23 24  2  0  0  0  0
 23 52  1  0  0  0  0
M  END
> <s_m_source_file>
AV-unprocessed.smi

> <i_m_source_file_index>
2349

> <i_lp_mmshare_version>
43012

> <i_f3d_flags>
0

> <s_epik_input>
W0NIM11jMVtjSF1bY0hdYyhbY0hdbjEpW0NIMl1bQ0gyXVtOSF1DKD1PKU4yW0NIMl1bQ0gyXVtDSF0oW0NIMl1bQ0gyXTIpW0NIMl1DKD1PKU4oW0NIM10pW0NIM10=

> <s_epik_cmdline>
J2VwaWtfcHl0aG9uJywgJy1waCcsICc3LjAnLCAnLXRuJywgJzgnLCAnLW1hJywgJzIwMCcsICctbWV0YWxfYmluZGluZycsICctaW1hZScsICc8aW5maWxlLm1hZT4nLCAnLW9tYWUnLCAnPG91dGZpbGUubWFlPic=

> <r_epik_Ionization_Penalty>
0.0570544

> <r_epik_Ionization_Penalty_Charging>
0

> <r_epik_Ionization_Penalty_Neutral>
0.0570544

> <r_epik_State_Penalty>
0.0491874

> <r_epik_Charging_Adjusted_Penalty>
0.0491874

> <i_epik_Tot_Q>
0

> <i_epik_Tot_abs_Q>
0

> <r_epik_Metal_State_Penalty>
0.0448474

> <b_epik_Metal_Only>
0

> <s_lp_Force_Field>
OPLS_2005

> <r_lp_Energy>
37.0132

> <b_lp_Chiralities_Consistent>
1

> <s_lp_Variant>
AV-unprocessed.smi:2349-1

> <Gold.Version>
5.8.1

> <Gold.Id.Protein>
6NUR|6NUR_protein|mol2

> <Gold.PLP.Fitness>
48.7539

> <Gold.PLP.PLP>
-48.0018

> <Gold.PLP.part.hbond>
-2.0000

> <Gold.PLP.part.metal>
0.0000

> <Gold.PLP.part.buried>
-7.1900

> <Gold.PLP.part.nonpolar>
-37.6980

> <Gold.PLP.part.repulsive>
0.2709

> <Gold.PLP.ligand.clash>
0.0000

> <Gold.PLP.ligand.torsion>
0.9663

> <Gold.PLP.Chemscore.Hbond>
0.8458

> <Gold.PLP.Chemscore.CHOScore>
0.0000

> <Gold.PLP.Chemscore.Metal>
0.0000

> <Gold.Chemscore.Hbonds>
donor molecule, donor type, donor heavy atom, donor atom, acceptor molecule, acceptor atom, score
      P1  H  7989  7998       L1    10  0.21
      P1  H  8011  8017       L1    10  0.73

> <Gold.PLP.Chemscore.Internal.Correction>
0.1474

> <Gold.Rescore>
     Score         DG    S(hbond)    S(metal)    S(lipo)     H(rot)  DE(clash)    DE(int)     intcor
     16.80     -18.07       0.81        0.00     120.75       1.66       0.31       0.96       ----

> <Gold.Chemscore.Fitness>
16.7974

> <Gold.Chemscore.DG>
-18.0657

> <Gold.Chemscore.ZeroCoef>
-5.4800

> <Gold.Chemscore.Hbond>
0.8114

> <Gold.Chemscore.Metal>
0.0000

> <Gold.Chemscore.Lipo>
120.7547

> <Gold.Chemscore.Internal_Hbond>
0.0000

> <Gold.Chemscore.DEClash>
0.3113

> <Gold.Chemscore.DEInternal>
0.9571

> <Gold.Chemscore.Rot>
1.6612

> <Gold.Chemscore.Internal.Correction>
   9.000000E+99

> <Gold.Chemscore.Hbonds>
donor molecule, donor type, donor heavy atom, donor atom, acceptor molecule, acceptor atom, score
      P1  H  7989  7998       L1    10  0.21
      P1  H  8011  8017       L1    10  0.68

> <Gold.Chemscore.Hbond.Weighted>
-2.7102

> <Gold.Chemscore.Metal.Weighted>
-0.0000

> <Gold.Chemscore.Lipo.Weighted>
-14.1283

> <Gold.Chemscore.Internal_Hbond.Weighted>
0.0000

> <Gold.Chemscore.DEClash.Weighted>
0.3113

> <Gold.Chemscore.DEInternal.Weighted>
0.9571

> <Gold.Chemscore.Rot.Weighted>
4.2528

> <Gold.Chemscore.Internal.Correction.Weighted>
   9.000000E+99

> <Gold.Protein.RotatedTorsions>
[ 6907 6896 6895 6894 ] final  -44.60 input  -60.11 | X-H torsion
[ 7974 7965 7964 7962 ] final -132.45 input  175.53 | X-H torsion
[ 8008 7997 7996 7995 ] final  -58.00 input   59.86 | X-H torsion
[ 10167 10162 10161 10158 ] final   14.53 input  -65.29 | X-H torsion
[ 10718 10713 10712 10709 ] final   95.74 input   66.30 | X-H torsion
[ 10763 10752 10751 10750 ] final  164.20 input  -60.55 | X-H torsion
[ 11005 11000 10999 10996 ] final  114.55 input  -57.11 | X-H torsion

> <Gold.Protein.ActiveResidues>
 VAL166  LYS551  ARG553  GLY616  TRP617  ASP618  TYR619  PRO620  LYS621  CYS622 
 ASP623  PHE694  ASN695  SER759  ASP760  ASP761  ALA762  ILE779  LEU786  VAL792 
 PHE793  MET794  SER795  GLU796  ALA797  LYS798  CYS799  TRP800  GLU811  SER814 

> <Gold.Protein.RotatedAtoms>
  150.9311  134.8725  159.7551 H   0  0  0  0  0  0  0  0  0  0  0  0  # atno 6907 bound_to 6896
  152.5038  134.4078  159.9448 H   0  0  0  0  0  0  0  0  0  0  0  0  # atno 6908 bound_to 6896
  151.4105  133.3689  159.2778 H   0  0  0  0  0  0  0  0  0  0  0  0  # atno 6909 bound_to 6896
  144.9284  140.7099  143.4921 H   0  0  0  0  0  0  0  0  0  0  0  0  # atno 7974 bound_to 7965
  154.4291  140.1094  156.5888 H   0  0  0  0  0  0  0  0  0  0  0  0  # atno 8008 bound_to 7997
  155.6034  140.3493  155.4582 H   0  0  0  0  0  0  0  0  0  0  0  0  # atno 8009 bound_to 7997
  156.0155  140.1228  157.0400 H   0  0  0  0  0  0  0  0  0  0  0  0  # atno 8010 bound_to 7997
  140.5929  143.8760  150.6890 H   0  0  0  0  0  0  0  0  0  0  0  0  # atno 10167 bound_to 10162
  157.6935  131.0555  150.4385 H   0  0  0  0  0  0  0  0  0  0  0  0  # atno 10718 bound_to 10713
  154.3053  135.2758  155.2592 H   0  0  0  0  0  0  0  0  0  0  0  0  # atno 10763 bound_to 10752
  154.5011  135.5808  153.6535 H   0  0  0  0  0  0  0  0  0  0  0  0  # atno 10764 bound_to 10752
  152.9895  135.6158  154.3226 H   0  0  0  0  0  0  0  0  0  0  0  0  # atno 10765 bound_to 10752
  139.8984  134.9569  156.6909 H   0  0  0  0  0  0  0  0  0  0  0  0  # atno 11005 bound_to 11000
  145.3181  139.1797  143.4602 LP  0  0  0  0  0  0  0  0  0  0  0  0  # atno 17320 bound_to 7965
  146.3236  140.3195  142.8632 LP  0  0  0  0  0  0  0  0  0  0  0  0  # atno 17321 bound_to 7965
  140.2287  143.3752  152.1584 LP  0  0  0  0  0  0  0  0  0  0  0  0  # atno 17342 bound_to 10162
  139.5239  144.7077  151.5303 LP  0  0  0  0  0  0  0  0  0  0  0  0  # atno 17343 bound_to 10162
  156.4746  130.4060  149.6498 LP  0  0  0  0  0  0  0  0  0  0  0  0  # atno 17370 bound_to 10713
  156.3566  130.7459  151.2426 LP  0  0  0  0  0  0  0  0  0  0  0  0  # atno 17371 bound_to 10713
  140.7226  133.9128  155.8157 LP  0  0  0  0  0  0  0  0  0  0  0  0  # atno 17394 bound_to 11000
  141.0216  134.0881  157.4114 LP  0  0  0  0  0  0  0  0  0  0  0  0  # atno 17395 bound_to 11000

$$$$
