AV-unprocessed.smi:2390|AV-procd|sdf|9474|dock1
  -GOLD-   2272013103D 1   1.00000     0.00000
 Structure written by MMmdl.
 45 46  0  0  0  0  0  0  0  0  1 V2000
  141.6731  135.3918  153.3970 C   0  0  0  0  0  0  0  0  0  0  0  0
  142.9824  135.0648  152.7102 C   0  0  0  0  0  0  0  0  0  0  0  0
  143.1214  133.9007  151.9293 C   0  0  0  0  0  0  0  0  0  0  0  0
  144.3639  133.6582  151.3169 C   0  0  0  0  0  0  0  0  0  0  0  0
  145.4086  134.5830  151.5084 C   0  0  0  0  0  0  0  0  0  0  0  0
  145.1861  135.7270  152.3074 C   0  0  0  0  0  0  0  0  0  0  0  0
  146.3011  136.5964  152.4410 N   0  0  0  0  0  0  0  0  0  0  0  0
  146.3775  137.7466  153.1336 C   0  0  0  0  0  0  0  0  0  0  0  0
  145.4582  138.2522  153.7787 O   0  0  0  0  0  0  0  0  0  0  0  0
  147.5981  138.2943  153.0346 N   0  0  0  0  0  0  0  0  0  0  0  0
  148.0128  139.5489  153.6625 C   0  0  1  0  0  0  0  0  0  0  0  0
  146.9384  140.6196  153.4022 C   0  0  0  0  0  0  0  0  0  0  0  0
  148.3459  139.3560  155.1784 C   0  0  2  0  0  0  0  0  0  0  0  0
  148.2971  140.7242  155.9074 C   0  0  0  0  0  0  0  0  0  0  0  0
  149.5995  138.6075  155.4335 N   0  0  0  0  0  0  0  0  0  0  0  0
  150.7420  139.1400  154.6812 C   0  0  0  0  0  0  0  0  0  0  0  0
  152.0360  138.3402  154.9108 C   0  0  0  0  0  0  0  0  0  0  0  0
  151.8235  136.9752  154.5791 O   0  0  0  0  0  0  0  0  0  0  0  0
  150.7765  136.3976  155.3461 C   0  0  0  0  0  0  0  0  0  0  0  0
  149.4732  137.1807  155.1144 C   0  0  0  0  0  0  0  0  0  0  0  0
  143.9837  135.9517  152.8937 N   0  0  0  0  0  0  0  0  0  0  0  0
  140.9655  134.5667  153.3128 H   0  0  0  0  0  0  0  0  0  0  0  0
  141.2217  136.2764  152.9467 H   0  0  0  0  0  0  0  0  0  0  0  0
  141.8373  135.5912  154.4564 H   0  0  0  0  0  0  0  0  0  0  0  0
  142.3001  133.2113  151.8014 H   0  0  0  0  0  0  0  0  0  0  0  0
  144.5142  132.7779  150.7098 H   0  0  0  0  0  0  0  0  0  0  0  0
  146.3690  134.4119  151.0441 H   0  0  0  0  0  0  0  0  0  0  0  0
  147.1369  136.3085  151.9543 H   0  0  0  0  0  0  0  0  0  0  0  0
  148.2927  137.8122  152.4831 H   0  0  0  0  0  0  0  0  0  0  0  0
  148.9059  139.8561  153.1204 H   0  0  0  0  0  0  0  0  0  0  0  0
  147.2290  141.5824  153.8227 H   0  0  0  0  0  0  0  0  0  0  0  0
  145.9763  140.3441  153.8342 H   0  0  0  0  0  0  0  0  0  0  0  0
  146.7863  140.7662  152.3325 H   0  0  0  0  0  0  0  0  0  0  0  0
  147.5315  138.7636  155.5986 H   0  0  0  0  0  0  0  0  0  0  0  0
  147.4195  141.3102  155.6371 H   0  0  0  0  0  0  0  0  0  0  0  0
  149.1768  141.3280  155.6831 H   0  0  0  0  0  0  0  0  0  0  0  0
  148.2422  140.6063  156.9889 H   0  0  0  0  0  0  0  0  0  0  0  0
  150.5090  139.1545  153.6154 H   0  0  0  0  0  0  0  0  0  0  0  0
  150.9529  140.1661  154.9745 H   0  0  0  0  0  0  0  0  0  0  0  0
  152.8398  138.7358  154.2898 H   0  0  0  0  0  0  0  0  0  0  0  0
  152.3628  138.4242  155.9485 H   0  0  0  0  0  0  0  0  0  0  0  0
  150.6500  135.3568  155.0479 H   0  0  0  0  0  0  0  0  0  0  0  0
  151.0455  136.3972  156.4037 H   0  0  0  0  0  0  0  0  0  0  0  0
  148.7064  136.7165  155.7322 H   0  0  0  0  0  0  0  0  0  0  0  0
  149.1596  137.0607  154.0762 H   0  0  0  0  0  0  0  0  0  0  0  0
  1  2  1  0  0  0  0
  1 22  1  0  0  0  0
  1 23  1  0  0  0  0
  1 24  1  0  0  0  0
  2 21  1  0  0  0  0
  2  3  2  0  0  0  0
  3  4  1  0  0  0  0
  3 25  1  0  0  0  0
  4  5  2  0  0  0  0
  4 26  1  0  0  0  0
  5  6  1  0  0  0  0
  5 27  1  0  0  0  0
  6  7  1  0  0  0  0
  6 21  2  0  0  0  0
  7  8  1  0  0  0  0
  7 28  1  0  0  0  0
  8  9  2  0  0  0  0
  8 10  1  0  0  0  0
 10 11  1  0  0  0  0
 10 29  1  0  0  0  0
 11 12  1  0  0  0  0
 11 13  1  0  0  0  0
 11 30  1  0  0  0  0
 12 31  1  0  0  0  0
 12 32  1  0  0  0  0
 12 33  1  0  0  0  0
 13 14  1  0  0  0  0
 13 15  1  0  0  0  0
 13 34  1  0  0  0  0
 14 35  1  0  0  0  0
 14 36  1  0  0  0  0
 14 37  1  0  0  0  0
 15 20  1  0  0  0  0
 15 16  1  0  0  0  0
 16 17  1  0  0  0  0
 16 38  1  0  0  0  0
 16 39  1  0  0  0  0
 17 18  1  0  0  0  0
 17 40  1  0  0  0  0
 17 41  1  0  0  0  0
 18 19  1  0  0  0  0
 19 20  1  0  0  0  0
 19 42  1  0  0  0  0
 19 43  1  0  0  0  0
 20 44  1  0  0  0  0
 20 45  1  0  0  0  0
M  END
> <s_m_source_file>
AV-unprocessed.smi

> <i_m_source_file_index>
2390

> <i_lp_mmshare_version>
43012

> <i_f3d_flags>
0

> <s_epik_input>
W0NIM11jMVtjSF1bY0hdW2NIXWMobjEpW05IXUMoPU8pW05IXVtDQEhdKFtDSDNdKVtDQEhdKFtDSDNdKU4yW0NIMl1bQ0gyXU9bQ0gyXVtDSDJdMg==

> <s_epik_cmdline>
J2VwaWtfcHl0aG9uJywgJy1waCcsICc3LjAnLCAnLXRuJywgJzgnLCAnLW1hJywgJzIwMCcsICctbWV0YWxfYmluZGluZycsICctaW1hZScsICc8aW5maWxlLm1hZT4nLCAnLW9tYWUnLCAnPG91dGZpbGUubWFlPic=

> <r_epik_Ionization_Penalty>
0.266074

> <r_epik_Ionization_Penalty_Charging>
0

> <r_epik_Ionization_Penalty_Neutral>
0.266074

> <r_epik_State_Penalty>
0.257924

> <r_epik_Charging_Adjusted_Penalty>
0.257924

> <i_epik_Tot_Q>
0

> <i_epik_Tot_abs_Q>
0

> <r_epik_Metal_State_Penalty>
0.257919

> <b_epik_Metal_Only>
0

> <s_lp_Force_Field>
OPLS_2005

> <r_lp_Energy>
32.9653

> <b_lp_Chiralities_Consistent>
1

> <s_lp_Variant>
AV-unprocessed.smi:2390-2

> <Gold.Version>
5.8.1

> <Gold.Id.Protein>
6NUR|6NUR_protein|mol2

> <Gold.PLP.Fitness>
37.7651

> <Gold.PLP.PLP>
-30.0829

> <Gold.PLP.part.hbond>
-3.3328

> <Gold.PLP.part.metal>
0.0000

> <Gold.PLP.part.buried>
-4.4807

> <Gold.PLP.part.nonpolar>
-24.3529

> <Gold.PLP.part.repulsive>
0.5347

> <Gold.PLP.ligand.clash>
0.0000

> <Gold.PLP.ligand.torsion>
0.7054

> <Gold.PLP.Chemscore.Hbond>
2.9760

> <Gold.PLP.Chemscore.CHOScore>
0.0000

> <Gold.PLP.Chemscore.Metal>
0.0000

> <Gold.Chemscore.Hbonds>
donor molecule, donor type, donor heavy atom, donor atom, acceptor molecule, acceptor atom, score
      L1  H     7    28       P1  7948  1.00
      L1  H    10    29       P1  7948  0.99
      P1  H 10752 10765       L1    18  1.00

> <Gold.PLP.Chemscore.Internal.Correction>
0.1650

> <Gold.Rescore>
     Score         DG    S(hbond)    S(metal)    S(lipo)     H(rot)  DE(clash)    DE(int)     intcor
     15.68     -19.23       2.83        0.00      68.38       1.44       0.01       3.54       ----

> <Gold.Chemscore.Fitness>
15.6850

> <Gold.Chemscore.DG>
-19.2336

> <Gold.Chemscore.ZeroCoef>
-5.4800

> <Gold.Chemscore.Hbond>
2.8259

> <Gold.Chemscore.Metal>
0.0000

> <Gold.Chemscore.Lipo>
68.3804

> <Gold.Chemscore.Internal_Hbond>
0.0000

> <Gold.Chemscore.DEClash>
0.0106

> <Gold.Chemscore.DEInternal>
3.5380

> <Gold.Chemscore.Rot>
1.4396

> <Gold.Chemscore.Internal.Correction>
   9.000000E+99

> <Gold.Chemscore.Hbonds>
donor molecule, donor type, donor heavy atom, donor atom, acceptor molecule, acceptor atom, score
      L1  H     7    28       P1  7948  0.95
      L1  H    10    29       P1  7948  0.94
      P1  H 10752 10765       L1    18  0.49

> <Gold.Chemscore.Hbond.Weighted>
-9.4386

> <Gold.Chemscore.Metal.Weighted>
-0.0000

> <Gold.Chemscore.Lipo.Weighted>
-8.0005

> <Gold.Chemscore.Internal_Hbond.Weighted>
0.0000

> <Gold.Chemscore.DEClash.Weighted>
0.0106

> <Gold.Chemscore.DEInternal.Weighted>
3.5380

> <Gold.Chemscore.Rot.Weighted>
3.6855

> <Gold.Chemscore.Internal.Correction.Weighted>
   9.000000E+99

> <Gold.Protein.RotatedTorsions>
[ 6907 6896 6895 6894 ] final   49.79 input  -60.11 | X-H torsion
[ 7974 7965 7964 7962 ] final -120.33 input  175.53 | X-H torsion
[ 8008 7997 7996 7995 ] final  -46.77 input   59.86 | X-H torsion
[ 10167 10162 10161 10158 ] final  -28.27 input  -65.29 | X-H torsion
[ 10718 10713 10712 10709 ] final   48.86 input   66.30 | X-H torsion
[ 10763 10752 10751 10750 ] final  161.16 input  -60.55 | X-H torsion
[ 11005 11000 10999 10996 ] final  -42.62 input  -57.11 | X-H torsion

> <Gold.Protein.ActiveResidues>
 VAL166  LYS551  ARG553  GLY616  TRP617  ASP618  TYR619  PRO620  LYS621  CYS622 
 ASP623  PHE694  ASN695  SER759  ASP760  ASP761  ALA762  ILE779  LEU786  VAL792 
 PHE793  MET794  SER795  GLU796  ALA797  LYS798  CYS799  TRP800  GLU811  SER814 

> <Gold.Protein.RotatedAtoms>
  152.2947  134.7681  160.0370 H   0  0  0  0  0  0  0  0  0  0  0  0  # atno 6907 bound_to 6896
  151.8215  133.3390  159.3594 H   0  0  0  0  0  0  0  0  0  0  0  0  # atno 6908 bound_to 6896
  150.7246  134.5498  159.5833 H   0  0  0  0  0  0  0  0  0  0  0  0  # atno 6909 bound_to 6896
  145.0526  140.8230  143.4200 H   0  0  0  0  0  0  0  0  0  0  0  0  # atno 7974 bound_to 7965
  154.4010  140.1363  156.4066 H   0  0  0  0  0  0  0  0  0  0  0  0  # atno 8008 bound_to 7997
  155.7773  140.3482  155.5258 H   0  0  0  0  0  0  0  0  0  0  0  0  # atno 8009 bound_to 7997
  155.8708  140.0971  157.1542 H   0  0  0  0  0  0  0  0  0  0  0  0  # atno 8010 bound_to 7997
  140.7271  143.4024  151.1243 H   0  0  0  0  0  0  0  0  0  0  0  0  # atno 10167 bound_to 10162
  157.4729  130.8267  149.8008 H   0  0  0  0  0  0  0  0  0  0  0  0  # atno 10718 bound_to 10713
  154.2586  135.2769  155.2787 H   0  0  0  0  0  0  0  0  0  0  0  0  # atno 10763 bound_to 10752
  154.5404  135.5704  153.6837 H   0  0  0  0  0  0  0  0  0  0  0  0  # atno 10764 bound_to 10752
  152.9966  135.6249  154.2735 H   0  0  0  0  0  0  0  0  0  0  0  0  # atno 10765 bound_to 10752
  141.0328  133.6813  156.2619 H   0  0  0  0  0  0  0  0  0  0  0  0  # atno 11005 bound_to 11000
  145.1508  139.2515  143.5442 LP  0  0  0  0  0  0  0  0  0  0  0  0  # atno 17320 bound_to 7965
  146.3519  140.1210  142.8600 LP  0  0  0  0  0  0  0  0  0  0  0  0  # atno 17321 bound_to 7965
  139.7645  143.8585  152.3107 LP  0  0  0  0  0  0  0  0  0  0  0  0  # atno 17342 bound_to 10162
  139.8483  144.7177  150.9246 LP  0  0  0  0  0  0  0  0  0  0  0  0  # atno 17343 bound_to 10162
  156.0082  130.3845  150.2355 LP  0  0  0  0  0  0  0  0  0  0  0  0  # atno 17370 bound_to 10713
  157.0538  131.0070  151.3245 LP  0  0  0  0  0  0  0  0  0  0  0  0  # atno 17371 bound_to 10713
  140.6376  134.5199  157.5566 LP  0  0  0  0  0  0  0  0  0  0  0  0  # atno 17394 bound_to 11000
  139.9219  134.8131  156.1184 LP  0  0  0  0  0  0  0  0  0  0  0  0  # atno 17395 bound_to 11000

$$$$
