#       Name:                AV-unprocessed.smi:811
#       Creating user name   scv26
#       Creation time:       Fri Mar 27 01:25:20 2020


#       File generated by GOLD software.
#

@<TRIPOS>MOLECULE
AV-unprocessed.smi:811
    52    54     1
SMALL
NO_CHARGES


@<TRIPOS>ATOM
      1 ****        -6.6754  -2.3162   1.3909 C.3            1 S1                 0.0000
      2 ****        -5.5587  -3.0254   0.7293 N.4            1 S1                 1.0000
      3 ****        -5.6030  -2.9633  -0.7539 C.3            1 S1                 0.0000
      4 ****        -4.1933  -2.5804  -1.2206 C.3            1 S1                 0.0000
      5 ****        -3.6590  -1.7858  -0.0360 C.3            1 S1                 0.0000
      6 ****        -2.2021  -1.6941   0.0024 N.am           1 S1                 0.0000
      7 ****        -1.4926  -0.5563   0.0105 C.2            1 S1                 0.0000
      8 ****        -2.0029   0.5634   0.0033 O.2            1 S1                 0.0000
      9 ****        -0.1726  -0.8097   0.0073 N.am           1 S1                 0.0000
     10 ****         0.9078   0.1139  -0.0042 C.ar           1 S1                 0.0000
     11 ****         0.8117   1.4627   0.4140 C.ar           1 S1                 0.0000
     12 ****         1.9620   2.2732   0.3681 C.ar           1 S1                 0.0000
     13 ****         3.1729   1.7122  -0.0859 C.ar           1 S1                 0.0000
     14 ****         4.3196   2.5172  -0.1348 N.3            1 S1                 0.0000
     15 ****         4.8068   2.7507  -1.4886 C.3            1 S1                 0.0000
     16 ****         5.9841   3.7406  -1.4596 C.3            1 S1                 0.0000
     17 ****         7.0029   3.2473  -0.5938 O.3            1 S1                 0.0000
     18 ****         6.5384   3.0891   0.7439 C.3            1 S1                 0.0000
     19 ****         5.3756   2.0823   0.7710 C.3            1 S1                 0.0000
     20 ****         3.2758   0.4195  -0.4754 N.ar           1 S1                 0.0000
     21 ****         2.1697  -0.3521  -0.4280 C.ar           1 S1                 0.0000
     22 ****        -4.2184  -2.5635   1.1548 C.3            1 S1                 0.0000
     23 ****        -6.6480  -1.2482   1.1700 H              1 S1                 0.0000
     24 ****        -6.6226  -2.4439   2.4725 H              1 S1                 0.0000
     25 ****        -7.6335  -2.7123   1.0530 H              1 S1                 0.0000
     26 ****        -5.9297  -3.9132  -1.1776 H              1 S1                 0.0000
     27 ****        -6.3103  -2.1986  -1.0795 H              1 S1                 0.0000
     28 ****        -3.5951  -3.4798  -1.3763 H              1 S1                 0.0000
     29 ****        -4.1949  -2.0094  -2.1496 H              1 S1                 0.0000
     30 ****        -4.1189  -0.7954  -0.0499 H              1 S1                 0.0000
     31 ****        -1.6925  -2.5657   0.0067 H              1 S1                 0.0000
     32 ****         0.0923  -1.7813  -0.0613 H              1 S1                 0.0000
     33 ****        -0.1094   1.8882   0.7800 H              1 S1                 0.0000
     34 ****         1.9138   3.3061   0.6809 H              1 S1                 0.0000
     35 ****         5.1279   1.8081  -1.9341 H              1 S1                 0.0000
     36 ****         4.0008   3.1443  -2.1092 H              1 S1                 0.0000
     37 ****         6.3963   3.8634  -2.4611 H              1 S1                 0.0000
     38 ****         5.6553   4.7264  -1.1265 H              1 S1                 0.0000
     39 ****         7.3590   2.7319   1.3660 H              1 S1                 0.0000
     40 ****         6.2274   4.0535   1.1484 H              1 S1                 0.0000
     41 ****         4.9804   1.9925   1.7838 H              1 S1                 0.0000
     42 ****         5.7351   1.0956   0.4750 H              1 S1                 0.0000
     43 ****         2.2980  -1.3769  -0.7453 H              1 S1                 0.0000
     44 ****        -4.2409  -1.9673   2.0683 H              1 S1                 0.0000
     45 ****        -3.6074  -3.4454   1.3543 H              1 S1                 0.0000
     46 ****        -5.6305  -3.9969   0.9966 H              1 S1                 0.0000
     47 ****        -2.9983   0.6592  -0.0093 LP             1 S1                 0.0000
     48 ****        -1.4223   1.3775   0.0100 LP             1 S1                 0.0000
     49 ****         4.0186   3.4079   0.2059 LP             1 S1                 0.0000
     50 ****         7.7676   3.8916  -0.5956 LP             1 S1                 0.0000
     51 ****         7.3138   2.3600  -0.9343 LP             1 S1                 0.0000
     52 ****         4.1486   0.0463  -0.7900 LP             1 S1                 0.0000
@<TRIPOS>BOND
    1    1    2 1     
    2    1   23 1     
    3    1   24 1     
    4    1   25 1     
    5    2   22 1     
    6    2    3 1     
    7    2   46 1     
    8    3    4 1     
    9    3   26 1     
   10    3   27 1     
   11    4    5 1     
   12    4   28 1     
   13    4   29 1     
   14    5    6 1     
   15    5   22 1     
   16    5   30 1     
   17    6    7 am    
   18    6   31 1     
   19    7    8 2     
   20    7    9 am    
   21    9   10 1     
   22    9   32 1     
   23   10   21 ar    
   24   10   11 ar    
   25   11   12 ar    
   26   11   33 1     
   27   12   13 ar    
   28   12   34 1     
   29   13   14 1     
   30   13   20 ar    
   31   14   19 1     
   32   14   15 1     
   33   15   16 1     
   34   15   35 1     
   35   15   36 1     
   36   16   17 1     
   37   16   37 1     
   38   16   38 1     
   39   17   18 1     
   40   18   19 1     
   41   18   39 1     
   42   18   40 1     
   43   19   41 1     
   44   19   42 1     
   45   20   21 ar    
   46   21   43 1     
   47   22   44 1     
   48   22   45 1     
   49    8   47 1     
   50    8   48 1     
   51   14   49 1     
   52   17   50 1     
   53   17   51 1     
   54   20   52 1     
@<TRIPOS>SUBSTRUCTURE
      1 S1             1
@<TRIPOS>SET
LONE_PAIRS      STATIC     ATOMS    <user>   **** ""
6 47 48 49 50 51 52
DONOR_HYDROGENS      STATIC     ATOMS    <user>   **** ""
3 46 31 32
ATOM$BLUE        STATIC     ATOMS    COLORGROUP SYSTEM
6 47 48 49 50 51 52
ATOM$RED        STATIC     ATOMS    COLORGROUP SYSTEM
3 46 31 32
