AV-unprocessed.smi:670|AV-procd|sdf|3266|dock8
  -GOLD-   22720 0223D 1   1.00000     0.00000
 Structure written by MMmdl.
 44 45  0  0  0  0  0  0  0  0  2 V2000
  151.7914  144.0929  158.1548 C   0  0  0  0  0  0  0  0  0  0  0  0
  152.5290  143.8225  159.4755 C   0  0  1  0  0  0  0  0  0  0  0  0
  151.6973  144.2682  160.6967 C   0  0  0  0  0  0  0  0  0  0  0  0
  152.4527  144.0308  162.0138 C   0  0  0  0  0  0  0  0  0  0  0  0
  152.9003  142.5680  162.1440 C   0  0  0  0  0  0  0  0  0  0  0  0
  153.7317  142.1281  160.9293 C   0  0  0  0  0  0  0  0  0  0  0  0
  152.9616  142.3447  159.6081 C   0  0  1  0  0  0  0  0  0  0  0  0
  151.7865  141.5441  159.5656 O   0  0  0  0  0  0  0  0  0  0  0  0
  151.9264  140.2747  158.9467 C   0  0  0  0  0  0  0  0  0  0  0  0
  150.9216  140.1749  157.7890 C   0  0  0  0  0  0  0  0  0  0  0  0
  151.2198  139.0444  156.9158 N   0  0  0  0  0  0  0  0  0  0  0  0
  151.2716  139.0920  155.5754 C   0  0  0  0  0  0  0  0  0  0  0  0
  151.1169  140.1292  154.9298 O   0  0  0  0  0  0  0  0  0  0  0  0
  151.5753  137.7703  154.8577 C   0  0  0  0  0  0  0  0  0  0  0  0
  150.8631  136.6326  155.4550 N   0  0  0  0  0  0  0  0  0  0  0  0
  151.7545  135.6022  155.9827 N   0  5  0  0  0  0  0  0  0  0  0  0
  151.2206  134.5212  156.6105 C   0  0  0  0  0  0  0  0  0  0  0  0
  151.9084  133.6313  157.1051 O   0  0  0  0  0  0  0  0  0  0  0  0
  149.7730  134.4241  156.6931 C   0  0  0  0  0  0  0  0  0  0  0  0
  148.9736  135.3730  156.1673 C   0  0  0  0  0  0  0  0  0  0  0  0
  149.5018  136.5538  155.4952 C   0  0  0  0  0  0  0  0  0  0  0  0
  148.7744  137.4178  155.0062 O   0  0  0  0  0  0  0  0  0  0  0  0
  150.8506  143.5438  158.1032 H   0  0  0  0  0  0  0  0  0  0  0  0
  152.3976  143.7972  157.2984 H   0  0  0  0  0  0  0  0  0  0  0  0
  151.5613  145.1529  158.0457 H   0  0  0  0  0  0  0  0  0  0  0  0
  153.4365  144.4278  159.4599 H   0  0  0  0  0  0  0  0  0  0  0  0
  151.4429  145.3248  160.6096 H   0  0  0  0  0  0  0  0  0  0  0  0
  150.7504  143.7266  160.7198 H   0  0  0  0  0  0  0  0  0  0  0  0
  153.3243  144.6846  162.0586 H   0  0  0  0  0  0  0  0  0  0  0  0
  151.8191  144.3010  162.8588 H   0  0  0  0  0  0  0  0  0  0  0  0
  153.4760  142.4346  163.0599 H   0  0  0  0  0  0  0  0  0  0  0  0
  152.0239  141.9265  162.2339 H   0  0  0  0  0  0  0  0  0  0  0  0
  154.6573  142.7044  160.9025 H   0  0  0  0  0  0  0  0  0  0  0  0
  154.0353  141.0888  161.0452 H   0  0  0  0  0  0  0  0  0  0  0  0
  153.6045  142.0901  158.7638 H   0  0  0  0  0  0  0  0  0  0  0  0
  152.9427  140.1711  158.5646 H   0  0  0  0  0  0  0  0  0  0  0  0
  151.7591  139.4609  159.6517 H   0  0  0  0  0  0  0  0  0  0  0  0
  149.8999  140.1160  158.1681 H   0  0  0  0  0  0  0  0  0  0  0  0
  150.9749  141.0801  157.1842 H   0  0  0  0  0  0  0  0  0  0  0  0
  151.3606  138.1482  157.3591 H   0  0  0  0  0  0  0  0  0  0  0  0
  151.3039  137.8743  153.8060 H   0  0  0  0  0  0  0  0  0  0  0  0
  152.6521  137.5880  154.8591 H   0  0  0  0  0  0  0  0  0  0  0  0
  149.3289  133.5711  157.1843 H   0  0  0  0  0  0  0  0  0  0  0  0
  147.9031  135.2592  156.2497 H   0  0  0  0  0  0  0  0  0  0  0  0
  1  2  1  0  0  0  0
  1 23  1  0  0  0  0
  1 24  1  0  0  0  0
  1 25  1  0  0  0  0
  2  7  1  0  0  0  0
  2  3  1  0  0  0  0
  2 26  1  0  0  0  0
  3  4  1  0  0  0  0
  3 27  1  0  0  0  0
  3 28  1  0  0  0  0
  4  5  1  0  0  0  0
  4 29  1  0  0  0  0
  4 30  1  0  0  0  0
  5  6  1  0  0  0  0
  5 31  1  0  0  0  0
  5 32  1  0  0  0  0
  6  7  1  0  0  0  0
  6 33  1  0  0  0  0
  6 34  1  0  0  0  0
  7  8  1  0  0  0  0
  7 35  1  0  0  0  0
  8  9  1  0  0  0  0
  9 10  1  0  0  0  0
  9 36  1  0  0  0  0
  9 37  1  0  0  0  0
 10 11  1  0  0  0  0
 10 38  1  0  0  0  0
 10 39  1  0  0  0  0
 11 12  1  0  0  0  0
 11 40  1  0  0  0  0
 12 13  2  0  0  0  0
 12 14  1  0  0  0  0
 14 41  1  0  0  0  0
 14 42  1  0  0  0  0
 14 15  1  0  0  0  0
 15 16  1  0  0  0  0
 15 21  1  0  0  0  0
 16 17  1  0  0  0  0
 17 18  2  0  0  0  0
 17 19  1  0  0  0  0
 19 43  1  0  0  0  0
 19 20  2  0  0  0  0
 20 44  1  0  0  0  0
 20 21  1  0  0  0  0
 21 22  2  0  0  0  0
M  CHG  1  16  -1
M  END
> <s_m_source_file>
AV-unprocessed.smi

> <i_m_source_file_index>
670

> <i_lp_mmshare_version>
43012

> <i_f3d_flags>
0

> <s_epik_input>
W0NIM11bQ0BASF0xW0NIMl1bQ0gyXVtDSDJdW0NIMl1bQ0BIXTFPW0NIMl1bQ0gyXVtOSF1DKD1PKVtDSDJdbjJbbkhdYyg9TylbY0hdW2NIXWMyPU8=

> <s_epik_cmdline>
J2VwaWtfcHl0aG9uJywgJy1waCcsICc3LjAnLCAnLXRuJywgJzgnLCAnLW1hJywgJzIwMCcsICctbWV0YWxfYmluZGluZycsICctaW1hZScsICc8aW5maWxlLm1hZT4nLCAnLW9tYWUnLCAnPG91dGZpbGUubWFlPic=

> <r_lp_tautomer_probability>
1

> <r_epik_Ionization_Penalty>
0.0975638

> <r_epik_Ionization_Penalty_Charging>
0.0975637

> <r_epik_Ionization_Penalty_Neutral>
2.78599e-08

> <r_epik_State_Penalty>
0.0343507

> <r_epik_Charging_Adjusted_Penalty>
0.131914

> <i_epik_Tot_Q>
-1

> <i_epik_Tot_abs_Q>
1

> <r_epik_Metal_State_Penalty>
0.0343507

> <b_epik_Metal_Only>
0

> <s_lp_Force_Field>
OPLS_2005

> <r_lp_Energy>
24.4617

> <b_lp_Chiralities_Consistent>
1

> <s_lp_Variant>
AV-unprocessed.smi:670-2

> <Gold.Version>
5.8.1

> <Gold.Id.Protein>
6NUR|6NUR_protein|mol2

> <Gold.PLP.Fitness>
54.2029

> <Gold.PLP.PLP>
-46.5880

> <Gold.PLP.part.hbond>
-2.8534

> <Gold.PLP.part.metal>
0.0000

> <Gold.PLP.part.buried>
-6.7293

> <Gold.PLP.part.nonpolar>
-37.6727

> <Gold.PLP.part.repulsive>
0.3043

> <Gold.PLP.ligand.clash>
0.0000

> <Gold.PLP.ligand.torsion>
1.2010

> <Gold.PLP.Chemscore.Hbond>
3.3198

> <Gold.PLP.Chemscore.CHOScore>
0.0000

> <Gold.PLP.Chemscore.Metal>
0.0000

> <Gold.Chemscore.Hbonds>
donor molecule, donor type, donor heavy atom, donor atom, acceptor molecule, acceptor atom, score
      P1  H  6896  6907       L1    18  0.31
      P1  H  7989  7998       L1    13  1.00
      P1  H 10752 10763       L1    16  2.00

> <Gold.PLP.Chemscore.Internal.Correction>
0.0574

> <Gold.Rescore>
     Score         DG    S(hbond)    S(metal)    S(lipo)     H(rot)  DE(clash)    DE(int)     intcor
     18.06     -19.44       2.26        0.00     108.34       2.45       0.13       1.24       ----

> <Gold.Chemscore.Fitness>
18.0645

> <Gold.Chemscore.DG>
-19.4359

> <Gold.Chemscore.ZeroCoef>
-5.4800

> <Gold.Chemscore.Hbond>
2.2602

> <Gold.Chemscore.Metal>
0.0000

> <Gold.Chemscore.Lipo>
108.3443

> <Gold.Chemscore.Internal_Hbond>
0.0000

> <Gold.Chemscore.DEClash>
0.1341

> <Gold.Chemscore.DEInternal>
1.2373

> <Gold.Chemscore.Rot>
2.4490

> <Gold.Chemscore.Internal.Correction>
   9.000000E+99

> <Gold.Chemscore.Hbonds>
donor molecule, donor type, donor heavy atom, donor atom, acceptor molecule, acceptor atom, score
      P1  H  6896  6907       L1    18  0.26
      P1  H  7989  7998       L1    13  1.00
      P1  H 10752 10763       L1    16  0.88

> <Gold.Chemscore.Hbond.Weighted>
-7.5490

> <Gold.Chemscore.Metal.Weighted>
-0.0000

> <Gold.Chemscore.Lipo.Weighted>
-12.6763

> <Gold.Chemscore.Internal_Hbond.Weighted>
0.0000

> <Gold.Chemscore.DEClash.Weighted>
0.1341

> <Gold.Chemscore.DEInternal.Weighted>
1.2373

> <Gold.Chemscore.Rot.Weighted>
6.2694

> <Gold.Chemscore.Internal.Correction.Weighted>
   9.000000E+99

> <Gold.Protein.RotatedTorsions>
[ 6907 6896 6895 6894 ] final -170.50 input  -60.11 | X-H torsion
[ 7974 7965 7964 7962 ] final  -48.16 input  175.53 | X-H torsion
[ 8008 7997 7996 7995 ] final -178.12 input   59.86 | X-H torsion
[ 10167 10162 10161 10158 ] final  135.45 input  -65.29 | X-H torsion
[ 10718 10713 10712 10709 ] final -117.17 input   66.30 | X-H torsion
[ 10763 10752 10751 10750 ] final   99.53 input  -60.55 | X-H torsion
[ 11005 11000 10999 10996 ] final -173.31 input  -57.11 | X-H torsion

> <Gold.Protein.ActiveResidues>
 VAL166  LYS551  ARG553  GLY616  TRP617  ASP618  TYR619  PRO620  LYS621  CYS622 
 ASP623  PHE694  ASN695  SER759  ASP760  ASP761  ALA762  ILE779  LEU786  VAL792 
 PHE793  MET794  SER795  GLU796  ALA797  LYS798  CYS799  TRP800  GLU811  SER814 

> <Gold.Protein.RotatedAtoms>
  151.5087  133.3489  159.2880 H   0  0  0  0  0  0  0  0  0  0  0  0  # atno 6907 bound_to 6896
  150.8726  134.8105  159.7177 H   0  0  0  0  0  0  0  0  0  0  0  0  # atno 6908 bound_to 6896
  152.4709  134.4973  159.9765 H   0  0  0  0  0  0  0  0  0  0  0  0  # atno 6909 bound_to 6896
  145.9540  140.7544  142.9490 H   0  0  0  0  0  0  0  0  0  0  0  0  # atno 7974 bound_to 7965
  156.0151  140.1249  157.0415 H   0  0  0  0  0  0  0  0  0  0  0  0  # atno 8008 bound_to 7997
  154.4290  140.1080  156.5953 H   0  0  0  0  0  0  0  0  0  0  0  0  # atno 8009 bound_to 7997
  155.6025  140.3470  155.4600 H   0  0  0  0  0  0  0  0  0  0  0  0  # atno 8010 bound_to 7997
  139.5217  144.6516  151.5284 H   0  0  0  0  0  0  0  0  0  0  0  0  # atno 10167 bound_to 10162
  156.1015  130.6175  150.9129 H   0  0  0  0  0  0  0  0  0  0  0  0  # atno 10718 bound_to 10713
  153.3026  135.4110  155.1266 H   0  0  0  0  0  0  0  0  0  0  0  0  # atno 10763 bound_to 10752
  154.8553  135.3545  154.5831 H   0  0  0  0  0  0  0  0  0  0  0  0  # atno 10764 bound_to 10752
  153.6257  135.7063  153.5352 H   0  0  0  0  0  0  0  0  0  0  0  0  # atno 10765 bound_to 10752
  140.4872  134.6019  157.4941 H   0  0  0  0  0  0  0  0  0  0  0  0  # atno 11005 bound_to 11000
  144.6801  140.2482  143.7335 LP  0  0  0  0  0  0  0  0  0  0  0  0  # atno 17320 bound_to 7965
  145.8132  139.2012  143.1981 LP  0  0  0  0  0  0  0  0  0  0  0  0  # atno 17321 bound_to 7965
  140.6324  143.9050  150.6617 LP  0  0  0  0  0  0  0  0  0  0  0  0  # atno 17342 bound_to 10162
  140.2359  143.3700  152.1527 LP  0  0  0  0  0  0  0  0  0  0  0  0  # atno 17343 bound_to 10162
  157.6185  131.0931  150.8666 LP  0  0  0  0  0  0  0  0  0  0  0  0  # atno 17370 bound_to 10713
  156.8793  130.5173  149.5292 LP  0  0  0  0  0  0  0  0  0  0  0  0  # atno 17371 bound_to 10713
  139.9791  134.7167  155.9893 LP  0  0  0  0  0  0  0  0  0  0  0  0  # atno 17394 bound_to 11000
  141.1502  133.6549  156.3990 LP  0  0  0  0  0  0  0  0  0  0  0  0  # atno 17395 bound_to 11000

$$$$
