AV-unprocessed.smi:254|AV-procd|sdf|1946|dock4
  -GOLD-   2262021 83D 1   1.00000     0.00000
 Structure written by MMmdl.
 50 53  0  0  0  0  0  0  0  0  1 V2000
  150.8543  131.3082  155.4105 O   0  0  0  0  0  0  0  0  0  0  0  0
  150.2428  132.3730  155.3402 C   0  0  0  0  0  0  0  0  0  0  0  0
  150.6398  133.6100  156.1250 C   0  0  0  0  0  0  0  0  0  0  0  0
  149.6305  134.5658  155.6855 N   0  0  0  0  0  0  0  0  0  0  0  0
  149.6088  135.8621  156.0902 C   0  0  0  0  0  0  0  0  0  0  0  0
  148.6666  136.2341  156.9961 N   0  0  0  0  0  0  0  0  0  0  0  0
  148.5982  137.4963  157.4269 C   0  0  0  0  0  0  0  0  0  0  0  0
  149.3639  138.5341  157.0892 N   0  0  0  0  0  0  0  0  0  0  0  0
  150.3159  138.1728  156.1827 C   0  0  0  0  0  0  0  0  0  0  0  0
  150.5061  136.8725  155.6308 C   0  0  0  0  0  0  0  0  0  0  0  0
  151.5676  136.9026  154.7331 N   0  0  0  0  0  0  0  0  0  0  0  0
  151.9771  138.1407  154.7534 C   0  0  0  0  0  0  0  0  0  0  0  0
  151.2920  138.9715  155.6101 N   0  0  0  0  0  0  0  0  0  0  0  0
  151.5329  140.3902  155.8347 C   0  0  0  0  0  0  0  0  0  0  0  0
  150.2705  141.2855  155.6994 C   0  0  1  0  0  0  0  0  0  0  0  0
  149.2279  140.6871  154.7259 C   0  0  0  0  0  0  0  0  0  0  0  0
  149.7180  140.6766  153.4017 O   0  0  0  0  0  0  0  0  0  0  0  0
  149.6319  141.6186  157.0738 C   0  0  2  0  0  0  0  0  0  0  0  0
  148.2041  142.1353  157.0119 C   0  0  0  0  0  0  0  0  0  0  0  0
  148.0366  142.8044  158.3722 C   0  0  0  0  0  0  0  0  0  0  0  0
  149.3297  143.2739  158.7355 O   0  0  0  0  0  0  0  0  0  0  0  0
  150.3001  142.7792  157.8196 C   0  0  0  0  0  0  0  0  0  0  0  0
  148.7100  133.9976  154.7105 C   0  0  0  0  0  0  0  0  0  0  0  0
  149.1671  132.6234  154.5851 N   0  0  0  0  0  0  0  0  0  0  0  0
  148.4986  131.6922  153.6791 C   0  0  0  0  0  0  0  0  0  0  0  0
  148.1002  130.3791  154.3758 C   0  0  0  0  0  0  0  0  0  0  0  0
  149.1847  129.6186  154.5192 F   0  0  0  0  0  0  0  0  0  0  0  0
  147.5840  130.6101  155.5828 F   0  0  0  0  0  0  0  0  0  0  0  0
  147.2104  129.7149  153.6383 F   0  0  0  0  0  0  0  0  0  0  0  0
  150.5803  133.4265  157.1982 H   0  0  0  0  0  0  0  0  0  0  0  0
  151.6470  133.9325  155.8577 H   0  0  0  0  0  0  0  0  0  0  0  0
  147.8190  137.7036  158.1456 H   0  0  0  0  0  0  0  0  0  0  0  0
  152.7993  138.4790  154.1408 H   0  0  0  0  0  0  0  0  0  0  0  0
  151.9825  140.5069  156.8207 H   0  0  0  0  0  0  0  0  0  0  0  0
  152.2987  140.7195  155.1317 H   0  0  0  0  0  0  0  0  0  0  0  0
  150.6026  142.2311  155.2678 H   0  0  0  0  0  0  0  0  0  0  0  0
  148.9409  139.6769  155.0183 H   0  0  0  0  0  0  0  0  0  0  0  0
  148.3159  141.2825  154.7177 H   0  0  0  0  0  0  0  0  0  0  0  0
  149.1434  140.1422  152.8740 H   0  0  0  0  0  0  0  0  0  0  0  0
  149.6411  140.7344  157.7125 H   0  0  0  0  0  0  0  0  0  0  0  0
  148.1003  142.8753  156.2168 H   0  0  0  0  0  0  0  0  0  0  0  0
  147.4658  141.3503  156.8469 H   0  0  0  0  0  0  0  0  0  0  0  0
  147.3085  143.6155  158.3496 H   0  0  0  0  0  0  0  0  0  0  0  0
  147.7112  142.0772  159.1169 H   0  0  0  0  0  0  0  0  0  0  0  0
  151.2092  142.4825  158.3415 H   0  0  0  0  0  0  0  0  0  0  0  0
  150.5584  143.5834  157.1290 H   0  0  0  0  0  0  0  0  0  0  0  0
  147.6812  134.0285  155.0719 H   0  0  0  0  0  0  0  0  0  0  0  0
  148.7790  134.5148  153.7523 H   0  0  0  0  0  0  0  0  0  0  0  0
  147.6096  132.1740  153.2700 H   0  0  0  0  0  0  0  0  0  0  0  0
  149.1485  131.4819  152.8281 H   0  0  0  0  0  0  0  0  0  0  0  0
  1  2  2  0  0  0  0
  2 24  1  0  0  0  0
  2  3  1  0  0  0  0
  3  4  1  0  0  0  0
  3 30  1  0  0  0  0
  3 31  1  0  0  0  0
  4  5  1  0  0  0  0
  4 23  1  0  0  0  0
  5 10  1  0  0  0  0
  5  6  2  0  0  0  0
  6  7  1  0  0  0  0
  7  8  2  0  0  0  0
  7 32  1  0  0  0  0
  8  9  1  0  0  0  0
  9 13  1  0  0  0  0
  9 10  2  0  0  0  0
 10 11  1  0  0  0  0
 11 12  2  0  0  0  0
 12 13  1  0  0  0  0
 12 33  1  0  0  0  0
 13 14  1  0  0  0  0
 14 15  1  0  0  0  0
 14 34  1  0  0  0  0
 14 35  1  0  0  0  0
 15 16  1  0  0  0  0
 15 18  1  0  0  0  0
 15 36  1  0  0  0  0
 16 17  1  0  0  0  0
 16 37  1  0  0  0  0
 16 38  1  0  0  0  0
 17 39  1  0  0  0  0
 18 22  1  0  0  0  0
 18 19  1  0  0  0  0
 18 40  1  0  0  0  0
 19 20  1  0  0  0  0
 19 41  1  0  0  0  0
 19 42  1  0  0  0  0
 20 21  1  0  0  0  0
 20 43  1  0  0  0  0
 20 44  1  0  0  0  0
 21 22  1  0  0  0  0
 22 45  1  0  0  0  0
 22 46  1  0  0  0  0
 23 24  1  0  0  0  0
 23 47  1  0  0  0  0
 23 48  1  0  0  0  0
 24 25  1  0  0  0  0
 25 26  1  0  0  0  0
 25 49  1  0  0  0  0
 25 50  1  0  0  0  0
 26 27  1  0  0  0  0
 26 28  1  0  0  0  0
 26 29  1  0  0  0  0
M  END
> <s_m_source_file>
AV-unprocessed.smi

> <i_m_source_file_index>
254

> <i_lp_mmshare_version>
43012

> <i_f3d_flags>
0

> <s_epik_input>
RkMoRikoRilbQ0gyXU4xW0NIMl1OKFtDSDJdQzE9TyljKG5bY0hdbjIpYyhjMjMpbltjSF1uM1tDSDJdW0NASF0oW0NIMl1bT0hdKVtDQEBIXTRbQ0gyXVtDSDJdT1tDSDJdNA==

> <s_epik_cmdline>
J2VwaWtfcHl0aG9uJywgJy1waCcsICc3LjAnLCAnLXRuJywgJzgnLCAnLW1hJywgJzIwMCcsICctbWV0YWxfYmluZGluZycsICctaW1hZScsICc8aW5maWxlLm1hZT4nLCAnLW9tYWUnLCAnPG91dGZpbGUubWFlPic=

> <r_lp_tautomer_probability>
1

> <r_epik_Ionization_Penalty>
0.000292924

> <r_epik_Ionization_Penalty_Charging>
0

> <r_epik_Ionization_Penalty_Neutral>
0.000292924

> <r_epik_State_Penalty>
-0

> <r_epik_Charging_Adjusted_Penalty>
0

> <i_epik_Tot_Q>
0

> <i_epik_Tot_abs_Q>
0

> <r_epik_Metal_State_Penalty>
-0

> <b_epik_Metal_Only>
0

> <s_epik_Chemistry_Notes>
This compound contains an acetal/aminal-like group ( X-CH(R)-Y where X, Y are N, S, or O) that may be acid/base labile, releasing an aldehyde.

> <s_lp_Force_Field>
OPLS_2005

> <r_lp_Energy>
38.5559

> <b_lp_Chiralities_Consistent>
1

> <s_lp_Variant>
AV-unprocessed.smi:254-2

> <Gold.Version>
5.8.1

> <Gold.Id.Protein>
6NUR|6NUR_protein|mol2

> <Gold.PLP.Fitness>
46.8186

> <Gold.PLP.PLP>
-44.2118

> <Gold.PLP.part.hbond>
-4.1483

> <Gold.PLP.part.metal>
0.0000

> <Gold.PLP.part.buried>
-3.4565

> <Gold.PLP.part.nonpolar>
-36.3956

> <Gold.PLP.part.repulsive>
0.2969

> <Gold.PLP.ligand.clash>
0.0000

> <Gold.PLP.ligand.torsion>
2.7542

> <Gold.PLP.Chemscore.Hbond>
2.5360

> <Gold.PLP.Chemscore.CHOScore>
0.0000

> <Gold.PLP.Chemscore.Metal>
0.0000

> <Gold.Chemscore.Hbonds>
donor molecule, donor type, donor heavy atom, donor atom, acceptor molecule, acceptor atom, score
      L1  H    17    39       P1  7957  0.29
      P1  H  7989  7998       L1    17  0.35
      P1  H  8011  8017       L1    17  0.99
      P1  H 10752 10765       L1    11  1.00

> <Gold.PLP.Chemscore.Internal.Correction>
0.5073

> <Gold.Rescore>
     Score         DG    S(hbond)    S(metal)    S(lipo)     H(rot)  DE(clash)    DE(int)     intcor
      5.35      -9.85       1.95        0.00      53.69       3.30       0.08       4.42       ----

> <Gold.Chemscore.Fitness>
5.3472

> <Gold.Chemscore.DG>
-9.8477

> <Gold.Chemscore.ZeroCoef>
-5.4800

> <Gold.Chemscore.Hbond>
1.9542

> <Gold.Chemscore.Metal>
0.0000

> <Gold.Chemscore.Lipo>
53.6943

> <Gold.Chemscore.Internal_Hbond>
0.0000

> <Gold.Chemscore.DEClash>
0.0816

> <Gold.Chemscore.DEInternal>
4.4188

> <Gold.Chemscore.Rot>
3.2974

> <Gold.Chemscore.Internal.Correction>
   9.000000E+99

> <Gold.Chemscore.Hbonds>
donor molecule, donor type, donor heavy atom, donor atom, acceptor molecule, acceptor atom, score
      L1  H    17    39       P1  7957  0.28
      P1  H  7989  7998       L1    17  0.25
      P1  H  8011  8017       L1    17  0.31
      P1  H 10752 10765       L1    11  0.88

> <Gold.Chemscore.Hbond.Weighted>
-6.5269

> <Gold.Chemscore.Metal.Weighted>
-0.0000

> <Gold.Chemscore.Lipo.Weighted>
-6.2822

> <Gold.Chemscore.Internal_Hbond.Weighted>
0.0000

> <Gold.Chemscore.DEClash.Weighted>
0.0816

> <Gold.Chemscore.DEInternal.Weighted>
4.4188

> <Gold.Chemscore.Rot.Weighted>
8.4414

> <Gold.Chemscore.Internal.Correction.Weighted>
   9.000000E+99

> <Gold.Protein.RotatedTorsions>
[ 6907 6896 6895 6894 ] final  -36.30 input  -60.11 | X-H torsion
[ 7974 7965 7964 7962 ] final  125.09 input  175.53 | X-H torsion
[ 8008 7997 7996 7995 ] final -104.32 input   59.86 | X-H torsion
[ 10167 10162 10161 10158 ] final  -62.23 input  -65.29 | X-H torsion
[ 10718 10713 10712 10709 ] final    8.41 input   66.30 | X-H torsion
[ 10763 10752 10751 10750 ] final  166.74 input  -60.55 | X-H torsion
[ 11005 11000 10999 10996 ] final -126.03 input  -57.11 | X-H torsion

> <Gold.Protein.ActiveResidues>
 VAL166  LYS551  ARG553  GLY616  TRP617  ASP618  TYR619  PRO620  LYS621  CYS622 
 ASP623  PHE694  ASN695  SER759  ASP760  ASP761  ALA762  ILE779  LEU786  VAL792 
 PHE793  MET794  SER795  GLU796  ALA797  LYS798  CYS799  TRP800  GLU811  SER814 

> <Gold.Protein.RotatedAtoms>
  151.0289  134.9524  159.8099 H   0  0  0  0  0  0  0  0  0  0  0  0  # atno 6907 bound_to 6896
  152.5341  134.2806  159.9016 H   0  0  0  0  0  0  0  0  0  0  0  0  # atno 6908 bound_to 6896
  151.2815  133.4165  159.2661 H   0  0  0  0  0  0  0  0  0  0  0  0  # atno 6909 bound_to 6896
  145.0769  139.3687  143.4929 H   0  0  0  0  0  0  0  0  0  0  0  0  # atno 7974 bound_to 7965
  154.8837  140.0418  157.1797 H   0  0  0  0  0  0  0  0  0  0  0  0  # atno 8008 bound_to 7997
  154.8613  140.2944  155.5516 H   0  0  0  0  0  0  0  0  0  0  0  0  # atno 8009 bound_to 7997
  156.2998  140.2446  156.3587 H   0  0  0  0  0  0  0  0  0  0  0  0  # atno 8010 bound_to 7997
  140.5953  143.2349  151.6049 H   0  0  0  0  0  0  0  0  0  0  0  0  # atno 10167 bound_to 10162
  156.9512  130.5898  149.5657 H   0  0  0  0  0  0  0  0  0  0  0  0  # atno 10718 bound_to 10713
  154.3435  135.2754  155.2410 H   0  0  0  0  0  0  0  0  0  0  0  0  # atno 10763 bound_to 10752
  154.4670  135.5892  153.6298 H   0  0  0  0  0  0  0  0  0  0  0  0  # atno 10764 bound_to 10752
  152.9855  135.6079  154.3639 H   0  0  0  0  0  0  0  0  0  0  0  0  # atno 10765 bound_to 10752
  140.9714  134.0800  157.3865 H   0  0  0  0  0  0  0  0  0  0  0  0  # atno 11005 bound_to 11000
  146.3530  140.0541  142.8634 LP  0  0  0  0  0  0  0  0  0  0  0  0  # atno 17320 bound_to 7965
  145.1225  140.9470  143.4592 LP  0  0  0  0  0  0  0  0  0  0  0  0  # atno 17321 bound_to 7965
  139.5254  144.3075  152.1021 LP  0  0  0  0  0  0  0  0  0  0  0  0  # atno 17342 bound_to 10162
  140.2247  144.4430  150.6326 LP  0  0  0  0  0  0  0  0  0  0  0  0  # atno 17343 bound_to 10162
  156.0362  130.5449  150.8658 LP  0  0  0  0  0  0  0  0  0  0  0  0  # atno 17370 bound_to 10713
  157.5720  131.0946  150.9403 LP  0  0  0  0  0  0  0  0  0  0  0  0  # atno 17371 bound_to 10713
  139.8914  135.0118  156.6788 LP  0  0  0  0  0  0  0  0  0  0  0  0  # atno 17394 bound_to 11000
  140.7323  133.9048  155.8220 LP  0  0  0  0  0  0  0  0  0  0  0  0  # atno 17395 bound_to 11000

$$$$
