AV-unprocessed.smi:287|AV-procd|sdf|2184|dock9
  -GOLD-   2262021563D 1   1.00000     0.00000
 Structure written by MMmdl.
 55 58  0  0  0  0  0  0  0  0  1 V2000
  141.8675  135.5059  163.2433 C   0  0  0  0  0  0  0  0  0  0  0  0
  143.2781  135.4234  162.7686 C   0  0  0  0  0  0  0  0  0  0  0  0
  144.1492  136.3275  162.2344 C   0  0  0  0  0  0  0  0  0  0  0  0
  145.3743  135.6413  161.9810 C   0  0  0  0  0  0  0  0  0  0  0  0
  146.6344  136.2587  161.3889 C   0  0  2  0  0  0  0  0  0  0  0  0
  147.7670  136.2412  162.4294 C   0  0  0  0  0  0  0  0  0  0  0  0
  146.4718  137.6202  161.0417 O   0  0  0  0  0  0  0  0  0  0  0  0
  147.0874  135.5372  160.0997 C   0  0  0  0  0  0  0  0  0  0  0  0
  148.2853  136.1236  159.5126 N   0  0  0  0  0  0  0  0  0  0  0  0
  148.8578  135.5841  158.4163 C   0  0  0  0  0  0  0  0  0  0  0  0
  150.1252  135.9891  158.1621 N   0  0  0  0  0  0  0  0  0  0  0  0
  150.7812  135.5186  157.0978 C   0  0  0  0  0  0  0  0  0  0  0  0
  150.3613  134.6506  156.1758 N   0  0  0  0  0  0  0  0  0  0  0  0
  149.0862  134.2351  156.4274 C   0  0  0  0  0  0  0  0  0  0  0  0
  148.2666  134.6479  157.5166 C   0  0  0  0  0  0  0  0  0  0  0  0
  147.0353  134.0061  157.4293 N   0  0  0  0  0  0  0  0  0  0  0  0
  147.1275  133.2691  156.3561 C   0  0  0  0  0  0  0  0  0  0  0  0
  148.3301  133.3515  155.6894 N   0  0  0  0  0  0  0  0  0  0  0  0
  148.7702  132.6512  154.4408 C   0  0  1  0  0  0  0  0  0  0  0  0
  148.5206  131.2877  154.6143 O   0  0  0  0  0  0  0  0  0  0  0  0
  147.6324  130.7962  153.6104 C   0  0  1  0  0  0  0  0  0  0  0  0
  146.7442  129.6670  154.1623 C   0  0  0  0  0  0  0  0  0  0  0  0
  146.2513  130.0175  155.4375 O   0  0  0  0  0  0  0  0  0  0  0  0
  146.8877  132.0385  153.1002 C   0  0  1  0  0  0  0  0  0  0  0  0
  145.7505  132.3261  153.8971 O   0  0  0  0  0  0  0  0  0  0  0  0
  147.9645  133.1084  153.2103 C   0  0  1  0  0  0  0  0  0  0  0  0
  147.4384  134.4238  153.2685 O   0  0  0  0  0  0  0  0  0  0  0  0
  145.1423  134.3486  162.3870 C   0  0  0  0  0  0  0  0  0  0  0  0
  145.9671  133.1040  162.4142 C   0  0  0  0  0  0  0  0  0  0  0  0
  143.8742  134.2089  162.8651 O   0  0  0  0  0  0  0  0  0  0  0  0
  149.8391  132.8556  154.3693 H   0  0  0  0  0  0  0  0  0  0  0  0
  148.2428  130.4198  152.7873 H   0  0  0  0  0  0  0  0  0  0  0  0
  146.5531  131.9122  152.0701 H   0  0  0  0  0  0  0  0  0  0  0  0
  148.6277  133.0347  152.3473 H   0  0  0  0  0  0  0  0  0  0  0  0
  141.5669  136.5435  163.3908 H   0  0  0  0  0  0  0  0  0  0  0  0
  141.7455  134.9817  164.1914 H   0  0  0  0  0  0  0  0  0  0  0  0
  141.1891  135.0570  162.5179 H   0  0  0  0  0  0  0  0  0  0  0  0
  143.9347  137.3696  162.0488 H   0  0  0  0  0  0  0  0  0  0  0  0
  148.0088  135.2231  162.7362 H   0  0  0  0  0  0  0  0  0  0  0  0
  147.4900  136.7966  163.3267 H   0  0  0  0  0  0  0  0  0  0  0  0
  148.6807  136.6868  162.0338 H   0  0  0  0  0  0  0  0  0  0  0  0
  145.5668  137.7650  160.8117 H   0  0  0  0  0  0  0  0  0  0  0  0
  147.2341  134.4718  160.2831 H   0  0  0  0  0  0  0  0  0  0  0  0
  146.2920  135.6259  159.3584 H   0  0  0  0  0  0  0  0  0  0  0  0
  148.6158  136.9716  159.9500 H   0  0  0  0  0  0  0  0  0  0  0  0
  151.7861  135.8920  156.9660 H   0  0  0  0  0  0  0  0  0  0  0  0
  146.3131  132.6436  156.0214 H   0  0  0  0  0  0  0  0  0  0  0  0
  145.9183  129.4424  153.4869 H   0  0  0  0  0  0  0  0  0  0  0  0
  147.3271  128.7529  154.2800 H   0  0  0  0  0  0  0  0  0  0  0  0
  145.3094  129.9430  155.4259 H   0  0  0  0  0  0  0  0  0  0  0  0
  145.9747  132.1634  154.8010 H   0  0  0  0  0  0  0  0  0  0  0  0
  147.8512  134.9409  152.5932 H   0  0  0  0  0  0  0  0  0  0  0  0
  146.2985  132.8389  161.4102 H   0  0  0  0  0  0  0  0  0  0  0  0
  145.4004  132.2623  162.8131 H   0  0  0  0  0  0  0  0  0  0  0  0
  146.8499  133.2396  163.0390 H   0  0  0  0  0  0  0  0  0  0  0  0
  1  2  1  0  0  0  0
  1 35  1  0  0  0  0
  1 36  1  0  0  0  0
  1 37  1  0  0  0  0
  2 30  1  0  0  0  0
  2  3  2  0  0  0  0
  3  4  1  0  0  0  0
  3 38  1  0  0  0  0
  4  5  1  0  0  0  0
  4 28  2  0  0  0  0
  5  6  1  0  0  0  0
  5  7  1  0  0  0  0
  5  8  1  0  0  0  0
  6 39  1  0  0  0  0
  6 40  1  0  0  0  0
  6 41  1  0  0  0  0
  7 42  1  0  0  0  0
  8  9  1  0  0  0  0
  8 43  1  0  0  0  0
  8 44  1  0  0  0  0
  9 10  1  0  0  0  0
  9 45  1  0  0  0  0
 10 15  1  0  0  0  0
 10 11  2  0  0  0  0
 11 12  1  0  0  0  0
 12 13  2  0  0  0  0
 12 46  1  0  0  0  0
 13 14  1  0  0  0  0
 14 18  1  0  0  0  0
 14 15  2  0  0  0  0
 15 16  1  0  0  0  0
 16 17  2  0  0  0  0
 17 18  1  0  0  0  0
 17 47  1  0  0  0  0
 18 19  1  0  0  0  0
 19 31  1  0  0  0  0
 19 26  1  0  0  0  0
 19 20  1  0  0  0  0
 20 21  1  0  0  0  0
 21 32  1  0  0  0  0
 21 22  1  0  0  0  0
 21 24  1  0  0  0  0
 22 23  1  0  0  0  0
 22 48  1  0  0  0  0
 22 49  1  0  0  0  0
 23 50  1  0  0  0  0
 24 33  1  0  0  0  0
 24 25  1  0  0  0  0
 24 26  1  0  0  0  0
 25 51  1  0  0  0  0
 26 34  1  0  0  0  0
 26 27  1  0  0  0  0
 27 52  1  0  0  0  0
 28 29  1  0  0  0  0
 28 30  1  0  0  0  0
 29 53  1  0  0  0  0
 29 54  1  0  0  0  0
 29 55  1  0  0  0  0
M  END
> <s_m_source_file>
AV-unprocessed.smi

> <i_m_source_file_index>
287

> <i_lp_mmshare_version>
43012

> <i_f3d_flags>
0

> <s_epik_input>
W0NIM11jMVtjSF1jKGMobzEpW0NIM10pW0NAQF0oW0NIM10pKFtPSF0pW0NIMl1bTkhdYyhuW2NIXW4yKWMoYzIzKW5bY0hdbjNbQ0BASF00T1tDQEhdKFtDSDJdW09IXSlbQ0BASF0oW09IXSlbQ0BIXTRbT0hd

> <s_epik_cmdline>
J2VwaWtfcHl0aG9uJywgJy1waCcsICc3LjAnLCAnLXRuJywgJzgnLCAnLW1hJywgJzIwMCcsICctbWV0YWxfYmluZGluZycsICctaW1hZScsICc8aW5maWxlLm1hZT4nLCAnLW9tYWUnLCAnPG91dGZpbGUubWFlPic=

> <r_lp_tautomer_probability>
1

> <r_epik_Ionization_Penalty>
0.000992612

> <r_epik_Ionization_Penalty_Charging>
0

> <r_epik_Ionization_Penalty_Neutral>
0.000992612

> <r_epik_State_Penalty>
-0

> <r_epik_Charging_Adjusted_Penalty>
0

> <i_epik_Tot_Q>
0

> <i_epik_Tot_abs_Q>
0

> <r_epik_Metal_State_Penalty>
-0

> <b_epik_Metal_Only>
0

> <s_epik_Chemistry_Notes>
This compound contains an acetal/aminal-like group ( X-CH(R)-Y where X, Y are N, S, or O) that may be acid/base labile, releasing an aldehyde.

> <s_lp_Force_Field>
OPLS_2005

> <r_lp_Energy>
46.5399

> <b_lp_Chiralities_Consistent>
1

> <s_lp_Variant>
AV-unprocessed.smi:287-8

> <Gold.Version>
5.8.1

> <Gold.Id.Protein>
6NUR|6NUR_protein|mol2

> <Gold.PLP.Fitness>
46.7545

> <Gold.PLP.PLP>
-36.6597

> <Gold.PLP.part.hbond>
-4.1441

> <Gold.PLP.part.metal>
0.0000

> <Gold.PLP.part.buried>
-6.4530

> <Gold.PLP.part.nonpolar>
-27.2395

> <Gold.PLP.part.repulsive>
0.2992

> <Gold.PLP.ligand.clash>
0.9325

> <Gold.PLP.ligand.torsion>
0.3336

> <Gold.PLP.Chemscore.Hbond>
3.6328

> <Gold.PLP.Chemscore.CHOScore>
0.0000

> <Gold.PLP.Chemscore.Metal>
0.0000

> <Gold.Chemscore.Hbonds>
donor molecule, donor type, donor heavy atom, donor atom, acceptor molecule, acceptor atom, score
      L1  H    23    50       P1 10956  0.68
      L1  H    27    52       P1  7948  1.00
      P1  H  6896  6908       L1    11  0.46
      P1  H  6934  6947       L1     7  1.00

> <Gold.PLP.Chemscore.Internal.Correction>
0.7960

> <Gold.Rescore>
     Score         DG    S(hbond)    S(metal)    S(lipo)     H(rot)  DE(clash)    DE(int)     intcor
      9.63     -11.28       2.91        0.00      81.65       5.27       0.07       1.59       ----

> <Gold.Chemscore.Fitness>
9.6295

> <Gold.Chemscore.DG>
-11.2832

> <Gold.Chemscore.ZeroCoef>
-5.4800

> <Gold.Chemscore.Hbond>
2.9144

> <Gold.Chemscore.Metal>
0.0000

> <Gold.Chemscore.Lipo>
81.6484

> <Gold.Chemscore.Internal_Hbond>
0.0000

> <Gold.Chemscore.DEClash>
0.0650

> <Gold.Chemscore.DEInternal>
1.5887

> <Gold.Chemscore.Rot>
5.2672

> <Gold.Chemscore.Internal.Correction>
   9.000000E+99

> <Gold.Chemscore.Hbonds>
donor molecule, donor type, donor heavy atom, donor atom, acceptor molecule, acceptor atom, score
      L1  H    23    50       P1 10956  0.65
      L1  H    27    52       P1  7948  0.92
      P1  H  6896  6908       L1    11  0.01
      P1  H  6934  6947       L1     7  0.48

> <Gold.Chemscore.Hbond.Weighted>
-9.7342

> <Gold.Chemscore.Metal.Weighted>
-0.0000

> <Gold.Chemscore.Lipo.Weighted>
-9.5529

> <Gold.Chemscore.Internal_Hbond.Weighted>
0.0000

> <Gold.Chemscore.DEClash.Weighted>
0.0650

> <Gold.Chemscore.DEInternal.Weighted>
1.5887

> <Gold.Chemscore.Rot.Weighted>
13.4839

> <Gold.Chemscore.Internal.Correction.Weighted>
   9.000000E+99

> <Gold.Protein.RotatedTorsions>
[ 6907 6896 6895 6894 ] final -174.01 input  -60.11 | X-H torsion
[ 7974 7965 7964 7962 ] final  112.05 input  175.53 | X-H torsion
[ 8008 7997 7996 7995 ] final   68.45 input   59.86 | X-H torsion
[ 10167 10162 10161 10158 ] final  -89.25 input  -65.29 | X-H torsion
[ 10718 10713 10712 10709 ] final  -46.37 input   66.30 | X-H torsion
[ 10763 10752 10751 10750 ] final  -25.59 input  -60.55 | X-H torsion
[ 11005 11000 10999 10996 ] final   81.10 input  -57.11 | X-H torsion

> <Gold.Protein.ActiveResidues>
 VAL166  LYS551  ARG553  GLY616  TRP617  ASP618  TYR619  PRO620  LYS621  CYS622 
 ASP623  PHE694  ASN695  SER759  ASP760  ASP761  ALA762  ILE779  LEU786  VAL792 
 PHE793  MET794  SER795  GLU796  ALA797  LYS798  CYS799  TRP800  GLU811  SER814 

> <Gold.Protein.RotatedAtoms>
  151.5654  133.3397  159.2978 H   0  0  0  0  0  0  0  0  0  0  0  0  # atno 6907 bound_to 6896
  150.8398  134.7689  159.6934 H   0  0  0  0  0  0  0  0  0  0  0  0  # atno 6908 bound_to 6896
  152.4468  134.5485  159.9911 H   0  0  0  0  0  0  0  0  0  0  0  0  # atno 6909 bound_to 6896
  145.2345  139.2805  143.4150 H   0  0  0  0  0  0  0  0  0  0  0  0  # atno 7974 bound_to 7965
  155.7085  140.3494  155.4963 H   0  0  0  0  0  0  0  0  0  0  0  0  # atno 8008 bound_to 7997
  155.9377  140.1096  157.1103 H   0  0  0  0  0  0  0  0  0  0  0  0  # atno 8009 bound_to 7997
  154.4097  140.1219  156.4872 H   0  0  0  0  0  0  0  0  0  0  0  0  # atno 8010 bound_to 7997
  140.3667  143.2815  151.9550 H   0  0  0  0  0  0  0  0  0  0  0  0  # atno 10167 bound_to 10162
  156.2190  130.4165  149.9017 H   0  0  0  0  0  0  0  0  0  0  0  0  # atno 10718 bound_to 10713
  153.7023  135.6955  153.5060 H   0  0  0  0  0  0  0  0  0  0  0  0  # atno 10763 bound_to 10752
  153.2333  135.4330  155.0618 H   0  0  0  0  0  0  0  0  0  0  0  0  # atno 10764 bound_to 10752
  154.8340  135.3489  154.6562 H   0  0  0  0  0  0  0  0  0  0  0  0  # atno 10765 bound_to 10752
  139.9110  134.7971  156.1996 H   0  0  0  0  0  0  0  0  0  0  0  0  # atno 11005 bound_to 11000
  146.3344  140.2690  142.8605 LP  0  0  0  0  0  0  0  0  0  0  0  0  # atno 17320 bound_to 7965
  144.9646  140.8309  143.5493 LP  0  0  0  0  0  0  0  0  0  0  0  0  # atno 17321 bound_to 7965
  139.4808  144.5944  151.7716 LP  0  0  0  0  0  0  0  0  0  0  0  0  # atno 17342 bound_to 10162
  140.5074  144.1077  150.5986 LP  0  0  0  0  0  0  0  0  0  0  0  0  # atno 17343 bound_to 10162
  156.6670  130.8805  151.3556 LP  0  0  0  0  0  0  0  0  0  0  0  0  # atno 17370 bound_to 10713
  157.7078  130.9405  150.0987 LP  0  0  0  0  0  0  0  0  0  0  0  0  # atno 17371 bound_to 10713
  141.0533  133.6878  156.1813 LP  0  0  0  0  0  0  0  0  0  0  0  0  # atno 17394 bound_to 11000
  140.6776  134.4801  157.5588 LP  0  0  0  0  0  0  0  0  0  0  0  0  # atno 17395 bound_to 11000

$$$$
