AV-unprocessed.smi:2919|AV-procd|sdf|11195|dock4
  -GOLD-   2272016 83D 1   1.00000     0.00000
 Structure written by MMmdl.
 34 36  0  0  0  0  0  0  0  0  1 V2000
  147.6788  140.3661  153.7301 C   0  0  0  0  0  0  0  0  0  0  0  0
  148.8149  140.6215  154.7046 C   0  0  0  0  0  0  0  0  0  0  0  0
  148.6351  141.6792  155.5257 N   0  0  0  0  0  0  0  0  0  0  0  0
  149.5652  142.0025  156.4254 N   0  0  0  0  0  0  0  0  0  0  0  0
  150.7059  141.2802  156.5397 C   0  0  0  0  0  0  0  0  0  0  0  0
  151.6392  141.6831  157.5129 N   0  0  0  0  0  0  0  0  0  0  0  0
  151.3072  142.6778  158.5277 C   0  0  1  0  0  0  0  0  0  0  0  0
  152.2800  142.6758  159.7143 C   0  0  0  0  0  0  0  0  0  0  0  0
  152.7641  144.1310  159.7307 C   0  0  2  0  0  0  0  0  0  0  0  0
  151.6578  145.1081  160.1514 C   0  0  0  0  0  0  0  0  0  0  0  0
  150.7650  145.1217  158.9110 C   0  0  0  0  0  0  0  0  0  0  0  0
  151.4753  144.1124  157.9990 C   0  0  1  0  0  0  0  0  0  0  0  0
  152.8253  144.3857  158.3387 O   0  0  0  0  0  0  0  0  0  0  0  0
  150.9613  140.1583  155.7088 C   0  0  0  0  0  0  0  0  0  0  0  0
  152.1937  139.3826  155.8350 C   0  0  0  0  0  0  0  0  0  0  0  0
  153.1693  138.7687  155.9349 N   0  0  0  0  0  0  0  0  0  0  0  0
  149.9759  139.8120  154.7501 C   0  0  0  0  0  0  0  0  0  0  0  0
  150.1644  138.6197  153.8153 C   0  0  0  0  0  0  0  0  0  0  0  0
  148.0343  140.4405  152.7022 H   0  0  0  0  0  0  0  0  0  0  0  0
  146.8727  141.0899  153.8566 H   0  0  0  0  0  0  0  0  0  0  0  0
  147.2597  139.3717  153.8845 H   0  0  0  0  0  0  0  0  0  0  0  0
  152.4878  141.1488  157.6326 H   0  0  0  0  0  0  0  0  0  0  0  0
  150.2774  142.5258  158.8538 H   0  0  0  0  0  0  0  0  0  0  0  0
  151.8007  142.3847  160.6495 H   0  0  0  0  0  0  0  0  0  0  0  0
  153.1222  142.0033  159.5440 H   0  0  0  0  0  0  0  0  0  0  0  0
  153.7083  144.2766  160.2556 H   0  0  0  0  0  0  0  0  0  0  0  0
  151.1330  144.7766  161.0481 H   0  0  0  0  0  0  0  0  0  0  0  0
  152.0655  146.1020  160.3397 H   0  0  0  0  0  0  0  0  0  0  0  0
  149.7343  144.8380  159.1263 H   0  0  0  0  0  0  0  0  0  0  0  0
  150.7584  146.1128  158.4563 H   0  0  0  0  0  0  0  0  0  0  0  0
  151.2373  144.2380  156.9419 H   0  0  0  0  0  0  0  0  0  0  0  0
  150.2628  137.7003  154.3936 H   0  0  0  0  0  0  0  0  0  0  0  0
  151.0694  138.7467  153.2206 H   0  0  0  0  0  0  0  0  0  0  0  0
  149.3383  138.4798  153.1206 H   0  0  0  0  0  0  0  0  0  0  0  0
  1  2  1  0  0  0  0
  1 19  1  0  0  0  0
  1 20  1  0  0  0  0
  1 21  1  0  0  0  0
  2 17  1  0  0  0  0
  2  3  2  0  0  0  0
  3  4  1  0  0  0  0
  4  5  2  0  0  0  0
  5  6  1  0  0  0  0
  5 14  1  0  0  0  0
  6  7  1  0  0  0  0
  6 22  1  0  0  0  0
  7 12  1  0  0  0  0
  7  8  1  0  0  0  0
  7 23  1  0  0  0  0
  8  9  1  0  0  0  0
  8 24  1  0  0  0  0
  8 25  1  0  0  0  0
  9 13  1  0  0  0  0
  9 10  1  0  0  0  0
  9 26  1  0  0  0  0
 10 11  1  0  0  0  0
 10 27  1  0  0  0  0
 10 28  1  0  0  0  0
 11 12  1  0  0  0  0
 11 29  1  0  0  0  0
 11 30  1  0  0  0  0
 12 13  1  0  0  0  0
 12 31  1  0  0  0  0
 14 15  1  0  0  0  0
 14 17  2  0  0  0  0
 15 16  3  0  0  0  0
 17 18  1  0  0  0  0
 18 32  1  0  0  0  0
 18 33  1  0  0  0  0
 18 34  1  0  0  0  0
M  END
> <s_m_source_file>
AV-unprocessed.smi

> <i_m_source_file_index>
2919

> <i_lp_mmshare_version>
43012

> <i_f3d_flags>
0

> <s_epik_input>
W0NIM11jMW5uYyhjKEMjTiljMVtDSDNdKVtOSF1bQ0BIXShbQ0gyXVtDQEBIXTIzKVtDQEBIXShPMylbQ0gyXVtDSDJdMg==

> <s_epik_cmdline>
J2VwaWtfcHl0aG9uJywgJy1waCcsICc3LjAnLCAnLXRuJywgJzgnLCAnLW1hJywgJzIwMCcsICctbWV0YWxfYmluZGluZycsICctaW1hZScsICc8aW5maWxlLm1hZT4nLCAnLW9tYWUnLCAnPG91dGZpbGUubWFlPic=

> <r_lp_tautomer_probability>
1

> <r_epik_Ionization_Penalty>
0.00143865

> <r_epik_Ionization_Penalty_Charging>
0

> <r_epik_Ionization_Penalty_Neutral>
0.00143865

> <r_epik_State_Penalty>
-0

> <r_epik_Charging_Adjusted_Penalty>
0

> <i_epik_Tot_Q>
0

> <i_epik_Tot_abs_Q>
0

> <r_epik_Metal_State_Penalty>
-0

> <b_epik_Metal_Only>
0

> <s_lp_Force_Field>
OPLS_2005

> <r_lp_Energy>
49.0135

> <b_lp_Chiralities_Consistent>
1

> <s_lp_Variant>
AV-unprocessed.smi:2919-4

> <Gold.Version>
5.8.1

> <Gold.Id.Protein>
6NUR|6NUR_protein|mol2

> <Gold.PLP.Fitness>
40.3897

> <Gold.PLP.PLP>
-37.9803

> <Gold.PLP.part.hbond>
-1.0000

> <Gold.PLP.part.metal>
0.0000

> <Gold.PLP.part.buried>
-3.9871

> <Gold.PLP.part.nonpolar>
-34.9203

> <Gold.PLP.part.repulsive>
2.2723

> <Gold.PLP.ligand.clash>
0.0000

> <Gold.PLP.ligand.torsion>
0.3053

> <Gold.PLP.Chemscore.Hbond>
1.0000

> <Gold.PLP.Chemscore.CHOScore>
0.0000

> <Gold.PLP.Chemscore.Metal>
0.0000

> <Gold.Chemscore.Hbonds>
donor molecule, donor type, donor heavy atom, donor atom, acceptor molecule, acceptor atom, score
      P1  H  7997  8010       L1    16  1.00

> <Gold.PLP.Chemscore.Internal.Correction>
0.0200

> <Gold.Rescore>
     Score         DG    S(hbond)    S(metal)    S(lipo)     H(rot)  DE(clash)    DE(int)     intcor
     16.28     -16.62       0.68        0.00      97.59       1.00       0.03       0.30       ----

> <Gold.Chemscore.Fitness>
16.2805

> <Gold.Chemscore.DG>
-16.6192

> <Gold.Chemscore.ZeroCoef>
-5.4800

> <Gold.Chemscore.Hbond>
0.6829

> <Gold.Chemscore.Metal>
0.0000

> <Gold.Chemscore.Lipo>
97.5934

> <Gold.Chemscore.Internal_Hbond>
0.0000

> <Gold.Chemscore.DEClash>
0.0348

> <Gold.Chemscore.DEInternal>
0.3038

> <Gold.Chemscore.Rot>
1.0000

> <Gold.Chemscore.Internal.Correction>
   9.000000E+99

> <Gold.Chemscore.Hbonds>
donor molecule, donor type, donor heavy atom, donor atom, acceptor molecule, acceptor atom, score
      P1  H  7997  8010       L1    16  0.25

> <Gold.Chemscore.Hbond.Weighted>
-2.2807

> <Gold.Chemscore.Metal.Weighted>
-0.0000

> <Gold.Chemscore.Lipo.Weighted>
-11.4184

> <Gold.Chemscore.Internal_Hbond.Weighted>
0.0000

> <Gold.Chemscore.DEClash.Weighted>
0.0348

> <Gold.Chemscore.DEInternal.Weighted>
0.3038

> <Gold.Chemscore.Rot.Weighted>
2.5600

> <Gold.Chemscore.Internal.Correction.Weighted>
   9.000000E+99

> <Gold.Protein.RotatedTorsions>
[ 6907 6896 6895 6894 ] final -132.62 input  -60.11 | X-H torsion
[ 7974 7965 7964 7962 ] final  149.77 input  175.53 | X-H torsion
[ 8008 7997 7996 7995 ] final   77.76 input   59.86 | X-H torsion
[ 10167 10162 10161 10158 ] final -120.97 input  -65.29 | X-H torsion
[ 10718 10713 10712 10709 ] final -173.08 input   66.30 | X-H torsion
[ 10763 10752 10751 10750 ] final   27.17 input  -60.55 | X-H torsion
[ 11005 11000 10999 10996 ] final -123.62 input  -57.11 | X-H torsion

> <Gold.Protein.ActiveResidues>
 VAL166  LYS551  ARG553  GLY616  TRP617  ASP618  TYR619  PRO620  LYS621  CYS622 
 ASP623  PHE694  ASN695  SER759  ASP760  ASP761  ALA762  ILE779  LEU786  VAL792 
 PHE793  MET794  SER795  GLU796  ALA797  LYS798  CYS799  TRP800  GLU811  SER814 

> <Gold.Protein.RotatedAtoms>
  150.9645  133.6409  159.2748 H   0  0  0  0  0  0  0  0  0  0  0  0  # atno 6907 bound_to 6896
  151.3720  135.0923  159.9478 H   0  0  0  0  0  0  0  0  0  0  0  0  # atno 6908 bound_to 6896
  152.5160  133.9198  159.7583 H   0  0  0  0  0  0  0  0  0  0  0  0  # atno 6909 bound_to 6896
  144.8413  139.6323  143.6015 H   0  0  0  0  0  0  0  0  0  0  0  0  # atno 7974 bound_to 7965
  155.8462  140.3460  155.5663 H   0  0  0  0  0  0  0  0  0  0  0  0  # atno 8008 bound_to 7997
  155.8087  140.0896  157.1935 H   0  0  0  0  0  0  0  0  0  0  0  0  # atno 8009 bound_to 7997
  154.4006  140.1452  156.3348 H   0  0  0  0  0  0  0  0  0  0  0  0  # atno 8010 bound_to 7997
  140.0300  143.5257  152.2181 H   0  0  0  0  0  0  0  0  0  0  0  0  # atno 10167 bound_to 10162
  156.7650  130.9427  151.3119 H   0  0  0  0  0  0  0  0  0  0  0  0  # atno 10718 bound_to 10713
  153.0573  135.6543  154.0546 H   0  0  0  0  0  0  0  0  0  0  0  0  # atno 10763 bound_to 10752
  154.0222  135.2919  155.3381 H   0  0  0  0  0  0  0  0  0  0  0  0  # atno 10764 bound_to 10752
  154.6894  135.5288  153.8439 H   0  0  0  0  0  0  0  0  0  0  0  0  # atno 10765 bound_to 10752
  140.9905  134.0546  157.3660 H   0  0  0  0  0  0  0  0  0  0  0  0  # atno 11005 bound_to 11000
  146.2705  139.6624  142.9299 LP  0  0  0  0  0  0  0  0  0  0  0  0  # atno 17320 bound_to 7965
  145.4688  141.0435  143.2710 LP  0  0  0  0  0  0  0  0  0  0  0  0  # atno 17321 bound_to 7965
  139.6082  144.7602  151.3012 LP  0  0  0  0  0  0  0  0  0  0  0  0  # atno 17342 bound_to 10162
  140.7306  143.6875  150.7949 LP  0  0  0  0  0  0  0  0  0  0  0  0  # atno 17343 bound_to 10162
  157.6717  130.9057  150.0056 LP  0  0  0  0  0  0  0  0  0  0  0  0  # atno 17370 bound_to 10713
  156.1314  130.3643  149.9725 LP  0  0  0  0  0  0  0  0  0  0  0  0  # atno 17371 bound_to 10713
  139.8990  135.0157  156.7175 LP  0  0  0  0  0  0  0  0  0  0  0  0  # atno 17394 bound_to 11000
  140.7048  133.9275  155.8047 LP  0  0  0  0  0  0  0  0  0  0  0  0  # atno 17395 bound_to 11000

$$$$
