#       Name:                AV-unprocessed.smi:498
#       Creating user name   scv26
#       Creation time:       Thu Mar 26 23:18:15 2020


#       File generated by GOLD software.
#

@<TRIPOS>MOLECULE
AV-unprocessed.smi:498
    49    51     1
SMALL
NO_CHARGES


@<TRIPOS>ATOM
      1 ****        -4.1769   4.5705  -1.7840 C.3            1 S1                 0.0000
      2 ****        -3.8025   3.1002  -1.5824 C.3            1 S1                 0.0000
      3 ****        -2.3931   2.9954  -1.4713 O.3            1 S1                 0.0000
      4 ****        -1.9555   1.6597  -1.2908 C.3            1 S1                 0.0000
      5 ****        -0.4273   1.6548  -1.1606 C.3            1 S1                 0.0000
      6 ****         0.1063   0.2882  -0.9935 N.pl3          1 S1                 0.0000
      7 ****         0.3962  -0.4514   0.1268 C.2            1 S1                 0.0000
      8 ****         0.2366  -0.0665   1.5739 C.3            1 S1                 0.0000
      9 ****         1.1513  -0.7981   2.4488 N.pl3          1 S1                -1.0000
     10 ****         1.0875  -0.7638   3.8092 C.2            1 S1                 0.0000
     11 ****         0.2897  -0.1771   4.5483 O.2            1 S1                 0.0000
     12 ****         2.1345  -1.6039   4.4353 C.2            1 S1                 0.0000
     13 ****         3.2797  -2.1696   3.9338 C.2            1 S1                 0.0000
     14 ****         3.9082  -2.8517   5.0119 C.2            1 S1                 0.0000
     15 ****         3.1104  -2.6468   6.1001 C.2            1 S1                 0.0000
     16 ****         2.0326  -1.8858   5.7679 O.3            1 S1                 0.0000
     17 ****         0.8551  -1.6609  -0.3081 N.pl3          1 S1                 1.0000
     18 ****         0.8594  -1.7047  -1.7003 C.ar           1 S1                 0.0000
     19 ****         1.2375  -2.7159  -2.5777 C.ar           1 S1                 0.0000
     20 ****         1.1088  -2.4391  -3.9544 C.ar           1 S1                 0.0000
     21 ****         0.6200  -1.1975  -4.4098 C.ar           1 S1                 0.0000
     22 ****         0.2419  -0.1799  -3.5092 C.ar           1 S1                 0.0000
     23 ****         0.3749  -0.4599  -2.1486 C.ar           1 S1                 0.0000
     24 ****        -5.2572   4.6899  -1.8689 H              1 S1                 0.0000
     25 ****        -3.7243   4.9686  -2.6924 H              1 S1                 0.0000
     26 ****        -3.8380   5.1791  -0.9452 H              1 S1                 0.0000
     27 ****        -4.2808   2.7151  -0.6807 H              1 S1                 0.0000
     28 ****        -4.1596   2.5074  -2.4257 H              1 S1                 0.0000
     29 ****        -2.4083   1.2334  -0.3941 H              1 S1                 0.0000
     30 ****        -2.2655   1.0493  -2.1403 H              1 S1                 0.0000
     31 ****         0.0408   2.1149  -2.0310 H              1 S1                 0.0000
     32 ****        -0.1191   2.2581  -0.3067 H              1 S1                 0.0000
     33 ****         0.3880   1.0096   1.6574 H              1 S1                 0.0000
     34 ****        -0.8062  -0.2395   1.8418 H              1 S1                 0.0000
     35 ****         3.6243  -2.1005   2.9125 H              1 S1                 0.0000
     36 ****         4.8286  -3.4163   4.9937 H              1 S1                 0.0000
     37 ****         3.1585  -2.9513   7.1351 H              1 S1                 0.0000
     38 ****         1.6092  -3.6677  -2.2278 H              1 S1                 0.0000
     39 ****         1.3887  -3.1943  -4.6745 H              1 S1                 0.0000
     40 ****         0.5327  -1.0218  -5.4722 H              1 S1                 0.0000
     41 ****        -0.1338   0.7657  -3.8708 H              1 S1                 0.0000
     42 ****         1.1470  -2.3955   0.3242 H              1 S1                 0.0000
     43 ****        -2.0929   3.5389  -0.6874 LP             1 S1                 0.0000
     44 ****        -1.9788   3.3575  -2.3063 LP             1 S1                 0.0000
     45 ****         1.8647  -1.3557   2.0243 LP             1 S1                 0.0000
     46 ****        -0.4454   0.3739   4.1534 LP             1 S1                 0.0000
     47 ****         0.3792  -0.2534   5.5414 LP             1 S1                 0.0000
     48 ****         1.1881  -2.3901   5.9481 LP             1 S1                 0.0000
     49 ****         2.0345  -1.0384   6.2988 LP             1 S1                 0.0000
@<TRIPOS>BOND
    1    1    2 1     
    2    1   24 1     
    3    1   25 1     
    4    1   26 1     
    5    2    3 1     
    6    2   27 1     
    7    2   28 1     
    8    3    4 1     
    9    4    5 1     
   10    4   29 1     
   11    4   30 1     
   12    5    6 1     
   13    5   31 1     
   14    5   32 1     
   15    6   23 1     
   16    6    7 1     
   17    7    8 1     
   18    7   17 2     
   19    8    9 1     
   20    8   33 1     
   21    8   34 1     
   22    9   10 1     
   23   10   11 2     
   24   10   12 1     
   25   12   16 1     
   26   12   13 2     
   27   13   14 1     
   28   13   35 1     
   29   14   15 2     
   30   14   36 1     
   31   15   16 1     
   32   15   37 1     
   33   17   18 1     
   34   17   42 1     
   35   18   23 ar    
   36   18   19 ar    
   37   19   20 ar    
   38   19   38 1     
   39   20   21 ar    
   40   20   39 1     
   41   21   22 ar    
   42   21   40 1     
   43   22   23 ar    
   44   22   41 1     
   45    3   43 1     
   46    3   44 1     
   47    9   45 1     
   48   11   46 1     
   49   11   47 1     
   50   16   48 1     
   51   16   49 1     
@<TRIPOS>SUBSTRUCTURE
      1 S1             1
@<TRIPOS>SET
LONE_PAIRS      STATIC     ATOMS    <user>   **** ""
7 43 44 45 46 47 48 49
DONOR_HYDROGENS      STATIC     ATOMS    <user>   **** ""
1 42
ATOM$BLUE        STATIC     ATOMS    COLORGROUP SYSTEM
7 43 44 45 46 47 48 49
ATOM$RED        STATIC     ATOMS    COLORGROUP SYSTEM
1 42
