#       Name:                AV-unprocessed.smi:1815
#       Creating user name   scv26
#       Creation time:       Fri Mar 27 09:02:40 2020


#       File generated by GOLD software.
#

@<TRIPOS>MOLECULE
AV-unprocessed.smi:1815
    45    46     1
SMALL
NO_CHARGES


@<TRIPOS>ATOM
      1 ****        -3.9028  -2.2731   0.4913 C.3            1 S1                 0.0000
      2 ****        -3.2758  -1.7579   1.7992 C.3            1 S1                 0.0000
      3 ****        -1.7344  -1.7424   1.7795 C.3            1 S1                 0.0000
      4 ****        -1.2200  -0.6396   0.9334 N.4            1 S1                 1.0000
      5 ****         0.2609  -0.6399   0.8417 C.3            1 S1                 0.0000
      6 ****         0.7674   0.1113  -0.3990 C.3            1 S1                 0.0000
      7 ****         2.2193   0.0392  -0.4780 N.am           1 S1                 0.0000
      8 ****         2.9622   0.5535  -1.4665 C.2            1 S1                 0.0000
      9 ****         2.4154   1.1456  -2.4000 O.2            1 S1                 0.0000
     10 ****         4.2894   0.3495  -1.3108 N.pl3          1 S1                -1.0000
     11 ****         5.1523   0.8064  -2.2330 C.2            1 S1                 0.0000
     12 ****         5.6832   0.0284  -3.1832 N.2            1 S1                 0.0000
     13 ****         6.5597   0.7075  -4.0314 C.2            1 S1                 0.0000
     14 ****         6.7063   2.0318  -3.7142 C.2            1 S1                 0.0000
     15 ****         5.7417   2.4680  -2.3328 S.3            1 S1                 0.0000
     16 ****        -1.7876   0.6561   1.3781 C.3            1 S1                 0.0000
     17 ****        -3.3258   0.6045   1.3561 C.3            1 S1                 0.0000
     18 ****        -3.9515   1.8960   1.8945 C.3            1 S1                 0.0000
     19 ****        -3.7776  -0.4742   2.1710 O.3            1 S1                 0.0000
     20 ****        -3.6062  -3.3049   0.3020 H              1 S1                 0.0000
     21 ****        -3.5988  -1.6858  -0.3748 H              1 S1                 0.0000
     22 ****        -4.9913  -2.2496   0.5469 H              1 S1                 0.0000
     23 ****        -3.5895  -2.4428   2.5877 H              1 S1                 0.0000
     24 ****        -1.3553  -1.6162   2.7952 H              1 S1                 0.0000
     25 ****        -1.3588  -2.7013   1.4197 H              1 S1                 0.0000
     26 ****         0.6904  -0.2210   1.7533 H              1 S1                 0.0000
     27 ****         0.6136  -1.6708   0.7789 H              1 S1                 0.0000
     28 ****         0.3335  -0.3219  -1.3019 H              1 S1                 0.0000
     29 ****         0.4752   1.1611  -0.3695 H              1 S1                 0.0000
     30 ****         2.7031  -0.4383   0.2687 H              1 S1                 0.0000
     31 ****         7.0374   0.1680  -4.8354 H              1 S1                 0.0000
     32 ****         7.3193   2.7729  -4.2044 H              1 S1                 0.0000
     33 ****        -1.4306   0.8844   2.3838 H              1 S1                 0.0000
     34 ****        -1.4479   1.4629   0.7295 H              1 S1                 0.0000
     35 ****        -3.6726   0.4639   0.3321 H              1 S1                 0.0000
     36 ****        -3.6464   2.7575   1.3001 H              1 S1                 0.0000
     37 ****        -3.6539   2.0798   2.9274 H              1 S1                 0.0000
     38 ****        -5.0400   1.8427   1.8664 H              1 S1                 0.0000
     39 ****        -1.5645  -0.8129  -0.0003 H              1 S1                 0.0000
     40 ****         1.4201   1.2406  -2.4174 LP             1 S1                 0.0000
     41 ****         2.9674   1.5308  -3.1396 LP             1 S1                 0.0000
     42 ****         4.6289  -0.1417  -0.5087 LP             1 S1                 0.0000
     43 ****         5.4727  -0.9447  -3.2767 LP             1 S1                 0.0000
     44 ****        -3.4961  -0.2912   3.1129 LP             1 S1                 0.0000
     45 ****        -4.7759  -0.5043   2.1213 LP             1 S1                 0.0000
@<TRIPOS>BOND
    1    1    2 1     
    2    1   20 1     
    3    1   21 1     
    4    1   22 1     
    5    2   19 1     
    6    2    3 1     
    7    2   23 1     
    8    3    4 1     
    9    3   24 1     
   10    3   25 1     
   11    4    5 1     
   12    4   16 1     
   13    4   39 1     
   14    5    6 1     
   15    5   26 1     
   16    5   27 1     
   17    6    7 1     
   18    6   28 1     
   19    6   29 1     
   20    7    8 am    
   21    7   30 1     
   22    8    9 2     
   23    8   10 1     
   24   10   11 1     
   25   11   15 1     
   26   11   12 2     
   27   12   13 1     
   28   13   14 2     
   29   13   31 1     
   30   14   15 1     
   31   14   32 1     
   32   16   17 1     
   33   16   33 1     
   34   16   34 1     
   35   17   18 1     
   36   17   19 1     
   37   17   35 1     
   38   18   36 1     
   39   18   37 1     
   40   18   38 1     
   41    9   40 1     
   42    9   41 1     
   43   10   42 1     
   44   12   43 1     
   45   19   44 1     
   46   19   45 1     
@<TRIPOS>SUBSTRUCTURE
      1 S1             1
@<TRIPOS>SET
LONE_PAIRS      STATIC     ATOMS    <user>   **** ""
6 40 41 42 43 44 45
DONOR_HYDROGENS      STATIC     ATOMS    <user>   **** ""
2 39 30
ATOM$BLUE        STATIC     ATOMS    COLORGROUP SYSTEM
6 40 41 42 43 44 45
ATOM$RED        STATIC     ATOMS    COLORGROUP SYSTEM
2 39 30
