#       Name:                AV-unprocessed.smi:581
#       Creating user name   scv26
#       Creation time:       Thu Mar 26 23:49:44 2020


#       File generated by GOLD software.
#

@<TRIPOS>MOLECULE
AV-unprocessed.smi:581
    44    45     1
SMALL
NO_CHARGES


@<TRIPOS>ATOM
      1 ****         1.8260   2.3773  -0.1732 C.3            1 S1                 0.0000
      2 ****         1.3052   0.9686   0.0548 C.2            1 S1                 0.0000
      3 ****        -0.0695   0.8864   0.1771 N.pl3          1 S1                 0.0000
      4 ****        -0.6586  -0.3511   0.3986 C.2            1 S1                 0.0000
      5 ****        -2.0486  -0.3172   0.4855 N.pl3          1 S1                 0.0000
      6 ****        -2.8292  -1.5208   0.2038 C.3            1 S1                 0.0000
      7 ****        -4.2936  -1.1730  -0.1118 C.3            1 S1                 0.0000
      8 ****        -4.8490  -0.4238   0.9614 O.3            1 S1                 0.0000
      9 ****        -4.1529   0.8002   1.1572 C.3            1 S1                 0.0000
     10 ****        -2.6839   0.5110   1.5094 C.3            1 S1                 0.0000
     11 ****         0.0236  -1.4537   0.5075 N.2            1 S1                 0.0000
     12 ****         1.4227  -1.4355   0.4033 C.2            1 S1                 0.0000
     13 ****         2.0642  -2.4770   0.5322 O.2            1 S1                 0.0000
     14 ****         2.0843  -0.1371   0.1425 C.2            1 S1                 0.0000
     15 ****         3.6118  -0.0900   0.0303 C.3            1 S1                 0.0000
     16 ****         4.1521   0.0279  -1.4130 C.3            1 S1                 0.0000
     17 ****         3.6983  -1.1277  -2.3079 C.2            1 S1                 0.0000
     18 ****         2.8179  -0.8767  -3.1600 O.co2          1 S1                 0.0000
     19 ****         4.2400  -2.2393  -2.1236 O.co2          1 S1                -1.0000
     20 ****        -0.6029   1.7384   0.0877 H              1 S1                 0.0000
     21 ****         2.2800   2.4641  -1.1597 H              1 S1                 0.0000
     22 ****         2.5702   2.6404   0.5785 H              1 S1                 0.0000
     23 ****         1.0234   3.1136  -0.1145 H              1 S1                 0.0000
     24 ****        -2.7817  -2.1857   1.0673 H              1 S1                 0.0000
     25 ****        -2.3965  -2.0612  -0.6396 H              1 S1                 0.0000
     26 ****        -4.3671  -0.6076  -1.0424 H              1 S1                 0.0000
     27 ****        -4.8754  -2.0849  -0.2464 H              1 S1                 0.0000
     28 ****        -4.2226   1.4205   0.2622 H              1 S1                 0.0000
     29 ****        -4.6305   1.3537   1.9657 H              1 S1                 0.0000
     30 ****        -2.1522   1.4548   1.6352 H              1 S1                 0.0000
     31 ****        -2.6276  -0.0105   2.4660 H              1 S1                 0.0000
     32 ****         4.0592  -0.9579   0.5162 H              1 S1                 0.0000
     33 ****         3.9733   0.7598   0.6084 H              1 S1                 0.0000
     34 ****         3.8457   0.9711  -1.8638 H              1 S1                 0.0000
     35 ****         5.2422   0.0430  -1.3943 H              1 S1                 0.0000
     36 ****        -4.7938  -0.9667   1.7994 LP             1 S1                 0.0000
     37 ****        -5.8070  -0.2236   0.7563 LP             1 S1                 0.0000
     38 ****        -0.4519  -2.3189   0.6663 LP             1 S1                 0.0000
     39 ****         1.5887  -3.3382   0.7115 LP             1 S1                 0.0000
     40 ****         3.0614  -2.4625   0.4577 LP             1 S1                 0.0000
     41 ****         2.4897  -1.5998  -3.7678 LP             1 S1                 0.0000
     42 ****         2.4422   0.0471  -3.2336 LP             1 S1                 0.0000
     43 ****         3.9756  -3.0236  -2.6849 LP             1 S1                 0.0000
     44 ****         4.9377  -2.3442  -1.4149 LP             1 S1                 0.0000
@<TRIPOS>BOND
    1    1   21 1     
    2    1   22 1     
    3    1   23 1     
    4    1    2 1     
    5    2   14 2     
    6    2    3 1     
    7    3   20 1     
    8    3    4 1     
    9    4    5 1     
   10    4   11 2     
   11    5   10 1     
   12    5    6 1     
   13    6    7 1     
   14    6   24 1     
   15    6   25 1     
   16    7    8 1     
   17    7   26 1     
   18    7   27 1     
   19    8    9 1     
   20    9   10 1     
   21    9   28 1     
   22    9   29 1     
   23   10   30 1     
   24   10   31 1     
   25   11   12 1     
   26   12   13 2     
   27   12   14 1     
   28   14   15 1     
   29   15   16 1     
   30   15   32 1     
   31   15   33 1     
   32   16   17 1     
   33   16   34 1     
   34   16   35 1     
   35   17   18 ar    
   36   17   19 ar    
   37    8   36 1     
   38    8   37 1     
   39   11   38 1     
   40   13   39 1     
   41   13   40 1     
   42   18   41 1     
   43   18   42 1     
   44   19   43 1     
   45   19   44 1     
@<TRIPOS>SUBSTRUCTURE
      1 S1             1
@<TRIPOS>SET
LONE_PAIRS      STATIC     ATOMS    <user>   **** ""
9 36 37 38 39 40 41 42 43 44
DONOR_HYDROGENS      STATIC     ATOMS    <user>   **** ""
1 20
ATOM$BLUE        STATIC     ATOMS    COLORGROUP SYSTEM
9 36 37 38 39 40 41 42 43 44
ATOM$RED        STATIC     ATOMS    COLORGROUP SYSTEM
1 20
