#       Name:                AV-unprocessed.smi:982
#       Creating user name   scv26
#       Creation time:       Fri Mar 27 02:22:15 2020


#       File generated by GOLD software.
#

@<TRIPOS>MOLECULE
AV-unprocessed.smi:982
    34    35     1
SMALL
NO_CHARGES


@<TRIPOS>ATOM
      1 ****        -4.7125   1.1715  -0.3941 N.3            1 S1                 0.0000
      2 ****        -4.1282  -0.1257  -0.6705 C.3            1 S1                 0.0000
      3 ****        -2.6227  -0.1332  -0.5001 C.ar           1 S1                 0.0000
      4 ****        -1.7872   0.5520  -1.4033 C.ar           1 S1                 0.0000
      5 ****        -0.3937   0.5164  -1.2039 C.ar           1 S1                 0.0000
      6 ****         0.1286  -0.2034  -0.1023 C.ar           1 S1                 0.0000
      7 ****         1.5224  -0.2486   0.1202 N.3            1 S1                 0.0000
      8 ****         2.1986   1.0459   0.1602 C.3            1 S1                 0.0000
      9 ****         3.7242   0.8563   0.1008 C.3            1 S1                 0.0000
     10 ****         4.1434  -0.0194   1.1421 O.3            1 S1                 0.0000
     11 ****         3.5578  -1.3105   1.0147 C.3            1 S1                 0.0000
     12 ****         2.0273  -1.1964   1.1122 C.3            1 S1                 0.0000
     13 ****        -0.6817  -0.8685   0.7588 N.ar           1 S1                 0.0000
     14 ****        -2.0168  -0.8302   0.5639 C.ar           1 S1                 0.0000
     15 ****        -5.2336   1.4820  -1.2018 H              1 S1                 0.0000
     16 ****        -5.3861   1.0823   0.3533 H              1 S1                 0.0000
     17 ****        -4.5823  -0.8684  -0.0137 H              1 S1                 0.0000
     18 ****        -4.3728  -0.4132  -1.6934 H              1 S1                 0.0000
     19 ****        -2.2057   1.0953  -2.2378 H              1 S1                 0.0000
     20 ****         0.2534   1.0270  -1.9012 H              1 S1                 0.0000
     21 ****         1.8911   1.6891  -0.6629 H              1 S1                 0.0000
     22 ****         1.9225   1.5576   1.0829 H              1 S1                 0.0000
     23 ****         4.0288   0.4581  -0.8685 H              1 S1                 0.0000
     24 ****         4.2261   1.8164   0.2218 H              1 S1                 0.0000
     25 ****         3.8549  -1.7654   0.0684 H              1 S1                 0.0000
     26 ****         3.9374  -1.9528   1.8094 H              1 S1                 0.0000
     27 ****         1.7409  -0.8624   2.1104 H              1 S1                 0.0000
     28 ****         1.5819  -2.1797   0.9561 H              1 S1                 0.0000
     29 ****        -2.6165  -1.3730   1.2796 H              1 S1                 0.0000
     30 ****        -3.9783   1.8082  -0.1583 LP             1 S1                 0.0000
     31 ****         1.8032  -0.6722  -0.7411 LP             1 S1                 0.0000
     32 ****         3.8751   0.3724   2.0221 LP             1 S1                 0.0000
     33 ****         5.1387  -0.1105   1.1074 LP             1 S1                 0.0000
     34 ****        -0.2955  -1.3796   1.5266 LP             1 S1                 0.0000
@<TRIPOS>BOND
    1    1    2 1     
    2    1   15 1     
    3    1   16 1     
    4    2    3 1     
    5    2   17 1     
    6    2   18 1     
    7    3   14 ar    
    8    3    4 ar    
    9    4    5 ar    
   10    4   19 1     
   11    5    6 ar    
   12    5   20 1     
   13    6    7 1     
   14    6   13 ar    
   15    7   12 1     
   16    7    8 1     
   17    8    9 1     
   18    8   21 1     
   19    8   22 1     
   20    9   10 1     
   21    9   23 1     
   22    9   24 1     
   23   10   11 1     
   24   11   12 1     
   25   11   25 1     
   26   11   26 1     
   27   12   27 1     
   28   12   28 1     
   29   13   14 ar    
   30   14   29 1     
   31    1   30 1     
   32    7   31 1     
   33   10   32 1     
   34   10   33 1     
   35   13   34 1     
@<TRIPOS>SUBSTRUCTURE
      1 S1             1
@<TRIPOS>SET
LONE_PAIRS      STATIC     ATOMS    <user>   **** ""
5 30 31 32 33 34
DONOR_HYDROGENS      STATIC     ATOMS    <user>   **** ""
2 15 16
ATOM$BLUE        STATIC     ATOMS    COLORGROUP SYSTEM
5 30 31 32 33 34
ATOM$RED        STATIC     ATOMS    COLORGROUP SYSTEM
2 15 16
