AV-unprocessed.smi:1641|AV-procd|sdf|6564|dock6
  -GOLD-   22720 7253D 1   1.00000     0.00000
 Structure written by MMmdl.
 40 41  0  0  0  0  0  0  0  0  2 V2000
  148.7510  131.7858  155.4509 C   0  0  0  0  0  0  0  0  0  0  0  0
  149.6084  132.9240  155.8867 C   0  0  0  0  0  0  0  0  0  0  0  0
  150.1036  133.0264  157.1226 N   0  0  0  0  0  0  0  0  0  0  0  0
  150.8693  134.1720  157.2857 N   0  0  0  0  0  0  0  0  0  0  0  0
  150.9320  134.9246  156.1778 C   0  0  0  0  0  0  0  0  0  0  0  0
  151.6254  136.0739  156.1240 N   0  5  0  0  0  0  0  0  0  0  0  0
  151.7758  136.8254  157.2386 C   0  0  0  0  0  0  0  0  0  0  0  0
  151.2627  136.6083  158.3386 O   0  0  0  0  0  0  0  0  0  0  0  0
  152.5668  137.8933  157.0628 N   0  0  0  0  0  0  0  0  0  0  0  0
  152.9018  138.8967  158.0671 C   0  0  0  0  0  0  0  0  0  0  0  0
  151.8458  140.0137  158.0664 C   0  0  0  0  0  0  0  0  0  0  0  0
  152.2848  141.2795  158.6521 N   0  0  0  0  0  0  0  0  0  0  0  0
  152.6605  141.1047  160.0489 C   0  0  0  0  0  0  0  0  0  0  0  0
  153.1711  142.4144  160.6755 C   0  0  2  0  0  0  0  0  0  0  0  0
  153.4923  142.2542  162.1650 C   0  0  0  0  0  0  0  0  0  0  0  0
  152.1715  143.4233  160.5425 O   0  0  0  0  0  0  0  0  0  0  0  0
  151.7091  143.6493  159.2097 C   0  0  1  0  0  0  0  0  0  0  0  0
  152.7429  144.4197  158.3707 C   0  0  0  0  0  0  0  0  0  0  0  0
  151.2647  142.3220  158.5618 C   0  0  0  0  0  0  0  0  0  0  0  0
  150.0444  134.2440  154.8146 S   0  0  0  0  0  0  0  0  0  0  0  0
  147.7034  132.0121  155.6502 H   0  0  0  0  0  0  0  0  0  0  0  0
  149.0230  130.8766  155.9878 H   0  0  0  0  0  0  0  0  0  0  0  0
  148.8750  131.6089  154.3824 H   0  0  0  0  0  0  0  0  0  0  0  0
  152.9650  138.0220  156.1442 H   0  0  0  0  0  0  0  0  0  0  0  0
  152.9631  138.4584  159.0644 H   0  0  0  0  0  0  0  0  0  0  0  0
  153.8904  139.2875  157.8282 H   0  0  0  0  0  0  0  0  0  0  0  0
  151.4900  140.1819  157.0488 H   0  0  0  0  0  0  0  0  0  0  0  0
  150.9840  139.6494  158.6280 H   0  0  0  0  0  0  0  0  0  0  0  0
  151.8054  140.7355  160.6175 H   0  0  0  0  0  0  0  0  0  0  0  0
  153.4384  140.3443  160.1281 H   0  0  0  0  0  0  0  0  0  0  0  0
  154.0789  142.7336  160.1626 H   0  0  0  0  0  0  0  0  0  0  0  0
  154.2631  141.4990  162.3209 H   0  0  0  0  0  0  0  0  0  0  0  0
  152.6093  141.9536  162.7297 H   0  0  0  0  0  0  0  0  0  0  0  0
  153.8553  143.1913  162.5879 H   0  0  0  0  0  0  0  0  0  0  0  0
  150.8308  144.2896  159.2957 H   0  0  0  0  0  0  0  0  0  0  0  0
  152.3322  144.6814  157.3955 H   0  0  0  0  0  0  0  0  0  0  0  0
  153.6465  143.8360  158.1958 H   0  0  0  0  0  0  0  0  0  0  0  0
  153.0333  145.3464  158.8661 H   0  0  0  0  0  0  0  0  0  0  0  0
  150.9989  142.5093  157.5219 H   0  0  0  0  0  0  0  0  0  0  0  0
  150.3536  141.9784  159.0543 H   0  0  0  0  0  0  0  0  0  0  0  0
  1  2  1  0  0  0  0
  1 21  1  0  0  0  0
  1 22  1  0  0  0  0
  1 23  1  0  0  0  0
  2 20  1  0  0  0  0
  2  3  2  0  0  0  0
  3  4  1  0  0  0  0
  4  5  2  0  0  0  0
  5  6  1  0  0  0  0
  5 20  1  0  0  0  0
  6  7  1  0  0  0  0
  7  8  2  0  0  0  0
  7  9  1  0  0  0  0
  9 10  1  0  0  0  0
  9 24  1  0  0  0  0
 10 11  1  0  0  0  0
 10 25  1  0  0  0  0
 10 26  1  0  0  0  0
 11 12  1  0  0  0  0
 11 27  1  0  0  0  0
 11 28  1  0  0  0  0
 12 19  1  0  0  0  0
 12 13  1  0  0  0  0
 13 14  1  0  0  0  0
 13 29  1  0  0  0  0
 13 30  1  0  0  0  0
 14 15  1  0  0  0  0
 14 16  1  0  0  0  0
 14 31  1  0  0  0  0
 15 32  1  0  0  0  0
 15 33  1  0  0  0  0
 15 34  1  0  0  0  0
 16 17  1  0  0  0  0
 17 18  1  0  0  0  0
 17 19  1  0  0  0  0
 17 35  1  0  0  0  0
 18 36  1  0  0  0  0
 18 37  1  0  0  0  0
 18 38  1  0  0  0  0
 19 39  1  0  0  0  0
 19 40  1  0  0  0  0
M  CHG  1   6  -1
M  END
> <s_m_source_file>
AV-unprocessed.smi

> <i_m_source_file_index>
1641

> <i_lp_mmshare_version>
43012

> <i_f3d_flags>
0

> <s_epik_input>
W0NIM11jMW5uYyhzMSlbTkhdQyg9TylbTkhdW0NIMl1bQ0gyXU4yW0NIMl1bQ0BASF0oW0NIM10pT1tDQEBIXShbQ0gzXSlbQ0gyXTI=

> <s_epik_cmdline>
J2VwaWtfcHl0aG9uJywgJy1waCcsICc3LjAnLCAnLXRuJywgJzgnLCAnLW1hJywgJzIwMCcsICctbWV0YWxfYmluZGluZycsICctaW1hZScsICc8aW5maWxlLm1hZT4nLCAnLW9tYWUnLCAnPG91dGZpbGUubWFlPic=

> <r_lp_tautomer_probability>
1

> <r_epik_Ionization_Penalty>
3.81681

> <r_epik_Ionization_Penalty_Charging>
3.36369

> <r_epik_Ionization_Penalty_Neutral>
0.45313

> <r_epik_State_Penalty>
3.571

> <r_epik_Charging_Adjusted_Penalty>
6.93469

> <i_epik_Tot_Q>
-1

> <i_epik_Tot_abs_Q>
1

> <r_epik_Metal_State_Penalty>
0.710322

> <b_epik_Metal_Only>
1

> <s_lp_Force_Field>
OPLS_2005

> <r_lp_Energy>
21.0176

> <b_lp_Chiralities_Consistent>
1

> <s_lp_Variant>
AV-unprocessed.smi:1641-9

> <Gold.Version>
5.8.1

> <Gold.Id.Protein>
6NUR|6NUR_protein|mol2

> <Gold.PLP.Fitness>
42.4154

> <Gold.PLP.PLP>
-35.1035

> <Gold.PLP.part.hbond>
-3.4608

> <Gold.PLP.part.metal>
0.0000

> <Gold.PLP.part.buried>
-5.6530

> <Gold.PLP.part.nonpolar>
-27.3360

> <Gold.PLP.part.repulsive>
0.1918

> <Gold.PLP.ligand.clash>
0.0000

> <Gold.PLP.ligand.torsion>
0.4757

> <Gold.PLP.Chemscore.Hbond>
2.7395

> <Gold.PLP.Chemscore.CHOScore>
0.0000

> <Gold.PLP.Chemscore.Metal>
0.0000

> <Gold.Chemscore.Hbonds>
donor molecule, donor type, donor heavy atom, donor atom, acceptor molecule, acceptor atom, score
      P1  H  6896  6907       L1     8  0.50
      P1  H  6896  6909       L1     4  0.09
      P1  H 10752 10763       L1     6  1.90

> <Gold.PLP.Chemscore.Internal.Correction>
0.0447

> <Gold.Rescore>
     Score         DG    S(hbond)    S(metal)    S(lipo)     H(rot)  DE(clash)    DE(int)     intcor
     15.52     -17.58       1.92        0.00      82.83       1.57       0.06       2.00       ----

> <Gold.Chemscore.Fitness>
15.5199

> <Gold.Chemscore.DG>
-17.5750

> <Gold.Chemscore.ZeroCoef>
-5.4800

> <Gold.Chemscore.Hbond>
1.9220

> <Gold.Chemscore.Metal>
0.0000

> <Gold.Chemscore.Lipo>
82.8304

> <Gold.Chemscore.Internal_Hbond>
0.0000

> <Gold.Chemscore.DEClash>
0.0580

> <Gold.Chemscore.DEInternal>
1.9971

> <Gold.Chemscore.Rot>
1.5686

> <Gold.Chemscore.Internal.Correction>
   9.000000E+99

> <Gold.Chemscore.Hbonds>
donor molecule, donor type, donor heavy atom, donor atom, acceptor molecule, acceptor atom, score
      P1  H  6896  6907       L1     8  0.51
      P1  H 10752 10763       L1     6  0.21

> <Gold.Chemscore.Hbond.Weighted>
-6.4196

> <Gold.Chemscore.Metal.Weighted>
-0.0000

> <Gold.Chemscore.Lipo.Weighted>
-9.6912

> <Gold.Chemscore.Internal_Hbond.Weighted>
0.0000

> <Gold.Chemscore.DEClash.Weighted>
0.0580

> <Gold.Chemscore.DEInternal.Weighted>
1.9971

> <Gold.Chemscore.Rot.Weighted>
4.0157

> <Gold.Chemscore.Internal.Correction.Weighted>
   9.000000E+99

> <Gold.Protein.RotatedTorsions>
[ 6907 6896 6895 6894 ] final  -29.88 input  -60.11 | X-H torsion
[ 7974 7965 7964 7962 ] final  -50.08 input  175.53 | X-H torsion
[ 8008 7997 7996 7995 ] final -161.92 input   59.86 | X-H torsion
[ 10167 10162 10161 10158 ] final  135.64 input  -65.29 | X-H torsion
[ 10718 10713 10712 10709 ] final   37.71 input   66.30 | X-H torsion
[ 10763 10752 10751 10750 ] final   86.77 input  -60.55 | X-H torsion
[ 11005 11000 10999 10996 ] final   95.17 input  -57.11 | X-H torsion

> <Gold.Protein.ActiveResidues>
 VAL166  LYS551  ARG553  GLY616  TRP617  ASP618  TYR619  PRO620  LYS621  CYS622 
 ASP623  PHE694  ASN695  SER759  ASP760  ASP761  ALA762  ILE779  LEU786  VAL792 
 PHE793  MET794  SER795  GLU796  ALA797  LYS798  CYS799  TRP800  GLU811  SER814 

> <Gold.Protein.RotatedAtoms>
  151.1132  135.0038  159.8503 H   0  0  0  0  0  0  0  0  0  0  0  0  # atno 6907 bound_to 6896
  152.5444  134.1811  159.8646 H   0  0  0  0  0  0  0  0  0  0  0  0  # atno 6908 bound_to 6896
  151.1863  133.4649  159.2627 H   0  0  0  0  0  0  0  0  0  0  0  0  # atno 6909 bound_to 6896
  145.9337  140.7726  142.9587 H   0  0  0  0  0  0  0  0  0  0  0  0  # atno 7974 bound_to 7965
  155.7993  140.0889  157.1966 H   0  0  0  0  0  0  0  0  0  0  0  0  # atno 8008 bound_to 7997
  154.3982  140.1475  156.3314 H   0  0  0  0  0  0  0  0  0  0  0  0  # atno 8009 bound_to 7997
  155.8479  140.3436  155.5677 H   0  0  0  0  0  0  0  0  0  0  0  0  # atno 8010 bound_to 7997
  139.5209  144.6506  151.5312 H   0  0  0  0  0  0  0  0  0  0  0  0  # atno 10167 bound_to 10162
  157.3501  130.7594  149.6973 H   0  0  0  0  0  0  0  0  0  0  0  0  # atno 10718 bound_to 10713
  153.1603  135.4568  154.9762 H   0  0  0  0  0  0  0  0  0  0  0  0  # atno 10763 bound_to 10752
  154.7892  135.3214  154.7818 H   0  0  0  0  0  0  0  0  0  0  0  0  # atno 10764 bound_to 10752
  153.8309  135.6938  153.4869 H   0  0  0  0  0  0  0  0  0  0  0  0  # atno 10765 bound_to 10752
  139.8791  134.8885  156.3972 H   0  0  0  0  0  0  0  0  0  0  0  0  # atno 11005 bound_to 11000
  144.6768  140.2168  143.7371 LP  0  0  0  0  0  0  0  0  0  0  0  0  # atno 17320 bound_to 7965
  145.8392  139.2122  143.1837 LP  0  0  0  0  0  0  0  0  0  0  0  0  # atno 17321 bound_to 7965
  140.6310  143.9077  150.6605 LP  0  0  0  0  0  0  0  0  0  0  0  0  # atno 17342 bound_to 10162
  140.2381  143.3685  152.1510 LP  0  0  0  0  0  0  0  0  0  0  0  0  # atno 17343 bound_to 10162
  155.9720  130.4143  150.4124 LP  0  0  0  0  0  0  0  0  0  0  0  0  # atno 17370 bound_to 10713
  157.2186  131.0477  151.2559 LP  0  0  0  0  0  0  0  0  0  0  0  0  # atno 17371 bound_to 10713
  140.9292  133.7591  156.0003 LP  0  0  0  0  0  0  0  0  0  0  0  0  # atno 17394 bound_to 11000
  140.8350  134.3133  157.5335 LP  0  0  0  0  0  0  0  0  0  0  0  0  # atno 17395 bound_to 11000

$$$$
