AV-unprocessed.smi:1929|AV-procd|sdf|7802|dock1
  -GOLD-   22720 9543D 1   1.00000     0.00000
 Structure written by MMmdl.
 43 44  0  0  0  0  0  0  0  0  2 V2000
  153.7296  141.5761  160.0718 C   0  0  0  0  0  0  0  0  0  0  0  0
  152.7070  141.9140  159.0941 N   0  0  0  0  0  0  0  0  0  0  0  0
  152.3113  141.1004  158.1047 C   0  0  0  0  0  0  0  0  0  0  0  0
  152.7799  139.9764  157.9253 O   0  0  0  0  0  0  0  0  0  0  0  0
  151.2114  141.6305  157.1767 C   0  0  0  0  0  0  0  0  0  0  0  0
  150.6187  140.6108  156.2812 N   0  0  0  0  0  0  0  0  0  0  0  0
  149.6077  141.2475  155.4304 C   0  0  0  0  0  0  0  0  0  0  0  0
  149.0619  140.2487  154.3956 C   0  0  0  0  0  0  0  0  0  0  0  0
  148.4497  139.0208  155.0832 C   0  0  0  0  0  0  0  0  0  0  0  0
  148.0382  138.0430  154.0801 N   0  0  0  0  0  0  0  0  0  0  0  0
  146.7788  137.6322  153.8728 C   0  0  0  0  0  0  0  0  0  0  0  0
  145.8178  138.0342  154.5281 O   0  0  0  0  0  0  0  0  0  0  0  0
  146.7201  136.7248  152.8822 N   0  0  0  0  0  0  0  0  0  0  0  0
  145.5809  136.0619  152.3487 C   0  0  0  0  0  0  0  0  0  0  0  0
  145.7265  135.4224  151.0975 C   0  0  0  0  0  0  0  0  0  0  0  0
  144.6224  134.7641  150.5186 C   0  0  0  0  0  0  0  0  0  0  0  0
  143.4333  134.7568  151.1579 N   0  3  0  0  0  0  0  0  0  0  0  0
  143.2411  135.3649  152.3480 C   0  0  0  0  0  0  0  0  0  0  0  0
  144.3085  136.0395  152.9754 C   0  0  0  0  0  0  0  0  0  0  0  0
  149.4881  138.4211  156.0454 C   0  0  0  0  0  0  0  0  0  0  0  0
  150.0272  139.4845  157.0189 C   0  0  0  0  0  0  0  0  0  0  0  0
  153.8498  142.3943  160.7817 H   0  0  0  0  0  0  0  0  0  0  0  0
  154.6900  141.4024  159.5848 H   0  0  0  0  0  0  0  0  0  0  0  0
  153.4533  140.6797  160.6283 H   0  0  0  0  0  0  0  0  0  0  0  0
  152.2695  142.8204  159.1756 H   0  0  0  0  0  0  0  0  0  0  0  0
  150.4240  142.1015  157.7689 H   0  0  0  0  0  0  0  0  0  0  0  0
  151.6595  142.4229  156.5753 H   0  0  0  0  0  0  0  0  0  0  0  0
  148.7932  141.6443  156.0393 H   0  0  0  0  0  0  0  0  0  0  0  0
  150.0492  142.0933  154.9017 H   0  0  0  0  0  0  0  0  0  0  0  0
  148.3145  140.7388  153.7705 H   0  0  0  0  0  0  0  0  0  0  0  0
  149.8697  139.9414  153.7290 H   0  0  0  0  0  0  0  0  0  0  0  0
  147.5767  139.3447  155.6532 H   0  0  0  0  0  0  0  0  0  0  0  0
  148.7691  137.6537  153.5024 H   0  0  0  0  0  0  0  0  0  0  0  0
  147.6073  136.4387  152.4946 H   0  0  0  0  0  0  0  0  0  0  0  0
  146.6774  135.4299  150.5841 H   0  0  0  0  0  0  0  0  0  0  0  0
  144.6546  134.2483  149.5698 H   0  0  0  0  0  0  0  0  0  0  0  0
  142.2441  135.2993  152.7585 H   0  0  0  0  0  0  0  0  0  0  0  0
  144.1243  136.5337  153.9165 H   0  0  0  0  0  0  0  0  0  0  0  0
  149.0467  137.5996  156.6109 H   0  0  0  0  0  0  0  0  0  0  0  0
  150.3184  137.9950  155.4799 H   0  0  0  0  0  0  0  0  0  0  0  0
  150.7674  139.0068  157.6607 H   0  0  0  0  0  0  0  0  0  0  0  0
  149.2275  139.8405  157.6708 H   0  0  0  0  0  0  0  0  0  0  0  0
  142.6461  134.2756  150.7217 H   0  0  0  0  0  0  0  0  0  0  0  0
  1  2  1  0  0  0  0
  1 22  1  0  0  0  0
  1 23  1  0  0  0  0
  1 24  1  0  0  0  0
  2  3  1  0  0  0  0
  2 25  1  0  0  0  0
  3  4  2  0  0  0  0
  3  5  1  0  0  0  0
  5  6  1  0  0  0  0
  5 26  1  0  0  0  0
  5 27  1  0  0  0  0
  6 21  1  0  0  0  0
  6  7  1  0  0  0  0
  7  8  1  0  0  0  0
  7 28  1  0  0  0  0
  7 29  1  0  0  0  0
  8  9  1  0  0  0  0
  8 30  1  0  0  0  0
  8 31  1  0  0  0  0
  9 10  1  0  0  0  0
  9 20  1  0  0  0  0
  9 32  1  0  0  0  0
 10 11  1  0  0  0  0
 10 33  1  0  0  0  0
 11 12  2  0  0  0  0
 11 13  1  0  0  0  0
 13 14  1  0  0  0  0
 13 34  1  0  0  0  0
 14 19  1  0  0  0  0
 14 15  2  0  0  0  0
 15 16  1  0  0  0  0
 15 35  1  0  0  0  0
 16 17  2  0  0  0  0
 16 36  1  0  0  0  0
 17 18  1  0  0  0  0
 17 43  1  0  0  0  0
 18 19  2  0  0  0  0
 18 37  1  0  0  0  0
 19 38  1  0  0  0  0
 20 21  1  0  0  0  0
 20 39  1  0  0  0  0
 20 40  1  0  0  0  0
 21 41  1  0  0  0  0
 21 42  1  0  0  0  0
M  CHG  1  17   1
M  END
> <s_m_source_file>
AV-unprocessed.smi

> <i_m_source_file_index>
1929

> <i_lp_mmshare_version>
43012

> <i_f3d_flags>
0

> <s_epik_input>
W0NIM11bTkhdQyg9TylbQ0gyXU4xW0NIMl1bQ0gyXVtDSF0oW0NIMl1bQ0gyXTEpW05IXUMoPU8pW05IXWMyW2NIXVtjSF1uW2NIXVtjSF0y

> <s_epik_cmdline>
J2VwaWtfcHl0aG9uJywgJy1waCcsICc3LjAnLCAnLXRuJywgJzgnLCAnLW1hJywgJzIwMCcsICctbWV0YWxfYmluZGluZycsICctaW1hZScsICc8aW5maWxlLm1hZT4nLCAnLW9tYWUnLCAnPG91dGZpbGUubWFlPic=

> <r_epik_Ionization_Penalty>
1.15133

> <r_epik_Ionization_Penalty_Charging>
0.995513

> <r_epik_Ionization_Penalty_Neutral>
0.155816

> <r_epik_State_Penalty>
1.22166

> <r_epik_Charging_Adjusted_Penalty>
2.21717

> <i_epik_Tot_Q>
1

> <i_epik_Tot_abs_Q>
1

> <r_epik_Metal_State_Penalty>
1.32497

> <b_epik_Metal_Only>
0

> <s_lp_Force_Field>
OPLS_2005

> <r_lp_Energy>
25.1405

> <b_lp_Chiralities_Consistent>
1

> <s_lp_Variant>
AV-unprocessed.smi:1929-4

> <Gold.Version>
5.8.1

> <Gold.Id.Protein>
6NUR|6NUR_protein|mol2

> <Gold.PLP.Fitness>
41.5571

> <Gold.PLP.PLP>
-28.7088

> <Gold.PLP.part.hbond>
-3.9048

> <Gold.PLP.part.metal>
0.0000

> <Gold.PLP.part.buried>
-5.2418

> <Gold.PLP.part.nonpolar>
-20.7409

> <Gold.PLP.part.repulsive>
0.2326

> <Gold.PLP.ligand.clash>
0.0000

> <Gold.PLP.ligand.torsion>
0.1804

> <Gold.PLP.Chemscore.Hbond>
4.4006

> <Gold.PLP.Chemscore.CHOScore>
0.0000

> <Gold.PLP.Chemscore.Metal>
0.0000

> <Gold.Chemscore.Hbonds>
donor molecule, donor type, donor heavy atom, donor atom, acceptor molecule, acceptor atom, score
      L1  H    10    33       P1  7948  0.52
      L1  H    13    34       P1  7948  0.91
      L1  H    17    43       P1 10186  1.86
      P1  H  7997  8010       L1     4  1.00

> <Gold.PLP.Chemscore.Internal.Correction>
0.0073

> <Gold.Rescore>
     Score         DG    S(hbond)    S(metal)    S(lipo)     H(rot)  DE(clash)    DE(int)     intcor
     17.89     -19.49       3.27        0.00      63.32       1.69       0.20       1.40       ----

> <Gold.Chemscore.Fitness>
17.8901

> <Gold.Chemscore.DG>
-19.4891

> <Gold.Chemscore.ZeroCoef>
-5.4800

> <Gold.Chemscore.Hbond>
3.2704

> <Gold.Chemscore.Metal>
0.0000

> <Gold.Chemscore.Lipo>
63.3171

> <Gold.Chemscore.Internal_Hbond>
0.0000

> <Gold.Chemscore.DEClash>
0.2002

> <Gold.Chemscore.DEInternal>
1.3988

> <Gold.Chemscore.Rot>
1.6883

> <Gold.Chemscore.Internal.Correction>
   9.000000E+99

> <Gold.Chemscore.Hbonds>
donor molecule, donor type, donor heavy atom, donor atom, acceptor molecule, acceptor atom, score
      L1  H    10    33       P1  7948  0.52
      L1  H    13    34       P1  7948  0.87
      L1  H    17    43       P1 10186  0.39
      P1  H  7997  8010       L1     4  0.74

> <Gold.Chemscore.Hbond.Weighted>
-10.9231

> <Gold.Chemscore.Metal.Weighted>
-0.0000

> <Gold.Chemscore.Lipo.Weighted>
-7.4081

> <Gold.Chemscore.Internal_Hbond.Weighted>
0.0000

> <Gold.Chemscore.DEClash.Weighted>
0.2002

> <Gold.Chemscore.DEInternal.Weighted>
1.3988

> <Gold.Chemscore.Rot.Weighted>
4.3221

> <Gold.Chemscore.Internal.Correction.Weighted>
   9.000000E+99

> <Gold.Protein.RotatedTorsions>
[ 6907 6896 6895 6894 ] final  138.26 input  -60.11 | X-H torsion
[ 7974 7965 7964 7962 ] final   71.14 input  175.53 | X-H torsion
[ 8008 7997 7996 7995 ] final   39.69 input   59.86 | X-H torsion
[ 10167 10162 10161 10158 ] final  -70.11 input  -65.29 | X-H torsion
[ 10718 10713 10712 10709 ] final  -32.89 input   66.30 | X-H torsion
[ 10763 10752 10751 10750 ] final -128.91 input  -60.55 | X-H torsion
[ 11005 11000 10999 10996 ] final  -48.15 input  -57.11 | X-H torsion

> <Gold.Protein.ActiveResidues>
 VAL166  LYS551  ARG553  GLY616  TRP617  ASP618  TYR619  PRO620  LYS621  CYS622 
 ASP623  PHE694  ASN695  SER759  ASP760  ASP761  ALA762  ILE779  LEU786  VAL792 
 PHE793  MET794  SER795  GLU796  ALA797  LYS798  CYS799  TRP800  GLU811  SER814 

> <Gold.Protein.RotatedAtoms>
  152.2686  133.5362  159.5424 H   0  0  0  0  0  0  0  0  0  0  0  0  # atno 6907 bound_to 6896
  150.7151  134.0729  159.3880 H   0  0  0  0  0  0  0  0  0  0  0  0  # atno 6908 bound_to 6896
  151.8645  135.0512  160.0523 H   0  0  0  0  0  0  0  0  0  0  0  0  # atno 6909 bound_to 6896
  145.7695  139.2836  143.1329 H   0  0  0  0  0  0  0  0  0  0  0  0  # atno 7974 bound_to 7965
  155.2407  140.3345  155.4292 H   0  0  0  0  0  0  0  0  0  0  0  0  # atno 8008 bound_to 7997
  156.2257  140.1828  156.7414 H   0  0  0  0  0  0  0  0  0  0  0  0  # atno 8009 bound_to 7997
  154.5895  140.0640  156.9203 H   0  0  0  0  0  0  0  0  0  0  0  0  # atno 8010 bound_to 7997
  140.5378  143.2317  151.7145 H   0  0  0  0  0  0  0  0  0  0  0  0  # atno 10167 bound_to 10162
  156.3694  130.4337  149.7558 H   0  0  0  0  0  0  0  0  0  0  0  0  # atno 10718 bound_to 10713
  154.8757  135.3913  154.3833 H   0  0  0  0  0  0  0  0  0  0  0  0  # atno 10763 bound_to 10752
  153.4578  135.7029  153.6074 H   0  0  0  0  0  0  0  0  0  0  0  0  # atno 10764 bound_to 10752
  153.4586  135.3817  155.2294 H   0  0  0  0  0  0  0  0  0  0  0  0  # atno 10765 bound_to 10752
  141.0683  133.6687  156.3399 H   0  0  0  0  0  0  0  0  0  0  0  0  # atno 11005 bound_to 11000
  146.0184  140.8371  142.9935 LP  0  0  0  0  0  0  0  0  0  0  0  0  # atno 17320 bound_to 7965
  144.6815  140.2592  143.7321 LP  0  0  0  0  0  0  0  0  0  0  0  0  # atno 17321 bound_to 7965
  139.4977  144.4016  152.0176 LP  0  0  0  0  0  0  0  0  0  0  0  0  # atno 17342 bound_to 10162
  140.3122  144.3524  150.6031 LP  0  0  0  0  0  0  0  0  0  0  0  0  # atno 17343 bound_to 10162
  156.4691  130.7988  151.3006 LP  0  0  0  0  0  0  0  0  0  0  0  0  # atno 17370 bound_to 10713
  157.7482  131.0041  150.3064 LP  0  0  0  0  0  0  0  0  0  0  0  0  # atno 17371 bound_to 10713
  140.5726  134.5825  157.5461 LP  0  0  0  0  0  0  0  0  0  0  0  0  # atno 17394 bound_to 11000
  139.9498  134.7637  156.0475 LP  0  0  0  0  0  0  0  0  0  0  0  0  # atno 17395 bound_to 11000

$$$$
