AV-unprocessed.smi:1564|AV-procd|sdf|6295|dock1
  -GOLD-   22720 6493D 1   1.00000     0.00000
 Structure written by MMmdl.
 43 44  0  0  0  0  0  0  0  0  2 V2000
  150.5894  141.6644  156.1172 C   0  0  0  0  0  0  0  0  0  0  0  0
  150.6181  140.5070  155.2891 O   0  0  0  0  0  0  0  0  0  0  0  0
  149.4306  140.0597  154.7472 C   0  0  0  0  0  0  0  0  0  0  0  0
  148.4181  141.0001  154.4738 C   0  0  0  0  0  0  0  0  0  0  0  0
  147.2038  140.5480  153.9244 C   0  0  0  0  0  0  0  0  0  0  0  0
  147.0307  139.1720  153.6728 C   0  0  0  0  0  0  0  0  0  0  0  0
  145.7965  138.7516  153.1067 N   0  0  0  0  0  0  0  0  0  0  0  0
  145.3548  137.5016  152.8860 C   0  0  0  0  0  0  0  0  0  0  0  0
  145.9648  136.4682  153.1579 O   0  0  0  0  0  0  0  0  0  0  0  0
  144.1330  137.5100  152.3354 N   0  0  0  0  0  0  0  0  0  0  0  0
  143.3735  136.3154  151.9823 C   0  0  2  0  0  0  0  0  0  0  0  0
  142.9556  135.4577  153.1772 C   0  0  0  0  0  0  0  0  0  0  0  0
  142.9239  134.0212  152.6294 C   0  0  0  0  0  0  0  0  0  0  0  0
  143.4779  134.0628  151.2516 N   0  3  2  0  0  0  0  0  0  0  0  0
  144.2495  132.8548  150.8436 C   0  0  0  0  0  0  0  0  0  0  0  0
  145.7022  132.9075  151.3536 C   0  0  0  0  0  0  0  0  0  0  0  0
  144.2463  132.6834  149.3127 C   0  0  0  0  0  0  0  0  0  0  0  0
  144.2014  135.3462  151.1457 C   0  0  0  0  0  0  0  0  0  0  0  0
  148.1133  138.3078  153.9702 C   0  0  0  0  0  0  0  0  0  0  0  0
  149.2814  138.7358  154.4949 N   0  0  0  0  0  0  0  0  0  0  0  0
  151.6014  141.8940  156.4504 H   0  0  0  0  0  0  0  0  0  0  0  0
  149.9768  141.5031  157.0054 H   0  0  0  0  0  0  0  0  0  0  0  0
  150.2147  142.5347  155.5764 H   0  0  0  0  0  0  0  0  0  0  0  0
  148.5699  142.0488  154.6818 H   0  0  0  0  0  0  0  0  0  0  0  0
  146.4144  141.2522  153.7050 H   0  0  0  0  0  0  0  0  0  0  0  0
  145.1482  139.4950  152.8920 H   0  0  0  0  0  0  0  0  0  0  0  0
  143.7004  138.4030  152.1486 H   0  0  0  0  0  0  0  0  0  0  0  0
  142.4859  136.5967  151.4116 H   0  0  0  0  0  0  0  0  0  0  0  0
  143.6956  135.5271  153.9762 H   0  0  0  0  0  0  0  0  0  0  0  0
  141.9948  135.7682  153.5895 H   0  0  0  0  0  0  0  0  0  0  0  0
  143.5155  133.3707  153.2757 H   0  0  0  0  0  0  0  0  0  0  0  0
  141.9075  133.6269  152.6009 H   0  0  0  0  0  0  0  0  0  0  0  0
  143.7693  131.9804  151.2860 H   0  0  0  0  0  0  0  0  0  0  0  0
  146.2678  132.0410  151.0098 H   0  0  0  0  0  0  0  0  0  0  0  0
  145.7541  132.9029  152.4425 H   0  0  0  0  0  0  0  0  0  0  0  0
  146.2167  133.8000  150.9958 H   0  0  0  0  0  0  0  0  0  0  0  0
  144.8286  131.8104  149.0166 H   0  0  0  0  0  0  0  0  0  0  0  0
  144.6799  133.5518  148.8157 H   0  0  0  0  0  0  0  0  0  0  0  0
  143.2407  132.5406  148.9174 H   0  0  0  0  0  0  0  0  0  0  0  0
  144.2899  135.6801  150.1112 H   0  0  0  0  0  0  0  0  0  0  0  0
  145.2057  135.2391  151.5607 H   0  0  0  0  0  0  0  0  0  0  0  0
  148.0728  137.2482  153.7747 H   0  0  0  0  0  0  0  0  0  0  0  0
  142.6851  134.1382  150.6301 H   0  0  0  0  0  0  0  0  0  0  0  0
  1  2  1  0  0  0  0
  1 21  1  0  0  0  0
  1 22  1  0  0  0  0
  1 23  1  0  0  0  0
  2  3  1  0  0  0  0
  3 20  1  0  0  0  0
  3  4  2  0  0  0  0
  4  5  1  0  0  0  0
  4 24  1  0  0  0  0
  5  6  2  0  0  0  0
  5 25  1  0  0  0  0
  6  7  1  0  0  0  0
  6 19  1  0  0  0  0
  7  8  1  0  0  0  0
  7 26  1  0  0  0  0
  8  9  2  0  0  0  0
  8 10  1  0  0  0  0
 10 11  1  0  0  0  0
 10 27  1  0  0  0  0
 11 18  1  0  0  0  0
 11 12  1  0  0  0  0
 11 28  1  0  0  0  0
 12 13  1  0  0  0  0
 12 29  1  0  0  0  0
 12 30  1  0  0  0  0
 13 14  1  0  0  0  0
 13 31  1  0  0  0  0
 13 32  1  0  0  0  0
 14 15  1  0  0  0  0
 14 18  1  0  0  0  0
 14 43  1  0  0  0  0
 15 16  1  0  0  0  0
 15 17  1  0  0  0  0
 15 33  1  0  0  0  0
 16 34  1  0  0  0  0
 16 35  1  0  0  0  0
 16 36  1  0  0  0  0
 17 37  1  0  0  0  0
 17 38  1  0  0  0  0
 17 39  1  0  0  0  0
 18 40  1  0  0  0  0
 18 41  1  0  0  0  0
 19 20  2  0  0  0  0
 19 42  1  0  0  0  0
M  CHG  1  14   1
M  END
> <s_m_source_file>
AV-unprocessed.smi

> <i_m_source_file_index>
1564

> <i_lp_mmshare_version>
43012

> <i_f3d_flags>
0

> <s_epik_input>
W0NIM11PYzFbY0hdW2NIXWMoW2NIXW4xKVtOSF1DKD1PKVtOSF1bQ0BASF0yW0NIMl1bQ0gyXU4oW0NIMl0yKVtDSF0oW0NIM10pW0NIM10=

> <s_epik_cmdline>
J2VwaWtfcHl0aG9uJywgJy1waCcsICc3LjAnLCAnLXRuJywgJzgnLCAnLW1hJywgJzIwMCcsICctbWV0YWxfYmluZGluZycsICctaW1hZScsICc8aW5maWxlLm1hZT4nLCAnLW9tYWUnLCAnPG91dGZpbGUubWFlPic=

> <r_lp_tautomer_probability>
1

> <r_epik_Ionization_Penalty>
0.000679474

> <r_epik_Ionization_Penalty_Charging>
0.000606352

> <r_epik_Ionization_Penalty_Neutral>
7.31222e-05

> <r_epik_State_Penalty>
0.000382168

> <r_epik_Charging_Adjusted_Penalty>
0.00098852

> <i_epik_Tot_Q>
1

> <i_epik_Tot_abs_Q>
1

> <r_epik_Metal_State_Penalty>
-0

> <b_epik_Metal_Only>
0

> <s_lp_Force_Field>
OPLS_2005

> <r_lp_Energy>
32.1587

> <b_lp_Chiralities_Consistent>
1

> <s_lp_Variant>
AV-unprocessed.smi:1564-3

> <Gold.Version>
5.8.1

> <Gold.Id.Protein>
6NUR|6NUR_protein|mol2

> <Gold.PLP.Fitness>
49.9814

> <Gold.PLP.PLP>
-33.8417

> <Gold.PLP.part.hbond>
-5.0000

> <Gold.PLP.part.metal>
0.0000

> <Gold.PLP.part.buried>
-3.6477

> <Gold.PLP.part.nonpolar>
-25.8869

> <Gold.PLP.part.repulsive>
0.4471

> <Gold.PLP.ligand.clash>
0.0000

> <Gold.PLP.ligand.torsion>
0.8826

> <Gold.PLP.Chemscore.Hbond>
5.0000

> <Gold.PLP.Chemscore.CHOScore>
0.9582

> <Gold.PLP.Chemscore.Metal>
0.0000

> <Gold.Chemscore.Hbonds>
donor molecule, donor type, donor heavy atom, donor atom, acceptor molecule, acceptor atom, score
      L1  H     7    26       P1 10175  1.00
      L1  H    10    27       P1 10175  0.93
      L1  H    14    43       P1 10186  2.00
      P1  H  7989  7998       L1     2  0.77
      L1  C    19    42       P1  7948  0.88

> <Gold.PLP.Chemscore.Internal.Correction>
0.0302

> <Gold.Rescore>
     Score         DG    S(hbond)    S(metal)    S(lipo)     H(rot)  DE(clash)    DE(int)     intcor
     16.68     -20.27       2.92        0.00      74.59       1.44       0.28       3.31       ----

> <Gold.Chemscore.Fitness>
16.6791

> <Gold.Chemscore.DG>
-20.2655

> <Gold.Chemscore.ZeroCoef>
-5.4800

> <Gold.Chemscore.Hbond>
2.9212

> <Gold.Chemscore.Metal>
0.0000

> <Gold.Chemscore.Lipo>
74.5862

> <Gold.Chemscore.Internal_Hbond>
0.0000

> <Gold.Chemscore.DEClash>
0.2765

> <Gold.Chemscore.DEInternal>
3.3099

> <Gold.Chemscore.Rot>
1.4445

> <Gold.Chemscore.Internal.Correction>
   9.000000E+99

> <Gold.Chemscore.Hbonds>
donor molecule, donor type, donor heavy atom, donor atom, acceptor molecule, acceptor atom, score
      L1  H     7    26       P1 10175  1.00
      L1  H    10    27       P1 10175  0.85
      L1  H    14    43       P1 10186  0.67
      P1  H  7989  7998       L1     2  0.11

> <Gold.Chemscore.Hbond.Weighted>
-9.7568

> <Gold.Chemscore.Metal.Weighted>
-0.0000

> <Gold.Chemscore.Lipo.Weighted>
-8.7266

> <Gold.Chemscore.Internal_Hbond.Weighted>
0.0000

> <Gold.Chemscore.DEClash.Weighted>
0.2765

> <Gold.Chemscore.DEInternal.Weighted>
3.3099

> <Gold.Chemscore.Rot.Weighted>
3.6979

> <Gold.Chemscore.Internal.Correction.Weighted>
   9.000000E+99

> <Gold.Protein.RotatedTorsions>
[ 6907 6896 6895 6894 ] final  -33.50 input  -60.11 | X-H torsion
[ 7974 7965 7964 7962 ] final  111.55 input  175.53 | X-H torsion
[ 8008 7997 7996 7995 ] final  154.66 input   59.86 | X-H torsion
[ 10167 10162 10161 10158 ] final -174.31 input  -65.29 | X-H torsion
[ 10718 10713 10712 10709 ] final   72.76 input   66.30 | X-H torsion
[ 10763 10752 10751 10750 ] final -174.77 input  -60.55 | X-H torsion
[ 11005 11000 10999 10996 ] final   -7.05 input  -57.11 | X-H torsion

> <Gold.Protein.ActiveResidues>
 VAL166  LYS551  ARG553  GLY616  TRP617  ASP618  TYR619  PRO620  LYS621  CYS622 
 ASP623  PHE694  ASN695  SER759  ASP760  ASP761  ALA762  ILE779  LEU786  VAL792 
 PHE793  MET794  SER795  GLU796  ALA797  LYS798  CYS799  TRP800  GLU811  SER814 

> <Gold.Protein.RotatedAtoms>
  151.0648  134.9760  159.8278 H   0  0  0  0  0  0  0  0  0  0  0  0  # atno 6907 bound_to 6896
  152.5400  134.2372  159.8858 H   0  0  0  0  0  0  0  0  0  0  0  0  # atno 6908 bound_to 6896
  151.2394  133.4364  159.2640 H   0  0  0  0  0  0  0  0  0  0  0  0  # atno 6909 bound_to 6896
  145.2409  139.2779  143.4118 H   0  0  0  0  0  0  0  0  0  0  0  0  # atno 7974 bound_to 7965
  156.2519  140.1960  156.6681 H   0  0  0  0  0  0  0  0  0  0  0  0  # atno 8008 bound_to 7997
  154.6413  140.0583  156.9875 H   0  0  0  0  0  0  0  0  0  0  0  0  # atno 8009 bound_to 7997
  155.1558  140.3255  155.4424 H   0  0  0  0  0  0  0  0  0  0  0  0  # atno 8010 bound_to 7997
  139.5641  144.1799  152.1284 H   0  0  0  0  0  0  0  0  0  0  0  0  # atno 10167 bound_to 10162
  157.6516  130.9595  150.0974 H   0  0  0  0  0  0  0  0  0  0  0  0  # atno 10718 bound_to 10713
  154.5923  135.2846  155.0622 H   0  0  0  0  0  0  0  0  0  0  0  0  # atno 10763 bound_to 10752
  154.1918  135.6439  153.5066 H   0  0  0  0  0  0  0  0  0  0  0  0  # atno 10764 bound_to 10752
  153.0126  135.5448  154.6613 H   0  0  0  0  0  0  0  0  0  0  0  0  # atno 10765 bound_to 10752
  140.7086  133.8928  155.8734 H   0  0  0  0  0  0  0  0  0  0  0  0  # atno 11005 bound_to 11000
  146.3329  140.2771  142.8608 LP  0  0  0  0  0  0  0  0  0  0  0  0  # atno 17320 bound_to 7965
  144.9590  140.8256  143.5525 LP  0  0  0  0  0  0  0  0  0  0  0  0  # atno 17321 bound_to 7965
  140.1318  144.5281  150.6798 LP  0  0  0  0  0  0  0  0  0  0  0  0  # atno 17342 bound_to 10162
  140.6923  143.2383  151.5097 LP  0  0  0  0  0  0  0  0  0  0  0  0  # atno 17343 bound_to 10162
  156.1906  130.3654  149.8914 LP  0  0  0  0  0  0  0  0  0  0  0  0  # atno 17370 bound_to 10713
  156.6844  130.8871  151.3580 LP  0  0  0  0  0  0  0  0  0  0  0  0  # atno 17371 bound_to 10713
  141.0103  134.1029  157.4228 LP  0  0  0  0  0  0  0  0  0  0  0  0  # atno 17394 bound_to 11000
  139.8877  135.0092  156.6579 LP  0  0  0  0  0  0  0  0  0  0  0  0  # atno 17395 bound_to 11000

$$$$
