AV-unprocessed.smi:3009|AV-procd|sdf|11452|dock2
  -GOLD-   2272016383D 1   1.00000     0.00000
 Structure written by MMmdl.
 44 45  0  0  0  0  0  0  0  0  2 V2000
  150.7961  136.9691  154.8077 C   0  0  0  0  0  0  0  0  0  0  0  0
  151.3430  138.3357  154.3630 C   0  0  0  0  0  0  0  0  0  0  0  0
  152.8267  138.4668  154.7385 C   0  0  0  0  0  0  0  0  0  0  0  0
  150.5273  139.5028  154.9605 C   0  0  0  0  0  0  0  0  0  0  0  0
  149.3898  139.9240  154.1025 N   0  3  2  0  0  0  0  0  0  0  0  0
  148.8221  141.2439  154.4735 C   0  0  0  0  0  0  0  0  0  0  0  0
  147.6685  141.6183  153.5292 C   0  0  0  0  0  0  0  0  0  0  0  0
  146.6798  140.5976  153.5594 O   0  0  0  0  0  0  0  0  0  0  0  0
  147.1834  139.3460  153.1039 C   0  0  2  0  0  0  0  0  0  0  0  0
  146.0228  138.3354  153.0886 C   0  0  0  0  0  0  0  0  0  0  0  0
  146.4187  137.0593  152.5029 N   0  0  0  0  0  0  0  0  0  0  0  0
  145.5702  136.1222  152.0582 C   0  0  0  0  0  0  0  0  0  0  0  0
  144.3453  136.2377  152.1061 O   0  0  0  0  0  0  0  0  0  0  0  0
  146.2291  135.0591  151.5698 N   0  0  0  0  0  0  0  0  0  0  0  0
  145.6710  133.8896  150.9947 C   0  0  0  0  0  0  0  0  0  0  0  0
  144.3083  133.7448  150.6177 C   0  0  0  0  0  0  0  0  0  0  0  0
  144.0719  132.5436  150.1105 N   0  0  0  0  0  0  0  0  0  0  0  0
  145.2702  131.9193  150.1623 N   0  0  0  0  0  0  0  0  0  0  0  0
  146.2728  132.6999  150.6939 C   0  0  0  0  0  0  0  0  0  0  0  0
  148.3196  138.8994  154.0446 C   0  0  0  0  0  0  0  0  0  0  0  0
  145.3868  130.9709  149.8349 H   0  0  0  0  0  0  0  0  0  0  0  0
  150.8205  136.8666  155.8931 H   0  0  0  0  0  0  0  0  0  0  0  0
  151.3855  136.1547  154.3856 H   0  0  0  0  0  0  0  0  0  0  0  0
  149.7657  136.8256  154.4823 H   0  0  0  0  0  0  0  0  0  0  0  0
  151.2919  138.3802  153.2758 H   0  0  0  0  0  0  0  0  0  0  0  0
  152.9684  138.4278  155.8190 H   0  0  0  0  0  0  0  0  0  0  0  0
  153.2408  139.4105  154.3822 H   0  0  0  0  0  0  0  0  0  0  0  0
  153.4172  137.6637  154.2965 H   0  0  0  0  0  0  0  0  0  0  0  0
  150.1486  139.1893  155.9347 H   0  0  0  0  0  0  0  0  0  0  0  0
  151.1699  140.3644  155.1495 H   0  0  0  0  0  0  0  0  0  0  0  0
  148.4621  141.2115  155.5031 H   0  0  0  0  0  0  0  0  0  0  0  0
  149.5868  142.0181  154.4269 H   0  0  0  0  0  0  0  0  0  0  0  0
  147.2148  142.5577  153.8453 H   0  0  0  0  0  0  0  0  0  0  0  0
  148.0283  141.7660  152.5096 H   0  0  0  0  0  0  0  0  0  0  0  0
  147.5784  139.4594  152.0924 H   0  0  0  0  0  0  0  0  0  0  0  0
  145.6479  138.1715  154.1003 H   0  0  0  0  0  0  0  0  0  0  0  0
  145.1875  138.7328  152.5114 H   0  0  0  0  0  0  0  0  0  0  0  0
  147.4095  136.8799  152.4284 H   0  0  0  0  0  0  0  0  0  0  0  0
  147.2374  135.0917  151.6058 H   0  0  0  0  0  0  0  0  0  0  0  0
  143.4994  134.4568  150.6932 H   0  0  0  0  0  0  0  0  0  0  0  0
  147.2860  132.3430  150.8042 H   0  0  0  0  0  0  0  0  0  0  0  0
  148.7363  137.9558  153.6899 H   0  0  0  0  0  0  0  0  0  0  0  0
  147.9317  138.7219  155.0491 H   0  0  0  0  0  0  0  0  0  0  0  0
  149.7518  140.0082  153.1631 H   0  0  0  0  0  0  0  0  0  0  0  0
  1  2  1  0  0  0  0
  1 22  1  0  0  0  0
  1 23  1  0  0  0  0
  1 24  1  0  0  0  0
  2  3  1  0  0  0  0
  2  4  1  0  0  0  0
  2 25  1  0  0  0  0
  3 26  1  0  0  0  0
  3 27  1  0  0  0  0
  3 28  1  0  0  0  0
  4  5  1  0  0  0  0
  4 29  1  0  0  0  0
  4 30  1  0  0  0  0
  5 20  1  0  0  0  0
  5  6  1  0  0  0  0
  5 44  1  0  0  0  0
  6  7  1  0  0  0  0
  6 31  1  0  0  0  0
  6 32  1  0  0  0  0
  7  8  1  0  0  0  0
  7 33  1  0  0  0  0
  7 34  1  0  0  0  0
  8  9  1  0  0  0  0
  9 10  1  0  0  0  0
  9 20  1  0  0  0  0
  9 35  1  0  0  0  0
 10 11  1  0  0  0  0
 10 36  1  0  0  0  0
 10 37  1  0  0  0  0
 11 12  1  0  0  0  0
 11 38  1  0  0  0  0
 12 13  2  0  0  0  0
 12 14  1  0  0  0  0
 14 15  1  0  0  0  0
 14 39  1  0  0  0  0
 15 19  2  0  0  0  0
 15 16  1  0  0  0  0
 16 17  2  0  0  0  0
 16 40  1  0  0  0  0
 17 18  1  0  0  0  0
 18 21  1  0  0  0  0
 18 19  1  0  0  0  0
 19 41  1  0  0  0  0
 20 42  1  0  0  0  0
 20 43  1  0  0  0  0
M  CHG  1   5   1
M  END
> <s_m_source_file>
AV-unprocessed.smi

> <i_m_source_file_index>
3009

> <i_lp_mmshare_version>
43012

> <i_f3d_flags>
0

> <s_epik_input>
W0NIM11bQ0hdKFtDSDNdKVtDSDJdTjFbQ0gyXVtDSDJdT1tDQEhdKFtDSDJdMSlbQ0gyXVtOSF1DKD1PKVtOSF1jMltjSF1uW25IXVtjSF0y

> <s_epik_cmdline>
J2VwaWtfcHl0aG9uJywgJy1waCcsICc3LjAnLCAnLXRuJywgJzgnLCAnLW1hJywgJzIwMCcsICctbWV0YWxfYmluZGluZycsICctaW1hZScsICc8aW5maWxlLm1hZT4nLCAnLW9tYWUnLCAnPG91dGZpbGUubWFlPic=

> <r_lp_tautomer_probability>
0.5

> <r_epik_Ionization_Penalty>
0.0974064

> <r_epik_Ionization_Penalty_Charging>
0.0973651

> <r_epik_Ionization_Penalty_Neutral>
4.13573e-05

> <r_epik_State_Penalty>
0.0874853

> <r_epik_Charging_Adjusted_Penalty>
0.18485

> <i_epik_Tot_Q>
1

> <i_epik_Tot_abs_Q>
1

> <r_epik_Metal_State_Penalty>
0.0874855

> <b_epik_Metal_Only>
0

> <s_lp_Force_Field>
OPLS_2005

> <r_lp_Energy>
20.2975

> <b_lp_Chiralities_Consistent>
1

> <s_lp_Variant>
AV-unprocessed.smi:3009-4

> <Gold.Version>
5.8.1

> <Gold.Id.Protein>
6NUR|6NUR_protein|mol2

> <Gold.PLP.Fitness>
48.6549

> <Gold.PLP.PLP>
-35.6747

> <Gold.PLP.part.hbond>
-3.0000

> <Gold.PLP.part.metal>
0.0000

> <Gold.PLP.part.buried>
-6.3725

> <Gold.PLP.part.nonpolar>
-28.6061

> <Gold.PLP.part.repulsive>
0.9573

> <Gold.PLP.ligand.clash>
0.0000

> <Gold.PLP.ligand.torsion>
0.6506

> <Gold.PLP.Chemscore.Hbond>
3.0000

> <Gold.PLP.Chemscore.CHOScore>
1.7078

> <Gold.PLP.Chemscore.Metal>
0.0000

> <Gold.Chemscore.Hbonds>
donor molecule, donor type, donor heavy atom, donor atom, acceptor molecule, acceptor atom, score
      L1  H     5    44       P1  7957  1.00
      L1  H    11    38       P1  7948  1.00
      L1  H    14    39       P1  7948  0.98
      L1  C    16    40       P1 10186  0.49
      L1  C    19    41       P1 10747  1.00

> <Gold.PLP.Chemscore.Internal.Correction>
0.1581

> <Gold.Rescore>
     Score         DG    S(hbond)    S(metal)    S(lipo)     H(rot)  DE(clash)    DE(int)     intcor
     17.65     -20.24       2.83        0.00      84.60       1.80       0.57       2.02       ----

> <Gold.Chemscore.Fitness>
17.6522

> <Gold.Chemscore.DG>
-20.2387

> <Gold.Chemscore.ZeroCoef>
-5.4800

> <Gold.Chemscore.Hbond>
2.8320

> <Gold.Chemscore.Metal>
0.0000

> <Gold.Chemscore.Lipo>
84.5995

> <Gold.Chemscore.Internal_Hbond>
0.0000

> <Gold.Chemscore.DEClash>
0.5695

> <Gold.Chemscore.DEInternal>
2.0171

> <Gold.Chemscore.Rot>
1.7963

> <Gold.Chemscore.Internal.Correction>
   9.000000E+99

> <Gold.Chemscore.Hbonds>
donor molecule, donor type, donor heavy atom, donor atom, acceptor molecule, acceptor atom, score
      L1  H     5    44       P1  7957  0.93
      L1  H    11    38       P1  7948  1.00
      L1  H    14    39       P1  7948  0.77

> <Gold.Chemscore.Hbond.Weighted>
-9.4590

> <Gold.Chemscore.Metal.Weighted>
-0.0000

> <Gold.Chemscore.Lipo.Weighted>
-9.8981

> <Gold.Chemscore.Internal_Hbond.Weighted>
0.0000

> <Gold.Chemscore.DEClash.Weighted>
0.5695

> <Gold.Chemscore.DEInternal.Weighted>
2.0171

> <Gold.Chemscore.Rot.Weighted>
4.5985

> <Gold.Chemscore.Internal.Correction.Weighted>
   9.000000E+99

> <Gold.Protein.RotatedTorsions>
[ 6907 6896 6895 6894 ] final  -22.72 input  -60.11 | X-H torsion
[ 7974 7965 7964 7962 ] final   68.87 input  175.53 | X-H torsion
[ 8008 7997 7996 7995 ] final  170.07 input   59.86 | X-H torsion
[ 10167 10162 10161 10158 ] final   78.25 input  -65.29 | X-H torsion
[ 10718 10713 10712 10709 ] final -101.91 input   66.30 | X-H torsion
[ 10763 10752 10751 10750 ] final  143.13 input  -60.55 | X-H torsion
[ 11005 11000 10999 10996 ] final  154.25 input  -57.11 | X-H torsion

> <Gold.Protein.ActiveResidues>
 VAL166  LYS551  ARG553  GLY616  TRP617  ASP618  TYR619  PRO620  LYS621  CYS622 
 ASP623  PHE694  ASN695  SER759  ASP760  ASP761  ALA762  ILE779  LEU786  VAL792 
 PHE793  MET794  SER795  GLU796  ALA797  LYS798  CYS799  TRP800  GLU811  SER814 

> <Gold.Protein.RotatedAtoms>
  151.2144  135.0494  159.8924 H   0  0  0  0  0  0  0  0  0  0  0  0  # atno 6907 bound_to 6896
  152.5421  134.0709  159.8204 H   0  0  0  0  0  0  0  0  0  0  0  0  # atno 6908 bound_to 6896
  151.0867  133.5300  159.2649 H   0  0  0  0  0  0  0  0  0  0  0  0  # atno 6909 bound_to 6896
  145.7974  139.2964  143.1175 H   0  0  0  0  0  0  0  0  0  0  0  0  # atno 7974 bound_to 7965
  156.1399  140.1547  156.8936 H   0  0  0  0  0  0  0  0  0  0  0  0  # atno 8008 bound_to 7997
  154.4979  140.0833  156.7773 H   0  0  0  0  0  0  0  0  0  0  0  0  # atno 8009 bound_to 7997
  155.4098  140.3418  155.4265 H   0  0  0  0  0  0  0  0  0  0  0  0  # atno 8010 bound_to 7997
  139.9729  144.5882  150.7969 H   0  0  0  0  0  0  0  0  0  0  0  0  # atno 10167 bound_to 10162
  156.0210  130.5395  150.7032 H   0  0  0  0  0  0  0  0  0  0  0  0  # atno 10718 bound_to 10713
  153.9673  135.2954  155.3429 H   0  0  0  0  0  0  0  0  0  0  0  0  # atno 10763 bound_to 10752
  154.7342  135.5054  153.9016 H   0  0  0  0  0  0  0  0  0  0  0  0  # atno 10764 bound_to 10752
  153.0917  135.6709  153.9953 H   0  0  0  0  0  0  0  0  0  0  0  0  # atno 10765 bound_to 10752
  140.1471  134.8700  157.2407 H   0  0  0  0  0  0  0  0  0  0  0  0  # atno 11005 bound_to 11000
  145.9914  140.8599  143.0065 LP  0  0  0  0  0  0  0  0  0  0  0  0  # atno 17320 bound_to 7965
  144.6773  140.2220  143.7365 LP  0  0  0  0  0  0  0  0  0  0  0  0  # atno 17321 bound_to 7965
  140.7516  143.2975  151.3167 LP  0  0  0  0  0  0  0  0  0  0  0  0  # atno 17342 bound_to 10162
  139.6468  144.0437  152.2596 LP  0  0  0  0  0  0  0  0  0  0  0  0  # atno 17343 bound_to 10162
  157.4687  131.0891  151.0666 LP  0  0  0  0  0  0  0  0  0  0  0  0  # atno 17370 bound_to 10713
  157.1132  130.6030  149.5487 LP  0  0  0  0  0  0  0  0  0  0  0  0  # atno 17371 bound_to 10713
  140.2650  134.3527  155.7393 LP  0  0  0  0  0  0  0  0  0  0  0  0  # atno 17394 bound_to 11000
  141.2194  133.7390  156.9137 LP  0  0  0  0  0  0  0  0  0  0  0  0  # atno 17395 bound_to 11000

$$$$
