#       Name:                AV-unprocessed.smi:1567
#       Creating user name   scv26
#       Creation time:       Fri Mar 27 06:50:33 2020


#       File generated by GOLD software.
#

@<TRIPOS>MOLECULE
AV-unprocessed.smi:1567
    47    49     1
SMALL
NO_CHARGES


@<TRIPOS>ATOM
      1 ****        -3.9680   2.4656  -1.1804 O.3            1 S1                 0.0000
      2 ****        -3.3693   1.8309  -0.0707 C.3            1 S1                 0.0000
      3 ****        -1.8429   1.7904  -0.2297 C.3            1 S1                 0.0000
      4 ****        -1.3704   0.8512  -1.3523 C.3            1 S1                 0.0000
      5 ****         0.1253   0.7096  -1.3973 C.2            1 S1                 0.0000
      6 ****         0.8974   1.7697  -1.6429 N.2            1 S1                 0.0000
      7 ****         2.1714   1.2427  -1.6011 C.ar           1 S1                 0.0000
      8 ****         3.4285   1.8652  -1.7717 C.ar           1 S1                 0.0000
      9 ****         4.6160   1.1093  -1.6876 C.ar           1 S1                 0.0000
     10 ****         4.5626  -0.2766  -1.4345 C.ar           1 S1                 0.0000
     11 ****         3.3196  -0.9157  -1.2629 C.ar           1 S1                 0.0000
     12 ****         2.1369  -0.1558  -1.3448 C.ar           1 S1                 0.0000
     13 ****         0.7853  -0.4695  -1.2282 N.pl3          1 S1                 0.0000
     14 ****         0.2614  -1.8107  -0.9906 C.3            1 S1                 0.0000
     15 ****         0.4168  -2.2626   0.4750 C.3            1 S1                 0.0000
     16 ****         0.0816  -3.6337   0.5447 O.3            1 S1                 0.0000
     17 ****        -0.4049  -1.4251   1.4471 C.ar           1 S1                 0.0000
     18 ****        -1.8059  -1.5923   1.5193 C.ar           1 S1                 0.0000
     19 ****        -2.5691  -0.8299   2.4243 C.ar           1 S1                 0.0000
     20 ****        -3.9116  -0.9945   2.4835 F              1 S1                 0.0000
     21 ****        -1.9368   0.1056   3.2647 C.ar           1 S1                 0.0000
     22 ****        -0.5418   0.2823   3.1938 C.ar           1 S1                 0.0000
     23 ****         0.2233  -0.4767   2.2866 C.ar           1 S1                 0.0000
     24 ****         1.5632  -0.2863   2.2271 F              1 S1                 0.0000
     25 ****        -3.7608   1.9718  -1.9591 H              1 S1                 0.0000
     26 ****        -3.6358   2.3861   0.8290 H              1 S1                 0.0000
     27 ****        -3.7770   0.8258   0.0394 H              1 S1                 0.0000
     28 ****        -1.4604   2.7986  -0.3942 H              1 S1                 0.0000
     29 ****        -1.4088   1.4567   0.7112 H              1 S1                 0.0000
     30 ****        -1.8534  -0.1139  -1.2264 H              1 S1                 0.0000
     31 ****        -1.7043   1.2301  -2.3187 H              1 S1                 0.0000
     32 ****         3.4792   2.9260  -1.9679 H              1 S1                 0.0000
     33 ****         5.5717   1.5950  -1.8190 H              1 S1                 0.0000
     34 ****         5.4766  -0.8488  -1.3727 H              1 S1                 0.0000
     35 ****         3.2762  -1.9772  -1.0696 H              1 S1                 0.0000
     36 ****        -0.7701  -1.8939  -1.3251 H              1 S1                 0.0000
     37 ****         0.8220  -2.4895  -1.6349 H              1 S1                 0.0000
     38 ****         1.4691  -2.2009   0.7528 H              1 S1                 0.0000
     39 ****         0.2855  -3.9479   1.4124 H              1 S1                 0.0000
     40 ****        -2.3008  -2.3072   0.8784 H              1 S1                 0.0000
     41 ****        -2.5214   0.6911   3.9589 H              1 S1                 0.0000
     42 ****        -0.0576   1.0047   3.8340 H              1 S1                 0.0000
     43 ****        -3.6132   3.3965  -1.2677 LP             1 S1                 0.0000
     44 ****        -4.9596   2.4972  -1.0556 LP             1 S1                 0.0000
     45 ****         0.6203   2.7150  -1.8151 LP             1 S1                 0.0000
     46 ****         0.6106  -4.1453  -0.1324 LP             1 S1                 0.0000
     47 ****        -0.8947  -3.7520   0.3637 LP             1 S1                 0.0000
@<TRIPOS>BOND
    1    1    2 1     
    2    1   25 1     
    3    2    3 1     
    4    2   26 1     
    5    2   27 1     
    6    3    4 1     
    7    3   28 1     
    8    3   29 1     
    9    4    5 1     
   10    4   30 1     
   11    4   31 1     
   12    5   13 1     
   13    5    6 2     
   14    6    7 1     
   15    7   12 ar    
   16    7    8 ar    
   17    8    9 ar    
   18    8   32 1     
   19    9   10 ar    
   20    9   33 1     
   21   10   11 ar    
   22   10   34 1     
   23   11   12 ar    
   24   11   35 1     
   25   12   13 1     
   26   13   14 1     
   27   14   15 1     
   28   14   36 1     
   29   14   37 1     
   30   15   16 1     
   31   15   17 1     
   32   15   38 1     
   33   16   39 1     
   34   17   23 ar    
   35   17   18 ar    
   36   18   19 ar    
   37   18   40 1     
   38   19   20 1     
   39   19   21 ar    
   40   21   22 ar    
   41   21   41 1     
   42   22   23 ar    
   43   22   42 1     
   44   23   24 1     
   45    1   43 1     
   46    1   44 1     
   47    6   45 1     
   48   16   46 1     
   49   16   47 1     
@<TRIPOS>SUBSTRUCTURE
      1 S1             1
@<TRIPOS>SET
LONE_PAIRS      STATIC     ATOMS    <user>   **** ""
5 43 44 45 46 47
DONOR_HYDROGENS      STATIC     ATOMS    <user>   **** ""
2 25 39
ATOM$BLUE        STATIC     ATOMS    COLORGROUP SYSTEM
5 43 44 45 46 47
ATOM$RED        STATIC     ATOMS    COLORGROUP SYSTEM
2 25 39
