AV-unprocessed.smi:67|AV-procd|sdf|631|dock6
  -GOLD-   2262016523D 1   1.00000     0.00000
 Structure written by MMmdl.
 49 51  0  0  0  0  0  0  0  0  3 V2000
  147.7713  137.1790  154.2000 O   0  0  0  0  0  0  0  0  0  0  0  0
  147.2845  138.5004  154.0373 C   0  0  1  0  0  0  0  0  0  0  0  0
  147.7252  139.3374  155.2614 C   0  0  0  0  0  0  0  0  0  0  0  0
  149.1961  139.5627  155.3052 N   0  3  2  0  0  0  0  0  0  0  0  0
  149.9392  138.4068  155.8707 C   0  0  0  0  0  0  0  0  0  0  0  0
  151.4606  138.6130  155.7620 C   0  0  0  0  0  0  0  0  0  0  0  0
  151.9106  139.9221  156.4297 C   0  0  2  0  0  0  0  0  0  0  0  0
  151.7021  139.7850  157.8341 O   0  0  0  0  0  0  0  0  0  0  0  0
  152.2943  140.6706  158.7114 C   0  0  0  0  0  0  0  0  0  0  0  0
  153.2186  140.3094  159.7238 C   0  0  0  0  0  0  0  0  0  0  0  0
  153.7629  141.2909  160.5736 C   0  0  0  0  0  0  0  0  0  0  0  0
  153.3948  142.6405  160.4253 C   0  0  0  0  0  0  0  0  0  0  0  0
  152.4794  143.0182  159.4206 C   0  0  0  0  0  0  0  0  0  0  0  0
  152.0640  144.4720  159.2524 C   0  0  0  0  0  0  0  0  0  0  0  0
  152.6557  145.0030  158.1819 F   0  0  0  0  0  0  0  0  0  0  0  0
  150.7433  144.5348  159.0887 F   0  0  0  0  0  0  0  0  0  0  0  0
  152.3990  145.2002  160.3183 F   0  0  0  0  0  0  0  0  0  0  0  0
  151.9332  142.0271  158.5772 C   0  0  0  0  0  0  0  0  0  0  0  0
  151.0888  141.0935  155.8548 C   0  0  0  0  0  0  0  0  0  0  0  0
  149.5778  140.8336  155.9754 C   0  0  0  0  0  0  0  0  0  0  0  0
  147.7221  139.0476  152.6745 C   0  0  0  0  0  0  0  0  0  0  0  0
  146.7303  138.4249  151.6915 C   0  0  0  0  0  0  0  0  0  0  0  0
  145.4724  138.2528  152.4417 N   0  3  0  0  0  0  0  0  0  0  0  0
  145.7545  138.4250  153.8824 C   0  0  0  0  0  0  0  0  0  0  0  0
  148.3331  136.9659  153.4696 H   0  0  0  0  0  0  0  0  0  0  0  0
  147.1998  140.2934  155.2858 H   0  0  0  0  0  0  0  0  0  0  0  0
  147.4047  138.8100  156.1616 H   0  0  0  0  0  0  0  0  0  0  0  0
  149.6497  138.2598  156.9127 H   0  0  0  0  0  0  0  0  0  0  0  0
  149.6663  137.4972  155.3340 H   0  0  0  0  0  0  0  0  0  0  0  0
  151.9843  137.7674  156.2091 H   0  0  0  0  0  0  0  0  0  0  0  0
  151.7470  138.6272  154.7095 H   0  0  0  0  0  0  0  0  0  0  0  0
  152.9715  140.0494  156.2132 H   0  0  0  0  0  0  0  0  0  0  0  0
  153.5295  139.2873  159.8733 H   0  0  0  0  0  0  0  0  0  0  0  0
  154.4645  141.0064  161.3441 H   0  0  0  0  0  0  0  0  0  0  0  0
  153.8173  143.3808  161.0887 H   0  0  0  0  0  0  0  0  0  0  0  0
  151.2240  142.3101  157.8131 H   0  0  0  0  0  0  0  0  0  0  0  0
  151.3399  142.0298  156.3520 H   0  0  0  0  0  0  0  0  0  0  0  0
  151.3466  141.2324  154.8042 H   0  0  0  0  0  0  0  0  0  0  0  0
  149.0390  141.6705  155.5343 H   0  0  0  0  0  0  0  0  0  0  0  0
  149.2873  140.7949  157.0265 H   0  0  0  0  0  0  0  0  0  0  0  0
  147.6018  140.1318  152.6546 H   0  0  0  0  0  0  0  0  0  0  0  0
  148.7605  138.8221  152.4274 H   0  0  0  0  0  0  0  0  0  0  0  0
  146.5862  139.0328  150.7980 H   0  0  0  0  0  0  0  0  0  0  0  0
  147.0813  137.4413  151.3767 H   0  0  0  0  0  0  0  0  0  0  0  0
  144.8013  138.9493  152.1502 H   0  0  0  0  0  0  0  0  0  0  0  0
  145.2993  137.6327  154.4786 H   0  0  0  0  0  0  0  0  0  0  0  0
  145.2963  139.3659  154.1902 H   0  0  0  0  0  0  0  0  0  0  0  0
  145.1001  137.3303  152.2652 H   0  0  0  0  0  0  0  0  0  0  0  0
  149.4945  139.6365  154.3427 H   0  0  0  0  0  0  0  0  0  0  0  0
  1  2  1  0  0  0  0
  1 25  1  0  0  0  0
  2 24  1  0  0  0  0
  2  3  1  0  0  0  0
  2 21  1  0  0  0  0
  3  4  1  0  0  0  0
  3 26  1  0  0  0  0
  3 27  1  0  0  0  0
  4 20  1  0  0  0  0
  4  5  1  0  0  0  0
  4 49  1  0  0  0  0
  5  6  1  0  0  0  0
  5 28  1  0  0  0  0
  5 29  1  0  0  0  0
  6  7  1  0  0  0  0
  6 30  1  0  0  0  0
  6 31  1  0  0  0  0
  7  8  1  0  0  0  0
  7 19  1  0  0  0  0
  7 32  1  0  0  0  0
  8  9  1  0  0  0  0
  9 18  1  0  0  0  0
  9 10  2  0  0  0  0
 10 11  1  0  0  0  0
 10 33  1  0  0  0  0
 11 12  2  0  0  0  0
 11 34  1  0  0  0  0
 12 13  1  0  0  0  0
 12 35  1  0  0  0  0
 13 14  1  0  0  0  0
 13 18  2  0  0  0  0
 14 15  1  0  0  0  0
 14 16  1  0  0  0  0
 14 17  1  0  0  0  0
 18 36  1  0  0  0  0
 19 20  1  0  0  0  0
 19 37  1  0  0  0  0
 19 38  1  0  0  0  0
 20 39  1  0  0  0  0
 20 40  1  0  0  0  0
 21 22  1  0  0  0  0
 21 41  1  0  0  0  0
 21 42  1  0  0  0  0
 22 23  1  0  0  0  0
 22 43  1  0  0  0  0
 22 44  1  0  0  0  0
 23 24  1  0  0  0  0
 23 45  1  0  0  0  0
 23 48  1  0  0  0  0
 24 46  1  0  0  0  0
 24 47  1  0  0  0  0
M  CHG  1   4   1
M  CHG  1  23   1
M  END
> <s_m_source_file>
AV-unprocessed.smi

> <i_m_source_file_index>
67

> <i_lp_mmshare_version>
43012

> <i_f3d_flags>
0

> <s_epik_input>
W0NIMl0xW05IXVtDSDJdW0NIMl1bQ0BAXTEoW09IXSlbQ0gyXU4yW0NIMl1bQ0gyXVtDSF0oW0NIMl1bQ0gyXTIpT2MzW2NIXVtjSF1bY0hdYyhDKEYpKEYpRilbY0hdMw==

> <s_epik_cmdline>
J2VwaWtfcHl0aG9uJywgJy1waCcsICc3LjAnLCAnLXRuJywgJzgnLCAnLW1hJywgJzIwMCcsICctbWV0YWxfYmluZGluZycsICctaW1hZScsICc8aW5maWxlLm1hZT4nLCAnLW9tYWUnLCAnPG91dGZpbGUubWFlPic=

> <r_lp_tautomer_probability>
1

> <r_epik_Ionization_Penalty>
0.0989853

> <r_epik_Ionization_Penalty_Charging>
0.0989662

> <r_epik_Ionization_Penalty_Neutral>
1.91014e-05

> <r_epik_State_Penalty>
0.0852826

> <r_epik_Charging_Adjusted_Penalty>
0.184249

> <i_epik_Tot_Q>
2

> <i_epik_Tot_abs_Q>
2

> <r_epik_Metal_State_Penalty>
0.0849414

> <b_epik_Metal_Only>
0

> <s_lp_Force_Field>
OPLS_2005

> <r_lp_Energy>
57.962

> <b_lp_Chiralities_Consistent>
1

> <s_lp_Variant>
AV-unprocessed.smi:67-3

> <Gold.Version>
5.8.1

> <Gold.Id.Protein>
6NUR|6NUR_protein|mol2

> <Gold.PLP.Fitness>
57.9090

> <Gold.PLP.PLP>
-49.9120

> <Gold.PLP.part.hbond>
-2.9200

> <Gold.PLP.part.metal>
0.0000

> <Gold.PLP.part.buried>
-2.8956

> <Gold.PLP.part.nonpolar>
-44.5975

> <Gold.PLP.part.repulsive>
0.0419

> <Gold.PLP.ligand.clash>
0.0785

> <Gold.PLP.ligand.torsion>
1.0259

> <Gold.PLP.Chemscore.Hbond>
3.0000

> <Gold.PLP.Chemscore.CHOScore>
0.0000

> <Gold.PLP.Chemscore.Metal>
0.0000

> <Gold.Chemscore.Hbonds>
donor molecule, donor type, donor heavy atom, donor atom, acceptor molecule, acceptor atom, score
      L1  H     1    25       P1  7948  1.00
      L1  H    23    45       P1 10175  2.00

> <Gold.PLP.Chemscore.Internal.Correction>
1.1272

> <Gold.Rescore>
     Score         DG    S(hbond)    S(metal)    S(lipo)     H(rot)  DE(clash)    DE(int)     intcor
     18.40     -20.85       1.99        0.00     123.40       2.24       1.26       1.18       ----

> <Gold.Chemscore.Fitness>
18.4038

> <Gold.Chemscore.DG>
-20.8532

> <Gold.Chemscore.ZeroCoef>
-5.4800

> <Gold.Chemscore.Hbond>
1.9932

> <Gold.Chemscore.Metal>
0.0000

> <Gold.Chemscore.Lipo>
123.4019

> <Gold.Chemscore.Internal_Hbond>
0.0000

> <Gold.Chemscore.DEClash>
1.2647

> <Gold.Chemscore.DEInternal>
1.1847

> <Gold.Chemscore.Rot>
2.2352

> <Gold.Chemscore.Internal.Correction>
   9.000000E+99

> <Gold.Chemscore.Hbonds>
donor molecule, donor type, donor heavy atom, donor atom, acceptor molecule, acceptor atom, score
      L1  H     1    25       P1  7948  1.00
      L1  H    23    45       P1 10175  0.97

> <Gold.Chemscore.Hbond.Weighted>
-6.6573

> <Gold.Chemscore.Metal.Weighted>
-0.0000

> <Gold.Chemscore.Lipo.Weighted>
-14.4380

> <Gold.Chemscore.Internal_Hbond.Weighted>
0.0000

> <Gold.Chemscore.DEClash.Weighted>
1.2647

> <Gold.Chemscore.DEInternal.Weighted>
1.1847

> <Gold.Chemscore.Rot.Weighted>
5.7221

> <Gold.Chemscore.Internal.Correction.Weighted>
   9.000000E+99

> <Gold.Protein.RotatedTorsions>
[ 6907 6896 6895 6894 ] final  144.85 input  -60.11 | X-H torsion
[ 7974 7965 7964 7962 ] final   71.28 input  175.53 | X-H torsion
[ 8008 7997 7996 7995 ] final   65.81 input   59.86 | X-H torsion
[ 10167 10162 10161 10158 ] final  121.90 input  -65.29 | X-H torsion
[ 10718 10713 10712 10709 ] final  134.71 input   66.30 | X-H torsion
[ 10763 10752 10751 10750 ] final  121.81 input  -60.55 | X-H torsion
[ 11005 11000 10999 10996 ] final   66.18 input  -57.11 | X-H torsion

> <Gold.Protein.ActiveResidues>
 VAL166  LYS551  ARG553  GLY616  TRP617  ASP618  TYR619  PRO620  LYS621  CYS622 
 ASP623  PHE694  ASN695  SER759  ASP760  ASP761  ALA762  ILE779  LEU786  VAL792 
 PHE793  MET794  SER795  GLU796  ALA797  LYS798  CYS799  TRP800  GLU811  SER814 

> <Gold.Protein.RotatedAtoms>
  152.1884  133.4755  159.4994 H   0  0  0  0  0  0  0  0  0  0  0  0  # atno 6907 bound_to 6896
  150.6946  134.1744  159.4234 H   0  0  0  0  0  0  0  0  0  0  0  0  # atno 6908 bound_to 6896
  151.9658  135.0101  160.0601 H   0  0  0  0  0  0  0  0  0  0  0  0  # atno 6909 bound_to 6896
  145.7677  139.2829  143.1339 H   0  0  0  0  0  0  0  0  0  0  0  0  # atno 7974 bound_to 7965
  155.6676  140.3497  155.4806 H   0  0  0  0  0  0  0  0  0  0  0  0  # atno 8008 bound_to 7997
  155.9716  140.1157  157.0830 H   0  0  0  0  0  0  0  0  0  0  0  0  # atno 8009 bound_to 7997
  154.4168  140.1156  156.5300 H   0  0  0  0  0  0  0  0  0  0  0  0  # atno 8010 bound_to 7997
  139.5891  144.7018  151.3334 H   0  0  0  0  0  0  0  0  0  0  0  0  # atno 10167 bound_to 10162
  157.4645  131.1076  150.9879 H   0  0  0  0  0  0  0  0  0  0  0  0  # atno 10718 bound_to 10713
  153.6199  135.3415  155.3007 H   0  0  0  0  0  0  0  0  0  0  0  0  # atno 10763 bound_to 10752
  154.8602  135.4270  154.2218 H   0  0  0  0  0  0  0  0  0  0  0  0  # atno 10764 bound_to 10752
  153.3089  135.7030  153.7207 H   0  0  0  0  0  0  0  0  0  0  0  0  # atno 10765 bound_to 10752
  139.9848  134.6686  156.0197 H   0  0  0  0  0  0  0  0  0  0  0  0  # atno 11005 bound_to 11000
  146.0201  140.8356  142.9928 LP  0  0  0  0  0  0  0  0  0  0  0  0  # atno 17320 bound_to 7965
  144.6818  140.2615  143.7318 LP  0  0  0  0  0  0  0  0  0  0  0  0  # atno 17321 bound_to 7965
  140.7158  143.7271  150.7652 LP  0  0  0  0  0  0  0  0  0  0  0  0  # atno 17342 bound_to 10162
  140.0822  143.4958  152.2524 LP  0  0  0  0  0  0  0  0  0  0  0  0  # atno 17343 bound_to 10162
  157.0665  130.5847  149.5395 LP  0  0  0  0  0  0  0  0  0  0  0  0  # atno 17370 bound_to 10713
  156.0044  130.5128  150.7777 LP  0  0  0  0  0  0  0  0  0  0  0  0  # atno 17371 bound_to 10713
  141.1514  133.6548  156.4026 LP  0  0  0  0  0  0  0  0  0  0  0  0  # atno 17394 bound_to 11000
  140.5025  134.6472  157.5254 LP  0  0  0  0  0  0  0  0  0  0  0  0  # atno 17395 bound_to 11000

$$$$
