AV-unprocessed.smi:672|AV-procd|sdf|3296|dock10
  -GOLD-   22720 0253D 1   1.00000     0.00000
 Structure written by MMmdl.
 35 36  0  0  0  0  0  0  0  0  2 V2000
  148.7133  135.0673  155.0191 C   0  0  0  0  0  0  0  0  0  0  0  0
  150.2231  134.8401  154.8875 C   0  0  0  0  0  0  0  0  0  0  0  0
  151.0162  136.0633  155.2055 C   0  0  0  0  0  0  0  0  0  0  0  0
  151.8067  136.6669  154.3140 N   0  0  0  0  0  0  0  0  0  0  0  0
  152.4609  137.7645  154.8538 N   0  0  0  0  0  0  0  0  0  0  0  0
  152.1765  137.9609  156.1492 C   0  0  0  0  0  0  0  0  0  0  0  0
  152.7082  138.9687  156.8600 N   0  5  0  0  0  0  0  0  0  0  0  0
  151.9287  139.6841  157.7023 C   0  0  0  0  0  0  0  0  0  0  0  0
  150.6977  139.6468  157.7685 O   0  0  0  0  0  0  0  0  0  0  0  0
  152.6172  140.5004  158.5130 N   0  0  0  0  0  0  0  0  0  0  0  0
  152.0448  141.3983  159.5143 C   0  0  1  0  0  0  0  0  0  0  0  0
  153.0991  141.7783  160.5726 C   0  0  0  0  0  0  0  0  0  0  0  0
  153.0808  143.3062  160.6651 C   0  0  0  0  0  0  0  0  0  0  0  0
  152.6278  143.7654  159.2815 C   0  0  2  0  0  0  0  0  0  0  0  0
  151.9898  145.4655  159.2835 S   0  0  0  0  0  0  0  0  0  0  0  0
  150.3947  145.2072  160.1049 C   0  0  0  0  0  0  0  0  0  0  0  0
  151.5777  142.7255  158.8844 C   0  0  0  0  0  0  0  0  0  0  0  0
  151.0350  136.7876  156.8045 S   0  0  0  0  0  0  0  0  0  0  0  0
  148.1610  134.1591  154.7778 H   0  0  0  0  0  0  0  0  0  0  0  0
  148.3748  135.8531  154.3433 H   0  0  0  0  0  0  0  0  0  0  0  0
  148.4463  135.3612  156.0346 H   0  0  0  0  0  0  0  0  0  0  0  0
  150.5377  134.0332  155.5502 H   0  0  0  0  0  0  0  0  0  0  0  0
  150.4633  134.5222  153.8726 H   0  0  0  0  0  0  0  0  0  0  0  0
  153.6227  140.4978  158.4246 H   0  0  0  0  0  0  0  0  0  0  0  0
  151.2005  140.9046  159.9991 H   0  0  0  0  0  0  0  0  0  0  0  0
  152.8967  141.3130  161.5377 H   0  0  0  0  0  0  0  0  0  0  0  0
  154.0931  141.4516  160.2627 H   0  0  0  0  0  0  0  0  0  0  0  0
  152.3535  143.6157  161.4171 H   0  0  0  0  0  0  0  0  0  0  0  0
  154.0491  143.7196  160.9487 H   0  0  0  0  0  0  0  0  0  0  0  0
  153.4739  143.7048  158.5953 H   0  0  0  0  0  0  0  0  0  0  0  0
  149.8452  146.1469  160.1596 H   0  0  0  0  0  0  0  0  0  0  0  0
  150.5397  144.8352  161.1191 H   0  0  0  0  0  0  0  0  0  0  0  0
  149.7928  144.4863  159.5515 H   0  0  0  0  0  0  0  0  0  0  0  0
  151.4436  142.6694  157.8033 H   0  0  0  0  0  0  0  0  0  0  0  0
  150.6116  142.9980  159.3116 H   0  0  0  0  0  0  0  0  0  0  0  0
  1  2  1  0  0  0  0
  1 19  1  0  0  0  0
  1 20  1  0  0  0  0
  1 21  1  0  0  0  0
  2  3  1  0  0  0  0
  2 22  1  0  0  0  0
  2 23  1  0  0  0  0
  3 18  1  0  0  0  0
  3  4  2  0  0  0  0
  4  5  1  0  0  0  0
  5  6  2  0  0  0  0
  6  7  1  0  0  0  0
  6 18  1  0  0  0  0
  7  8  1  0  0  0  0
  8  9  2  0  0  0  0
  8 10  1  0  0  0  0
 10 11  1  0  0  0  0
 10 24  1  0  0  0  0
 11 17  1  0  0  0  0
 11 12  1  0  0  0  0
 11 25  1  0  0  0  0
 12 13  1  0  0  0  0
 12 26  1  0  0  0  0
 12 27  1  0  0  0  0
 13 14  1  0  0  0  0
 13 28  1  0  0  0  0
 13 29  1  0  0  0  0
 14 15  1  0  0  0  0
 14 17  1  0  0  0  0
 14 30  1  0  0  0  0
 15 16  1  0  0  0  0
 16 31  1  0  0  0  0
 16 32  1  0  0  0  0
 16 33  1  0  0  0  0
 17 34  1  0  0  0  0
 17 35  1  0  0  0  0
M  CHG  1   7  -1
M  END
> <s_m_source_file>
AV-unprocessed.smi

> <i_m_source_file_index>
672

> <i_lp_mmshare_version>
43012

> <i_f3d_flags>
0

> <s_epik_input>
W0NIM11bQ0gyXWMxbm5jKHMxKVtOSF1DKD1PKVtOSF1bQ0BASF0yW0NIMl1bQ0gyXVtDQEhdKFtDSDJdMilTW0NIM10=

> <s_epik_cmdline>
J2VwaWtfcHl0aG9uJywgJy1waCcsICc3LjAnLCAnLXRuJywgJzgnLCAnLW1hJywgJzIwMCcsICctbWV0YWxfYmluZGluZycsICctaW1hZScsICc8aW5maWxlLm1hZT4nLCAnLW9tYWUnLCAnPG91dGZpbGUubWFlPic=

> <r_lp_tautomer_probability>
1

> <r_epik_Ionization_Penalty>
4.49964

> <r_epik_Ionization_Penalty_Charging>
4.32991

> <r_epik_Ionization_Penalty_Neutral>
0.169727

> <r_epik_State_Penalty>
4.32952

> <r_epik_Charging_Adjusted_Penalty>
8.65943

> <i_epik_Tot_Q>
-1

> <i_epik_Tot_abs_Q>
1

> <r_epik_Metal_State_Penalty>
0.740482

> <b_epik_Metal_Only>
1

> <s_lp_Force_Field>
OPLS_2005

> <r_lp_Energy>
9.75318

> <b_lp_Chiralities_Consistent>
1

> <s_lp_Variant>
AV-unprocessed.smi:672-8

> <Gold.Version>
5.8.1

> <Gold.Id.Protein>
6NUR|6NUR_protein|mol2

> <Gold.PLP.Fitness>
39.1813

> <Gold.PLP.PLP>
-31.7838

> <Gold.PLP.part.hbond>
-2.8117

> <Gold.PLP.part.metal>
0.0000

> <Gold.PLP.part.buried>
-4.1730

> <Gold.PLP.part.nonpolar>
-25.5606

> <Gold.PLP.part.repulsive>
1.1488

> <Gold.PLP.ligand.clash>
0.0000

> <Gold.PLP.ligand.torsion>
0.7997

> <Gold.PLP.Chemscore.Hbond>
2.9920

> <Gold.PLP.Chemscore.CHOScore>
0.0000

> <Gold.PLP.Chemscore.Metal>
0.0000

> <Gold.Chemscore.Hbonds>
donor molecule, donor type, donor heavy atom, donor atom, acceptor molecule, acceptor atom, score
      P1  H  7997  8009       L1     7  2.00
      P1  H 10752 10764       L1     4  1.00

> <Gold.PLP.Chemscore.Internal.Correction>
0.0210

> <Gold.Rescore>
     Score         DG    S(hbond)    S(metal)    S(lipo)     H(rot)  DE(clash)    DE(int)     intcor
     15.39     -16.94       1.17        0.00      93.99       1.34       0.75       0.80       ----

> <Gold.Chemscore.Fitness>
15.3856

> <Gold.Chemscore.DG>
-16.9357

> <Gold.Chemscore.ZeroCoef>
-5.4800

> <Gold.Chemscore.Hbond>
1.1652

> <Gold.Chemscore.Metal>
0.0000

> <Gold.Chemscore.Lipo>
93.9904

> <Gold.Chemscore.Internal_Hbond>
0.0000

> <Gold.Chemscore.DEClash>
0.7512

> <Gold.Chemscore.DEInternal>
0.7989

> <Gold.Chemscore.Rot>
1.3410

> <Gold.Chemscore.Internal.Correction>
   9.000000E+99

> <Gold.Chemscore.Hbonds>
donor molecule, donor type, donor heavy atom, donor atom, acceptor molecule, acceptor atom, score
      P1  H  7997  8009       L1     7  0.56
      P1  H 10752 10764       L1     4  0.17

> <Gold.Chemscore.Hbond.Weighted>
-3.8917

> <Gold.Chemscore.Metal.Weighted>
-0.0000

> <Gold.Chemscore.Lipo.Weighted>
-10.9969

> <Gold.Chemscore.Internal_Hbond.Weighted>
0.0000

> <Gold.Chemscore.DEClash.Weighted>
0.7512

> <Gold.Chemscore.DEInternal.Weighted>
0.7989

> <Gold.Chemscore.Rot.Weighted>
3.4329

> <Gold.Chemscore.Internal.Correction.Weighted>
   9.000000E+99

> <Gold.Protein.RotatedTorsions>
[ 6907 6896 6895 6894 ] final   69.70 input  -60.11 | X-H torsion
[ 7974 7965 7964 7962 ] final   67.68 input  175.53 | X-H torsion
[ 8008 7997 7996 7995 ] final -169.53 input   59.86 | X-H torsion
[ 10167 10162 10161 10158 ] final   49.13 input  -65.29 | X-H torsion
[ 10718 10713 10712 10709 ] final   -7.79 input   66.30 | X-H torsion
[ 10763 10752 10751 10750 ] final  -94.11 input  -60.55 | X-H torsion
[ 11005 11000 10999 10996 ] final -112.97 input  -57.11 | X-H torsion

> <Gold.Protein.ActiveResidues>
 VAL166  LYS551  ARG553  GLY616  TRP617  ASP618  TYR619  PRO620  LYS621  CYS622 
 ASP623  PHE694  ASN695  SER759  ASP760  ASP761  ALA762  ILE779  LEU786  VAL792 
 PHE793  MET794  SER795  GLU796  ALA797  LYS798  CYS799  TRP800  GLU811  SER814 

> <Gold.Protein.RotatedAtoms>
  152.4703  134.4977  159.9714 H   0  0  0  0  0  0  0  0  0  0  0  0  # atno 6907 bound_to 6896
  151.5006  133.3499  159.2876 H   0  0  0  0  0  0  0  0  0  0  0  0  # atno 6908 bound_to 6896
  150.8709  134.8110  159.7215 H   0  0  0  0  0  0  0  0  0  0  0  0  # atno 6909 bound_to 6896
  145.8117  139.3036  143.1095 H   0  0  0  0  0  0  0  0  0  0  0  0  # atno 7974 bound_to 7965
  155.9062  140.1049  157.1313 H   0  0  0  0  0  0  0  0  0  0  0  0  # atno 8008 bound_to 7997
  154.4033  140.1283  156.4563 H   0  0  0  0  0  0  0  0  0  0  0  0  # atno 8009 bound_to 7997
  155.7364  140.3467  155.5086 H   0  0  0  0  0  0  0  0  0  0  0  0  # atno 8010 bound_to 7997
  140.2861  144.3100  150.6252 H   0  0  0  0  0  0  0  0  0  0  0  0  # atno 10167 bound_to 10162
  156.7121  130.5125  149.5889 H   0  0  0  0  0  0  0  0  0  0  0  0  # atno 10718 bound_to 10713
  154.7024  135.5169  153.8546 H   0  0  0  0  0  0  0  0  0  0  0  0  # atno 10763 bound_to 10752
  153.0714  135.6602  154.0248 H   0  0  0  0  0  0  0  0  0  0  0  0  # atno 10764 bound_to 10752
  154.0105  135.3002  155.3372 H   0  0  0  0  0  0  0  0  0  0  0  0  # atno 10765 bound_to 10752
  141.0643  133.9485  157.2609 H   0  0  0  0  0  0  0  0  0  0  0  0  # atno 11005 bound_to 11000
  145.9770  140.8714  143.0133 LP  0  0  0  0  0  0  0  0  0  0  0  0  # atno 17320 bound_to 7965
  144.6757  140.2026  143.7385 LP  0  0  0  0  0  0  0  0  0  0  0  0  # atno 17321 bound_to 7965
  140.5771  143.2175  151.7495 LP  0  0  0  0  0  0  0  0  0  0  0  0  # atno 17342 bound_to 10162
  139.4950  144.4133  152.0057 LP  0  0  0  0  0  0  0  0  0  0  0  0  # atno 17343 bound_to 10162
  156.1654  130.6401  151.0771 LP  0  0  0  0  0  0  0  0  0  0  0  0  # atno 17370 bound_to 10713
  157.6932  131.0803  150.7047 LP  0  0  0  0  0  0  0  0  0  0  0  0  # atno 17371 bound_to 10713
  139.9461  135.0184  156.8857 LP  0  0  0  0  0  0  0  0  0  0  0  0  # atno 17394 bound_to 11000
  140.5806  134.0356  155.7462 LP  0  0  0  0  0  0  0  0  0  0  0  0  # atno 17395 bound_to 11000

$$$$
