AV-unprocessed.smi:2356|AV-procd|sdf|9394|dock8
  -GOLD-   2272013 23D 1   1.00000     0.00000
 Structure written by MMmdl.
 53 56  0  0  0  0  0  0  0  0  1 V2000
  151.1661  137.8839  154.4082 C   0  0  0  0  0  0  0  0  0  0  0  0
  150.4596  139.1522  154.8564 C   0  0  0  0  0  0  0  0  0  0  0  0
  151.1726  139.9503  155.6800 N   0  0  0  0  0  0  0  0  0  0  0  0
  150.6182  141.0988  156.1333 C   0  0  0  0  0  0  0  0  0  0  0  0
  151.4013  141.8971  156.9911 N   0  0  0  0  0  0  0  0  0  0  0  0
  151.0591  143.2790  157.2860 C   0  0  0  0  0  0  0  0  0  0  0  0
  152.0556  143.7069  158.3626 C   0  0  0  0  0  0  0  0  0  0  0  0
  152.3177  142.4108  159.1290 C   0  0  0  0  0  0  0  0  0  0  0  0
  152.2058  141.3181  158.0602 C   0  0  0  0  0  0  0  0  0  0  0  0
  149.3105  141.4880  155.7598 C   0  0  0  0  0  0  0  0  0  0  0  0
  148.5665  140.6581  154.9004 C   0  0  0  0  0  0  0  0  0  0  0  0
  149.1489  139.4612  154.4232 C   0  0  0  0  0  0  0  0  0  0  0  0
  148.4723  138.5437  153.5739 N   0  0  0  0  0  0  0  0  0  0  0  0
  147.1496  138.3918  153.3682 C   0  0  0  0  0  0  0  0  0  0  0  0
  146.2727  139.0420  153.9328 O   0  0  0  0  0  0  0  0  0  0  0  0
  146.8432  137.4590  152.4473 N   0  0  0  0  0  0  0  0  0  0  0  0
  145.5146  137.0460  151.9873 C   0  0  1  0  0  0  0  0  0  0  0  0
  145.6366  135.8990  150.9740 C   0  0  0  0  0  0  0  0  0  0  0  0
  144.2436  135.3827  150.5746 C   0  0  0  0  0  0  0  0  0  0  0  0
  143.5142  134.9868  151.7327 O   0  0  0  0  0  0  0  0  0  0  0  0
  143.2843  136.0575  152.6442 C   0  0  1  0  0  0  0  0  0  0  0  0
  142.4095  135.5523  153.7740 C   0  0  0  0  0  0  0  0  0  0  0  0
  141.2563  134.6133  153.5048 C   0  0  0  0  0  0  0  0  0  0  0  0
  140.9857  136.0406  153.9139 C   0  0  0  0  0  0  0  0  0  0  0  0
  144.6363  136.5785  153.1607 C   0  0  0  0  0  0  0  0  0  0  0  0
  151.3338  137.9061  153.3314 H   0  0  0  0  0  0  0  0  0  0  0  0
  150.5656  137.0056  154.6465 H   0  0  0  0  0  0  0  0  0  0  0  0
  152.1348  137.7703  154.8967 H   0  0  0  0  0  0  0  0  0  0  0  0
  151.1315  143.9114  156.4007 H   0  0  0  0  0  0  0  0  0  0  0  0
  150.0378  143.3270  157.6659 H   0  0  0  0  0  0  0  0  0  0  0  0
  152.9797  144.0513  157.8960 H   0  0  0  0  0  0  0  0  0  0  0  0
  151.6772  144.5098  158.9954 H   0  0  0  0  0  0  0  0  0  0  0  0
  153.2801  142.4048  159.6410 H   0  0  0  0  0  0  0  0  0  0  0  0
  151.5384  142.2686  159.8788 H   0  0  0  0  0  0  0  0  0  0  0  0
  151.7612  140.4128  158.4748 H   0  0  0  0  0  0  0  0  0  0  0  0
  153.1885  141.0644  157.6615 H   0  0  0  0  0  0  0  0  0  0  0  0
  148.8648  142.4025  156.1211 H   0  0  0  0  0  0  0  0  0  0  0  0
  147.5611  140.9489  154.6391 H   0  0  0  0  0  0  0  0  0  0  0  0
  149.0708  137.9881  152.9804 H   0  0  0  0  0  0  0  0  0  0  0  0
  147.6229  136.9953  152.0038 H   0  0  0  0  0  0  0  0  0  0  0  0
  145.0288  137.8846  151.4847 H   0  0  0  0  0  0  0  0  0  0  0  0
  146.1808  136.2298  150.0886 H   0  0  0  0  0  0  0  0  0  0  0  0
  146.2116  135.0790  151.4069 H   0  0  0  0  0  0  0  0  0  0  0  0
  143.6888  136.1470  150.0282 H   0  0  0  0  0  0  0  0  0  0  0  0
  144.3394  134.5247  149.9090 H   0  0  0  0  0  0  0  0  0  0  0  0
  142.7539  136.8609  152.1296 H   0  0  0  0  0  0  0  0  0  0  0  0
  142.9458  135.3962  154.7083 H   0  0  0  0  0  0  0  0  0  0  0  0
  141.0530  134.3410  152.4710 H   0  0  0  0  0  0  0  0  0  0  0  0
  141.0622  133.8337  154.2386 H   0  0  0  0  0  0  0  0  0  0  0  0
  140.6127  136.2151  154.9211 H   0  0  0  0  0  0  0  0  0  0  0  0
  140.6050  136.7185  153.1521 H   0  0  0  0  0  0  0  0  0  0  0  0
  145.1469  135.7887  153.7140 H   0  0  0  0  0  0  0  0  0  0  0  0
  144.4710  137.3925  153.8661 H   0  0  0  0  0  0  0  0  0  0  0  0
  1  2  1  0  0  0  0
  1 26  1  0  0  0  0
  1 27  1  0  0  0  0
  1 28  1  0  0  0  0
  2 12  1  0  0  0  0
  2  3  2  0  0  0  0
  3  4  1  0  0  0  0
  4  5  1  0  0  0  0
  4 10  2  0  0  0  0
  5  9  1  0  0  0  0
  5  6  1  0  0  0  0
  6  7  1  0  0  0  0
  6 29  1  0  0  0  0
  6 30  1  0  0  0  0
  7  8  1  0  0  0  0
  7 31  1  0  0  0  0
  7 32  1  0  0  0  0
  8  9  1  0  0  0  0
  8 33  1  0  0  0  0
  8 34  1  0  0  0  0
  9 35  1  0  0  0  0
  9 36  1  0  0  0  0
 10 11  1  0  0  0  0
 10 37  1  0  0  0  0
 11 12  2  0  0  0  0
 11 38  1  0  0  0  0
 12 13  1  0  0  0  0
 13 14  1  0  0  0  0
 13 39  1  0  0  0  0
 14 15  2  0  0  0  0
 14 16  1  0  0  0  0
 16 17  1  0  0  0  0
 16 40  1  0  0  0  0
 17 25  1  0  0  0  0
 17 18  1  0  0  0  0
 17 41  1  0  0  0  0
 18 19  1  0  0  0  0
 18 42  1  0  0  0  0
 18 43  1  0  0  0  0
 19 20  1  0  0  0  0
 19 44  1  0  0  0  0
 19 45  1  0  0  0  0
 20 21  1  0  0  0  0
 21 22  1  0  0  0  0
 21 25  1  0  0  0  0
 21 46  1  0  0  0  0
 22 24  1  0  0  0  0
 22 23  1  0  0  0  0
 22 47  1  0  0  0  0
 23 24  1  0  0  0  0
 23 48  1  0  0  0  0
 23 49  1  0  0  0  0
 24 50  1  0  0  0  0
 24 51  1  0  0  0  0
 25 52  1  0  0  0  0
 25 53  1  0  0  0  0
M  END
> <s_m_source_file>
AV-unprocessed.smi

> <i_m_source_file_index>
2356

> <i_lp_mmshare_version>
43012

> <i_f3d_flags>
0

> <s_epik_input>
W0NIMl0xW0NIMl1bQ0gyXVtDSDJdTjFjKG5jMltDSDNdKVtjSF1bY0hdYzJbTkhdQyg9TylbTkhdW0NAQEhdM1tDSDJdW0NIMl1PW0NASF0oW0NIMl0zKVtDSF00W0NIMl1bQ0gyXTQ=

> <s_epik_cmdline>
J2VwaWtfcHl0aG9uJywgJy1waCcsICc3LjAnLCAnLXRuJywgJzgnLCAnLW1hJywgJzIwMCcsICctbWV0YWxfYmluZGluZycsICctaW1hZScsICc8aW5maWxlLm1hZT4nLCAnLW9tYWUnLCAnPG91dGZpbGUubWFlPic=

> <r_lp_tautomer_probability>
1

> <r_epik_Ionization_Penalty>
0.308781

> <r_epik_Ionization_Penalty_Charging>
0

> <r_epik_Ionization_Penalty_Neutral>
0.308781

> <r_epik_State_Penalty>
0.302092

> <r_epik_Charging_Adjusted_Penalty>
0.302092

> <i_epik_Tot_Q>
0

> <i_epik_Tot_abs_Q>
0

> <r_epik_Metal_State_Penalty>
0.197467

> <b_epik_Metal_Only>
0

> <s_lp_Force_Field>
OPLS_2005

> <r_lp_Energy>
52.5469

> <b_lp_Chiralities_Consistent>
1

> <s_lp_Variant>
AV-unprocessed.smi:2356-2

> <Gold.Version>
5.8.1

> <Gold.Id.Protein>
6NUR|6NUR_protein|mol2

> <Gold.PLP.Fitness>
51.0666

> <Gold.PLP.PLP>
-47.3378

> <Gold.PLP.part.hbond>
-2.8534

> <Gold.PLP.part.metal>
0.0000

> <Gold.PLP.part.buried>
-4.7870

> <Gold.PLP.part.nonpolar>
-42.7986

> <Gold.PLP.part.repulsive>
0.4784

> <Gold.PLP.ligand.clash>
0.0000

> <Gold.PLP.ligand.torsion>
1.3926

> <Gold.PLP.Chemscore.Hbond>
1.7518

> <Gold.PLP.Chemscore.CHOScore>
0.0000

> <Gold.PLP.Chemscore.Metal>
0.0000

> <Gold.Chemscore.Hbonds>
donor molecule, donor type, donor heavy atom, donor atom, acceptor molecule, acceptor atom, score
      L1  H    13    39       P1  7948  0.75
      L1  H    16    40       P1  7948  0.98

> <Gold.PLP.Chemscore.Internal.Correction>
1.2588

> <Gold.Rescore>
     Score         DG    S(hbond)    S(metal)    S(lipo)     H(rot)  DE(clash)    DE(int)     intcor
     19.83     -22.38       1.84        0.00     116.95       1.14       0.31       2.24       ----

> <Gold.Chemscore.Fitness>
19.8291

> <Gold.Chemscore.DG>
-22.3779

> <Gold.Chemscore.ZeroCoef>
-5.4800

> <Gold.Chemscore.Hbond>
1.8359

> <Gold.Chemscore.Metal>
0.0000

> <Gold.Chemscore.Lipo>
116.9489

> <Gold.Chemscore.Internal_Hbond>
0.0000

> <Gold.Chemscore.DEClash>
0.3132

> <Gold.Chemscore.DEInternal>
2.2356

> <Gold.Chemscore.Rot>
1.1395

> <Gold.Chemscore.Internal.Correction>
   9.000000E+99

> <Gold.Chemscore.Hbonds>
donor molecule, donor type, donor heavy atom, donor atom, acceptor molecule, acceptor atom, score
      L1  H    13    39       P1  7948  0.71
      L1  H    16    40       P1  7948  0.92

> <Gold.Chemscore.Hbond.Weighted>
-6.1320

> <Gold.Chemscore.Metal.Weighted>
-0.0000

> <Gold.Chemscore.Lipo.Weighted>
-13.6830

> <Gold.Chemscore.Internal_Hbond.Weighted>
0.0000

> <Gold.Chemscore.DEClash.Weighted>
0.3132

> <Gold.Chemscore.DEInternal.Weighted>
2.2356

> <Gold.Chemscore.Rot.Weighted>
2.9171

> <Gold.Chemscore.Internal.Correction.Weighted>
   9.000000E+99

> <Gold.Protein.RotatedTorsions>
[ 6907 6896 6895 6894 ] final  -65.56 input  -60.11 | X-H torsion
[ 7974 7965 7964 7962 ] final   69.55 input  175.53 | X-H torsion
[ 8008 7997 7996 7995 ] final  135.14 input   59.86 | X-H torsion
[ 10167 10162 10161 10158 ] final -101.79 input  -65.29 | X-H torsion
[ 10718 10713 10712 10709 ] final  -93.74 input   66.30 | X-H torsion
[ 10763 10752 10751 10750 ] final   89.63 input  -60.55 | X-H torsion
[ 11005 11000 10999 10996 ] final -137.87 input  -57.11 | X-H torsion

> <Gold.Protein.ActiveResidues>
 VAL166  LYS551  ARG553  GLY616  TRP617  ASP618  TYR619  PRO620  LYS621  CYS622 
 ASP623  PHE694  ASN695  SER759  ASP760  ASP761  ALA762  ILE779  LEU786  VAL792 
 PHE793  MET794  SER795  GLU796  ALA797  LYS798  CYS799  TRP800  GLU811  SER814 

> <Gold.Protein.RotatedAtoms>
  150.7517  134.6144  159.6102 H   0  0  0  0  0  0  0  0  0  0  0  0  # atno 6907 bound_to 6896
  152.3468  134.7056  160.0257 H   0  0  0  0  0  0  0  0  0  0  0  0  # atno 6908 bound_to 6896
  151.7490  133.3290  159.3423 H   0  0  0  0  0  0  0  0  0  0  0  0  # atno 6909 bound_to 6896
  145.7890  139.2924  143.1221 H   0  0  0  0  0  0  0  0  0  0  0  0  # atno 7974 bound_to 7965
  156.3002  140.2478  156.3532 H   0  0  0  0  0  0  0  0  0  0  0  0  # atno 8008 bound_to 7997
  154.8946  140.0408  157.1878 H   0  0  0  0  0  0  0  0  0  0  0  0  # atno 8009 bound_to 7997
  154.8562  140.2913  155.5571 H   0  0  0  0  0  0  0  0  0  0  0  0  # atno 8010 bound_to 7997
  140.2375  143.3562  152.0831 H   0  0  0  0  0  0  0  0  0  0  0  0  # atno 10167 bound_to 10162
  156.0017  130.5039  150.5822 H   0  0  0  0  0  0  0  0  0  0  0  0  # atno 10718 bound_to 10713
  153.1891  135.4463  155.0126 H   0  0  0  0  0  0  0  0  0  0  0  0  # atno 10763 bound_to 10752
  154.8079  135.3282  154.7386 H   0  0  0  0  0  0  0  0  0  0  0  0  # atno 10764 bound_to 10752
  153.7842  135.6975  153.4938 H   0  0  0  0  0  0  0  0  0  0  0  0  # atno 10765 bound_to 10752
  140.8670  134.2098  157.4674 H   0  0  0  0  0  0  0  0  0  0  0  0  # atno 11005 bound_to 11000
  145.9996  140.8532  143.0025 LP  0  0  0  0  0  0  0  0  0  0  0  0  # atno 17320 bound_to 7965
  144.6784  140.2333  143.7352 LP  0  0  0  0  0  0  0  0  0  0  0  0  # atno 17321 bound_to 7965
  139.5088  144.6857  151.5894 LP  0  0  0  0  0  0  0  0  0  0  0  0  # atno 17342 bound_to 10162
  140.6138  143.9386  150.6473 LP  0  0  0  0  0  0  0  0  0  0  0  0  # atno 17343 bound_to 10162
  157.3700  131.0764  151.1565 LP  0  0  0  0  0  0  0  0  0  0  0  0  # atno 17370 bound_to 10713
  157.2322  130.6530  149.5854 LP  0  0  0  0  0  0  0  0  0  0  0  0  # atno 17371 bound_to 10713
  139.8710  134.9756  156.4891 LP  0  0  0  0  0  0  0  0  0  0  0  0  # atno 17394 bound_to 11000
  140.8617  133.8055  155.9272 LP  0  0  0  0  0  0  0  0  0  0  0  0  # atno 17395 bound_to 11000

$$$$
