AV-unprocessed.smi:694|AV-procd|sdf|3380|dock4
  -GOLD-   22720 0363D 1   1.00000     0.00000
 Structure written by MMmdl.
 42 43  0  0  0  0  0  0  0  0  1 V2000
  151.1494  143.3000  157.0969 C   0  0  0  0  0  0  0  0  0  0  0  0
  151.3191  141.8503  157.1005 N   0  0  0  0  0  0  0  0  0  0  0  0
  152.1368  141.2188  158.1282 C   0  0  0  0  0  0  0  0  0  0  0  0
  150.6032  141.0572  156.1747 C   0  0  0  0  0  0  0  0  0  0  0  0
  149.3921  141.5086  155.5945 C   0  0  0  0  0  0  0  0  0  0  0  0
  148.7213  140.6821  154.6735 C   0  0  0  0  0  0  0  0  0  0  0  0
  149.2687  139.4279  154.3425 C   0  0  0  0  0  0  0  0  0  0  0  0
  148.5577  138.6166  153.4163 N   0  0  0  0  0  0  0  0  0  0  0  0
  147.2296  138.4689  153.2696 C   0  0  0  0  0  0  0  0  0  0  0  0
  146.3682  139.0324  153.9436 O   0  0  0  0  0  0  0  0  0  0  0  0
  146.9462  137.6000  152.2891 N   0  0  0  0  0  0  0  0  0  0  0  0
  145.6016  137.2051  151.8818 C   0  0  0  0  0  0  0  0  0  0  0  0
  145.5724  135.8002  151.2460 C   0  0  2  0  0  0  0  0  0  0  0  0
  144.2094  135.4069  150.6536 C   0  0  0  0  0  0  0  0  0  0  0  0
  144.1130  133.8765  150.7626 C   0  0  0  0  0  0  0  0  0  0  0  0
  145.3622  133.4170  151.5234 C   0  0  0  0  0  0  0  0  0  0  0  0
  145.8766  134.6696  152.2337 C   0  0  1  0  0  0  0  0  0  0  0  0
  147.2552  134.5662  152.5240 O   0  0  0  0  0  0  0  0  0  0  0  0
  150.4740  139.0532  154.9815 C   0  0  0  0  0  0  0  0  0  0  0  0
  151.1195  139.8428  155.8655 N   0  0  0  0  0  0  0  0  0  0  0  0
  150.1112  143.5639  157.3011 H   0  0  0  0  0  0  0  0  0  0  0  0
  151.4296  143.7172  156.1290 H   0  0  0  0  0  0  0  0  0  0  0  0
  151.7705  143.7757  157.8557 H   0  0  0  0  0  0  0  0  0  0  0  0
  152.9406  140.6383  157.6750 H   0  0  0  0  0  0  0  0  0  0  0  0
  151.5318  140.5558  158.7471 H   0  0  0  0  0  0  0  0  0  0  0  0
  152.5925  141.9607  158.7839 H   0  0  0  0  0  0  0  0  0  0  0  0
  148.9643  142.4696  155.8362 H   0  0  0  0  0  0  0  0  0  0  0  0
  147.7963  141.0139  154.2247 H   0  0  0  0  0  0  0  0  0  0  0  0
  149.1333  138.0368  152.8235 H   0  0  0  0  0  0  0  0  0  0  0  0
  147.7153  137.1791  151.7888 H   0  0  0  0  0  0  0  0  0  0  0  0
  144.9300  137.2466  152.7409 H   0  0  0  0  0  0  0  0  0  0  0  0
  145.2348  137.9453  151.1704 H   0  0  0  0  0  0  0  0  0  0  0  0
  146.3096  135.7530  150.4419 H   0  0  0  0  0  0  0  0  0  0  0  0
  143.4001  135.8594  151.2285 H   0  0  0  0  0  0  0  0  0  0  0  0
  144.1057  135.7509  149.6239 H   0  0  0  0  0  0  0  0  0  0  0  0
  143.2104  133.5983  151.3078 H   0  0  0  0  0  0  0  0  0  0  0  0
  144.0584  133.4047  149.7810 H   0  0  0  0  0  0  0  0  0  0  0  0
  145.1570  132.5986  152.2142 H   0  0  0  0  0  0  0  0  0  0  0  0
  146.1053  133.0634  150.8067 H   0  0  0  0  0  0  0  0  0  0  0  0
  145.3205  134.8200  153.1603 H   0  0  0  0  0  0  0  0  0  0  0  0
  147.7150  135.2386  152.0450 H   0  0  0  0  0  0  0  0  0  0  0  0
  150.9433  138.0975  154.8120 H   0  0  0  0  0  0  0  0  0  0  0  0
  1  2  1  0  0  0  0
  1 21  1  0  0  0  0
  1 22  1  0  0  0  0
  1 23  1  0  0  0  0
  2  3  1  0  0  0  0
  2  4  1  0  0  0  0
  3 24  1  0  0  0  0
  3 25  1  0  0  0  0
  3 26  1  0  0  0  0
  4 20  1  0  0  0  0
  4  5  2  0  0  0  0
  5  6  1  0  0  0  0
  5 27  1  0  0  0  0
  6  7  2  0  0  0  0
  6 28  1  0  0  0  0
  7  8  1  0  0  0  0
  7 19  1  0  0  0  0
  8  9  1  0  0  0  0
  8 29  1  0  0  0  0
  9 10  2  0  0  0  0
  9 11  1  0  0  0  0
 11 12  1  0  0  0  0
 11 30  1  0  0  0  0
 12 13  1  0  0  0  0
 12 31  1  0  0  0  0
 12 32  1  0  0  0  0
 13 17  1  0  0  0  0
 13 14  1  0  0  0  0
 13 33  1  0  0  0  0
 14 15  1  0  0  0  0
 14 34  1  0  0  0  0
 14 35  1  0  0  0  0
 15 16  1  0  0  0  0
 15 36  1  0  0  0  0
 15 37  1  0  0  0  0
 16 17  1  0  0  0  0
 16 38  1  0  0  0  0
 16 39  1  0  0  0  0
 17 18  1  0  0  0  0
 17 40  1  0  0  0  0
 18 41  1  0  0  0  0
 19 20  2  0  0  0  0
 19 42  1  0  0  0  0
M  END
> <s_m_source_file>
AV-unprocessed.smi

> <i_m_source_file_index>
694

> <i_lp_mmshare_version>
43012

> <i_f3d_flags>
0

> <s_epik_input>
W0NIM11OKFtDSDNdKWMxW2NIXVtjSF1jKFtjSF1uMSlbTkhdQyg9TylbTkhdW0NIMl1bQ0BASF0yW0NIMl1bQ0gyXVtDSDJdW0NASF0yW09IXQ==

> <s_epik_cmdline>
J2VwaWtfcHl0aG9uJywgJy1waCcsICc3LjAnLCAnLXRuJywgJzgnLCAnLW1hJywgJzIwMCcsICctbWV0YWxfYmluZGluZycsICctaW1hZScsICc8aW5maWxlLm1hZT4nLCAnLW9tYWUnLCAnPG91dGZpbGUubWFlPic=

> <r_lp_tautomer_probability>
1

> <r_epik_Ionization_Penalty>
0.60335

> <r_epik_Ionization_Penalty_Charging>
0

> <r_epik_Ionization_Penalty_Neutral>
0.60335

> <r_epik_State_Penalty>
0.616805

> <r_epik_Charging_Adjusted_Penalty>
0.616805

> <i_epik_Tot_Q>
0

> <i_epik_Tot_abs_Q>
0

> <r_epik_Metal_State_Penalty>
0.301709

> <b_epik_Metal_Only>
0

> <s_lp_Force_Field>
OPLS_2005

> <r_lp_Energy>
26.6001

> <b_lp_Chiralities_Consistent>
1

> <s_lp_Variant>
AV-unprocessed.smi:694-5

> <Gold.Version>
5.8.1

> <Gold.Id.Protein>
6NUR|6NUR_protein|mol2

> <Gold.PLP.Fitness>
41.3756

> <Gold.PLP.PLP>
-34.5618

> <Gold.PLP.part.hbond>
-3.5250

> <Gold.PLP.part.metal>
0.0000

> <Gold.PLP.part.buried>
-2.0470

> <Gold.PLP.part.nonpolar>
-29.9818

> <Gold.PLP.part.repulsive>
0.2696

> <Gold.PLP.ligand.clash>
0.0000

> <Gold.PLP.ligand.torsion>
0.7796

> <Gold.PLP.Chemscore.Hbond>
2.7840

> <Gold.PLP.Chemscore.CHOScore>
0.0000

> <Gold.PLP.Chemscore.Metal>
0.0000

> <Gold.Chemscore.Hbonds>
donor molecule, donor type, donor heavy atom, donor atom, acceptor molecule, acceptor atom, score
      L1  H     8    29       P1  7948  0.77
      L1  H    11    30       P1  7948  0.98
      L1  H    18    41       P1  7948  1.00

> <Gold.PLP.Chemscore.Internal.Correction>
0.0211

> <Gold.Rescore>
     Score         DG    S(hbond)    S(metal)    S(lipo)     H(rot)  DE(clash)    DE(int)     intcor
     17.08     -19.18       2.84        0.00      73.79       1.73       0.09       2.01       ----

> <Gold.Chemscore.Fitness>
17.0832

> <Gold.Chemscore.DG>
-19.1801

> <Gold.Chemscore.ZeroCoef>
-5.4800

> <Gold.Chemscore.Hbond>
2.8398

> <Gold.Chemscore.Metal>
0.0000

> <Gold.Chemscore.Lipo>
73.7907

> <Gold.Chemscore.Internal_Hbond>
0.0000

> <Gold.Chemscore.DEClash>
0.0866

> <Gold.Chemscore.DEInternal>
2.0104

> <Gold.Chemscore.Rot>
1.7259

> <Gold.Chemscore.Internal.Correction>
   9.000000E+99

> <Gold.Chemscore.Hbonds>
donor molecule, donor type, donor heavy atom, donor atom, acceptor molecule, acceptor atom, score
      L1  H     8    29       P1  7948  0.70
      L1  H    11    30       P1  7948  0.87
      L1  H    18    41       P1  7948  0.89

> <Gold.Chemscore.Hbond.Weighted>
-9.4850

> <Gold.Chemscore.Metal.Weighted>
-0.0000

> <Gold.Chemscore.Lipo.Weighted>
-8.6335

> <Gold.Chemscore.Internal_Hbond.Weighted>
0.0000

> <Gold.Chemscore.DEClash.Weighted>
0.0866

> <Gold.Chemscore.DEInternal.Weighted>
2.0104

> <Gold.Chemscore.Rot.Weighted>
4.4184

> <Gold.Chemscore.Internal.Correction.Weighted>
   9.000000E+99

> <Gold.Protein.RotatedTorsions>
[ 6907 6896 6895 6894 ] final  119.28 input  -60.11 | X-H torsion
[ 7974 7965 7964 7962 ] final  128.27 input  175.53 | X-H torsion
[ 8008 7997 7996 7995 ] final   35.47 input   59.86 | X-H torsion
[ 10167 10162 10161 10158 ] final   -6.06 input  -65.29 | X-H torsion
[ 10718 10713 10712 10709 ] final   -4.43 input   66.30 | X-H torsion
[ 10763 10752 10751 10750 ] final   55.35 input  -60.55 | X-H torsion
[ 11005 11000 10999 10996 ] final  125.56 input  -57.11 | X-H torsion

> <Gold.Protein.ActiveResidues>
 VAL166  LYS551  ARG553  GLY616  TRP617  ASP618  TYR619  PRO620  LYS621  CYS622 
 ASP623  PHE694  ASN695  SER759  ASP760  ASP761  ALA762  ILE779  LEU786  VAL792 
 PHE793  MET794  SER795  GLU796  ALA797  LYS798  CYS799  TRP800  GLU811  SER814 

> <Gold.Protein.RotatedAtoms>
  152.4483  133.7579  159.6730 H   0  0  0  0  0  0  0  0  0  0  0  0  # atno 6907 bound_to 6896
  150.8388  133.7959  159.3075 H   0  0  0  0  0  0  0  0  0  0  0  0  # atno 6908 bound_to 6896
  151.5590  135.1068  160.0020 H   0  0  0  0  0  0  0  0  0  0  0  0  # atno 6909 bound_to 6896
  145.0414  139.3960  143.5100 H   0  0  0  0  0  0  0  0  0  0  0  0  # atno 7974 bound_to 7965
  155.1715  140.3292  155.4392 H   0  0  0  0  0  0  0  0  0  0  0  0  # atno 8008 bound_to 7997
  156.2508  140.1942  156.6769 H   0  0  0  0  0  0  0  0  0  0  0  0  # atno 8009 bound_to 7997
  154.6334  140.0579  156.9745 H   0  0  0  0  0  0  0  0  0  0  0  0  # atno 8010 bound_to 7997
  140.6984  143.6237  150.8588 H   0  0  0  0  0  0  0  0  0  0  0  0  # atno 10167 bound_to 10162
  156.7614  130.5270  149.5784 H   0  0  0  0  0  0  0  0  0  0  0  0  # atno 10718 bound_to 10713
  152.9816  135.5714  154.5052 H   0  0  0  0  0  0  0  0  0  0  0  0  # atno 10763 bound_to 10752
  154.4565  135.2780  155.1746 H   0  0  0  0  0  0  0  0  0  0  0  0  # atno 10764 bound_to 10752
  154.3351  135.6241  153.5623 H   0  0  0  0  0  0  0  0  0  0  0  0  # atno 10765 bound_to 10752
  139.9412  134.9635  156.8576 H   0  0  0  0  0  0  0  0  0  0  0  0  # atno 11005 bound_to 11000
  146.3509  140.0017  142.8675 LP  0  0  0  0  0  0  0  0  0  0  0  0  # atno 17320 bound_to 7965
  145.1643  140.9688  143.4359 LP  0  0  0  0  0  0  0  0  0  0  0  0  # atno 17321 bound_to 7965
  139.9957  143.5798  152.2894 LP  0  0  0  0  0  0  0  0  0  0  0  0  # atno 17342 bound_to 10162
  139.6470  144.7658  151.2224 LP  0  0  0  0  0  0  0  0  0  0  0  0  # atno 17343 bound_to 10162
  156.1337  130.6196  151.0369 LP  0  0  0  0  0  0  0  0  0  0  0  0  # atno 17370 bound_to 10713
  157.6733  131.0856  150.7558 LP  0  0  0  0  0  0  0  0  0  0  0  0  # atno 17371 bound_to 10713
  140.5946  134.0229  155.7513 LP  0  0  0  0  0  0  0  0  0  0  0  0  # atno 17394 bound_to 11000
  141.1047  133.9712  157.3017 LP  0  0  0  0  0  0  0  0  0  0  0  0  # atno 17395 bound_to 11000

$$$$
