AV-unprocessed.smi:2658|AV-procd|sdf|10308|dock2
  -GOLD-   2272014323D 1   1.00000     0.00000
 Structure written by MMmdl.
 46 48  0  0  0  0  0  0  0  0  1 V2000
  152.9843  143.1983  161.6207 C   0  0  0  0  0  0  0  0  0  0  0  0
  152.4482  142.7228  160.2818 C   0  0  0  0  0  0  0  0  0  0  0  0
  152.8811  141.4783  159.7712 C   0  0  0  0  0  0  0  0  0  0  0  0
  152.4059  140.9995  158.5307 C   0  0  0  0  0  0  0  0  0  0  0  0
  152.6921  139.8283  157.8504 N   0  0  0  0  0  0  0  0  0  0  0  0
  151.9408  139.9609  156.7612 C   0  0  0  0  0  0  0  0  0  0  0  0
  151.2021  141.0819  156.6544 N   0  0  0  0  0  0  0  0  0  0  0  0
  150.3122  141.4395  155.5637 C   0  0  0  0  0  0  0  0  0  0  0  0
  148.8381  141.1121  155.8709 C   0  0  2  0  0  0  0  0  0  0  0  0
  148.6770  139.7075  155.9110 O   0  0  0  0  0  0  0  0  0  0  0  0
  147.8932  141.6830  154.8019 C   0  0  0  0  0  0  0  0  0  0  0  0
  146.5755  141.7567  155.3385 O   0  0  0  0  0  0  0  0  0  0  0  0
  145.7413  142.7616  154.8943 C   0  0  0  0  0  0  0  0  0  0  0  0
  145.9040  143.2516  153.5846 C   0  0  0  0  0  0  0  0  0  0  0  0
  145.0383  144.2743  153.1540 C   0  0  0  0  0  0  0  0  0  0  0  0
  145.1536  144.8504  151.7553 C   0  0  0  0  0  0  0  0  0  0  0  0
  144.0698  144.7296  154.0767 C   0  0  0  0  0  0  0  0  0  0  0  0
  143.0835  145.8269  153.7224 C   0  0  0  0  0  0  0  0  0  0  0  0
  143.9626  144.2185  155.3254 N   0  0  0  0  0  0  0  0  0  0  0  0
  144.7869  143.2470  155.7303 N   0  0  0  0  0  0  0  0  0  0  0  0
  151.4777  141.8060  157.8094 C   0  0  0  0  0  0  0  0  0  0  0  0
  151.0405  143.0466  158.3061 C   0  0  0  0  0  0  0  0  0  0  0  0
  151.5249  143.5098  159.5473 C   0  0  0  0  0  0  0  0  0  0  0  0
  151.0448  144.8497  160.0761 C   0  0  0  0  0  0  0  0  0  0  0  0
  153.6979  142.4881  162.0392 H   0  0  0  0  0  0  0  0  0  0  0  0
  152.1706  143.3168  162.3366 H   0  0  0  0  0  0  0  0  0  0  0  0
  153.4927  144.1562  161.5111 H   0  0  0  0  0  0  0  0  0  0  0  0
  153.5840  140.8782  160.3301 H   0  0  0  0  0  0  0  0  0  0  0  0
  151.9268  139.1998  155.9947 H   0  0  0  0  0  0  0  0  0  0  0  0
  150.4280  142.5065  155.3695 H   0  0  0  0  0  0  0  0  0  0  0  0
  150.6390  140.9231  154.6602 H   0  0  0  0  0  0  0  0  0  0  0  0
  148.5797  141.5265  156.8462 H   0  0  0  0  0  0  0  0  0  0  0  0
  148.3095  139.4246  155.0875 H   0  0  0  0  0  0  0  0  0  0  0  0
  148.2136  142.6937  154.5419 H   0  0  0  0  0  0  0  0  0  0  0  0
  147.9273  141.0822  153.8910 H   0  0  0  0  0  0  0  0  0  0  0  0
  146.6688  142.8512  152.9355 H   0  0  0  0  0  0  0  0  0  0  0  0
  144.2427  144.6565  151.1886 H   0  0  0  0  0  0  0  0  0  0  0  0
  145.9896  144.4077  151.2135 H   0  0  0  0  0  0  0  0  0  0  0  0
  145.3126  145.9279  151.7978 H   0  0  0  0  0  0  0  0  0  0  0  0
  143.6113  146.7560  153.5054 H   0  0  0  0  0  0  0  0  0  0  0  0
  142.3872  146.0180  154.5399 H   0  0  0  0  0  0  0  0  0  0  0  0
  142.5010  145.5468  152.8444 H   0  0  0  0  0  0  0  0  0  0  0  0
  150.3391  143.6368  157.7350 H   0  0  0  0  0  0  0  0  0  0  0  0
  150.3421  145.3205  159.3879 H   0  0  0  0  0  0  0  0  0  0  0  0
  151.8854  145.5302  160.2130 H   0  0  0  0  0  0  0  0  0  0  0  0
  150.5406  144.7233  161.0345 H   0  0  0  0  0  0  0  0  0  0  0  0
  1  2  1  0  0  0  0
  1 25  1  0  0  0  0
  1 26  1  0  0  0  0
  1 27  1  0  0  0  0
  2 23  1  0  0  0  0
  2  3  2  0  0  0  0
  3  4  1  0  0  0  0
  3 28  1  0  0  0  0
  4 21  2  0  0  0  0
  4  5  1  0  0  0  0
  5  6  2  0  0  0  0
  6  7  1  0  0  0  0
  6 29  1  0  0  0  0
  7  8  1  0  0  0  0
  7 21  1  0  0  0  0
  8  9  1  0  0  0  0
  8 30  1  0  0  0  0
  8 31  1  0  0  0  0
  9 10  1  0  0  0  0
  9 11  1  0  0  0  0
  9 32  1  0  0  0  0
 10 33  1  0  0  0  0
 11 12  1  0  0  0  0
 11 34  1  0  0  0  0
 11 35  1  0  0  0  0
 12 13  1  0  0  0  0
 13 20  1  0  0  0  0
 13 14  2  0  0  0  0
 14 15  1  0  0  0  0
 14 36  1  0  0  0  0
 15 16  1  0  0  0  0
 15 17  2  0  0  0  0
 16 37  1  0  0  0  0
 16 38  1  0  0  0  0
 16 39  1  0  0  0  0
 17 18  1  0  0  0  0
 17 19  1  0  0  0  0
 18 40  1  0  0  0  0
 18 41  1  0  0  0  0
 18 42  1  0  0  0  0
 19 20  2  0  0  0  0
 21 22  1  0  0  0  0
 22 23  2  0  0  0  0
 22 43  1  0  0  0  0
 23 24  1  0  0  0  0
 24 44  1  0  0  0  0
 24 45  1  0  0  0  0
 24 46  1  0  0  0  0
M  END
> <s_m_source_file>
AV-unprocessed.smi

> <i_m_source_file_index>
2658

> <i_lp_mmshare_version>
43012

> <i_f3d_flags>
0

> <s_epik_input>
W0NIM11jKFtjSF0xKWMoW0NIM10pW2NIXWMoYzEyKW4oW2NIXW4yKVtDSDJdW0NASF0oW09IXSlbQ0gyXU9jM1tjSF1jKFtDSDNdKWMoW0NIM10pbm4z

> <s_epik_cmdline>
J2VwaWtfcHl0aG9uJywgJy1waCcsICc3LjAnLCAnLXRuJywgJzgnLCAnLW1hJywgJzIwMCcsICctbWV0YWxfYmluZGluZycsICctaW1hZScsICc8aW5maWxlLm1hZT4nLCAnLW9tYWUnLCAnPG91dGZpbGUubWFlPic=

> <r_lp_tautomer_probability>
1

> <r_epik_Ionization_Penalty>
0.110663

> <r_epik_Ionization_Penalty_Charging>
0

> <r_epik_Ionization_Penalty_Neutral>
0.110663

> <r_epik_State_Penalty>
0.100267

> <r_epik_Charging_Adjusted_Penalty>
0.100267

> <i_epik_Tot_Q>
0

> <i_epik_Tot_abs_Q>
0

> <r_epik_Metal_State_Penalty>
0.0843924

> <b_epik_Metal_Only>
0

> <s_lp_Force_Field>
OPLS_2005

> <r_lp_Energy>
14.8885

> <b_lp_Chiralities_Consistent>
1

> <s_lp_Variant>
AV-unprocessed.smi:2658-1

> <Gold.Version>
5.8.1

> <Gold.Id.Protein>
6NUR|6NUR_protein|mol2

> <Gold.PLP.Fitness>
52.5867

> <Gold.PLP.PLP>
-51.7628

> <Gold.PLP.part.hbond>
-1.0000

> <Gold.PLP.part.metal>
0.0000

> <Gold.PLP.part.buried>
-6.2380

> <Gold.PLP.part.nonpolar>
-44.7784

> <Gold.PLP.part.repulsive>
0.3296

> <Gold.PLP.ligand.clash>
0.0000

> <Gold.PLP.ligand.torsion>
1.0958

> <Gold.PLP.Chemscore.Hbond>
1.0000

> <Gold.PLP.Chemscore.CHOScore>
0.0000

> <Gold.PLP.Chemscore.Metal>
0.0000

> <Gold.Chemscore.Hbonds>
donor molecule, donor type, donor heavy atom, donor atom, acceptor molecule, acceptor atom, score
      P1  H  7997  8009       L1     5  0.86

> <Gold.PLP.Chemscore.Internal.Correction>
0.0156

> <Gold.Rescore>
     Score         DG    S(hbond)    S(metal)    S(lipo)     H(rot)  DE(clash)    DE(int)     intcor
     15.29     -16.51       0.25        0.00     139.66       2.40       0.15       1.07       ----

> <Gold.Chemscore.Fitness>
15.2864

> <Gold.Chemscore.DG>
-16.5082

> <Gold.Chemscore.ZeroCoef>
-5.4800

> <Gold.Chemscore.Hbond>
0.2479

> <Gold.Chemscore.Metal>
0.0000

> <Gold.Chemscore.Lipo>
139.6564

> <Gold.Chemscore.Internal_Hbond>
0.0000

> <Gold.Chemscore.DEClash>
0.1489

> <Gold.Chemscore.DEInternal>
1.0729

> <Gold.Chemscore.Rot>
2.3983

> <Gold.Chemscore.Internal.Correction>
   9.000000E+99

> <Gold.Chemscore.Hbonds>
donor molecule, donor type, donor heavy atom, donor atom, acceptor molecule, acceptor atom, score
      P1  H  7997  8009       L1     5  0.15

> <Gold.Chemscore.Hbond.Weighted>
-0.8280

> <Gold.Chemscore.Metal.Weighted>
-0.0000

> <Gold.Chemscore.Lipo.Weighted>
-16.3398

> <Gold.Chemscore.Internal_Hbond.Weighted>
0.0000

> <Gold.Chemscore.DEClash.Weighted>
0.1489

> <Gold.Chemscore.DEInternal.Weighted>
1.0729

> <Gold.Chemscore.Rot.Weighted>
6.1397

> <Gold.Chemscore.Internal.Correction.Weighted>
   9.000000E+99

> <Gold.Protein.RotatedTorsions>
[ 6907 6896 6895 6894 ] final  158.79 input  -60.11 | X-H torsion
[ 7974 7965 7964 7962 ] final -160.64 input  175.53 | X-H torsion
[ 8008 7997 7996 7995 ] final  152.23 input   59.86 | X-H torsion
[ 10167 10162 10161 10158 ] final   95.30 input  -65.29 | X-H torsion
[ 10718 10713 10712 10709 ] final   48.45 input   66.30 | X-H torsion
[ 10763 10752 10751 10750 ] final -102.60 input  -60.55 | X-H torsion
[ 11005 11000 10999 10996 ] final   76.49 input  -57.11 | X-H torsion

> <Gold.Protein.ActiveResidues>
 VAL166  LYS551  ARG553  GLY616  TRP617  ASP618  TYR619  PRO620  LYS621  CYS622 
 ASP623  PHE694  ASN695  SER759  ASP760  ASP761  ALA762  ILE779  LEU786  VAL792 
 PHE793  MET794  SER795  GLU796  ALA797  LYS798  CYS799  TRP800  GLU811  SER814 

> <Gold.Protein.RotatedAtoms>
  151.9952  133.3805  159.4159 H   0  0  0  0  0  0  0  0  0  0  0  0  # atno 6907 bound_to 6896
  150.6917  134.3894  159.5079 H   0  0  0  0  0  0  0  0  0  0  0  0  # atno 6908 bound_to 6896
  152.1633  134.8894  160.0590 H   0  0  0  0  0  0  0  0  0  0  0  0  # atno 6909 bound_to 6896
  144.7420  140.3512  143.6115 H   0  0  0  0  0  0  0  0  0  0  0  0  # atno 7974 bound_to 7965
  156.2638  140.2026  156.6301 H   0  0  0  0  0  0  0  0  0  0  0  0  # atno 8008 bound_to 7997
  154.6689  140.0552  157.0169 H   0  0  0  0  0  0  0  0  0  0  0  0  # atno 8009 bound_to 7997
  155.1166  140.3220  155.4511 H   0  0  0  0  0  0  0  0  0  0  0  0  # atno 8010 bound_to 7997
  139.8002  144.6817  150.9775 H   0  0  0  0  0  0  0  0  0  0  0  0  # atno 10167 bound_to 10162
  157.4688  130.8242  149.7965 H   0  0  0  0  0  0  0  0  0  0  0  0  # atno 10718 bound_to 10713
  154.7746  135.4854  153.9718 H   0  0  0  0  0  0  0  0  0  0  0  0  # atno 10763 bound_to 10752
  153.1412  135.6773  153.9032 H   0  0  0  0  0  0  0  0  0  0  0  0  # atno 10764 bound_to 10752
  153.8706  135.3144  155.3420 H   0  0  0  0  0  0  0  0  0  0  0  0  # atno 10765 bound_to 10752
  139.9296  134.7605  156.1402 H   0  0  0  0  0  0  0  0  0  0  0  0  # atno 11005 bound_to 11000
  145.7274  139.1726  143.2450 LP  0  0  0  0  0  0  0  0  0  0  0  0  # atno 17320 bound_to 7965
  146.1232  140.7282  142.9447 LP  0  0  0  0  0  0  0  0  0  0  0  0  # atno 17321 bound_to 7965
  140.7820  143.4290  151.0724 LP  0  0  0  0  0  0  0  0  0  0  0  0  # atno 17342 bound_to 10162
  139.7962  143.8148  152.3158 LP  0  0  0  0  0  0  0  0  0  0  0  0  # atno 17343 bound_to 10162
  156.0063  130.3854  150.2420 LP  0  0  0  0  0  0  0  0  0  0  0  0  # atno 17370 bound_to 10713
  157.0601  131.0087  151.3225 LP  0  0  0  0  0  0  0  0  0  0  0  0  # atno 17371 bound_to 10713
  141.0876  133.6727  156.2470 LP  0  0  0  0  0  0  0  0  0  0  0  0  # atno 17394 bound_to 11000
  140.6239  134.5333  157.5551 LP  0  0  0  0  0  0  0  0  0  0  0  0  # atno 17395 bound_to 11000

$$$$
