AV-unprocessed.smi:2143|AV-procd|sdf|8728|dock8
  -GOLD-   2272011493D 1   1.00000     0.00000
 Structure written by MMmdl.
 44 45  0  0  0  0  0  0  0  0  1 V2000
  152.4664  143.8062  161.9437 C   0  0  0  0  0  0  0  0  0  0  0  0
  152.4987  142.4656  161.1906 C   0  0  2  0  0  0  0  0  0  0  0  0
  153.8451  141.7368  161.3770 C   0  0  0  0  0  0  0  0  0  0  0  0
  153.8350  140.3542  160.7062 C   0  0  0  0  0  0  0  0  0  0  0  0
  153.4444  140.4476  159.2234 C   0  0  0  0  0  0  0  0  0  0  0  0
  152.0959  141.1719  159.0464 C   0  0  2  0  0  0  0  0  0  0  0  0
  151.7355  141.2102  157.6307 N   0  0  0  0  0  0  0  0  0  0  0  0
  150.6142  141.7491  157.1289 C   0  0  0  0  0  0  0  0  0  0  0  0
  149.7555  142.2925  157.8252 O   0  0  0  0  0  0  0  0  0  0  0  0
  150.4612  141.6782  155.6035 C   0  0  0  0  0  0  0  0  0  0  0  0
  149.3340  140.8405  155.1737 N   0  0  0  0  0  0  0  0  0  0  0  0
  148.2471  141.4232  154.5477 C   0  0  0  0  0  0  0  0  0  0  0  0
  147.1626  140.7292  154.1392 C   0  0  0  0  0  0  0  0  0  0  0  0
  147.0774  139.2877  154.3389 C   0  0  0  0  0  0  0  0  0  0  0  0
  146.0987  138.6203  154.0022 O   0  0  0  0  0  0  0  0  0  0  0  0
  148.2092  138.7143  154.9667 N   0  0  0  0  0  0  0  0  0  0  0  0
  148.2048  137.2892  155.2262 C   0  0  0  0  0  0  0  0  0  0  0  0
  149.3331  139.4487  155.4074 C   0  0  0  0  0  0  0  0  0  0  0  0
  150.2811  138.9086  155.9832 O   0  0  0  0  0  0  0  0  0  0  0  0
  152.1156  142.5857  159.6913 C   0  0  2  0  0  0  0  0  0  0  0  0
  152.9842  143.5992  158.9100 C   0  0  0  0  0  0  0  0  0  0  0  0
  153.2660  144.4727  161.6209 H   0  0  0  0  0  0  0  0  0  0  0  0
  152.5877  143.6511  163.0161 H   0  0  0  0  0  0  0  0  0  0  0  0
  151.5170  144.3205  161.7923 H   0  0  0  0  0  0  0  0  0  0  0  0
  151.7346  141.8424  161.6578 H   0  0  0  0  0  0  0  0  0  0  0  0
  154.6585  142.3377  160.9693 H   0  0  0  0  0  0  0  0  0  0  0  0
  154.0586  141.6193  162.4400 H   0  0  0  0  0  0  0  0  0  0  0  0
  154.8148  139.8860  160.8041 H   0  0  0  0  0  0  0  0  0  0  0  0
  153.1299  139.7042  161.2261 H   0  0  0  0  0  0  0  0  0  0  0  0
  154.2286  140.9646  158.6692 H   0  0  0  0  0  0  0  0  0  0  0  0
  153.3852  139.4434  158.8020 H   0  0  0  0  0  0  0  0  0  0  0  0
  151.3430  140.5735  159.5636 H   0  0  0  0  0  0  0  0  0  0  0  0
  152.3891  140.7923  156.9844 H   0  0  0  0  0  0  0  0  0  0  0  0
  150.3329  142.6944  155.2278 H   0  0  0  0  0  0  0  0  0  0  0  0
  151.3886  141.3147  155.1569 H   0  0  0  0  0  0  0  0  0  0  0  0
  148.2602  142.4908  154.3814 H   0  0  0  0  0  0  0  0  0  0  0  0
  146.3448  141.2486  153.6614 H   0  0  0  0  0  0  0  0  0  0  0  0
  149.2097  136.8982  155.0588 H   0  0  0  0  0  0  0  0  0  0  0  0
  147.5266  136.7814  154.5401 H   0  0  0  0  0  0  0  0  0  0  0  0
  147.8913  137.1577  156.2629 H   0  0  0  0  0  0  0  0  0  0  0  0
  151.0951  142.9696  159.6561 H   0  0  0  0  0  0  0  0  0  0  0  0
  154.0375  143.3212  158.9075 H   0  0  0  0  0  0  0  0  0  0  0  0
  152.9087  144.5999  159.3342 H   0  0  0  0  0  0  0  0  0  0  0  0
  152.6653  143.6836  157.8714 H   0  0  0  0  0  0  0  0  0  0  0  0
  1  2  1  0  0  0  0
  1 22  1  0  0  0  0
  1 23  1  0  0  0  0
  1 24  1  0  0  0  0
  2 20  1  0  0  0  0
  2  3  1  0  0  0  0
  2 25  1  0  0  0  0
  3  4  1  0  0  0  0
  3 26  1  0  0  0  0
  3 27  1  0  0  0  0
  4  5  1  0  0  0  0
  4 28  1  0  0  0  0
  4 29  1  0  0  0  0
  5  6  1  0  0  0  0
  5 30  1  0  0  0  0
  5 31  1  0  0  0  0
  6  7  1  0  0  0  0
  6 20  1  0  0  0  0
  6 32  1  0  0  0  0
  7  8  1  0  0  0  0
  7 33  1  0  0  0  0
  8  9  2  0  0  0  0
  8 10  1  0  0  0  0
 10 11  1  0  0  0  0
 10 34  1  0  0  0  0
 10 35  1  0  0  0  0
 11 18  1  0  0  0  0
 11 12  1  0  0  0  0
 12 13  2  0  0  0  0
 12 36  1  0  0  0  0
 13 14  1  0  0  0  0
 13 37  1  0  0  0  0
 14 15  2  0  0  0  0
 14 16  1  0  0  0  0
 16 17  1  0  0  0  0
 16 18  1  0  0  0  0
 17 38  1  0  0  0  0
 17 39  1  0  0  0  0
 17 40  1  0  0  0  0
 18 19  2  0  0  0  0
 20 21  1  0  0  0  0
 20 41  1  0  0  0  0
 21 42  1  0  0  0  0
 21 43  1  0  0  0  0
 21 44  1  0  0  0  0
M  END
> <s_m_source_file>
AV-unprocessed.smi

> <i_m_source_file_index>
2143

> <i_lp_mmshare_version>
43012

> <i_f3d_flags>
0

> <s_epik_input>
W0NIM11bQ0BASF0xW0NIMl1bQ0gyXVtDSDJdW0NASF0oW0NASF0xW0NIM10pW05IXUMoPU8pW0NIMl1uMltjSF1bY0hdYyg9TyluKFtDSDNdKWMyPU8=

> <s_epik_cmdline>
J2VwaWtfcHl0aG9uJywgJy1waCcsICc3LjAnLCAnLXRuJywgJzgnLCAnLW1hJywgJzIwMCcsICctbWV0YWxfYmluZGluZycsICctaW1hZScsICc8aW5maWxlLm1hZT4nLCAnLW9tYWUnLCAnPG91dGZpbGUubWFlPic=

> <r_lp_tautomer_probability>
1

> <r_epik_Ionization_Penalty>
3.18445e-08

> <r_epik_Ionization_Penalty_Charging>
1.27977e-08

> <r_epik_Ionization_Penalty_Neutral>
1.90469e-08

> <r_epik_State_Penalty>
-0

> <r_epik_Charging_Adjusted_Penalty>
1.27977e-08

> <i_epik_Tot_Q>
0

> <i_epik_Tot_abs_Q>
0

> <r_epik_Metal_State_Penalty>
-0

> <b_epik_Metal_Only>
0

> <s_lp_Force_Field>
OPLS_2005

> <r_lp_Energy>
21.2837

> <b_lp_Chiralities_Consistent>
1

> <s_lp_Variant>
AV-unprocessed.smi:2143-7

> <Gold.Version>
5.8.1

> <Gold.Id.Protein>
6NUR|6NUR_protein|mol2

> <Gold.PLP.Fitness>
41.3529

> <Gold.PLP.PLP>
-38.5011

> <Gold.PLP.part.hbond>
0.0000

> <Gold.PLP.part.metal>
0.0000

> <Gold.PLP.part.buried>
-4.9918

> <Gold.PLP.part.nonpolar>
-33.9040

> <Gold.PLP.part.repulsive>
0.3727

> <Gold.PLP.ligand.clash>
0.0000

> <Gold.PLP.ligand.torsion>
0.0816

> <Gold.PLP.Chemscore.Hbond>
0.0000

> <Gold.PLP.Chemscore.CHOScore>
1.0000

> <Gold.PLP.Chemscore.Metal>
0.0000

> <Gold.Chemscore.Hbonds>
donor molecule, donor type, donor heavy atom, donor atom, acceptor molecule, acceptor atom, score
      L1  C    12    36       P1  8028  0.79

> <Gold.PLP.Chemscore.Internal.Correction>
0.0150

> <Gold.Rescore>
     Score         DG    S(hbond)    S(metal)    S(lipo)     H(rot)  DE(clash)    DE(int)     intcor
     14.04     -14.25       0.00        0.00     108.10       1.51       0.08       0.13       ----

> <Gold.Chemscore.Fitness>
14.0364

> <Gold.Chemscore.DG>
-14.2548

> <Gold.Chemscore.ZeroCoef>
-5.4800

> <Gold.Chemscore.Hbond>
0.0000

> <Gold.Chemscore.Metal>
0.0000

> <Gold.Chemscore.Lipo>
108.1046

> <Gold.Chemscore.Internal_Hbond>
0.0000

> <Gold.Chemscore.DEClash>
0.0835

> <Gold.Chemscore.DEInternal>
0.1349

> <Gold.Chemscore.Rot>
1.5131

> <Gold.Chemscore.Internal.Correction>
   9.000000E+99

> <Gold.Chemscore.Hbond.Weighted>
-0.0000

> <Gold.Chemscore.Metal.Weighted>
-0.0000

> <Gold.Chemscore.Lipo.Weighted>
-12.6482

> <Gold.Chemscore.Internal_Hbond.Weighted>
0.0000

> <Gold.Chemscore.DEClash.Weighted>
0.0835

> <Gold.Chemscore.DEInternal.Weighted>
0.1349

> <Gold.Chemscore.Rot.Weighted>
3.8734

> <Gold.Chemscore.Internal.Correction.Weighted>
   9.000000E+99

> <Gold.Protein.RotatedTorsions>
[ 6907 6896 6895 6894 ] final -101.65 input  -60.11 | X-H torsion
[ 7974 7965 7964 7962 ] final    3.65 input  175.53 | X-H torsion
[ 8008 7997 7996 7995 ] final   66.73 input   59.86 | X-H torsion
[ 10167 10162 10161 10158 ] final  135.79 input  -65.29 | X-H torsion
[ 10718 10713 10712 10709 ] final  132.10 input   66.30 | X-H torsion
[ 10763 10752 10751 10750 ] final  -86.75 input  -60.55 | X-H torsion
[ 11005 11000 10999 10996 ] final -162.90 input  -57.11 | X-H torsion

> <Gold.Protein.ActiveResidues>
 VAL166  LYS551  ARG553  GLY616  TRP617  ASP618  TYR619  PRO620  LYS621  CYS622 
 ASP623  PHE694  ASN695  SER759  ASP760  ASP761  ALA762  ILE779  LEU786  VAL792 
 PHE793  MET794  SER795  GLU796  ALA797  LYS798  CYS799  TRP800  GLU811  SER814 

> <Gold.Protein.RotatedAtoms>
  150.7163  134.0702  159.3861 H   0  0  0  0  0  0  0  0  0  0  0  0  # atno 6907 bound_to 6896
  151.8684  135.0496  160.0486 H   0  0  0  0  0  0  0  0  0  0  0  0  # atno 6908 bound_to 6896
  152.2662  133.5306  159.5448 H   0  0  0  0  0  0  0  0  0  0  0  0  # atno 6909 bound_to 6896
  146.2445  140.0653  142.8366 H   0  0  0  0  0  0  0  0  0  0  0  0  # atno 7974 bound_to 7965
  155.6819  140.3496  155.4858 H   0  0  0  0  0  0  0  0  0  0  0  0  # atno 8008 bound_to 7997
  155.9600  140.1135  157.0927 H   0  0  0  0  0  0  0  0  0  0  0  0  # atno 8009 bound_to 7997
  154.4141  140.1177  156.5152 H   0  0  0  0  0  0  0  0  0  0  0  0  # atno 8010 bound_to 7997
  139.5204  144.6499  151.5334 H   0  0  0  0  0  0  0  0  0  0  0  0  # atno 10167 bound_to 10162
  157.4904  131.1090  150.9564 H   0  0  0  0  0  0  0  0  0  0  0  0  # atno 10718 bound_to 10713
  154.6259  135.5438  153.7627 H   0  0  0  0  0  0  0  0  0  0  0  0  # atno 10763 bound_to 10752
  153.0261  135.6424  154.1372 H   0  0  0  0  0  0  0  0  0  0  0  0  # atno 10764 bound_to 10752
  154.1304  135.2914  155.3166 H   0  0  0  0  0  0  0  0  0  0  0  0  # atno 10765 bound_to 10752
  140.6041  134.4917  157.5208 H   0  0  0  0  0  0  0  0  0  0  0  0  # atno 11005 bound_to 11000
  145.0864  140.9255  143.4795 LP  0  0  0  0  0  0  0  0  0  0  0  0  # atno 17320 bound_to 7965
  145.0816  139.2955  143.5780 LP  0  0  0  0  0  0  0  0  0  0  0  0  # atno 17321 bound_to 7965
  140.6299  143.9097  150.6596 LP  0  0  0  0  0  0  0  0  0  0  0  0  # atno 17342 bound_to 10162
  140.2397  143.3673  152.1497 LP  0  0  0  0  0  0  0  0  0  0  0  0  # atno 17343 bound_to 10162
  157.0267  130.5695  149.5338 LP  0  0  0  0  0  0  0  0  0  0  0  0  # atno 17370 bound_to 10713
  156.0170  130.5264  150.8164 LP  0  0  0  0  0  0  0  0  0  0  0  0  # atno 17371 bound_to 10713
  139.9220  134.8131  156.1183 LP  0  0  0  0  0  0  0  0  0  0  0  0  # atno 17394 bound_to 11000
  141.0852  133.6737  156.2421 LP  0  0  0  0  0  0  0  0  0  0  0  0  # atno 17395 bound_to 11000

$$$$
