AV-unprocessed.smi:240|AV-procd|sdf|1831|dock5
  -GOLD-   2262020433D 1   1.00000     0.00000
 Structure written by MMmdl.
 55 59  0  0  0  0  0  0  0  0  1 V2000
  148.1474  142.5565  154.1006 O   0  0  0  0  0  0  0  0  0  0  0  0
  147.0448  142.3822  154.9668 C   0  0  1  0  0  0  0  0  0  0  0  0
  145.8681  143.2668  154.5569 C   0  0  0  0  0  0  0  0  0  0  0  0
  144.6479  142.5989  155.1986 C   0  0  0  0  0  0  0  0  0  0  0  0
  145.0107  141.1149  155.3744 C   0  0  0  0  0  0  0  0  0  0  0  0
  146.4647  140.9634  154.8869 C   0  0  2  0  0  0  0  0  0  0  0  0
  147.3046  139.8422  155.5714 C   0  0  1  0  0  0  0  0  0  0  0  0
  147.4948  140.0478  157.0962 C   0  0  0  0  0  0  0  0  0  0  0  0
  148.2855  138.9976  157.6409 O   0  0  0  0  0  0  0  0  0  0  0  0
  147.6638  137.7297  157.4829 C   0  0  0  0  0  0  0  0  0  0  0  0
  147.5125  137.4342  155.9854 C   0  0  0  0  0  0  0  0  0  0  0  0
  146.7605  138.4981  155.3304 N   0  0  0  0  0  0  0  0  0  0  0  0
  146.4833  138.1615  154.0501 C   0  0  0  0  0  0  0  0  0  0  0  0
  147.0496  138.9203  153.0799 N   0  0  0  0  0  0  0  0  0  0  0  0
  146.8214  138.6390  151.7936 C   0  0  0  0  0  0  0  0  0  0  0  0
  146.0681  137.6684  151.2720 N   0  0  0  0  0  0  0  0  0  0  0  0
  145.4855  136.9123  152.2468 C   0  0  0  0  0  0  0  0  0  0  0  0
  145.6379  137.0868  153.6507 C   0  0  0  0  0  0  0  0  0  0  0  0
  144.8966  136.1273  154.3298 N   0  0  0  0  0  0  0  0  0  0  0  0
  144.3445  135.4213  153.3815 C   0  0  0  0  0  0  0  0  0  0  0  0
  144.6336  135.8311  152.0992 N   0  0  0  0  0  0  0  0  0  0  0  0
  144.1525  135.2370  150.8609 C   0  0  0  0  0  0  0  0  0  0  0  0
  144.7538  133.8418  150.5670 C   0  0  1  0  0  0  0  0  0  0  0  0
  146.1522  133.9679  150.3728 O   0  0  0  0  0  0  0  0  0  0  0  0
  144.5161  132.8474  151.6971 C   0  0  0  0  0  0  0  0  0  0  0  0
  144.4746  131.5115  150.9679 C   0  0  0  0  0  0  0  0  0  0  0  0
  143.7650  131.8236  149.7816 O   0  0  0  0  0  0  0  0  0  0  0  0
  144.1528  133.1218  149.3412 C   0  0  0  0  0  0  0  0  0  0  0  0
  148.7906  143.0946  154.5364 H   0  0  0  0  0  0  0  0  0  0  0  0
  147.3374  142.6388  155.9841 H   0  0  0  0  0  0  0  0  0  0  0  0
  145.9919  144.3047  154.8674 H   0  0  0  0  0  0  0  0  0  0  0  0
  145.7536  143.2575  153.4716 H   0  0  0  0  0  0  0  0  0  0  0  0
  144.4520  143.0447  156.1745 H   0  0  0  0  0  0  0  0  0  0  0  0
  143.7514  142.7336  154.5927 H   0  0  0  0  0  0  0  0  0  0  0  0
  144.8965  140.8355  156.4207 H   0  0  0  0  0  0  0  0  0  0  0  0
  144.3424  140.4714  154.8011 H   0  0  0  0  0  0  0  0  0  0  0  0
  146.4019  140.7409  153.8204 H   0  0  0  0  0  0  0  0  0  0  0  0
  148.3022  139.8712  155.1335 H   0  0  0  0  0  0  0  0  0  0  0  0
  148.0160  140.9809  157.3027 H   0  0  0  0  0  0  0  0  0  0  0  0
  146.5428  140.0912  157.6254 H   0  0  0  0  0  0  0  0  0  0  0  0
  148.2825  136.9674  157.9563 H   0  0  0  0  0  0  0  0  0  0  0  0
  146.6954  137.7153  157.9859 H   0  0  0  0  0  0  0  0  0  0  0  0
  148.4973  137.3458  155.5239 H   0  0  0  0  0  0  0  0  0  0  0  0
  147.0058  136.4775  155.8492 H   0  0  0  0  0  0  0  0  0  0  0  0
  147.3135  139.2833  151.0800 H   0  0  0  0  0  0  0  0  0  0  0  0
  143.7033  134.5787  153.5956 H   0  0  0  0  0  0  0  0  0  0  0  0
  143.0647  135.1738  150.9116 H   0  0  0  0  0  0  0  0  0  0  0  0
  144.3798  135.9243  150.0449 H   0  0  0  0  0  0  0  0  0  0  0  0
  146.3020  134.4517  149.5752 H   0  0  0  0  0  0  0  0  0  0  0  0
  145.2722  132.8852  152.4826 H   0  0  0  0  0  0  0  0  0  0  0  0
  143.5460  133.0274  152.1624 H   0  0  0  0  0  0  0  0  0  0  0  0
  145.4796  131.1696  150.7160 H   0  0  0  0  0  0  0  0  0  0  0  0
  143.9761  130.7304  151.5423 H   0  0  0  0  0  0  0  0  0  0  0  0
  143.2653  133.6241  148.9577 H   0  0  0  0  0  0  0  0  0  0  0  0
  144.8644  133.0414  148.5178 H   0  0  0  0  0  0  0  0  0  0  0  0
  1  2  1  0  0  0  0
  1 29  1  0  0  0  0
  2  6  1  0  0  0  0
  2  3  1  0  0  0  0
  2 30  1  0  0  0  0
  3  4  1  0  0  0  0
  3 31  1  0  0  0  0
  3 32  1  0  0  0  0
  4  5  1  0  0  0  0
  4 33  1  0  0  0  0
  4 34  1  0  0  0  0
  5  6  1  0  0  0  0
  5 35  1  0  0  0  0
  5 36  1  0  0  0  0
  6  7  1  0  0  0  0
  6 37  1  0  0  0  0
  7 12  1  0  0  0  0
  7  8  1  0  0  0  0
  7 38  1  0  0  0  0
  8  9  1  0  0  0  0
  8 39  1  0  0  0  0
  8 40  1  0  0  0  0
  9 10  1  0  0  0  0
 10 11  1  0  0  0  0
 10 41  1  0  0  0  0
 10 42  1  0  0  0  0
 11 12  1  0  0  0  0
 11 43  1  0  0  0  0
 11 44  1  0  0  0  0
 12 13  1  0  0  0  0
 13 18  1  0  0  0  0
 13 14  2  0  0  0  0
 14 15  1  0  0  0  0
 15 16  2  0  0  0  0
 15 45  1  0  0  0  0
 16 17  1  0  0  0  0
 17 21  1  0  0  0  0
 17 18  2  0  0  0  0
 18 19  1  0  0  0  0
 19 20  2  0  0  0  0
 20 21  1  0  0  0  0
 20 46  1  0  0  0  0
 21 22  1  0  0  0  0
 22 23  1  0  0  0  0
 22 47  1  0  0  0  0
 22 48  1  0  0  0  0
 23 28  1  0  0  0  0
 23 24  1  0  0  0  0
 23 25  1  0  0  0  0
 24 49  1  0  0  0  0
 25 26  1  0  0  0  0
 25 50  1  0  0  0  0
 25 51  1  0  0  0  0
 26 27  1  0  0  0  0
 26 52  1  0  0  0  0
 26 53  1  0  0  0  0
 27 28  1  0  0  0  0
 28 54  1  0  0  0  0
 28 55  1  0  0  0  0
M  END
> <s_m_source_file>
AV-unprocessed.smi

> <i_m_source_file_index>
240

> <i_lp_mmshare_version>
43012

> <i_f3d_flags>
0

> <s_epik_input>
W09IXVtDQEBIXTFbQ0gyXVtDSDJdW0NIMl1bQ0BIXTFbQ0BASF0yW0NIMl1PW0NIMl1bQ0gyXU4yYyhuW2NIXW4zKWMoYzM0KW5bY0hdbjRbQ0gyXVtDQEBdNShbT0hdKVtDSDJdW0NIMl1PW0NIMl01

> <s_epik_cmdline>
J2VwaWtfcHl0aG9uJywgJy1waCcsICc3LjAnLCAnLXRuJywgJzgnLCAnLW1hJywgJzIwMCcsICctbWV0YWxfYmluZGluZycsICctaW1hZScsICc8aW5maWxlLm1hZT4nLCAnLW9tYWUnLCAnPG91dGZpbGUubWFlPic=

> <r_lp_tautomer_probability>
1

> <r_epik_Ionization_Penalty>
0.000130618

> <r_epik_Ionization_Penalty_Charging>
0

> <r_epik_Ionization_Penalty_Neutral>
0.000130618

> <r_epik_State_Penalty>
-0

> <r_epik_Charging_Adjusted_Penalty>
0

> <i_epik_Tot_Q>
0

> <i_epik_Tot_abs_Q>
0

> <r_epik_Metal_State_Penalty>
-0

> <b_epik_Metal_Only>
0

> <s_lp_Force_Field>
OPLS_2005

> <r_lp_Energy>
62.0257

> <b_lp_Chiralities_Consistent>
1

> <s_lp_Variant>
AV-unprocessed.smi:240-8

> <Gold.Version>
5.8.1

> <Gold.Id.Protein>
6NUR|6NUR_protein|mol2

> <Gold.PLP.Fitness>
44.2552

> <Gold.PLP.PLP>
-34.0607

> <Gold.PLP.part.hbond>
-4.4068

> <Gold.PLP.part.metal>
0.0000

> <Gold.PLP.part.buried>
-3.2432

> <Gold.PLP.part.nonpolar>
-29.0540

> <Gold.PLP.part.repulsive>
3.0264

> <Gold.PLP.ligand.clash>
0.0000

> <Gold.PLP.ligand.torsion>
0.3966

> <Gold.PLP.Chemscore.Hbond>
2.5940

> <Gold.PLP.Chemscore.CHOScore>
1.0000

> <Gold.PLP.Chemscore.Metal>
0.0000

> <Gold.Chemscore.Hbonds>
donor molecule, donor type, donor heavy atom, donor atom, acceptor molecule, acceptor atom, score
      L1  H     1    29       P1  8028  0.78
      L1  H    24    49       P1  7921  0.85
      P1  H 10785 10796       L1    27  0.83
      L1  C    15    45       P1  7957  0.96

> <Gold.PLP.Chemscore.Internal.Correction>
0.2057

> <Gold.Rescore>
     Score         DG    S(hbond)    S(metal)    S(lipo)     H(rot)  DE(clash)    DE(int)     intcor
      8.89     -12.52       2.31        0.00      59.99       3.00       1.74       1.89       ----

> <Gold.Chemscore.Fitness>
8.8884

> <Gold.Chemscore.DG>
-12.5225

> <Gold.Chemscore.ZeroCoef>
-5.4800

> <Gold.Chemscore.Hbond>
2.3094

> <Gold.Chemscore.Metal>
0.0000

> <Gold.Chemscore.Lipo>
59.9900

> <Gold.Chemscore.Internal_Hbond>
0.0000

> <Gold.Chemscore.DEClash>
1.7449

> <Gold.Chemscore.DEInternal>
1.8892

> <Gold.Chemscore.Rot>
3.0039

> <Gold.Chemscore.Internal.Correction>
   9.000000E+99

> <Gold.Chemscore.Hbonds>
donor molecule, donor type, donor heavy atom, donor atom, acceptor molecule, acceptor atom, score
      L1  H     1    29       P1  8028  0.77
      L1  H    24    49       P1  7921  0.14
      P1  H 10785 10796       L1    27  0.64

> <Gold.Chemscore.Hbond.Weighted>
-7.7135

> <Gold.Chemscore.Metal.Weighted>
-0.0000

> <Gold.Chemscore.Lipo.Weighted>
-7.0188

> <Gold.Chemscore.Internal_Hbond.Weighted>
0.0000

> <Gold.Chemscore.DEClash.Weighted>
1.7449

> <Gold.Chemscore.DEInternal.Weighted>
1.8892

> <Gold.Chemscore.Rot.Weighted>
7.6899

> <Gold.Chemscore.Internal.Correction.Weighted>
   9.000000E+99

> <Gold.Protein.RotatedTorsions>
[ 6907 6896 6895 6894 ] final   53.83 input  -60.11 | X-H torsion
[ 7974 7965 7964 7962 ] final   43.40 input  175.53 | X-H torsion
[ 8008 7997 7996 7995 ] final -115.09 input   59.86 | X-H torsion
[ 10167 10162 10161 10158 ] final -165.30 input  -65.29 | X-H torsion
[ 10718 10713 10712 10709 ] final  -17.47 input   66.30 | X-H torsion
[ 10763 10752 10751 10750 ] final  178.43 input  -60.55 | X-H torsion
[ 11005 11000 10999 10996 ] final -171.53 input  -57.11 | X-H torsion

> <Gold.Protein.ActiveResidues>
 VAL166  LYS551  ARG553  GLY616  TRP617  ASP618  TYR619  PRO620  LYS621  CYS622 
 ASP623  PHE694  ASN695  SER759  ASP760  ASP761  ALA762  ILE779  LEU786  VAL792 
 PHE793  MET794  SER795  GLU796  ALA797  LYS798  CYS799  TRP800  GLU811  SER814 

> <Gold.Protein.RotatedAtoms>
  152.3377  134.7176  160.0272 H   0  0  0  0  0  0  0  0  0  0  0  0  # atno 6907 bound_to 6896
  151.7572  133.3326  159.3416 H   0  0  0  0  0  0  0  0  0  0  0  0  # atno 6908 bound_to 6896
  150.7460  134.6071  159.6111 H   0  0  0  0  0  0  0  0  0  0  0  0  # atno 6909 bound_to 6896
  146.0658  139.5190  142.9629 H   0  0  0  0  0  0  0  0  0  0  0  0  # atno 7974 bound_to 7965
  155.0465  140.0392  157.2528 H   0  0  0  0  0  0  0  0  0  0  0  0  # atno 8008 bound_to 7997
  154.7172  140.2704  155.6550 H   0  0  0  0  0  0  0  0  0  0  0  0  # atno 8009 bound_to 7997
  156.2806  140.2710  156.1833 H   0  0  0  0  0  0  0  0  0  0  0  0  # atno 8010 bound_to 7997
  139.6191  144.0660  152.1916 H   0  0  0  0  0  0  0  0  0  0  0  0  # atno 10167 bound_to 10162
  156.5731  130.4755  149.6354 H   0  0  0  0  0  0  0  0  0  0  0  0  # atno 10718 bound_to 10713
  154.5075  135.2787  155.1370 H   0  0  0  0  0  0  0  0  0  0  0  0  # atno 10763 bound_to 10752
  154.2978  135.6254  153.5416 H   0  0  0  0  0  0  0  0  0  0  0  0  # atno 10764 bound_to 10752
  152.9913  135.5689  154.5533 H   0  0  0  0  0  0  0  0  0  0  0  0  # atno 10765 bound_to 10752
  140.5072  134.5837  157.5007 H   0  0  0  0  0  0  0  0  0  0  0  0  # atno 11005 bound_to 11000
  145.6480  141.0269  143.1776 LP  0  0  0  0  0  0  0  0  0  0  0  0  # atno 17320 bound_to 7965
  144.7201  139.8058  143.7385 LP  0  0  0  0  0  0  0  0  0  0  0  0  # atno 17321 bound_to 7965
  140.0297  144.6090  150.7498 LP  0  0  0  0  0  0  0  0  0  0  0  0  # atno 17342 bound_to 10162
  140.7370  143.2760  151.3739 LP  0  0  0  0  0  0  0  0  0  0  0  0  # atno 17343 bound_to 10162
  156.2697  130.7010  151.1803 LP  0  0  0  0  0  0  0  0  0  0  0  0  # atno 17370 bound_to 10713
  157.7343  131.0582  150.5528 LP  0  0  0  0  0  0  0  0  0  0  0  0  # atno 17371 bound_to 10713
  139.9679  134.7341  156.0100 LP  0  0  0  0  0  0  0  0  0  0  0  0  # atno 17394 bound_to 11000
  141.1405  133.6566  156.3715 LP  0  0  0  0  0  0  0  0  0  0  0  0  # atno 17395 bound_to 11000

$$$$
