AV-unprocessed.smi:957|AV-procd|sdf|4265|dock7
  -GOLD-   22720 2173D 1   1.00000     0.00000
 Structure written by MMmdl.
 30 31  0  0  0  0  0  0  0  0  2 V2000
  152.5171  143.4915  161.1574 C   0  0  0  0  0  0  0  0  0  0  0  0
  151.9054  142.8604  159.9006 C   0  0  0  0  0  0  0  0  0  0  0  0
  152.6793  141.7220  159.4366 N   0  0  0  0  0  0  0  0  0  0  0  0
  153.8538  141.2776  159.9100 C   0  0  0  0  0  0  0  0  0  0  0  0
  154.3420  140.2031  159.2933 N   0  0  0  0  0  0  0  0  0  0  0  0
  153.4075  139.9061  158.3236 N   0  0  0  0  0  0  0  0  0  0  0  0
  152.4476  140.8327  158.4453 C   0  0  0  0  0  0  0  0  0  0  0  0
  151.2252  140.8663  157.5703 C   0  0  2  0  0  0  0  0  0  0  0  0
  151.3664  139.9392  156.3477 C   0  0  0  0  0  0  0  0  0  0  0  0
  150.1081  140.0111  155.4693 C   0  0  0  0  0  0  0  0  0  0  0  0
  149.7970  141.4642  155.0746 C   0  0  0  0  0  0  0  0  0  0  0  0
  149.6643  142.3156  156.2769 N   0  3  0  0  0  0  0  0  0  0  0  0
  150.8726  142.3026  157.1309 C   0  0  0  0  0  0  0  0  0  0  0  0
  151.9307  144.3508  161.4830 H   0  0  0  0  0  0  0  0  0  0  0  0
  153.5340  143.8365  160.9680 H   0  0  0  0  0  0  0  0  0  0  0  0
  152.5536  142.7828  161.9848 H   0  0  0  0  0  0  0  0  0  0  0  0
  150.8784  142.5442  160.0839 H   0  0  0  0  0  0  0  0  0  0  0  0
  151.8620  143.5997  159.1000 H   0  0  0  0  0  0  0  0  0  0  0  0
  154.3682  141.7536  160.7319 H   0  0  0  0  0  0  0  0  0  0  0  0
  150.3791  140.4984  158.1494 H   0  0  0  0  0  0  0  0  0  0  0  0
  152.2368  140.2285  155.7572 H   0  0  0  0  0  0  0  0  0  0  0  0
  151.5363  138.9113  156.6697 H   0  0  0  0  0  0  0  0  0  0  0  0
  150.2422  139.4017  154.5749 H   0  0  0  0  0  0  0  0  0  0  0  0
  149.2596  139.5869  156.0080 H   0  0  0  0  0  0  0  0  0  0  0  0
  150.5882  141.8626  154.4380 H   0  0  0  0  0  0  0  0  0  0  0  0
  148.8712  141.5112  154.5008 H   0  0  0  0  0  0  0  0  0  0  0  0
  149.4790  143.2655  155.9871 H   0  0  0  0  0  0  0  0  0  0  0  0
  150.6937  142.9329  158.0026 H   0  0  0  0  0  0  0  0  0  0  0  0
  151.6994  142.7508  156.5780 H   0  0  0  0  0  0  0  0  0  0  0  0
  148.8817  141.9827  156.8215 H   0  0  0  0  0  0  0  0  0  0  0  0
  1  2  1  0  0  0  0
  1 14  1  0  0  0  0
  1 15  1  0  0  0  0
  1 16  1  0  0  0  0
  2  3  1  0  0  0  0
  2 17  1  0  0  0  0
  2 18  1  0  0  0  0
  3  7  1  0  0  0  0
  3  4  1  0  0  0  0
  4  5  2  0  0  0  0
  4 19  1  0  0  0  0
  5  6  1  0  0  0  0
  6  7  2  0  0  0  0
  7  8  1  0  0  0  0
  8 13  1  0  0  0  0
  8  9  1  0  0  0  0
  8 20  1  0  0  0  0
  9 10  1  0  0  0  0
  9 21  1  0  0  0  0
  9 22  1  0  0  0  0
 10 11  1  0  0  0  0
 10 23  1  0  0  0  0
 10 24  1  0  0  0  0
 11 12  1  0  0  0  0
 11 25  1  0  0  0  0
 11 26  1  0  0  0  0
 12 13  1  0  0  0  0
 12 27  1  0  0  0  0
 12 30  1  0  0  0  0
 13 28  1  0  0  0  0
 13 29  1  0  0  0  0
M  CHG  1  12   1
M  END
> <s_m_source_file>
AV-unprocessed.smi

> <i_m_source_file_index>
957

> <i_lp_mmshare_version>
43012

> <i_f3d_flags>
0

> <s_epik_input>
W0NIM11bQ0gyXW4xW2NIXW5uYzFbQ0BASF0yW0NIMl1bQ0gyXVtDSDJdW05IXVtDSDJdMg==

> <s_epik_cmdline>
J2VwaWtfcHl0aG9uJywgJy1waCcsICc3LjAnLCAnLXRuJywgJzgnLCAnLW1hJywgJzIwMCcsICctbWV0YWxfYmluZGluZycsICctaW1hZScsICc8aW5maWxlLm1hZT4nLCAnLW9tYWUnLCAnPG91dGZpbGUubWFlPic=

> <r_lp_tautomer_probability>
1

> <r_epik_Ionization_Penalty>
0.000442722

> <r_epik_Ionization_Penalty_Charging>
0.000426856

> <r_epik_Ionization_Penalty_Neutral>
1.58656e-05

> <r_epik_State_Penalty>
-0

> <r_epik_Charging_Adjusted_Penalty>
0.000426856

> <i_epik_Tot_Q>
1

> <i_epik_Tot_abs_Q>
1

> <r_epik_Metal_State_Penalty>
-0

> <b_epik_Metal_Only>
0

> <s_lp_Force_Field>
OPLS_2005

> <r_lp_Energy>
16.0383

> <b_lp_Chiralities_Consistent>
1

> <s_lp_Variant>
AV-unprocessed.smi:957-1

> <Gold.Version>
5.8.1

> <Gold.Id.Protein>
6NUR|6NUR_protein|mol2

> <Gold.PLP.Fitness>
36.8680

> <Gold.PLP.PLP>
-29.0213

> <Gold.PLP.part.hbond>
-3.0000

> <Gold.PLP.part.metal>
0.0000

> <Gold.PLP.part.buried>
-1.7312

> <Gold.PLP.part.nonpolar>
-23.6285

> <Gold.PLP.part.repulsive>
0.0835

> <Gold.PLP.ligand.clash>
0.0000

> <Gold.PLP.ligand.torsion>
0.4100

> <Gold.PLP.Chemscore.Hbond>
2.8800

> <Gold.PLP.Chemscore.CHOScore>
0.0000

> <Gold.PLP.Chemscore.Metal>
0.0000

> <Gold.Chemscore.Hbonds>
donor molecule, donor type, donor heavy atom, donor atom, acceptor molecule, acceptor atom, score
      L1  H    12    27       P1  8028  2.00
      P1  H  7997  8009       L1     6  0.82

> <Gold.PLP.Chemscore.Internal.Correction>
0.0267

> <Gold.Rescore>
     Score         DG    S(hbond)    S(metal)    S(lipo)     H(rot)  DE(clash)    DE(int)     intcor
     13.32     -13.49       1.50        0.00      53.05       1.26       0.05       0.12       ----

> <Gold.Chemscore.Fitness>
13.3228

> <Gold.Chemscore.DG>
-13.4893

> <Gold.Chemscore.ZeroCoef>
-5.4800

> <Gold.Chemscore.Hbond>
1.5034

> <Gold.Chemscore.Metal>
0.0000

> <Gold.Chemscore.Lipo>
53.0481

> <Gold.Chemscore.Internal_Hbond>
0.0000

> <Gold.Chemscore.DEClash>
0.0456

> <Gold.Chemscore.DEInternal>
0.1209

> <Gold.Chemscore.Rot>
1.2573

> <Gold.Chemscore.Internal.Correction>
   9.000000E+99

> <Gold.Chemscore.Hbonds>
donor molecule, donor type, donor heavy atom, donor atom, acceptor molecule, acceptor atom, score
      L1  H    12    27       P1  8028  0.99
      P1  H  7997  8009       L1     6  0.17

> <Gold.Chemscore.Hbond.Weighted>
-5.0215

> <Gold.Chemscore.Metal.Weighted>
-0.0000

> <Gold.Chemscore.Lipo.Weighted>
-6.2066

> <Gold.Chemscore.Internal_Hbond.Weighted>
0.0000

> <Gold.Chemscore.DEClash.Weighted>
0.0456

> <Gold.Chemscore.DEInternal.Weighted>
0.1209

> <Gold.Chemscore.Rot.Weighted>
3.2188

> <Gold.Chemscore.Internal.Correction.Weighted>
   9.000000E+99

> <Gold.Protein.RotatedTorsions>
[ 6907 6896 6895 6894 ] final  -48.13 input  -60.11 | X-H torsion
[ 7974 7965 7964 7962 ] final   33.28 input  175.53 | X-H torsion
[ 8008 7997 7996 7995 ] final  170.09 input   59.86 | X-H torsion
[ 10167 10162 10161 10158 ] final   55.90 input  -65.29 | X-H torsion
[ 10718 10713 10712 10709 ] final -124.30 input   66.30 | X-H torsion
[ 10763 10752 10751 10750 ] final -108.67 input  -60.55 | X-H torsion
[ 11005 11000 10999 10996 ] final  151.12 input  -57.11 | X-H torsion

> <Gold.Protein.ActiveResidues>
 VAL166  LYS551  ARG553  GLY616  TRP617  ASP618  TYR619  PRO620  LYS621  CYS622 
 ASP623  PHE694  ASN695  SER759  ASP760  ASP761  ALA762  ILE779  LEU786  VAL792 
 PHE793  MET794  SER795  GLU796  ALA797  LYS798  CYS799  TRP800  GLU811  SER814 

> <Gold.Protein.RotatedAtoms>
  150.8937  134.8343  159.7311 H   0  0  0  0  0  0  0  0  0  0  0  0  # atno 6907 bound_to 6896
  152.4852  134.4609  159.9614 H   0  0  0  0  0  0  0  0  0  0  0  0  # atno 6908 bound_to 6896
  151.4668  133.3540  159.2853 H   0  0  0  0  0  0  0  0  0  0  0  0  # atno 6909 bound_to 6896
  146.1431  139.6417  142.9150 H   0  0  0  0  0  0  0  0  0  0  0  0  # atno 7974 bound_to 7965
  156.1397  140.1547  156.8939 H   0  0  0  0  0  0  0  0  0  0  0  0  # atno 8008 bound_to 7997
  154.4977  140.0833  156.7771 H   0  0  0  0  0  0  0  0  0  0  0  0  # atno 8009 bound_to 7997
  155.4101  140.3418  155.4265 H   0  0  0  0  0  0  0  0  0  0  0  0  # atno 8010 bound_to 7997
  140.2145  144.3854  150.6475 H   0  0  0  0  0  0  0  0  0  0  0  0  # atno 10167 bound_to 10162
  156.1575  130.6578  151.0003 H   0  0  0  0  0  0  0  0  0  0  0  0  # atno 10718 bound_to 10713
  154.8149  135.4629  154.0615 H   0  0  0  0  0  0  0  0  0  0  0  0  # atno 10763 bound_to 10752
  153.2016  135.6869  153.8230 H   0  0  0  0  0  0  0  0  0  0  0  0  # atno 10764 bound_to 10752
  153.7713  135.3270  155.3329 H   0  0  0  0  0  0  0  0  0  0  0  0  # atno 10765 bound_to 10752
  140.1191  134.8875  157.2046 H   0  0  0  0  0  0  0  0  0  0  0  0  # atno 11005 bound_to 11000
  145.5001  141.0437  143.2545 LP  0  0  0  0  0  0  0  0  0  0  0  0  # atno 17320 bound_to 7965
  144.7815  139.6517  143.7152 LP  0  0  0  0  0  0  0  0  0  0  0  0  # atno 17321 bound_to 7965
  140.6299  143.2186  151.6517 LP  0  0  0  0  0  0  0  0  0  0  0  0  # atno 17342 bound_to 10162
  139.5167  144.3338  152.0802 LP  0  0  0  0  0  0  0  0  0  0  0  0  # atno 17343 bound_to 10162
  157.6707  131.0862  150.7620 LP  0  0  0  0  0  0  0  0  0  0  0  0  # atno 17370 bound_to 10713
  156.7684  130.4821  149.5423 LP  0  0  0  0  0  0  0  0  0  0  0  0  # atno 17371 bound_to 10713
  140.2989  134.3154  155.7295 LP  0  0  0  0  0  0  0  0  0  0  0  0  # atno 17394 bound_to 11000
  141.2147  133.7580  156.9612 LP  0  0  0  0  0  0  0  0  0  0  0  0  # atno 17395 bound_to 11000

$$$$
