AV-unprocessed.smi:652|AV-procd|sdf|3194|dock4
  -GOLD-   22720 0123D 1   1.00000     0.00000
 Structure written by MMmdl.
 48 49  0  0  0  0  0  0  0  0  2 V2000
  146.8175  133.5851  151.5309 C   0  0  0  0  0  0  0  0  0  0  0  0
  145.9432  134.7012  152.1174 C   0  0  0  0  0  0  0  0  0  0  0  0
  145.2637  135.5335  151.0200 C   0  0  0  0  0  0  0  0  0  0  0  0
  146.7617  135.5600  152.9680 N   0  0  0  0  0  0  0  0  0  0  0  0
  146.6180  135.7143  154.2938 C   0  0  0  0  0  0  0  0  0  0  0  0
  145.7460  135.1508  154.9544 O   0  0  0  0  0  0  0  0  0  0  0  0
  147.6173  136.6445  154.9835 C   0  0  0  0  0  0  0  0  0  0  0  0
  147.3496  138.1208  154.6265 C   0  0  0  0  0  0  0  0  0  0  0  0
  148.2973  138.6634  153.6137 N   0  3  1  0  0  0  0  0  0  0  0  0
  147.6915  139.6994  152.7412 C   0  0  0  0  0  0  0  0  0  0  0  0
  147.5838  141.0526  153.4716 C   0  0  0  0  0  0  0  0  0  0  0  0
  148.8643  141.4461  153.9549 O   0  0  0  0  0  0  0  0  0  0  0  0
  149.4062  140.5134  154.8840 C   0  0  2  0  0  0  0  0  0  0  0  0
  150.7296  141.0857  155.4267 C   0  0  0  0  0  0  0  0  0  0  0  0
  150.5641  142.3686  156.1037 N   0  0  0  0  0  0  0  0  0  0  0  0
  151.4246  142.7702  157.1358 C   0  0  0  0  0  0  0  0  0  0  0  0
  151.9232  141.7955  158.0229 C   0  0  0  0  0  0  0  0  0  0  0  0
  152.7725  142.2268  159.0567 C   0  0  0  0  0  0  0  0  0  0  0  0
  153.0615  143.6019  159.1226 C   0  0  0  0  0  0  0  0  0  0  0  0
  152.5548  144.4949  158.2432 N   0  0  0  0  0  0  0  0  0  0  0  0
  151.7488  144.0817  157.2588 N   0  0  0  0  0  0  0  0  0  0  0  0
  149.5863  139.1600  154.1605 C   0  0  0  0  0  0  0  0  0  0  0  0
  146.2286  132.9146  150.9046 H   0  0  0  0  0  0  0  0  0  0  0  0
  147.2660  132.9841  152.3225 H   0  0  0  0  0  0  0  0  0  0  0  0
  147.6250  133.9888  150.9191 H   0  0  0  0  0  0  0  0  0  0  0  0
  145.1667  134.2269  152.7203 H   0  0  0  0  0  0  0  0  0  0  0  0
  144.6416  134.9054  150.3820 H   0  0  0  0  0  0  0  0  0  0  0  0
  145.9978  136.0291  150.3837 H   0  0  0  0  0  0  0  0  0  0  0  0
  144.6206  136.3024  151.4494 H   0  0  0  0  0  0  0  0  0  0  0  0
  147.5036  136.0705  152.5113 H   0  0  0  0  0  0  0  0  0  0  0  0
  147.5563  136.4736  156.0573 H   0  0  0  0  0  0  0  0  0  0  0  0
  148.6274  136.3634  154.6837 H   0  0  0  0  0  0  0  0  0  0  0  0
  146.3375  138.1917  154.2250 H   0  0  0  0  0  0  0  0  0  0  0  0
  147.3558  138.7370  155.5257 H   0  0  0  0  0  0  0  0  0  0  0  0
  148.3228  139.8173  151.8593 H   0  0  0  0  0  0  0  0  0  0  0  0
  146.7159  139.3760  152.3763 H   0  0  0  0  0  0  0  0  0  0  0  0
  147.2183  141.8177  152.7866 H   0  0  0  0  0  0  0  0  0  0  0  0
  146.8697  141.0024  154.2948 H   0  0  0  0  0  0  0  0  0  0  0  0
  148.7077  140.4104  155.7137 H   0  0  0  0  0  0  0  0  0  0  0  0
  151.1691  140.3840  156.1360 H   0  0  0  0  0  0  0  0  0  0  0  0
  151.4525  141.1951  154.6174 H   0  0  0  0  0  0  0  0  0  0  0  0
  149.9651  143.0584  155.6732 H   0  0  0  0  0  0  0  0  0  0  0  0
  151.6618  140.7525  157.9196 H   0  0  0  0  0  0  0  0  0  0  0  0
  153.1861  141.5316  159.7723 H   0  0  0  0  0  0  0  0  0  0  0  0
  153.7057  143.9942  159.8954 H   0  0  0  0  0  0  0  0  0  0  0  0
  150.0447  138.4236  154.8169 H   0  0  0  0  0  0  0  0  0  0  0  0
  150.2828  139.2861  153.3304 H   0  0  0  0  0  0  0  0  0  0  0  0
  148.5177  137.8842  153.0099 H   0  0  0  0  0  0  0  0  0  0  0  0
  1  2  1  0  0  0  0
  1 23  1  0  0  0  0
  1 24  1  0  0  0  0
  1 25  1  0  0  0  0
  2  3  1  0  0  0  0
  2  4  1  0  0  0  0
  2 26  1  0  0  0  0
  3 27  1  0  0  0  0
  3 28  1  0  0  0  0
  3 29  1  0  0  0  0
  4  5  1  0  0  0  0
  4 30  1  0  0  0  0
  5  6  2  0  0  0  0
  5  7  1  0  0  0  0
  7  8  1  0  0  0  0
  7 31  1  0  0  0  0
  7 32  1  0  0  0  0
  8  9  1  0  0  0  0
  8 33  1  0  0  0  0
  8 34  1  0  0  0  0
  9 22  1  0  0  0  0
  9 10  1  0  0  0  0
  9 48  1  0  0  0  0
 10 11  1  0  0  0  0
 10 35  1  0  0  0  0
 10 36  1  0  0  0  0
 11 12  1  0  0  0  0
 11 37  1  0  0  0  0
 11 38  1  0  0  0  0
 12 13  1  0  0  0  0
 13 14  1  0  0  0  0
 13 22  1  0  0  0  0
 13 39  1  0  0  0  0
 14 15  1  0  0  0  0
 14 40  1  0  0  0  0
 14 41  1  0  0  0  0
 15 16  1  0  0  0  0
 15 42  1  0  0  0  0
 16 21  1  0  0  0  0
 16 17  2  0  0  0  0
 17 18  1  0  0  0  0
 17 43  1  0  0  0  0
 18 19  2  0  0  0  0
 18 44  1  0  0  0  0
 19 20  1  0  0  0  0
 19 45  1  0  0  0  0
 20 21  2  0  0  0  0
 22 46  1  0  0  0  0
 22 47  1  0  0  0  0
M  CHG  1   9   1
M  END
> <s_m_source_file>
AV-unprocessed.smi

> <i_m_source_file_index>
652

> <i_lp_mmshare_version>
43012

> <i_f3d_flags>
0

> <s_epik_input>
W0NIM11bQ0hdKFtDSDNdKVtOSF1DKD1PKVtDSDJdW0NIMl1OMVtDSDJdW0NIMl1PW0NASF0oW0NIMl0xKVtDSDJdW05IXWMyW2NIXVtjSF1bY0hdbm4y

> <s_epik_cmdline>
J2VwaWtfcHl0aG9uJywgJy1waCcsICc3LjAnLCAnLXRuJywgJzgnLCAnLW1hJywgJzIwMCcsICctbWV0YWxfYmluZGluZycsICctaW1hZScsICc8aW5maWxlLm1hZT4nLCAnLW9tYWUnLCAnPG91dGZpbGUubWFlPic=

> <r_lp_tautomer_probability>
0.999978

> <r_epik_Ionization_Penalty>
0.433079

> <r_epik_Ionization_Penalty_Charging>
0.413784

> <r_epik_Ionization_Penalty_Neutral>
0.0192945

> <r_epik_State_Penalty>
0.425138

> <r_epik_Charging_Adjusted_Penalty>
0.838922

> <i_epik_Tot_Q>
1

> <i_epik_Tot_abs_Q>
1

> <r_epik_Metal_State_Penalty>
0.422073

> <b_epik_Metal_Only>
0

> <s_lp_Force_Field>
OPLS_2005

> <r_lp_Energy>
22.7305

> <b_lp_Chiralities_Consistent>
1

> <s_lp_Variant>
AV-unprocessed.smi:652-3

> <Gold.Version>
5.8.1

> <Gold.Id.Protein>
6NUR|6NUR_protein|mol2

> <Gold.PLP.Fitness>
47.6594

> <Gold.PLP.PLP>
-36.5608

> <Gold.PLP.part.hbond>
-4.5420

> <Gold.PLP.part.metal>
0.0000

> <Gold.PLP.part.buried>
-1.4443

> <Gold.PLP.part.nonpolar>
-30.4575

> <Gold.PLP.part.repulsive>
0.5130

> <Gold.PLP.ligand.clash>
0.0000

> <Gold.PLP.ligand.torsion>
1.2061

> <Gold.PLP.Chemscore.Hbond>
4.4462

> <Gold.PLP.Chemscore.CHOScore>
0.0000

> <Gold.PLP.Chemscore.Metal>
0.0000

> <Gold.Chemscore.Hbonds>
donor molecule, donor type, donor heavy atom, donor atom, acceptor molecule, acceptor atom, score
      L1  H     4    30       P1  7948  1.00
      L1  H     9    48       P1  7948  1.95
      L1  H    15    42       P1  8028  1.00
      P1  H  8011  8017       L1    12  0.58

> <Gold.PLP.Chemscore.Internal.Correction>
0.1724

> <Gold.Rescore>
     Score         DG    S(hbond)    S(metal)    S(lipo)     H(rot)  DE(clash)    DE(int)     intcor
     16.76     -18.95       2.87        0.00      82.71       2.26       1.13       1.06       ----

> <Gold.Chemscore.Fitness>
16.7627

> <Gold.Chemscore.DG>
-18.9456

> <Gold.Chemscore.ZeroCoef>
-5.4800

> <Gold.Chemscore.Hbond>
2.8662

> <Gold.Chemscore.Metal>
0.0000

> <Gold.Chemscore.Lipo>
82.7058

> <Gold.Chemscore.Internal_Hbond>
0.0000

> <Gold.Chemscore.DEClash>
1.1271

> <Gold.Chemscore.DEInternal>
1.0558

> <Gold.Chemscore.Rot>
2.2594

> <Gold.Chemscore.Internal.Correction>
   9.000000E+99

> <Gold.Chemscore.Hbonds>
donor molecule, donor type, donor heavy atom, donor atom, acceptor molecule, acceptor atom, score
      L1  H     4    30       P1  7948  0.95
      L1  H     9    48       P1  7948  0.91
      L1  H    15    42       P1  8028  0.95
      P1  H  8011  8017       L1    12  0.29

> <Gold.Chemscore.Hbond.Weighted>
-9.5732

> <Gold.Chemscore.Metal.Weighted>
-0.0000

> <Gold.Chemscore.Lipo.Weighted>
-9.6766

> <Gold.Chemscore.Internal_Hbond.Weighted>
0.0000

> <Gold.Chemscore.DEClash.Weighted>
1.1271

> <Gold.Chemscore.DEInternal.Weighted>
1.0558

> <Gold.Chemscore.Rot.Weighted>
5.7841

> <Gold.Chemscore.Internal.Correction.Weighted>
   9.000000E+99

> <Gold.Protein.RotatedTorsions>
[ 6907 6896 6895 6894 ] final  -34.62 input  -60.11 | X-H torsion
[ 7974 7965 7964 7962 ] final   12.27 input  175.53 | X-H torsion
[ 8008 7997 7996 7995 ] final   38.49 input   59.86 | X-H torsion
[ 10167 10162 10161 10158 ] final  134.46 input  -65.29 | X-H torsion
[ 10718 10713 10712 10709 ] final  122.67 input   66.30 | X-H torsion
[ 10763 10752 10751 10750 ] final  174.89 input  -60.55 | X-H torsion
[ 11005 11000 10999 10996 ] final  108.24 input  -57.11 | X-H torsion

> <Gold.Protein.ActiveResidues>
 VAL166  LYS551  ARG553  GLY616  TRP617  ASP618  TYR619  PRO620  LYS621  CYS622 
 ASP623  PHE694  ASN695  SER759  ASP760  ASP761  ALA762  ILE779  LEU786  VAL792 
 PHE793  MET794  SER795  GLU796  ALA797  LYS798  CYS799  TRP800  GLU811  SER814 

> <Gold.Protein.RotatedAtoms>
  151.0502  134.9668  159.8207 H   0  0  0  0  0  0  0  0  0  0  0  0  # atno 6907 bound_to 6896
  152.5379  134.2547  159.8922 H   0  0  0  0  0  0  0  0  0  0  0  0  # atno 6908 bound_to 6896
  151.2562  133.4282  159.2647 H   0  0  0  0  0  0  0  0  0  0  0  0  # atno 6909 bound_to 6896
  146.2355  139.9362  142.8489 H   0  0  0  0  0  0  0  0  0  0  0  0  # atno 7974 bound_to 7965
  155.2210  140.3331  155.4315 H   0  0  0  0  0  0  0  0  0  0  0  0  # atno 8008 bound_to 7997
  156.2333  140.1860  156.7233 H   0  0  0  0  0  0  0  0  0  0  0  0  # atno 8009 bound_to 7997
  154.6015  140.0622  156.9360 H   0  0  0  0  0  0  0  0  0  0  0  0  # atno 8010 bound_to 7997
  139.5255  144.6566  151.5143 H   0  0  0  0  0  0  0  0  0  0  0  0  # atno 10167 bound_to 10162
  157.5724  131.1082  150.8342 H   0  0  0  0  0  0  0  0  0  0  0  0  # atno 10718 bound_to 10713
  154.4601  135.2767  155.1719 H   0  0  0  0  0  0  0  0  0  0  0  0  # atno 10763 bound_to 10752
  154.3510  135.6150  153.5646 H   0  0  0  0  0  0  0  0  0  0  0  0  # atno 10764 bound_to 10752
  152.9854  135.5811  154.4962 H   0  0  0  0  0  0  0  0  0  0  0  0  # atno 10765 bound_to 10752
  139.8841  134.9424  156.5942 H   0  0  0  0  0  0  0  0  0  0  0  0  # atno 11005 bound_to 11000
  145.1996  140.9848  143.4163 LP  0  0  0  0  0  0  0  0  0  0  0  0  # atno 17320 bound_to 7965
  144.9785  139.3807  143.6274 LP  0  0  0  0  0  0  0  0  0  0  0  0  # atno 17321 bound_to 7965
  140.6395  143.8918  150.6678 LP  0  0  0  0  0  0  0  0  0  0  0  0  # atno 17342 bound_to 10162
  140.2248  143.3781  152.1614 LP  0  0  0  0  0  0  0  0  0  0  0  0  # atno 17343 bound_to 10162
  156.8810  130.5179  149.5291 LP  0  0  0  0  0  0  0  0  0  0  0  0  # atno 17370 bound_to 10713
  156.0769  130.5789  150.9490 LP  0  0  0  0  0  0  0  0  0  0  0  0  # atno 17371 bound_to 10713
  140.7933  133.8565  155.8664 LP  0  0  0  0  0  0  0  0  0  0  0  0  # atno 17394 bound_to 11000
  140.9658  134.1596  157.4617 LP  0  0  0  0  0  0  0  0  0  0  0  0  # atno 17395 bound_to 11000

$$$$
