#       Name:                AV-unprocessed.smi:785
#       Creating user name   scv26
#       Creation time:       Fri Mar 27 01:14:35 2020


#       File generated by GOLD software.
#

@<TRIPOS>MOLECULE
AV-unprocessed.smi:785
    40    41     1
SMALL
NO_CHARGES


@<TRIPOS>ATOM
      1 ****        -5.6332   3.2566  -2.2868 C.3            1 S1                 0.0000
      2 ****        -4.8852   1.9952  -2.0213 C.2            1 S1                 0.0000
      3 ****        -4.4963   1.6086  -0.8035 N.2            1 S1                 0.0000
      4 ****        -3.8087   0.3901  -0.8176 C.2            1 S1                 0.0000
      5 ****        -3.3005  -0.2008   0.4658 C.3            1 S1                 0.0000
      6 ****        -1.8596   0.2429   0.7242 C.2            1 S1                 0.0000
      7 ****        -1.6309   1.1769   1.4925 O.2            1 S1                 0.0000
      8 ****        -0.8968  -0.4397   0.0844 N.am           1 S1                 0.0000
      9 ****         0.5325  -0.1794   0.2012 C.3            1 S1                 0.0000
     10 ****         1.1213  -0.8315   1.4647 C.3            1 S1                 0.0000
     11 ****         2.5518  -0.5752   1.5815 N.am           1 S1                 0.0000
     12 ****         3.5127  -1.2496   0.9320 C.2            1 S1                 0.0000
     13 ****         3.2744  -2.1740   0.1531 O.2            1 S1                 0.0000
     14 ****         4.8967  -0.7780   1.2383 C.3            1 S1                 0.0000
     15 ****         5.9223  -0.8358   0.1244 C.3            1 S1                 0.0000
     16 ****         6.0021  -1.8139   1.2694 C.3            1 S1                 0.0000
     17 ****        -3.6895  -0.1466  -2.0762 C.2            1 S1                 0.0000
     18 ****        -4.4249   0.8654  -3.2885 S.3            1 S1                 0.0000
     19 ****        -5.9643   3.7112  -1.3525 H              1 S1                 0.0000
     20 ****        -6.5084   3.0488  -2.9023 H              1 S1                 0.0000
     21 ****        -4.9936   3.9646  -2.8138 H              1 S1                 0.0000
     22 ****        -3.9255   0.1033   1.3068 H              1 S1                 0.0000
     23 ****        -3.3433  -1.2902   0.4320 H              1 S1                 0.0000
     24 ****        -1.1747  -1.1931  -0.5279 H              1 S1                 0.0000
     25 ****         1.0174  -0.5785  -0.6902 H              1 S1                 0.0000
     26 ****         0.7200   0.8957   0.2011 H              1 S1                 0.0000
     27 ****         0.6374  -0.4307   2.3557 H              1 S1                 0.0000
     28 ****         0.9317  -1.9063   1.4661 H              1 S1                 0.0000
     29 ****         2.8321   0.1701   2.2025 H              1 S1                 0.0000
     30 ****         4.9843   0.0503   1.9401 H              1 S1                 0.0000
     31 ****         5.6176  -1.2255  -0.8455 H              1 S1                 0.0000
     32 ****         6.6548  -0.0322   0.0866 H              1 S1                 0.0000
     33 ****         6.7890  -1.6735   2.0075 H              1 S1                 0.0000
     34 ****         5.7498  -2.8518   1.0590 H              1 S1                 0.0000
     35 ****        -3.2124  -1.0720  -2.3629 H              1 S1                 0.0000
     36 ****        -4.6770   2.1332   0.0284 LP             1 S1                 0.0000
     37 ****        -2.3873   1.6461   1.9482 LP             1 S1                 0.0000
     38 ****        -0.6887   1.4664   1.6610 LP             1 S1                 0.0000
     39 ****         2.3293  -2.4521  -0.0187 LP             1 S1                 0.0000
     40 ****         4.0261  -2.6463  -0.3073 LP             1 S1                 0.0000
@<TRIPOS>BOND
    1    1    2 1     
    2    1   19 1     
    3    1   20 1     
    4    1   21 1     
    5    2   18 1     
    6    2    3 2     
    7    3    4 1     
    8    4    5 1     
    9    4   17 2     
   10    5    6 1     
   11    5   22 1     
   12    5   23 1     
   13    6    7 2     
   14    6    8 am    
   15    8    9 1     
   16    8   24 1     
   17    9   10 1     
   18    9   25 1     
   19    9   26 1     
   20   10   11 1     
   21   10   27 1     
   22   10   28 1     
   23   11   12 am    
   24   11   29 1     
   25   12   13 2     
   26   12   14 1     
   27   14   16 1     
   28   14   15 1     
   29   14   30 1     
   30   15   16 1     
   31   15   31 1     
   32   15   32 1     
   33   16   33 1     
   34   16   34 1     
   35   17   18 1     
   36   17   35 1     
   37    3   36 1     
   38    7   37 1     
   39    7   38 1     
   40   13   39 1     
   41   13   40 1     
@<TRIPOS>SUBSTRUCTURE
      1 S1             1
@<TRIPOS>SET
LONE_PAIRS      STATIC     ATOMS    <user>   **** ""
5 36 37 38 39 40
DONOR_HYDROGENS      STATIC     ATOMS    <user>   **** ""
2 24 29
ATOM$BLUE        STATIC     ATOMS    COLORGROUP SYSTEM
5 36 37 38 39 40
ATOM$RED        STATIC     ATOMS    COLORGROUP SYSTEM
2 24 29
