AV-unprocessed.smi:1703|AV-procd|sdf|6865|dock3
  -GOLD-   22720 8 53D 1   1.00000     0.00000
 Structure written by MMmdl.
 49 51  0  0  0  0  0  0  0  0  2 V2000
  138.3391  141.8695  153.3860 C   0  0  0  0  0  0  0  0  0  0  0  0
  139.7944  141.5098  153.7038 C   0  0  2  0  0  0  0  0  0  0  0  0
  139.9766  140.0041  153.9737 C   0  0  0  0  0  0  0  0  0  0  0  0
  141.3829  139.7143  154.3461 N   0  3  2  0  0  0  0  0  0  0  0  0
  141.6620  138.2707  154.5583 C   0  0  0  0  0  0  0  0  0  0  0  0
  142.3473  137.6179  153.3417 C   0  0  1  0  0  0  0  0  0  0  0  0
  142.2515  138.5006  152.2398 O   0  0  0  0  0  0  0  0  0  0  0  0
  143.8298  137.2997  153.6221 C   0  0  0  0  0  0  0  0  0  0  0  0
  144.4626  136.5603  152.5374 N   0  0  0  0  0  0  0  0  0  0  0  0
  145.5745  136.8918  151.8334 C   0  0  0  0  0  0  0  0  0  0  0  0
  146.3404  138.1528  152.0925 C   0  0  0  0  0  0  0  0  0  0  0  0
  147.4698  138.2856  151.2566 O   0  0  0  0  0  0  0  0  0  0  0  0
  145.9437  136.0256  150.8895 N   0  0  0  0  0  0  0  0  0  0  0  0
  144.9795  135.0416  150.9856 C   0  0  0  0  0  0  0  0  0  0  0  0
  144.8139  133.8441  150.2538 C   0  0  0  0  0  0  0  0  0  0  0  0
  143.7361  132.9792  150.5348 C   0  0  0  0  0  0  0  0  0  0  0  0
  142.8094  133.2992  151.5480 C   0  0  0  0  0  0  0  0  0  0  0  0
  142.9551  134.4879  152.2884 C   0  0  0  0  0  0  0  0  0  0  0  0
  144.0345  135.3470  152.0059 C   0  0  0  0  0  0  0  0  0  0  0  0
  141.7926  140.5507  155.4988 C   0  0  0  0  0  0  0  0  0  0  0  0
  141.5600  142.0425  155.1919 C   0  0  2  0  0  0  0  0  0  0  0  0
  141.8977  142.9390  156.3882 C   0  0  0  0  0  0  0  0  0  0  0  0
  140.1900  142.2406  154.8600 O   0  0  0  0  0  0  0  0  0  0  0  0
  137.9867  141.3375  152.5018 H   0  0  0  0  0  0  0  0  0  0  0  0
  138.2349  142.9377  153.1937 H   0  0  0  0  0  0  0  0  0  0  0  0
  137.6785  141.6147  154.2153 H   0  0  0  0  0  0  0  0  0  0  0  0
  140.4177  141.8091  152.8591 H   0  0  0  0  0  0  0  0  0  0  0  0
  139.3126  139.6824  154.7779 H   0  0  0  0  0  0  0  0  0  0  0  0
  139.6948  139.4421  153.0838 H   0  0  0  0  0  0  0  0  0  0  0  0
  142.3099  138.1467  155.4277 H   0  0  0  0  0  0  0  0  0  0  0  0
  140.7310  137.7544  154.7979 H   0  0  0  0  0  0  0  0  0  0  0  0
  141.8373  136.6934  153.0745 H   0  0  0  0  0  0  0  0  0  0  0  0
  142.8961  139.1844  152.3420 H   0  0  0  0  0  0  0  0  0  0  0  0
  144.3909  138.2209  153.7858 H   0  0  0  0  0  0  0  0  0  0  0  0
  143.9256  136.7252  154.5434 H   0  0  0  0  0  0  0  0  0  0  0  0
  145.6887  139.0163  151.9618 H   0  0  0  0  0  0  0  0  0  0  0  0
  146.6729  138.1651  153.1309 H   0  0  0  0  0  0  0  0  0  0  0  0
  147.9888  139.0122  151.5661 H   0  0  0  0  0  0  0  0  0  0  0  0
  145.5176  133.5906  149.4751 H   0  0  0  0  0  0  0  0  0  0  0  0
  143.6199  132.0660  149.9699 H   0  0  0  0  0  0  0  0  0  0  0  0
  141.9866  132.6312  151.7563 H   0  0  0  0  0  0  0  0  0  0  0  0
  142.2467  134.7336  153.0650 H   0  0  0  0  0  0  0  0  0  0  0  0
  141.2280  140.2520  156.3838 H   0  0  0  0  0  0  0  0  0  0  0  0
  142.8479  140.3831  155.7184 H   0  0  0  0  0  0  0  0  0  0  0  0
  142.1811  142.3456  154.3470 H   0  0  0  0  0  0  0  0  0  0  0  0
  142.9418  142.8262  156.6810 H   0  0  0  0  0  0  0  0  0  0  0  0
  141.2790  142.6955  157.2524 H   0  0  0  0  0  0  0  0  0  0  0  0
  141.7331  143.9895  156.1466 H   0  0  0  0  0  0  0  0  0  0  0  0
  141.9608  140.0019  153.5687 H   0  0  0  0  0  0  0  0  0  0  0  0
  1  2  1  0  0  0  0
  1 24  1  0  0  0  0
  1 25  1  0  0  0  0
  1 26  1  0  0  0  0
  2 23  1  0  0  0  0
  2  3  1  0  0  0  0
  2 27  1  0  0  0  0
  3  4  1  0  0  0  0
  3 28  1  0  0  0  0
  3 29  1  0  0  0  0
  4  5  1  0  0  0  0
  4 20  1  0  0  0  0
  4 49  1  0  0  0  0
  5  6  1  0  0  0  0
  5 30  1  0  0  0  0
  5 31  1  0  0  0  0
  6  7  1  0  0  0  0
  6  8  1  0  0  0  0
  6 32  1  0  0  0  0
  7 33  1  0  0  0  0
  8  9  1  0  0  0  0
  8 34  1  0  0  0  0
  8 35  1  0  0  0  0
  9 19  1  0  0  0  0
  9 10  1  0  0  0  0
 10 11  1  0  0  0  0
 10 13  2  0  0  0  0
 11 12  1  0  0  0  0
 11 36  1  0  0  0  0
 11 37  1  0  0  0  0
 12 38  1  0  0  0  0
 13 14  1  0  0  0  0
 14 19  2  0  0  0  0
 14 15  1  0  0  0  0
 15 16  2  0  0  0  0
 15 39  1  0  0  0  0
 16 17  1  0  0  0  0
 16 40  1  0  0  0  0
 17 18  2  0  0  0  0
 17 41  1  0  0  0  0
 18 19  1  0  0  0  0
 18 42  1  0  0  0  0
 20 21  1  0  0  0  0
 20 43  1  0  0  0  0
 20 44  1  0  0  0  0
 21 22  1  0  0  0  0
 21 23  1  0  0  0  0
 21 45  1  0  0  0  0
 22 46  1  0  0  0  0
 22 47  1  0  0  0  0
 22 48  1  0  0  0  0
M  CHG  1   4   1
M  END
> <s_m_source_file>
AV-unprocessed.smi

> <i_m_source_file_index>
1703

> <i_lp_mmshare_version>
43012

> <i_f3d_flags>
0

> <s_epik_input>
W0NIM11bQ0BASF0xW0NIMl1OKFtDSDJdW0NASF0oTzEpW0NIM10pW0NIMl1bQ0BIXShbT0hdKVtDSDJdbihjKG4yKVtDSDJdW09IXSljKGMyMylbY0hdW2NIXVtjSF1bY0hdMw==

> <s_epik_cmdline>
J2VwaWtfcHl0aG9uJywgJy1waCcsICc3LjAnLCAnLXRuJywgJzgnLCAnLW1hJywgJzIwMCcsICctbWV0YWxfYmluZGluZycsICctaW1hZScsICc8aW5maWxlLm1hZT4nLCAnLW9tYWUnLCAnPG91dGZpbGUubWFlPic=

> <r_epik_Ionization_Penalty>
0.655661

> <r_epik_Ionization_Penalty_Charging>
0.608065

> <r_epik_Ionization_Penalty_Neutral>
0.0475963

> <r_epik_State_Penalty>
0.695267

> <r_epik_Charging_Adjusted_Penalty>
1.30333

> <i_epik_Tot_Q>
1

> <i_epik_Tot_abs_Q>
1

> <r_epik_Metal_State_Penalty>
0.653591

> <b_epik_Metal_Only>
0

> <s_lp_Force_Field>
OPLS_2005

> <r_lp_Energy>
21.6457

> <b_lp_Chiralities_Consistent>
1

> <s_lp_Variant>
AV-unprocessed.smi:1703-13

> <Gold.Version>
5.8.1

> <Gold.Id.Protein>
6NUR|6NUR_protein|mol2

> <Gold.PLP.Fitness>
45.9173

> <Gold.PLP.PLP>
-34.8203

> <Gold.PLP.part.hbond>
-6.5192

> <Gold.PLP.part.metal>
0.0000

> <Gold.PLP.part.buried>
2.3101

> <Gold.PLP.part.nonpolar>
-28.9522

> <Gold.PLP.part.repulsive>
0.3813

> <Gold.PLP.ligand.clash>
0.0000

> <Gold.PLP.ligand.torsion>
1.3222

> <Gold.PLP.Chemscore.Hbond>
4.5540

> <Gold.PLP.Chemscore.CHOScore>
0.0000

> <Gold.PLP.Chemscore.Metal>
0.0000

> <Gold.Chemscore.Hbonds>
donor molecule, donor type, donor heavy atom, donor atom, acceptor molecule, acceptor atom, score
      L1  H     4    49       P1 10175  2.00
      L1  H     7    33       P1 10175  0.76
      L1  H    12    38       P1  7957  0.82
      P1  H  7954  7966       L1    12  1.00

> <Gold.PLP.Chemscore.Internal.Correction>
0.0794

> <Gold.Rescore>
     Score         DG    S(hbond)    S(metal)    S(lipo)     H(rot)  DE(clash)    DE(int)     intcor
     13.83     -16.06       2.78        0.00      75.74       2.96       0.94       1.29       ----

> <Gold.Chemscore.Fitness>
13.8348

> <Gold.Chemscore.DG>
-16.0633

> <Gold.Chemscore.ZeroCoef>
-5.4800

> <Gold.Chemscore.Hbond>
2.7849

> <Gold.Chemscore.Metal>
0.0000

> <Gold.Chemscore.Lipo>
75.7448

> <Gold.Chemscore.Internal_Hbond>
0.0000

> <Gold.Chemscore.DEClash>
0.9406

> <Gold.Chemscore.DEInternal>
1.2879

> <Gold.Chemscore.Rot>
2.9611

> <Gold.Chemscore.Internal.Correction>
   9.000000E+99

> <Gold.Chemscore.Hbonds>
donor molecule, donor type, donor heavy atom, donor atom, acceptor molecule, acceptor atom, score
      L1  H     4    49       P1 10175  0.63
      L1  H     7    33       P1 10175  0.76
      L1  H    12    38       P1  7957  0.68
      P1  H  7954  7966       L1    12  0.38

> <Gold.Chemscore.Hbond.Weighted>
-9.3015

> <Gold.Chemscore.Metal.Weighted>
-0.0000

> <Gold.Chemscore.Lipo.Weighted>
-8.8621

> <Gold.Chemscore.Internal_Hbond.Weighted>
0.0000

> <Gold.Chemscore.DEClash.Weighted>
0.9406

> <Gold.Chemscore.DEInternal.Weighted>
1.2879

> <Gold.Chemscore.Rot.Weighted>
7.5803

> <Gold.Chemscore.Internal.Correction.Weighted>
   9.000000E+99

> <Gold.Protein.RotatedTorsions>
[ 6907 6896 6895 6894 ] final -113.89 input  -60.11 | X-H torsion
[ 7974 7965 7964 7962 ] final   57.81 input  175.53 | X-H torsion
[ 8008 7997 7996 7995 ] final -129.61 input   59.86 | X-H torsion
[ 10167 10162 10161 10158 ] final -137.50 input  -65.29 | X-H torsion
[ 10718 10713 10712 10709 ] final  108.68 input   66.30 | X-H torsion
[ 10763 10752 10751 10750 ] final  157.93 input  -60.55 | X-H torsion
[ 11005 11000 10999 10996 ] final  144.20 input  -57.11 | X-H torsion

> <Gold.Protein.ActiveResidues>
 VAL166  LYS551  ARG553  GLY616  TRP617  ASP618  TYR619  PRO620  LYS621  CYS622 
 ASP623  PHE694  ASN695  SER759  ASP760  ASP761  ALA762  ILE779  LEU786  VAL792 
 PHE793  MET794  SER795  GLU796  ALA797  LYS798  CYS799  TRP800  GLU811  SER814 

> <Gold.Protein.RotatedAtoms>
  150.7862  133.8879  159.3304 H   0  0  0  0  0  0  0  0  0  0  0  0  # atno 6907 bound_to 6896
  151.6729  135.0971  160.0211 H   0  0  0  0  0  0  0  0  0  0  0  0  # atno 6908 bound_to 6896
  152.3926  133.6662  159.6285 H   0  0  0  0  0  0  0  0  0  0  0  0  # atno 6909 bound_to 6896
  145.9250  139.3761  143.0455 H   0  0  0  0  0  0  0  0  0  0  0  0  # atno 7974 bound_to 7965
  155.2821  140.0444  157.3016 H   0  0  0  0  0  0  0  0  0  0  0  0  # atno 8008 bound_to 7997
  154.5590  140.2340  155.8332 H   0  0  0  0  0  0  0  0  0  0  0  0  # atno 8009 bound_to 7997
  156.2032  140.3020  155.9578 H   0  0  0  0  0  0  0  0  0  0  0  0  # atno 8010 bound_to 7997
  139.8571  143.7124  152.2653 H   0  0  0  0  0  0  0  0  0  0  0  0  # atno 10167 bound_to 10162
  157.6575  131.0898  150.6341 H   0  0  0  0  0  0  0  0  0  0  0  0  # atno 10718 bound_to 10713
  154.2080  135.2787  155.2968 H   0  0  0  0  0  0  0  0  0  0  0  0  # atno 10763 bound_to 10752
  154.5802  135.5592  153.7181 H   0  0  0  0  0  0  0  0  0  0  0  0  # atno 10764 bound_to 10752
  153.0071  135.6343  154.2218 H   0  0  0  0  0  0  0  0  0  0  0  0  # atno 10765 bound_to 10752
  140.0613  134.9203  157.1189 H   0  0  0  0  0  0  0  0  0  0  0  0  # atno 11005 bound_to 11000
  145.8500  140.9534  143.0754 LP  0  0  0  0  0  0  0  0  0  0  0  0  # atno 17320 bound_to 7965
  144.6757  140.0395  143.7481 LP  0  0  0  0  0  0  0  0  0  0  0  0  # atno 17321 bound_to 7965
  139.7409  144.7560  151.0654 LP  0  0  0  0  0  0  0  0  0  0  0  0  # atno 17342 bound_to 10162
  140.7780  143.4974  150.9815 LP  0  0  0  0  0  0  0  0  0  0  0  0  # atno 17343 bound_to 10162
  156.6647  130.4522  149.5676 LP  0  0  0  0  0  0  0  0  0  0  0  0  # atno 17370 bound_to 10713
  156.2041  130.6638  151.1200 LP  0  0  0  0  0  0  0  0  0  0  0  0  # atno 17371 bound_to 10713
  140.3766  134.2333  155.7174 LP  0  0  0  0  0  0  0  0  0  0  0  0  # atno 17394 bound_to 11000
  141.1974  133.8059  157.0628 LP  0  0  0  0  0  0  0  0  0  0  0  0  # atno 17395 bound_to 11000

$$$$
