AV-unprocessed.smi:196|AV-procd|sdf|1541|dock10
  -GOLD-   2262019403D 1   1.00000     0.00000
 Structure written by MMmdl.
 47 50  0  0  0  0  0  0  0  0  1 V2000
  149.3925  137.9831  155.3307 C   0  0  0  0  0  0  0  0  0  0  0  0
  149.1940  139.4963  155.5177 C   0  0  1  0  0  0  0  0  0  0  0  0
  150.0632  139.9954  156.5239 O   0  0  0  0  0  0  0  0  0  0  0  0
  150.1099  141.4022  156.3691 C   0  0  0  0  0  0  0  0  0  0  0  0
  150.2509  141.5695  154.8610 C   0  0  0  0  0  0  0  0  0  0  0  0
  149.4466  140.4011  154.2822 C   0  0  1  0  0  0  0  0  0  0  0  0
  150.2504  139.7527  153.3099 O   0  0  0  0  0  0  0  0  0  0  0  0
  148.1426  140.8761  153.5945 C   0  0  0  0  0  0  0  0  0  0  0  0
  147.3166  139.7852  153.0989 N   0  0  0  0  0  0  0  0  0  0  0  0
  147.0365  139.4948  151.7832 C   0  0  0  0  0  0  0  0  0  0  0  0
  146.2694  138.4568  151.5938 N   0  0  0  0  0  0  0  0  0  0  0  0
  145.9929  137.9954  152.8760 C   0  0  0  0  0  0  0  0  0  0  0  0
  145.2238  136.9166  153.4019 C   0  0  0  0  0  0  0  0  0  0  0  0
  144.5513  136.0270  152.6226 N   0  0  0  0  0  0  0  0  0  0  0  0
  145.0298  135.7613  151.2702 C   0  0  0  0  0  0  0  0  0  0  0  0
  144.7188  134.2886  151.0031 C   0  0  1  0  0  0  0  0  0  0  0  0
  145.7664  133.5422  151.3575 F   0  0  0  0  0  0  0  0  0  0  0  0
  143.5503  134.0004  151.9404 C   0  0  0  0  0  0  0  0  0  0  0  0
  143.8514  134.8630  153.1767 C   0  0  2  0  0  0  0  0  0  0  0  0
  142.5600  135.2397  153.9208 C   0  0  0  0  0  0  0  0  0  0  0  0
  142.0338  134.3088  154.7198 N   0  0  0  0  0  0  0  0  0  0  0  0
  142.0382  136.3433  153.7698 O   0  0  0  0  0  0  0  0  0  0  0  0
  145.1689  136.7957  154.7552 N   0  0  0  0  0  0  0  0  0  0  0  0
  145.8226  137.6552  155.5412 C   0  0  0  0  0  0  0  0  0  0  0  0
  146.5786  138.6961  155.1903 N   0  0  0  0  0  0  0  0  0  0  0  0
  146.6354  138.8305  153.8346 C   0  0  0  0  0  0  0  0  0  0  0  0
  144.5012  134.0755  149.9562 H   0  0  0  0  0  0  0  0  0  0  0  0
  144.5268  134.3180  153.8393 H   0  0  0  0  0  0  0  0  0  0  0  0
  148.7395  137.5941  154.5490 H   0  0  0  0  0  0  0  0  0  0  0  0
  149.1601  137.4477  156.2512 H   0  0  0  0  0  0  0  0  0  0  0  0
  150.4216  137.7430  155.0630 H   0  0  0  0  0  0  0  0  0  0  0  0
  148.1827  139.6668  155.8889 H   0  0  0  0  0  0  0  0  0  0  0  0
  149.1794  141.8451  156.7281 H   0  0  0  0  0  0  0  0  0  0  0  0
  150.9396  141.8428  156.9221 H   0  0  0  0  0  0  0  0  0  0  0  0
  149.9060  142.5468  154.5212 H   0  0  0  0  0  0  0  0  0  0  0  0
  151.3069  141.4884  154.5971 H   0  0  0  0  0  0  0  0  0  0  0  0
  149.7616  139.7007  152.5029 H   0  0  0  0  0  0  0  0  0  0  0  0
  147.5468  141.4657  154.2924 H   0  0  0  0  0  0  0  0  0  0  0  0
  148.3714  141.5383  152.7583 H   0  0  0  0  0  0  0  0  0  0  0  0
  147.4257  140.0776  150.9612 H   0  0  0  0  0  0  0  0  0  0  0  0
  144.4766  136.3976  150.5784 H   0  0  0  0  0  0  0  0  0  0  0  0
  146.0937  135.9695  151.1446 H   0  0  0  0  0  0  0  0  0  0  0  0
  142.6216  134.3161  151.4612 H   0  0  0  0  0  0  0  0  0  0  0  0
  143.4561  132.9406  152.1792 H   0  0  0  0  0  0  0  0  0  0  0  0
  141.1824  134.5016  155.2270 H   0  0  0  0  0  0  0  0  0  0  0  0
  142.4877  133.4112  154.8081 H   0  0  0  0  0  0  0  0  0  0  0  0
  145.7266  137.4835  156.6030 H   0  0  0  0  0  0  0  0  0  0  0  0
  1  2  1  0  0  0  0
  1 29  1  0  0  0  0
  1 30  1  0  0  0  0
  1 31  1  0  0  0  0
  2  6  1  0  0  0  0
  2  3  1  0  0  0  0
  2 32  1  0  0  0  0
  3  4  1  0  0  0  0
  4  5  1  0  0  0  0
  4 33  1  0  0  0  0
  4 34  1  0  0  0  0
  5  6  1  0  0  0  0
  5 35  1  0  0  0  0
  5 36  1  0  0  0  0
  6  7  1  0  0  0  0
  6  8  1  0  0  0  0
  7 37  1  0  0  0  0
  8  9  1  0  0  0  0
  8 38  1  0  0  0  0
  8 39  1  0  0  0  0
  9 26  1  0  0  0  0
  9 10  1  0  0  0  0
 10 11  2  0  0  0  0
 10 40  1  0  0  0  0
 11 12  1  0  0  0  0
 12 26  2  0  0  0  0
 12 13  1  0  0  0  0
 13 14  1  0  0  0  0
 13 23  2  0  0  0  0
 14 19  1  0  0  0  0
 14 15  1  0  0  0  0
 15 16  1  0  0  0  0
 15 41  1  0  0  0  0
 15 42  1  0  0  0  0
 16 27  1  0  0  0  0
 16 17  1  0  0  0  0
 16 18  1  0  0  0  0
 18 19  1  0  0  0  0
 18 43  1  0  0  0  0
 18 44  1  0  0  0  0
 19 28  1  0  0  0  0
 19 20  1  0  0  0  0
 20 21  1  0  0  0  0
 20 22  2  0  0  0  0
 21 45  1  0  0  0  0
 21 46  1  0  0  0  0
 23 24  1  0  0  0  0
 24 25  2  0  0  0  0
 24 47  1  0  0  0  0
 25 26  1  0  0  0  0
M  END
> <s_m_source_file>
AV-unprocessed.smi

> <i_m_source_file_index>
196

> <i_lp_mmshare_version>
43012

> <i_f3d_flags>
0

> <s_epik_input>
W0NIMl0xW0NIMl1PW0NAQEhdKFtDSDNdKVtDQEBdMShbT0hdKVtDSDJdbihbY0hdbjIpYyhjMjMpbltjSF1uYzNONFtDSDJdW0NASF0oRilbQ0gyXVtDQEhdNEMoPU8pW05IMl0=

> <s_epik_cmdline>
J2VwaWtfcHl0aG9uJywgJy1waCcsICc3LjAnLCAnLXRuJywgJzgnLCAnLW1hJywgJzIwMCcsICctbWV0YWxfYmluZGluZycsICctaW1hZScsICc8aW5maWxlLm1hZT4nLCAnLW9tYWUnLCAnPG91dGZpbGUubWFlPic=

> <r_lp_tautomer_probability>
1

> <r_epik_Ionization_Penalty>
0.000857933

> <r_epik_Ionization_Penalty_Charging>
0

> <r_epik_Ionization_Penalty_Neutral>
0.000857933

> <r_epik_State_Penalty>
0.000462053

> <r_epik_Charging_Adjusted_Penalty>
0.000462053

> <i_epik_Tot_Q>
0

> <i_epik_Tot_abs_Q>
0

> <r_epik_Metal_State_Penalty>
-0

> <b_epik_Metal_Only>
0

> <s_lp_Force_Field>
OPLS_2005

> <r_lp_Energy>
42.8122

> <b_lp_Chiralities_Consistent>
1

> <s_lp_Variant>
AV-unprocessed.smi:196-14

> <Gold.Version>
5.8.1

> <Gold.Id.Protein>
6NUR|6NUR_protein|mol2

> <Gold.PLP.Fitness>
48.3259

> <Gold.PLP.PLP>
-36.7341

> <Gold.PLP.part.hbond>
-4.0000

> <Gold.PLP.part.metal>
0.0000

> <Gold.PLP.part.buried>
-4.0636

> <Gold.PLP.part.nonpolar>
-30.2594

> <Gold.PLP.part.repulsive>
1.0761

> <Gold.PLP.ligand.clash>
0.0000

> <Gold.PLP.ligand.torsion>
0.6967

> <Gold.PLP.Chemscore.Hbond>
3.4880

> <Gold.PLP.Chemscore.CHOScore>
0.7498

> <Gold.PLP.Chemscore.Metal>
0.0000

> <Gold.Chemscore.Hbonds>
donor molecule, donor type, donor heavy atom, donor atom, acceptor molecule, acceptor atom, score
      L1  H     7    37       P1  7957  0.64
      L1  H    21    45       P1 11000  0.85
      L1  H    21    46       P1 10957  1.00
      P1  H  7989  7998       L1     7  0.52
      L1  C    10    40       P1  7957  0.56

> <Gold.PLP.Chemscore.Internal.Correction>
0.2718

> <Gold.Rescore>
     Score         DG    S(hbond)    S(metal)    S(lipo)     H(rot)  DE(clash)    DE(int)     intcor
     12.66     -15.04       2.94        0.00      54.58       2.60       0.16       2.23       ----

> <Gold.Chemscore.Fitness>
12.6604

> <Gold.Chemscore.DG>
-15.0442

> <Gold.Chemscore.ZeroCoef>
-5.4800

> <Gold.Chemscore.Hbond>
2.9421

> <Gold.Chemscore.Metal>
0.0000

> <Gold.Chemscore.Lipo>
54.5758

> <Gold.Chemscore.Internal_Hbond>
0.0000

> <Gold.Chemscore.DEClash>
0.1581

> <Gold.Chemscore.DEInternal>
2.2257

> <Gold.Chemscore.Rot>
2.5968

> <Gold.Chemscore.Internal.Correction>
   9.000000E+99

> <Gold.Chemscore.Hbonds>
donor molecule, donor type, donor heavy atom, donor atom, acceptor molecule, acceptor atom, score
      L1  H     7    37       P1  7957  0.61
      L1  H    21    45       P1 11000  0.80
      L1  H    21    46       P1 10957  0.99
      P1  H  7989  7998       L1     7  0.08

> <Gold.Chemscore.Hbond.Weighted>
-9.8266

> <Gold.Chemscore.Metal.Weighted>
-0.0000

> <Gold.Chemscore.Lipo.Weighted>
-6.3854

> <Gold.Chemscore.Internal_Hbond.Weighted>
0.0000

> <Gold.Chemscore.DEClash.Weighted>
0.1581

> <Gold.Chemscore.DEInternal.Weighted>
2.2257

> <Gold.Chemscore.Rot.Weighted>
6.6477

> <Gold.Chemscore.Internal.Correction.Weighted>
   9.000000E+99

> <Gold.Protein.RotatedTorsions>
[ 6907 6896 6895 6894 ] final -106.58 input  -60.11 | X-H torsion
[ 7974 7965 7964 7962 ] final  132.30 input  175.53 | X-H torsion
[ 8008 7997 7996 7995 ] final   13.04 input   59.86 | X-H torsion
[ 10167 10162 10161 10158 ] final  165.75 input  -65.29 | X-H torsion
[ 10718 10713 10712 10709 ] final -172.87 input   66.30 | X-H torsion
[ 10763 10752 10751 10750 ] final  -68.68 input  -60.55 | X-H torsion
[ 11005 11000 10999 10996 ] final -154.62 input  -57.11 | X-H torsion

> <Gold.Protein.ActiveResidues>
 VAL166  LYS551  ARG553  GLY616  TRP617  ASP618  TYR619  PRO620  LYS621  CYS622 
 ASP623  PHE694  ASN695  SER759  ASP760  ASP761  ALA762  ILE779  LEU786  VAL792 
 PHE793  MET794  SER795  GLU796  ALA797  LYS798  CYS799  TRP800  GLU811  SER814 

> <Gold.Protein.RotatedAtoms>
  150.7397  133.9954  159.3620 H   0  0  0  0  0  0  0  0  0  0  0  0  # atno 6907 bound_to 6896
  151.7905  135.0735  160.0396 H   0  0  0  0  0  0  0  0  0  0  0  0  # atno 6908 bound_to 6896
  152.3211  133.5818  159.5781 H   0  0  0  0  0  0  0  0  0  0  0  0  # atno 6909 bound_to 6896
  144.9983  139.4337  143.5305 H   0  0  0  0  0  0  0  0  0  0  0  0  # atno 7974 bound_to 7965
  154.8289  140.2896  155.5736 H   0  0  0  0  0  0  0  0  0  0  0  0  # atno 8008 bound_to 7997
  156.3004  140.2536  156.3141 H   0  0  0  0  0  0  0  0  0  0  0  0  # atno 8009 bound_to 7997
  154.9254  140.0385  157.2009 H   0  0  0  0  0  0  0  0  0  0  0  0  # atno 8010 bound_to 7997
  139.4911  144.4099  151.9311 H   0  0  0  0  0  0  0  0  0  0  0  0  # atno 10167 bound_to 10162
  156.7619  130.9416  151.3118 H   0  0  0  0  0  0  0  0  0  0  0  0  # atno 10718 bound_to 10713
  154.3925  135.6049  153.5851 H   0  0  0  0  0  0  0  0  0  0  0  0  # atno 10763 bound_to 10752
  152.9787  135.5887  154.4281 H   0  0  0  0  0  0  0  0  0  0  0  0  # atno 10764 bound_to 10752
  154.4067  135.2843  155.2041 H   0  0  0  0  0  0  0  0  0  0  0  0  # atno 10765 bound_to 10752
  140.6954  134.3996  157.5215 H   0  0  0  0  0  0  0  0  0  0  0  0  # atno 11005 bound_to 11000
  146.3446  139.9356  142.8748 LP  0  0  0  0  0  0  0  0  0  0  0  0  # atno 17320 bound_to 7965
  145.2189  140.9927  143.4057 LP  0  0  0  0  0  0  0  0  0  0  0  0  # atno 17321 bound_to 7965
  140.3540  144.3054  150.5944 LP  0  0  0  0  0  0  0  0  0  0  0  0  # atno 17342 bound_to 10162
  140.5460  143.2214  151.8006 LP  0  0  0  0  0  0  0  0  0  0  0  0  # atno 17343 bound_to 10162
  157.6731  130.9069  150.0086 LP  0  0  0  0  0  0  0  0  0  0  0  0  # atno 17370 bound_to 10713
  156.1334  130.3643  149.9696 LP  0  0  0  0  0  0  0  0  0  0  0  0  # atno 17371 bound_to 10713
  139.8911  134.8787  156.2334 LP  0  0  0  0  0  0  0  0  0  0  0  0  # atno 17394 bound_to 11000
  141.0207  133.7043  156.1264 LP  0  0  0  0  0  0  0  0  0  0  0  0  # atno 17395 bound_to 11000

$$$$
