AV-unprocessed.smi:480|AV-procd|sdf|2676|dock8
  -GOLD-   2262023 93D 1   1.00000     0.00000
 Structure written by MMmdl.
 46 48  0  0  0  0  0  0  0  0  1 V2000
  151.3531  137.7848  155.8815 C   0  0  0  0  0  0  0  0  0  0  0  0
  151.8219  139.1779  155.4431 C   0  0  0  0  0  0  0  0  0  0  0  0
  151.8520  140.1668  156.5738 C   0  0  0  0  0  0  0  0  0  0  0  0
  152.6079  139.9407  157.6500 N   0  0  0  0  0  0  0  0  0  0  0  0
  152.3639  141.0464  158.4382 C   0  0  0  0  0  0  0  0  0  0  0  0
  152.8679  141.3964  159.7114 C   0  0  0  0  0  0  0  0  0  0  0  0
  152.4692  142.5990  160.3309 C   0  0  0  0  0  0  0  0  0  0  0  0
  151.5637  143.4669  159.6869 C   0  0  0  0  0  0  0  0  0  0  0  0
  151.0514  143.1369  158.4174 C   0  0  0  0  0  0  0  0  0  0  0  0
  151.4520  141.9345  157.8035 C   0  0  0  0  0  0  0  0  0  0  0  0
  151.1444  141.3298  156.5876 N   0  0  0  0  0  0  0  0  0  0  0  0
  150.2510  141.8952  155.5816 C   0  0  0  0  0  0  0  0  0  0  0  0
  149.3805  140.8317  154.8836 C   0  0  2  0  0  0  0  0  0  0  0  0
  149.6984  140.8030  153.5073 O   0  0  0  0  0  0  0  0  0  0  0  0
  147.8818  141.1387  155.0323 C   0  0  0  0  0  0  0  0  0  0  0  0
  147.4941  142.0632  154.0242 O   0  0  0  0  0  0  0  0  0  0  0  0
  146.4655  142.9381  154.3029 C   0  0  0  0  0  0  0  0  0  0  0  0
  145.8722  143.0904  155.5821 C   0  0  0  0  0  0  0  0  0  0  0  0
  144.8212  144.0076  155.7771 C   0  0  0  0  0  0  0  0  0  0  0  0
  144.3481  144.7841  154.7015 C   0  0  0  0  0  0  0  0  0  0  0  0
  143.2199  145.7719  154.9128 C   0  0  0  0  0  0  0  0  0  0  0  0
  142.1235  145.5666  153.9544 C   0  0  0  0  0  0  0  0  0  0  0  0
  141.2607  145.4055  153.2004 N   0  0  0  0  0  0  0  0  0  0  0  0
  144.9337  144.6400  153.4288 C   0  0  0  0  0  0  0  0  0  0  0  0
  145.9847  143.7232  153.2349 C   0  0  0  0  0  0  0  0  0  0  0  0
  151.3517  137.0934  155.0388 H   0  0  0  0  0  0  0  0  0  0  0  0
  150.3434  137.8135  156.2887 H   0  0  0  0  0  0  0  0  0  0  0  0
  152.0098  137.3717  156.6476 H   0  0  0  0  0  0  0  0  0  0  0  0
  152.8297  139.1031  155.0332 H   0  0  0  0  0  0  0  0  0  0  0  0
  151.2001  139.5286  154.6238 H   0  0  0  0  0  0  0  0  0  0  0  0
  153.5627  140.7383  160.2115 H   0  0  0  0  0  0  0  0  0  0  0  0
  152.8604  142.8570  161.3041 H   0  0  0  0  0  0  0  0  0  0  0  0
  151.2630  144.3864  160.1675 H   0  0  0  0  0  0  0  0  0  0  0  0
  150.3584  143.8002  157.9214 H   0  0  0  0  0  0  0  0  0  0  0  0
  149.6051  142.6126  156.0892 H   0  0  0  0  0  0  0  0  0  0  0  0
  150.8087  142.4801  154.8537 H   0  0  0  0  0  0  0  0  0  0  0  0
  149.5968  139.8542  155.3167 H   0  0  0  0  0  0  0  0  0  0  0  0
  149.1105  140.2007  153.0773 H   0  0  0  0  0  0  0  0  0  0  0  0
  147.3130  140.2187  154.8887 H   0  0  0  0  0  0  0  0  0  0  0  0
  147.6586  141.5156  156.0323 H   0  0  0  0  0  0  0  0  0  0  0  0
  146.2053  142.5151  156.4323 H   0  0  0  0  0  0  0  0  0  0  0  0
  144.3791  144.1135  156.7569 H   0  0  0  0  0  0  0  0  0  0  0  0
  142.8202  145.6724  155.9224 H   0  0  0  0  0  0  0  0  0  0  0  0
  143.5872  146.7926  154.8045 H   0  0  0  0  0  0  0  0  0  0  0  0
  144.5790  145.2332  152.5987 H   0  0  0  0  0  0  0  0  0  0  0  0
  146.4260  143.6205  152.2542 H   0  0  0  0  0  0  0  0  0  0  0  0
  1  2  1  0  0  0  0
  1 26  1  0  0  0  0
  1 27  1  0  0  0  0
  1 28  1  0  0  0  0
  2  3  1  0  0  0  0
  2 29  1  0  0  0  0
  2 30  1  0  0  0  0
  3 11  1  0  0  0  0
  3  4  2  0  0  0  0
  4  5  1  0  0  0  0
  5 10  2  0  0  0  0
  5  6  1  0  0  0  0
  6  7  2  0  0  0  0
  6 31  1  0  0  0  0
  7  8  1  0  0  0  0
  7 32  1  0  0  0  0
  8  9  2  0  0  0  0
  8 33  1  0  0  0  0
  9 10  1  0  0  0  0
  9 34  1  0  0  0  0
 10 11  1  0  0  0  0
 11 12  1  0  0  0  0
 12 13  1  0  0  0  0
 12 35  1  0  0  0  0
 12 36  1  0  0  0  0
 13 14  1  0  0  0  0
 13 15  1  0  0  0  0
 13 37  1  0  0  0  0
 14 38  1  0  0  0  0
 15 16  1  0  0  0  0
 15 39  1  0  0  0  0
 15 40  1  0  0  0  0
 16 17  1  0  0  0  0
 17 25  1  0  0  0  0
 17 18  2  0  0  0  0
 18 19  1  0  0  0  0
 18 41  1  0  0  0  0
 19 20  2  0  0  0  0
 19 42  1  0  0  0  0
 20 21  1  0  0  0  0
 20 24  1  0  0  0  0
 21 22  1  0  0  0  0
 21 43  1  0  0  0  0
 21 44  1  0  0  0  0
 22 23  3  0  0  0  0
 24 25  2  0  0  0  0
 24 45  1  0  0  0  0
 25 46  1  0  0  0  0
M  END
> <s_m_source_file>
AV-unprocessed.smi

> <i_m_source_file_index>
480

> <i_lp_mmshare_version>
43012

> <i_f3d_flags>
0

> <s_epik_input>
W2NIXTFbY0hdW2NIXVtjSF1jKGMxMiluKGMobjIpW0NIMl1bQ0gzXSlbQ0gyXVtDQEhdKFtPSF0pW0NIMl1PYzNbY0hdW2NIXWMoW0NIMl1DI04pW2NIXVtjSF0z

> <s_epik_cmdline>
J2VwaWtfcHl0aG9uJywgJy1waCcsICc3LjAnLCAnLXRuJywgJzgnLCAnLW1hJywgJzIwMCcsICctbWV0YWxfYmluZGluZycsICctaW1hZScsICc8aW5maWxlLm1hZT4nLCAnLW9tYWUnLCAnPG91dGZpbGUubWFlPic=

> <r_lp_tautomer_probability>
1

> <r_epik_Ionization_Penalty>
0.114213

> <r_epik_Ionization_Penalty_Charging>
0

> <r_epik_Ionization_Penalty_Neutral>
0.114213

> <r_epik_State_Penalty>
0.103875

> <r_epik_Charging_Adjusted_Penalty>
0.103875

> <i_epik_Tot_Q>
0

> <i_epik_Tot_abs_Q>
0

> <r_epik_Metal_State_Penalty>
0.000113526

> <b_epik_Metal_Only>
0

> <s_lp_Force_Field>
OPLS_2005

> <r_lp_Energy>
17.1637

> <b_lp_Chiralities_Consistent>
1

> <s_lp_Variant>
AV-unprocessed.smi:480-1

> <Gold.Version>
5.8.1

> <Gold.Id.Protein>
6NUR|6NUR_protein|mol2

> <Gold.PLP.Fitness>
59.4493

> <Gold.PLP.PLP>
-53.8095

> <Gold.PLP.part.hbond>
-5.6397

> <Gold.PLP.part.metal>
0.0000

> <Gold.PLP.part.buried>
-6.3479

> <Gold.PLP.part.nonpolar>
-40.9495

> <Gold.PLP.part.repulsive>
0.2712

> <Gold.PLP.ligand.clash>
0.0000

> <Gold.PLP.ligand.torsion>
1.6075

> <Gold.PLP.Chemscore.Hbond>
2.8980

> <Gold.PLP.Chemscore.CHOScore>
0.0000

> <Gold.PLP.Chemscore.Metal>
0.0000

> <Gold.Chemscore.Hbonds>
donor molecule, donor type, donor heavy atom, donor atom, acceptor molecule, acceptor atom, score
      L1  H    14    38       P1  7957  0.19
      P1  H  7989  7998       L1    14  0.35
      P1  H  7997  8010       L1     4  0.98
      P1  H  8011  8017       L1    14  1.00
      P1  H 10162 10167       L1    23  0.07

> <Gold.PLP.Chemscore.Internal.Correction>
0.1608

> <Gold.Rescore>
     Score         DG    S(hbond)    S(metal)    S(lipo)     H(rot)  DE(clash)    DE(int)     intcor
     18.76     -21.94       2.41        0.00     128.24       2.58       0.36       2.82       ----

> <Gold.Chemscore.Fitness>
18.7642

> <Gold.Chemscore.DG>
-21.9449

> <Gold.Chemscore.ZeroCoef>
-5.4800

> <Gold.Chemscore.Hbond>
2.4119

> <Gold.Chemscore.Metal>
0.0000

> <Gold.Chemscore.Lipo>
128.2362

> <Gold.Chemscore.Internal_Hbond>
0.0000

> <Gold.Chemscore.DEClash>
0.3583

> <Gold.Chemscore.DEInternal>
2.8224

> <Gold.Chemscore.Rot>
2.5759

> <Gold.Chemscore.Internal.Correction>
   9.000000E+99

> <Gold.Chemscore.Hbonds>
donor molecule, donor type, donor heavy atom, donor atom, acceptor molecule, acceptor atom, score
      L1  H    14    38       P1  7957  0.18
      P1  H  7989  7998       L1    14  0.17
      P1  H  7997  8010       L1     4  0.25
      P1  H  8011  8017       L1    14  0.52
      P1  H 10162 10167       L1    23  0.07

> <Gold.Chemscore.Hbond.Weighted>
-8.0556

> <Gold.Chemscore.Metal.Weighted>
-0.0000

> <Gold.Chemscore.Lipo.Weighted>
-15.0036

> <Gold.Chemscore.Internal_Hbond.Weighted>
0.0000

> <Gold.Chemscore.DEClash.Weighted>
0.3583

> <Gold.Chemscore.DEInternal.Weighted>
2.8224

> <Gold.Chemscore.Rot.Weighted>
6.5943

> <Gold.Chemscore.Internal.Correction.Weighted>
   9.000000E+99

> <Gold.Protein.RotatedTorsions>
[ 6907 6896 6895 6894 ] final -120.13 input  -60.11 | X-H torsion
[ 7974 7965 7964 7962 ] final   -2.85 input  175.53 | X-H torsion
[ 8008 7997 7996 7995 ] final   41.00 input   59.86 | X-H torsion
[ 10167 10162 10161 10158 ] final -149.21 input  -65.29 | X-H torsion
[ 10718 10713 10712 10709 ] final -146.06 input   66.30 | X-H torsion
[ 10763 10752 10751 10750 ] final -133.74 input  -60.55 | X-H torsion
[ 11005 11000 10999 10996 ] final  -28.98 input  -57.11 | X-H torsion

> <Gold.Protein.ActiveResidues>
 VAL166  LYS551  ARG553  GLY616  TRP617  ASP618  TYR619  PRO620  LYS621  CYS622 
 ASP623  PHE694  ASN695  SER759  ASP760  ASP761  ALA762  ILE779  LEU786  VAL792 
 PHE793  MET794  SER795  GLU796  ALA797  LYS798  CYS799  TRP800  GLU811  SER814 

> <Gold.Protein.RotatedAtoms>
  150.8366  133.8004  159.3077 H   0  0  0  0  0  0  0  0  0  0  0  0  # atno 6907 bound_to 6896
  151.5718  135.1060  160.0006 H   0  0  0  0  0  0  0  0  0  0  0  0  # atno 6908 bound_to 6896
  152.4437  133.7454  159.6720 H   0  0  0  0  0  0  0  0  0  0  0  0  # atno 6909 bound_to 6896
  146.2398  140.1633  142.8332 H   0  0  0  0  0  0  0  0  0  0  0  0  # atno 7974 bound_to 7965
  155.2624  140.3360  155.4272 H   0  0  0  0  0  0  0  0  0  0  0  0  # atno 8008 bound_to 7997
  156.2169  140.1792  156.7611 H   0  0  0  0  0  0  0  0  0  0  0  0  # atno 8009 bound_to 7997
  154.5766  140.0661  156.9028 H   0  0  0  0  0  0  0  0  0  0  0  0  # atno 8010 bound_to 7997
  139.7462  143.8586  152.2575 H   0  0  0  0  0  0  0  0  0  0  0  0  # atno 10167 bound_to 10162
  156.3901  130.7881  151.2083 H   0  0  0  0  0  0  0  0  0  0  0  0  # atno 10718 bound_to 10713
  154.8729  135.3756  154.4623 H   0  0  0  0  0  0  0  0  0  0  0  0  # atno 10763 bound_to 10752
  153.5290  135.7028  153.5698 H   0  0  0  0  0  0  0  0  0  0  0  0  # atno 10764 bound_to 10752
  153.3911  135.3972  155.1889 H   0  0  0  0  0  0  0  0  0  0  0  0  # atno 10765 bound_to 10752
  140.9256  133.7370  156.0863 H   0  0  0  0  0  0  0  0  0  0  0  0  # atno 11005 bound_to 11000
  145.0071  140.8682  143.5246 LP  0  0  0  0  0  0  0  0  0  0  0  0  # atno 17320 bound_to 7965
  145.1661  139.2430  143.5366 LP  0  0  0  0  0  0  0  0  0  0  0  0  # atno 17321 bound_to 7965
  139.8552  144.7145  150.9166 LP  0  0  0  0  0  0  0  0  0  0  0  0  # atno 17342 bound_to 10162
  140.7792  143.3865  151.1384 LP  0  0  0  0  0  0  0  0  0  0  0  0  # atno 17343 bound_to 10162
  157.7498  131.0318  150.4198 LP  0  0  0  0  0  0  0  0  0  0  0  0  # atno 17370 bound_to 10713
  156.4458  130.4001  149.6668 LP  0  0  0  0  0  0  0  0  0  0  0  0  # atno 17371 bound_to 10713
  140.7930  134.3596  157.5459 LP  0  0  0  0  0  0  0  0  0  0  0  0  # atno 17394 bound_to 11000
  139.8785  134.9152  156.3124 LP  0  0  0  0  0  0  0  0  0  0  0  0  # atno 17395 bound_to 11000

$$$$
