AV-unprocessed.smi:2078|AV-procd|sdf|8466|dock6
  -GOLD-   2272011163D 1   1.00000     0.00000
 Structure written by MMmdl.
 42 43  0  0  0  0  0  0  0  0  2 V2000
  151.4369  140.5441  158.2873 C   0  0  0  0  0  0  0  0  0  0  0  0
  151.1626  140.2823  156.8460 C   0  0  0  0  0  0  0  0  0  0  0  0
  150.0129  140.0443  156.1468 C   0  0  0  0  0  0  0  0  0  0  0  0
  150.4774  139.8778  154.8150 C   0  0  0  0  0  0  0  0  0  0  0  0
  149.5726  139.6080  153.7568 N   0  0  0  0  0  0  0  0  0  0  0  0
  148.3155  139.1424  153.8536 C   0  0  0  0  0  0  0  0  0  0  0  0
  147.7370  138.8700  154.9060 O   0  0  0  0  0  0  0  0  0  0  0  0
  147.7507  139.0028  152.6454 N   0  0  0  0  0  0  0  0  0  0  0  0
  146.3895  138.5349  152.4108 C   0  0  0  0  0  0  0  0  0  0  0  0
  146.0695  137.2782  153.2438 C   0  0  0  0  0  0  0  0  0  0  0  0
  146.1179  136.0342  152.4346 N   0  3  2  0  0  0  0  0  0  0  0  0
  145.0631  136.0050  151.3884 C   0  0  0  0  0  0  0  0  0  0  0  0
  145.2186  134.7775  150.4763 C   0  0  0  0  0  0  0  0  0  0  0  0
  145.2141  133.4798  151.2938 C   0  0  0  0  0  0  0  0  0  0  0  0
  146.2917  133.5363  152.3896 C   0  0  2  0  0  0  0  0  0  0  0  0
  146.2921  132.2596  153.2420 C   0  0  0  0  0  0  0  0  0  0  0  0
  146.1029  134.7957  153.2591 C   0  0  0  0  0  0  0  0  0  0  0  0
  151.7913  140.0037  154.7101 N   0  0  0  0  0  0  0  0  0  0  0  0
  152.2374  140.2624  156.0115 O   0  0  0  0  0  0  0  0  0  0  0  0
  150.5367  140.8868  158.7980 H   0  0  0  0  0  0  0  0  0  0  0  0
  152.2035  141.3105  158.4045 H   0  0  0  0  0  0  0  0  0  0  0  0
  151.7843  139.6379  158.7842 H   0  0  0  0  0  0  0  0  0  0  0  0
  149.0045  139.9969  156.5302 H   0  0  0  0  0  0  0  0  0  0  0  0
  149.9201  139.7916  152.8273 H   0  0  0  0  0  0  0  0  0  0  0  0
  148.2962  139.2502  151.8323 H   0  0  0  0  0  0  0  0  0  0  0  0
  145.6789  139.3327  152.6336 H   0  0  0  0  0  0  0  0  0  0  0  0
  146.3009  138.3295  151.3449 H   0  0  0  0  0  0  0  0  0  0  0  0
  146.7459  137.1932  154.0957 H   0  0  0  0  0  0  0  0  0  0  0  0
  145.0668  137.3889  153.6590 H   0  0  0  0  0  0  0  0  0  0  0  0
  144.0795  136.0025  151.8610 H   0  0  0  0  0  0  0  0  0  0  0  0
  145.1209  136.9083  150.7798 H   0  0  0  0  0  0  0  0  0  0  0  0
  144.4143  134.7558  149.7404 H   0  0  0  0  0  0  0  0  0  0  0  0
  146.1501  134.8539  149.9137 H   0  0  0  0  0  0  0  0  0  0  0  0
  144.2311  133.3337  151.7443 H   0  0  0  0  0  0  0  0  0  0  0  0
  145.3861  132.6268  150.6363 H   0  0  0  0  0  0  0  0  0  0  0  0
  147.2659  133.6062  151.9029 H   0  0  0  0  0  0  0  0  0  0  0  0
  145.3398  132.1253  153.7562 H   0  0  0  0  0  0  0  0  0  0  0  0
  147.0768  132.2914  153.9985 H   0  0  0  0  0  0  0  0  0  0  0  0
  146.4650  131.3765  152.6261 H   0  0  0  0  0  0  0  0  0  0  0  0
  146.8984  134.8314  154.0026 H   0  0  0  0  0  0  0  0  0  0  0  0
  145.1619  134.7371  153.8089 H   0  0  0  0  0  0  0  0  0  0  0  0
  146.9993  136.0507  151.9413 H   0  0  0  0  0  0  0  0  0  0  0  0
  1  2  1  0  0  0  0
  1 20  1  0  0  0  0
  1 21  1  0  0  0  0
  1 22  1  0  0  0  0
  2 19  1  0  0  0  0
  2  3  2  0  0  0  0
  3  4  1  0  0  0  0
  3 23  1  0  0  0  0
  4  5  1  0  0  0  0
  4 18  2  0  0  0  0
  5  6  1  0  0  0  0
  5 24  1  0  0  0  0
  6  7  2  0  0  0  0
  6  8  1  0  0  0  0
  8  9  1  0  0  0  0
  8 25  1  0  0  0  0
  9 10  1  0  0  0  0
  9 26  1  0  0  0  0
  9 27  1  0  0  0  0
 10 11  1  0  0  0  0
 10 28  1  0  0  0  0
 10 29  1  0  0  0  0
 11 17  1  0  0  0  0
 11 12  1  0  0  0  0
 11 42  1  0  0  0  0
 12 13  1  0  0  0  0
 12 30  1  0  0  0  0
 12 31  1  0  0  0  0
 13 14  1  0  0  0  0
 13 32  1  0  0  0  0
 13 33  1  0  0  0  0
 14 15  1  0  0  0  0
 14 34  1  0  0  0  0
 14 35  1  0  0  0  0
 15 16  1  0  0  0  0
 15 17  1  0  0  0  0
 15 36  1  0  0  0  0
 16 37  1  0  0  0  0
 16 38  1  0  0  0  0
 16 39  1  0  0  0  0
 17 40  1  0  0  0  0
 17 41  1  0  0  0  0
 18 19  1  0  0  0  0
M  CHG  1  11   1
M  END
> <s_m_source_file>
AV-unprocessed.smi

> <i_m_source_file_index>
2078

> <i_lp_mmshare_version>
43012

> <i_f3d_flags>
0

> <s_epik_input>
W0NIM11jMVtjSF1jKG5vMSlbTkhdQyg9TylbTkhdW0NIMl1bQ0gyXU4yW0NIMl1bQ0gyXVtDSDJdW0NAQEhdKFtDSDNdKVtDSDJdMg==

> <s_epik_cmdline>
J2VwaWtfcHl0aG9uJywgJy1waCcsICc3LjAnLCAnLXRuJywgJzgnLCAnLW1hJywgJzIwMCcsICctbWV0YWxfYmluZGluZycsICctaW1hZScsICc8aW5maWxlLm1hZT4nLCAnLW9tYWUnLCAnPG91dGZpbGUubWFlPic=

> <r_epik_Ionization_Penalty>
0.00216453

> <r_epik_Ionization_Penalty_Charging>
0.00212879

> <r_epik_Ionization_Penalty_Neutral>
3.57418e-05

> <r_epik_State_Penalty>
0.00146033

> <r_epik_Charging_Adjusted_Penalty>
0.00358912

> <i_epik_Tot_Q>
1

> <i_epik_Tot_abs_Q>
1

> <r_epik_Metal_State_Penalty>
0.0215827

> <b_epik_Metal_Only>
0

> <s_lp_Force_Field>
OPLS_2005

> <r_lp_Energy>
12.7075

> <b_lp_Chiralities_Consistent>
1

> <s_lp_Variant>
AV-unprocessed.smi:2078-4

> <Gold.Version>
5.8.1

> <Gold.Id.Protein>
6NUR|6NUR_protein|mol2

> <Gold.PLP.Fitness>
45.2506

> <Gold.PLP.PLP>
-29.5669

> <Gold.PLP.part.hbond>
-5.9574

> <Gold.PLP.part.metal>
0.0000

> <Gold.PLP.part.buried>
-2.9894

> <Gold.PLP.part.nonpolar>
-21.0498

> <Gold.PLP.part.repulsive>
0.3110

> <Gold.PLP.ligand.clash>
0.0000

> <Gold.PLP.ligand.torsion>
0.5015

> <Gold.PLP.Chemscore.Hbond>
5.5568

> <Gold.PLP.Chemscore.CHOScore>
0.0000

> <Gold.PLP.Chemscore.Metal>
0.0000

> <Gold.Chemscore.Hbonds>
donor molecule, donor type, donor heavy atom, donor atom, acceptor molecule, acceptor atom, score
      L1  H     5    24       P1  7957  1.00
      L1  H     8    25       P1  7957  1.00
      L1  H    11    42       P1  7948  2.00
      P1  H  7989  7998       L1    18  0.53
      P1  H  7997  8008       L1    19  0.76

> <Gold.PLP.Chemscore.Internal.Correction>
0.0164

> <Gold.Rescore>
     Score         DG    S(hbond)    S(metal)    S(lipo)     H(rot)  DE(clash)    DE(int)     intcor
     17.80     -20.76       3.86        0.00      54.85       1.57       0.02       2.94       ----

> <Gold.Chemscore.Fitness>
17.8026

> <Gold.Chemscore.DG>
-20.7631

> <Gold.Chemscore.ZeroCoef>
-5.4800

> <Gold.Chemscore.Hbond>
3.8574

> <Gold.Chemscore.Metal>
0.0000

> <Gold.Chemscore.Lipo>
54.8545

> <Gold.Chemscore.Internal_Hbond>
0.0000

> <Gold.Chemscore.DEClash>
0.0244

> <Gold.Chemscore.DEInternal>
2.9361

> <Gold.Chemscore.Rot>
1.5697

> <Gold.Chemscore.Internal.Correction>
   9.000000E+99

> <Gold.Chemscore.Hbonds>
donor molecule, donor type, donor heavy atom, donor atom, acceptor molecule, acceptor atom, score
      L1  H     5    24       P1  7957  0.94
      L1  H     8    25       P1  7957  0.95
      L1  H    11    42       P1  7948  0.97
      P1  H  7989  7998       L1    18  0.03
      P1  H  7997  8008       L1    19  0.71

> <Gold.Chemscore.Hbond.Weighted>
-12.8836

> <Gold.Chemscore.Metal.Weighted>
-0.0000

> <Gold.Chemscore.Lipo.Weighted>
-6.4180

> <Gold.Chemscore.Internal_Hbond.Weighted>
0.0000

> <Gold.Chemscore.DEClash.Weighted>
0.0244

> <Gold.Chemscore.DEInternal.Weighted>
2.9361

> <Gold.Chemscore.Rot.Weighted>
4.0185

> <Gold.Chemscore.Internal.Correction.Weighted>
   9.000000E+99

> <Gold.Protein.RotatedTorsions>
[ 6907 6896 6895 6894 ] final   62.00 input  -60.11 | X-H torsion
[ 7974 7965 7964 7962 ] final  -94.14 input  175.53 | X-H torsion
[ 8008 7997 7996 7995 ] final  -43.93 input   59.86 | X-H torsion
[ 10167 10162 10161 10158 ] final  -60.23 input  -65.29 | X-H torsion
[ 10718 10713 10712 10709 ] final  165.67 input   66.30 | X-H torsion
[ 10763 10752 10751 10750 ] final -159.57 input  -60.55 | X-H torsion
[ 11005 11000 10999 10996 ] final  -43.48 input  -57.11 | X-H torsion

> <Gold.Protein.ActiveResidues>
 VAL166  LYS551  ARG553  GLY616  TRP617  ASP618  TYR619  PRO620  LYS621  CYS622 
 ASP623  PHE694  ASN695  SER759  ASP760  ASP761  ALA762  ILE779  LEU786  VAL792 
 PHE793  MET794  SER795  GLU796  ALA797  LYS798  CYS799  TRP800  GLU811  SER814 

> <Gold.Protein.RotatedAtoms>
  152.4136  134.6081  160.0018 H   0  0  0  0  0  0  0  0  0  0  0  0  # atno 6907 bound_to 6896
  151.6252  133.3330  159.3104 H   0  0  0  0  0  0  0  0  0  0  0  0  # atno 6908 bound_to 6896
  150.8025  134.7168  159.6680 H   0  0  0  0  0  0  0  0  0  0  0  0  # atno 6909 bound_to 6896
  145.3773  140.9513  143.2413 H   0  0  0  0  0  0  0  0  0  0  0  0  # atno 7974 bound_to 7965
  154.3997  140.1435  156.3600 H   0  0  0  0  0  0  0  0  0  0  0  0  # atno 8008 bound_to 7997
  155.8190  140.3470  155.5481 H   0  0  0  0  0  0  0  0  0  0  0  0  # atno 8009 bound_to 7997
  155.8308  140.0912  157.1784 H   0  0  0  0  0  0  0  0  0  0  0  0  # atno 8010 bound_to 7997
  140.6085  143.2380  151.5766 H   0  0  0  0  0  0  0  0  0  0  0  0  # atno 10167 bound_to 10162
  157.0769  131.0381  151.2590 H   0  0  0  0  0  0  0  0  0  0  0  0  # atno 10718 bound_to 10713
  154.7463  135.3081  154.8638 H   0  0  0  0  0  0  0  0  0  0  0  0  # atno 10763 bound_to 10752
  153.9438  135.6771  153.4748 H   0  0  0  0  0  0  0  0  0  0  0  0  # atno 10764 bound_to 10752
  153.1060  135.4889  154.8878 H   0  0  0  0  0  0  0  0  0  0  0  0  # atno 10765 bound_to 10752
  141.0387  133.6789  156.2739 H   0  0  0  0  0  0  0  0  0  0  0  0  # atno 11005 bound_to 11000
  144.8533  139.5288  143.6846 LP  0  0  0  0  0  0  0  0  0  0  0  0  # atno 17320 bound_to 7965
  146.2858  139.7001  142.9196 LP  0  0  0  0  0  0  0  0  0  0  0  0  # atno 17321 bound_to 7965
  139.5343  144.2827  152.1216 LP  0  0  0  0  0  0  0  0  0  0  0  0  # atno 17342 bound_to 10162
  140.2021  144.4647  150.6426 LP  0  0  0  0  0  0  0  0  0  0  0  0  # atno 17343 bound_to 10162
  157.4832  130.7778  149.7435 LP  0  0  0  0  0  0  0  0  0  0  0  0  # atno 17370 bound_to 10713
  155.9934  130.3924  150.2900 LP  0  0  0  0  0  0  0  0  0  0  0  0  # atno 17371 bound_to 10713
  140.6275  134.5298  157.5555 LP  0  0  0  0  0  0  0  0  0  0  0  0  # atno 17394 bound_to 11000
  139.9259  134.8056  156.1070 LP  0  0  0  0  0  0  0  0  0  0  0  0  # atno 17395 bound_to 11000

$$$$
