AV-unprocessed.smi:197|AV-procd|sdf|1544|dock7
  -GOLD-   2262019403D 1   1.00000     0.00000
 Structure written by MMmdl.
 54 57  0  0  0  0  0  0  0  0  1 V2000
  146.2250  143.1537  161.5149 C   0  0  0  0  0  0  0  0  0  0  0  0
  146.9743  142.4797  160.5201 O   0  0  0  0  0  0  0  0  0  0  0  0
  147.1563  143.2616  159.3510 C   0  0  0  0  0  0  0  0  0  0  0  0
  147.9058  142.4293  158.3000 C   0  0  0  0  0  0  0  0  0  0  0  0
  149.4519  142.5006  158.4133 C   0  0  2  0  0  0  0  0  0  0  0  0
  149.9003  143.7813  159.1569 C   0  0  0  0  0  0  0  0  0  0  0  0
  151.3200  143.8460  159.2290 O   0  0  0  0  0  0  0  0  0  0  0  0
  151.9142  143.9028  157.9395 C   0  0  0  0  0  0  0  0  0  0  0  0
  151.5599  142.6239  157.1697 C   0  0  0  0  0  0  0  0  0  0  0  0
  150.1126  142.4580  157.1017 N   0  0  0  0  0  0  0  0  0  0  0  0
  149.7929  141.4336  156.2774 C   0  0  0  0  0  0  0  0  0  0  0  0
  149.3117  141.7608  155.0529 N   0  0  0  0  0  0  0  0  0  0  0  0
  148.9683  140.7995  154.1906 C   0  0  0  0  0  0  0  0  0  0  0  0
  149.0299  139.4754  154.3477 N   0  0  0  0  0  0  0  0  0  0  0  0
  149.5296  139.1428  155.5726 C   0  0  0  0  0  0  0  0  0  0  0  0
  149.9338  140.0510  156.5917 C   0  0  0  0  0  0  0  0  0  0  0  0
  150.3889  139.3451  157.6992 N   0  0  0  0  0  0  0  0  0  0  0  0
  150.2476  138.0933  157.3603 C   0  0  0  0  0  0  0  0  0  0  0  0
  149.7494  137.8800  156.0951 N   0  0  0  0  0  0  0  0  0  0  0  0
  149.4917  136.5930  155.4677 C   0  0  0  0  0  0  0  0  0  0  0  0
  150.7700  135.7604  155.1717 C   0  0  1  0  0  0  0  0  0  0  0  0
  151.5397  136.4047  154.1743 O   0  0  0  0  0  0  0  0  0  0  0  0
  151.6472  135.5167  156.3940 C   0  0  0  0  0  0  0  0  0  0  0  0
  150.9770  134.3137  157.0514 C   0  0  0  0  0  0  0  0  0  0  0  0
  150.3629  133.5851  155.9916 O   0  0  0  0  0  0  0  0  0  0  0  0
  150.4856  134.3020  154.7659 C   0  0  1  0  0  0  0  0  0  0  0  0
  149.2652  134.0594  153.8655 C   0  0  0  0  0  0  0  0  0  0  0  0
  146.1012  142.5044  162.3815 H   0  0  0  0  0  0  0  0  0  0  0  0
  145.2326  143.4211  161.1496 H   0  0  0  0  0  0  0  0  0  0  0  0
  146.7340  144.0606  161.8435 H   0  0  0  0  0  0  0  0  0  0  0  0
  146.1826  143.5524  158.9543 H   0  0  0  0  0  0  0  0  0  0  0  0
  147.6916  144.1828  159.5810 H   0  0  0  0  0  0  0  0  0  0  0  0
  147.5565  141.4022  158.4035 H   0  0  0  0  0  0  0  0  0  0  0  0
  147.6008  142.7460  157.3021 H   0  0  0  0  0  0  0  0  0  0  0  0
  149.8020  141.6479  158.9943 H   0  0  0  0  0  0  0  0  0  0  0  0
  149.5128  144.6756  158.6658 H   0  0  0  0  0  0  0  0  0  0  0  0
  149.5207  143.7902  160.1776 H   0  0  0  0  0  0  0  0  0  0  0  0
  151.5723  144.7899  157.4038 H   0  0  0  0  0  0  0  0  0  0  0  0
  152.9953  143.9904  158.0481 H   0  0  0  0  0  0  0  0  0  0  0  0
  151.9813  142.6718  156.1644 H   0  0  0  0  0  0  0  0  0  0  0  0
  152.0030  141.7579  157.6639 H   0  0  0  0  0  0  0  0  0  0  0  0
  148.5893  141.1394  153.2381 H   0  0  0  0  0  0  0  0  0  0  0  0
  150.5126  137.2846  158.0260 H   0  0  0  0  0  0  0  0  0  0  0  0
  148.8187  136.0336  156.1186 H   0  0  0  0  0  0  0  0  0  0  0  0
  148.9371  136.7767  154.5467 H   0  0  0  0  0  0  0  0  0  0  0  0
  151.1324  136.2536  153.3352 H   0  0  0  0  0  0  0  0  0  0  0  0
  152.6540  135.2305  156.0843 H   0  0  0  0  0  0  0  0  0  0  0  0
  151.7499  136.3699  157.0631 H   0  0  0  0  0  0  0  0  0  0  0  0
  151.6869  133.6944  157.6002 H   0  0  0  0  0  0  0  0  0  0  0  0
  150.2027  134.6379  157.7475 H   0  0  0  0  0  0  0  0  0  0  0  0
  151.3684  133.8978  154.2663 H   0  0  0  0  0  0  0  0  0  0  0  0
  149.3397  134.6345  152.9423 H   0  0  0  0  0  0  0  0  0  0  0  0
  148.3342  134.3339  154.3612 H   0  0  0  0  0  0  0  0  0  0  0  0
  149.1911  133.0063  153.5941 H   0  0  0  0  0  0  0  0  0  0  0  0
  1  2  1  0  0  0  0
  1 28  1  0  0  0  0
  1 29  1  0  0  0  0
  1 30  1  0  0  0  0
  2  3  1  0  0  0  0
  3  4  1  0  0  0  0
  3 31  1  0  0  0  0
  3 32  1  0  0  0  0
  4  5  1  0  0  0  0
  4 33  1  0  0  0  0
  4 34  1  0  0  0  0
  5 10  1  0  0  0  0
  5  6  1  0  0  0  0
  5 35  1  0  0  0  0
  6  7  1  0  0  0  0
  6 36  1  0  0  0  0
  6 37  1  0  0  0  0
  7  8  1  0  0  0  0
  8  9  1  0  0  0  0
  8 38  1  0  0  0  0
  8 39  1  0  0  0  0
  9 10  1  0  0  0  0
  9 40  1  0  0  0  0
  9 41  1  0  0  0  0
 10 11  1  0  0  0  0
 11 16  1  0  0  0  0
 11 12  2  0  0  0  0
 12 13  1  0  0  0  0
 13 14  2  0  0  0  0
 13 42  1  0  0  0  0
 14 15  1  0  0  0  0
 15 19  1  0  0  0  0
 15 16  2  0  0  0  0
 16 17  1  0  0  0  0
 17 18  2  0  0  0  0
 18 19  1  0  0  0  0
 18 43  1  0  0  0  0
 19 20  1  0  0  0  0
 20 21  1  0  0  0  0
 20 44  1  0  0  0  0
 20 45  1  0  0  0  0
 21 26  1  0  0  0  0
 21 22  1  0  0  0  0
 21 23  1  0  0  0  0
 22 46  1  0  0  0  0
 23 24  1  0  0  0  0
 23 47  1  0  0  0  0
 23 48  1  0  0  0  0
 24 25  1  0  0  0  0
 24 49  1  0  0  0  0
 24 50  1  0  0  0  0
 25 26  1  0  0  0  0
 26 27  1  0  0  0  0
 26 51  1  0  0  0  0
 27 52  1  0  0  0  0
 27 53  1  0  0  0  0
 27 54  1  0  0  0  0
M  END
> <s_m_source_file>
AV-unprocessed.smi

> <i_m_source_file_index>
197

> <i_lp_mmshare_version>
43012

> <i_f3d_flags>
0

> <s_epik_input>
W0NIM11PW0NIMl1bQ0gyXVtDQEBIXTFbQ0gyXU9bQ0gyXVtDSDJdTjFjKG5bY0hdbjIpYyhjMjMpbltjSF1uM1tDSDJdW0NAQF00KFtPSF0pW0NIMl1bQ0gyXU9bQ0BIXTRbQ0gzXQ==

> <s_epik_cmdline>
J2VwaWtfcHl0aG9uJywgJy1waCcsICc3LjAnLCAnLXRuJywgJzgnLCAnLW1hJywgJzIwMCcsICctbWV0YWxfYmluZGluZycsICctaW1hZScsICc8aW5maWxlLm1hZT4nLCAnLW9tYWUnLCAnPG91dGZpbGUubWFlPic=

> <r_lp_tautomer_probability>
1

> <r_epik_Ionization_Penalty>
0.000106218

> <r_epik_Ionization_Penalty_Charging>
0

> <r_epik_Ionization_Penalty_Neutral>
0.000106218

> <r_epik_State_Penalty>
-0

> <r_epik_Charging_Adjusted_Penalty>
0

> <i_epik_Tot_Q>
0

> <i_epik_Tot_abs_Q>
0

> <r_epik_Metal_State_Penalty>
-0

> <b_epik_Metal_Only>
0

> <s_lp_Force_Field>
OPLS_2005

> <r_lp_Energy>
43.403

> <b_lp_Chiralities_Consistent>
1

> <s_lp_Variant>
AV-unprocessed.smi:197-1

> <Gold.Version>
5.8.1

> <Gold.Id.Protein>
6NUR|6NUR_protein|mol2

> <Gold.PLP.Fitness>
40.8784

> <Gold.PLP.PLP>
-29.1959

> <Gold.PLP.part.hbond>
-4.0000

> <Gold.PLP.part.metal>
0.0000

> <Gold.PLP.part.buried>
-2.5664

> <Gold.PLP.part.nonpolar>
-24.2204

> <Gold.PLP.part.repulsive>
2.2298

> <Gold.PLP.ligand.clash>
0.0000

> <Gold.PLP.ligand.torsion>
0.9518

> <Gold.PLP.Chemscore.Hbond>
3.6279

> <Gold.PLP.Chemscore.CHOScore>
0.7984

> <Gold.PLP.Chemscore.Metal>
0.0000

> <Gold.Chemscore.Hbonds>
donor molecule, donor type, donor heavy atom, donor atom, acceptor molecule, acceptor atom, score
      L1  H    22    46       P1  7949  1.00
      P1  H  6933  6944       L1     2  0.60
      P1  H  6934  6946       L1     2  0.83
      P1  H 10752 10765       L1    22  0.75
      L1  C    13    42       P1  7957  0.69

> <Gold.PLP.Chemscore.Internal.Correction>
0.3069

> <Gold.Rescore>
     Score         DG    S(hbond)    S(metal)    S(lipo)     H(rot)  DE(clash)    DE(int)     intcor
      8.12     -12.55       1.80        0.00      71.14       2.84       2.59       1.84       ----

> <Gold.Chemscore.Fitness>
8.1173

> <Gold.Chemscore.DG>
-12.5511

> <Gold.Chemscore.ZeroCoef>
-5.4800

> <Gold.Chemscore.Hbond>
1.7985

> <Gold.Chemscore.Metal>
0.0000

> <Gold.Chemscore.Lipo>
71.1425

> <Gold.Chemscore.Internal_Hbond>
0.0000

> <Gold.Chemscore.DEClash>
2.5929

> <Gold.Chemscore.DEInternal>
1.8410

> <Gold.Chemscore.Rot>
2.8358

> <Gold.Chemscore.Internal.Correction>
   9.000000E+99

> <Gold.Chemscore.Hbonds>
donor molecule, donor type, donor heavy atom, donor atom, acceptor molecule, acceptor atom, score
      L1  H    22    46       P1  7949  0.38
      P1  H  6933  6944       L1     2  0.08
      P1  H  6934  6946       L1     2  0.68
      P1  H 10752 10765       L1    22  0.09

> <Gold.Chemscore.Hbond.Weighted>
-6.0070

> <Gold.Chemscore.Metal.Weighted>
-0.0000

> <Gold.Chemscore.Lipo.Weighted>
-8.3237

> <Gold.Chemscore.Internal_Hbond.Weighted>
0.0000

> <Gold.Chemscore.DEClash.Weighted>
2.5929

> <Gold.Chemscore.DEInternal.Weighted>
1.8410

> <Gold.Chemscore.Rot.Weighted>
7.2596

> <Gold.Chemscore.Internal.Correction.Weighted>
   9.000000E+99

> <Gold.Protein.RotatedTorsions>
[ 6907 6896 6895 6894 ] final -101.22 input  -60.11 | X-H torsion
[ 7974 7965 7964 7962 ] final   93.40 input  175.53 | X-H torsion
[ 8008 7997 7996 7995 ] final -129.50 input   59.86 | X-H torsion
[ 10167 10162 10161 10158 ] final  169.36 input  -65.29 | X-H torsion
[ 10718 10713 10712 10709 ] final  151.51 input   66.30 | X-H torsion
[ 10763 10752 10751 10750 ] final  177.32 input  -60.55 | X-H torsion
[ 11005 11000 10999 10996 ] final  146.30 input  -57.11 | X-H torsion

> <Gold.Protein.ActiveResidues>
 VAL166  LYS551  ARG553  GLY616  TRP617  ASP618  TYR619  PRO620  LYS621  CYS622 
 ASP623  PHE694  ASN695  SER759  ASP760  ASP761  ALA762  ILE779  LEU786  VAL792 
 PHE793  MET794  SER795  GLU796  ALA797  LYS798  CYS799  TRP800  GLU811  SER814 

> <Gold.Protein.RotatedAtoms>
  150.7146  134.0768  159.3883 H   0  0  0  0  0  0  0  0  0  0  0  0  # atno 6907 bound_to 6896
  151.8751  135.0472  160.0492 H   0  0  0  0  0  0  0  0  0  0  0  0  # atno 6908 bound_to 6896
  152.2612  133.5263  159.5419 H   0  0  0  0  0  0  0  0  0  0  0  0  # atno 6909 bound_to 6896
  145.4795  139.2279  143.2890 H   0  0  0  0  0  0  0  0  0  0  0  0  # atno 7974 bound_to 7965
  155.2803  140.0444  157.3015 H   0  0  0  0  0  0  0  0  0  0  0  0  # atno 8008 bound_to 7997
  154.5601  140.2343  155.8317 H   0  0  0  0  0  0  0  0  0  0  0  0  # atno 8009 bound_to 7997
  156.2040  140.3018  155.9594 H   0  0  0  0  0  0  0  0  0  0  0  0  # atno 8010 bound_to 7997
  139.4990  144.3715  151.9720 H   0  0  0  0  0  0  0  0  0  0  0  0  # atno 10167 bound_to 10162
  157.2698  131.0814  151.1608 H   0  0  0  0  0  0  0  0  0  0  0  0  # atno 10718 bound_to 10713
  154.4929  135.2780  155.1482 H   0  0  0  0  0  0  0  0  0  0  0  0  # atno 10763 bound_to 10752
  154.3147  135.6222  153.5485 H   0  0  0  0  0  0  0  0  0  0  0  0  # atno 10764 bound_to 10752
  152.9890  135.5728  154.5354 H   0  0  0  0  0  0  0  0  0  0  0  0  # atno 10765 bound_to 10752
  140.0782  134.9112  157.1457 H   0  0  0  0  0  0  0  0  0  0  0  0  # atno 11005 bound_to 11000
  146.2349  140.5580  142.8959 LP  0  0  0  0  0  0  0  0  0  0  0  0  # atno 17320 bound_to 7965
  144.7897  140.6008  143.6549 LP  0  0  0  0  0  0  0  0  0  0  0  0  # atno 17321 bound_to 7965
  140.3151  144.3493  150.6024 LP  0  0  0  0  0  0  0  0  0  0  0  0  # atno 17342 bound_to 10162
  140.5768  143.2176  151.7501 LP  0  0  0  0  0  0  0  0  0  0  0  0  # atno 17343 bound_to 10162
  157.3084  130.6877  149.6202 LP  0  0  0  0  0  0  0  0  0  0  0  0  # atno 17370 bound_to 10713
  155.9663  130.4371  150.5160 LP  0  0  0  0  0  0  0  0  0  0  0  0  # atno 17371 bound_to 10713
  140.3526  134.2581  155.7196 LP  0  0  0  0  0  0  0  0  0  0  0  0  # atno 17394 bound_to 11000
  141.2037  133.7905  157.0325 LP  0  0  0  0  0  0  0  0  0  0  0  0  # atno 17395 bound_to 11000

$$$$
