AV-unprocessed.smi:72|AV-procd|sdf|724|dock9
  -GOLD-   2262017 53D 1   1.00000     0.00000
 Structure written by MMmdl.
 28 29  0  0  0  0  0  0  0  0  2 V2000
  148.6045  136.7316  161.1359 N   0  0  0  0  0  0  0  0  0  0  0  0
  148.6445  136.8294  159.8799 C   0  0  0  0  0  0  0  0  0  0  0  0
  147.8556  137.8352  159.2036 N   0  0  0  0  0  0  0  0  0  0  0  0
  147.9573  137.9170  157.9127 C   0  0  0  0  0  0  0  0  0  0  0  0
  148.8462  137.0452  157.1512 N   0  0  0  0  0  0  0  0  0  0  0  0
  148.9796  137.1277  155.6370 C   0  0  1  0  0  0  0  0  0  0  0  0
  148.1826  138.1659  155.1414 O   0  0  0  0  0  0  0  0  0  0  0  0
  148.9785  139.3287  154.9308 C   0  0  2  0  0  0  0  0  0  0  0  0
  148.2653  140.3319  154.0079 C   0  0  0  0  0  0  0  0  0  0  0  0
  149.1919  141.2792  153.5217 O   0  0  0  0  0  0  0  0  0  0  0  0
  150.2774  138.7274  154.3862 C   0  0  2  0  0  0  0  0  0  0  0  0
  150.1536  138.4481  153.0009 O   0  0  0  0  0  0  0  0  0  0  0  0
  150.4323  137.4624  155.2306 C   0  0  2  0  0  0  0  0  0  0  0  0
  151.0749  136.4164  154.5258 O   0  0  0  0  0  0  0  0  0  0  0  0
  149.5697  136.0348  157.8412 C   0  0  0  0  0  0  0  0  0  0  0  0
  150.2741  135.2713  157.1799 O   0  0  0  0  0  0  0  0  0  0  0  0
  149.4552  135.9519  159.1959 N   0  5  0  0  0  0  0  0  0  0  0  0
  148.6090  136.1720  155.2623 H   0  0  0  0  0  0  0  0  0  0  0  0
  149.2001  139.7985  155.8910 H   0  0  0  0  0  0  0  0  0  0  0  0
  151.1228  139.4030  154.5205 H   0  0  0  0  0  0  0  0  0  0  0  0
  151.0124  137.6995  156.1240 H   0  0  0  0  0  0  0  0  0  0  0  0
  149.1981  135.9915  161.4809 H   0  0  0  0  0  0  0  0  0  0  0  0
  147.3847  138.6391  157.3311 H   0  0  0  0  0  0  0  0  0  0  0  0
  147.8430  139.8149  153.1458 H   0  0  0  0  0  0  0  0  0  0  0  0
  147.4456  140.8354  154.5213 H   0  0  0  0  0  0  0  0  0  0  0  0
  149.6171  140.9151  152.7602 H   0  0  0  0  0  0  0  0  0  0  0  0
  149.5368  137.7391  152.8983 H   0  0  0  0  0  0  0  0  0  0  0  0
  150.8922  136.5271  153.6044 H   0  0  0  0  0  0  0  0  0  0  0  0
  1  2  2  0  0  0  0
  1 22  1  0  0  0  0
  2 17  1  0  0  0  0
  2  3  1  0  0  0  0
  3  4  2  0  0  0  0
  4  5  1  0  0  0  0
  4 23  1  0  0  0  0
  5  6  1  0  0  0  0
  5 15  1  0  0  0  0
  6 18  1  0  0  0  0
  6 13  1  0  0  0  0
  6  7  1  0  0  0  0
  7  8  1  0  0  0  0
  8 19  1  0  0  0  0
  8  9  1  0  0  0  0
  8 11  1  0  0  0  0
  9 10  1  0  0  0  0
  9 24  1  0  0  0  0
  9 25  1  0  0  0  0
 10 26  1  0  0  0  0
 11 20  1  0  0  0  0
 11 12  1  0  0  0  0
 11 13  1  0  0  0  0
 12 27  1  0  0  0  0
 13 21  1  0  0  0  0
 13 14  1  0  0  0  0
 14 28  1  0  0  0  0
 15 16  2  0  0  0  0
 15 17  1  0  0  0  0
M  CHG  1  17  -1
M  END
> <s_m_source_file>
AV-unprocessed.smi

> <i_m_source_file_index>
72

> <i_lp_mmshare_version>
43012

> <i_f3d_flags>
0

> <s_epik_input>
W05IMl1jMW5bY0hdbihjKD1PKW4xKVtDQEBIXTJPW0NASF0oW0NIMl1bT0hdKVtDQEBIXShbT0hdKVtDQEhdMltPSF0=

> <s_epik_cmdline>
J2VwaWtfcHl0aG9uJywgJy1waCcsICc3LjAnLCAnLXRuJywgJzgnLCAnLW1hJywgJzIwMCcsICctbWV0YWxfYmluZGluZycsICctaW1hZScsICc8aW5maWxlLm1hZT4nLCAnLW9tYWUnLCAnPG91dGZpbGUubWFlPic=

> <r_lp_tautomer_probability>
7.17554e-07

> <r_epik_Ionization_Penalty>
12.8705

> <r_epik_Ionization_Penalty_Charging>
5.64144

> <r_epik_Ionization_Penalty_Neutral>
7.22905

> <r_epik_State_Penalty>
3.30104

> <r_epik_Charging_Adjusted_Penalty>
8.94249

> <i_epik_Tot_Q>
-1

> <i_epik_Tot_abs_Q>
1

> <r_epik_Metal_State_Penalty>
0.529074

> <b_epik_Metal_Only>
1

> <s_epik_Chemistry_Notes>
This compound contains an acetal/aminal-like group ( X-CH(R)-Y where X, Y are N, S, or O) that may be acid/base labile, releasing an aldehyde.

> <s_lp_Force_Field>
OPLS_2005

> <r_lp_Energy>
35.695

> <b_lp_Chiralities_Consistent>
1

> <s_lp_Variant>
AV-unprocessed.smi:72-62

> <Gold.Version>
5.8.1

> <Gold.Id.Protein>
6NUR|6NUR_protein|mol2

> <Gold.PLP.Fitness>
39.8817

> <Gold.PLP.PLP>
-19.7877

> <Gold.PLP.part.hbond>
-10.9670

> <Gold.PLP.part.metal>
0.0000

> <Gold.PLP.part.buried>
1.9630

> <Gold.PLP.part.nonpolar>
-10.0160

> <Gold.PLP.part.repulsive>
0.0772

> <Gold.PLP.ligand.clash>
0.0000

> <Gold.PLP.ligand.torsion>
0.1061

> <Gold.PLP.Chemscore.Hbond>
6.7615

> <Gold.PLP.Chemscore.CHOScore>
0.0000

> <Gold.PLP.Chemscore.Metal>
0.0000

> <Gold.Chemscore.Hbonds>
donor molecule, donor type, donor heavy atom, donor atom, acceptor molecule, acceptor atom, score
      L1  H    10    26       P1  7957  1.00
      L1  H    12    27       P1  7948  0.91
      L1  H    14    28       P1  7949  0.50
      P1  H  6896  6907       L1    17  2.00
      P1  H  6931  6943       L1     1  1.00
      P1  H  6934  6947       L1     3  0.29
      P1  H 10752 10765       L1    14  1.00

> <Gold.PLP.Chemscore.Internal.Correction>
0.0217

> <Gold.Rescore>
     Score         DG    S(hbond)    S(metal)    S(lipo)     H(rot)  DE(clash)    DE(int)     intcor
      8.83     -12.03       4.23        0.00      23.69       4.04       1.12       2.08       ----

> <Gold.Chemscore.Fitness>
8.8327

> <Gold.Chemscore.DG>
-12.0311

> <Gold.Chemscore.ZeroCoef>
-5.4800

> <Gold.Chemscore.Hbond>
4.2283

> <Gold.Chemscore.Metal>
0.0000

> <Gold.Chemscore.Lipo>
23.6895

> <Gold.Chemscore.Internal_Hbond>
0.0000

> <Gold.Chemscore.DEClash>
1.1180

> <Gold.Chemscore.DEInternal>
2.0804

> <Gold.Chemscore.Rot>
4.0403

> <Gold.Chemscore.Internal.Correction>
   9.000000E+99

> <Gold.Chemscore.Hbonds>
donor molecule, donor type, donor heavy atom, donor atom, acceptor molecule, acceptor atom, score
      L1  H    10    26       P1  7957  0.97
      L1  H    12    27       P1  7948  0.70
      L1  H    14    28       P1  7949  0.08
      P1  H  6896  6907       L1    17  0.40
      P1  H  6931  6943       L1     1  0.55
      P1  H  6934  6947       L1     3  0.09
      P1  H 10752 10765       L1    14  0.29

> <Gold.Chemscore.Hbond.Weighted>
-14.1225

> <Gold.Chemscore.Metal.Weighted>
-0.0000

> <Gold.Chemscore.Lipo.Weighted>
-2.7717

> <Gold.Chemscore.Internal_Hbond.Weighted>
0.0000

> <Gold.Chemscore.DEClash.Weighted>
1.1180

> <Gold.Chemscore.DEInternal.Weighted>
2.0804

> <Gold.Chemscore.Rot.Weighted>
10.3431

> <Gold.Chemscore.Internal.Correction.Weighted>
   9.000000E+99

> <Gold.Protein.RotatedTorsions>
[ 6907 6896 6895 6894 ] final  -59.31 input  -60.11 | X-H torsion
[ 7974 7965 7964 7962 ] final  -56.78 input  175.53 | X-H torsion
[ 8008 7997 7996 7995 ] final  109.86 input   59.86 | X-H torsion
[ 10167 10162 10161 10158 ] final   20.12 input  -65.29 | X-H torsion
[ 10718 10713 10712 10709 ] final   93.84 input   66.30 | X-H torsion
[ 10763 10752 10751 10750 ] final  173.27 input  -60.55 | X-H torsion
[ 11005 11000 10999 10996 ] final  127.36 input  -57.11 | X-H torsion

> <Gold.Protein.ActiveResidues>
 VAL166  LYS551  ARG553  GLY616  TRP617  ASP618  TYR619  PRO620  LYS621  CYS622 
 ASP623  PHE694  ASN695  SER759  ASP760  ASP761  ALA762  ILE779  LEU786  VAL792 
 PHE793  MET794  SER795  GLU796  ALA797  LYS798  CYS799  TRP800  GLU811  SER814 

> <Gold.Protein.RotatedAtoms>
  150.7940  134.6985  159.6536 H   0  0  0  0  0  0  0  0  0  0  0  0  # atno 6907 bound_to 6896
  152.4050  134.6219  160.0063 H   0  0  0  0  0  0  0  0  0  0  0  0  # atno 6908 bound_to 6896
  151.6479  133.3285  159.3181 H   0  0  0  0  0  0  0  0  0  0  0  0  # atno 6909 bound_to 6896
  145.8587  140.8300  142.9948 H   0  0  0  0  0  0  0  0  0  0  0  0  # atno 7974 bound_to 7965
  156.2010  140.3050  155.9527 H   0  0  0  0  0  0  0  0  0  0  0  0  # atno 8008 bound_to 7997
  155.2953  140.0444  157.3043 H   0  0  0  0  0  0  0  0  0  0  0  0  # atno 8009 bound_to 7997
  154.5571  140.2309  155.8402 H   0  0  0  0  0  0  0  0  0  0  0  0  # atno 8010 bound_to 7997
  140.5528  143.9479  150.6589 H   0  0  0  0  0  0  0  0  0  0  0  0  # atno 10167 bound_to 10162
  157.6952  131.0492  150.4095 H   0  0  0  0  0  0  0  0  0  0  0  0  # atno 10718 bound_to 10713
  154.4378  135.2761  155.1869 H   0  0  0  0  0  0  0  0  0  0  0  0  # atno 10763 bound_to 10752
  154.3748  135.6100  153.5762 H   0  0  0  0  0  0  0  0  0  0  0  0  # atno 10764 bound_to 10752
  152.9839  135.5866  154.4700 H   0  0  0  0  0  0  0  0  0  0  0  0  # atno 10765 bound_to 10752
  139.9504  134.9623  156.8844 H   0  0  0  0  0  0  0  0  0  0  0  0  # atno 11005 bound_to 11000
  144.6727  140.1063  143.7458 LP  0  0  0  0  0  0  0  0  0  0  0  0  # atno 17320 bound_to 7965
  145.9273  139.2583  143.1346 LP  0  0  0  0  0  0  0  0  0  0  0  0  # atno 17321 bound_to 7965
  140.2909  143.3325  152.1063 LP  0  0  0  0  0  0  0  0  0  0  0  0  # atno 17342 bound_to 10162
  139.5035  144.6756  151.6137 LP  0  0  0  0  0  0  0  0  0  0  0  0  # atno 17343 bound_to 10162
  156.4481  130.4005  149.6654 LP  0  0  0  0  0  0  0  0  0  0  0  0  # atno 17370 bound_to 10713
  156.3813  130.7580  151.2573 LP  0  0  0  0  0  0  0  0  0  0  0  0  # atno 17371 bound_to 10713
  140.5734  134.0422  155.7438 LP  0  0  0  0  0  0  0  0  0  0  0  0  # atno 17394 bound_to 11000
  141.1165  133.9532  157.2812 LP  0  0  0  0  0  0  0  0  0  0  0  0  # atno 17395 bound_to 11000

$$$$
