AV-unprocessed.smi:1734|AV-procd|sdf|6980|dock3
  -GOLD-   22720 8193D 1   1.00000     0.00000
 Structure written by MMmdl.
 50 52  0  0  0  0  0  0  0  0  1 V2000
  145.9402  135.6064  150.4642 C   0  0  0  0  0  0  0  0  0  0  0  0
  145.5573  134.1799  150.8237 C   0  0  0  0  0  0  0  0  0  0  0  0
  144.6675  133.4727  149.9872 C   0  0  0  0  0  0  0  0  0  0  0  0
  144.3122  132.1550  150.3219 C   0  0  0  0  0  0  0  0  0  0  0  0
  144.8654  131.5964  151.4868 C   0  0  0  0  0  0  0  0  0  0  0  0
  145.7165  132.2645  152.2917 N   0  0  0  0  0  0  0  0  0  0  0  0
  146.0703  133.5375  151.9827 C   0  0  0  0  0  0  0  0  0  0  0  0
  146.9662  134.3011  152.7835 N   0  0  0  0  0  0  0  0  0  0  0  0
  147.3070  134.1113  154.0704 C   0  0  0  0  0  0  0  0  0  0  0  0
  146.8682  133.2237  154.8026 O   0  0  0  0  0  0  0  0  0  0  0  0
  148.1987  135.0267  154.4758 N   0  0  0  0  0  0  0  0  0  0  0  0
  148.7660  135.1017  155.8187 C   0  0  0  0  0  0  0  0  0  0  0  0
  149.0161  136.5638  156.2877 C   0  0  2  0  0  0  0  0  0  0  0  0
  147.7006  137.3008  156.6923 C   0  0  2  0  0  0  0  0  0  0  0  0
  147.8418  138.7326  157.2171 C   0  0  0  0  0  0  0  0  0  0  0  0
  146.8393  138.7946  158.3648 C   0  0  0  0  0  0  0  0  0  0  0  0
  146.8452  137.4716  158.8725 O   0  0  0  0  0  0  0  0  0  0  0  0
  146.8343  136.5972  157.7536 C   0  0  0  0  0  0  0  0  0  0  0  0
  149.9346  137.3420  155.4317 N   0  0  0  0  0  0  0  0  0  0  0  0
  149.2452  138.2719  154.5399 C   0  0  0  0  0  0  0  0  0  0  0  0
  150.2180  138.9508  153.5625 C   0  0  0  0  0  0  0  0  0  0  0  0
  151.2335  139.6215  154.3009 O   0  0  0  0  0  0  0  0  0  0  0  0
  151.9687  138.7407  155.1438 C   0  0  0  0  0  0  0  0  0  0  0  0
  151.0185  138.0335  156.1266 C   0  0  0  0  0  0  0  0  0  0  0  0
  145.4804  135.9161  149.5252 H   0  0  0  0  0  0  0  0  0  0  0  0
  147.0209  135.6977  150.3526 H   0  0  0  0  0  0  0  0  0  0  0  0
  145.6112  136.2958  151.2423 H   0  0  0  0  0  0  0  0  0  0  0  0
  144.2602  133.9318  149.0983 H   0  0  0  0  0  0  0  0  0  0  0  0
  143.6338  131.5873  149.7024 H   0  0  0  0  0  0  0  0  0  0  0  0
  144.6196  130.5867  151.7807 H   0  0  0  0  0  0  0  0  0  0  0  0
  147.4059  135.0791  152.3148 H   0  0  0  0  0  0  0  0  0  0  0  0
  148.5079  135.7210  153.8116 H   0  0  0  0  0  0  0  0  0  0  0  0
  148.0966  134.5760  156.4993 H   0  0  0  0  0  0  0  0  0  0  0  0
  149.6941  134.5314  155.8161 H   0  0  0  0  0  0  0  0  0  0  0  0
  149.5434  136.4680  157.2378 H   0  0  0  0  0  0  0  0  0  0  0  0
  147.0863  137.3578  155.7924 H   0  0  0  0  0  0  0  0  0  0  0  0
  148.8431  138.9355  157.5911 H   0  0  0  0  0  0  0  0  0  0  0  0
  147.6303  139.4794  156.4515 H   0  0  0  0  0  0  0  0  0  0  0  0
  147.1166  139.5218  159.1283 H   0  0  0  0  0  0  0  0  0  0  0  0
  145.8413  139.0416  157.9988 H   0  0  0  0  0  0  0  0  0  0  0  0
  145.8078  136.4971  157.3977 H   0  0  0  0  0  0  0  0  0  0  0  0
  147.1788  135.6007  158.0286 H   0  0  0  0  0  0  0  0  0  0  0  0
  148.4746  137.7458  153.9753 H   0  0  0  0  0  0  0  0  0  0  0  0
  148.7410  139.0476  155.1159 H   0  0  0  0  0  0  0  0  0  0  0  0
  150.6669  138.2182  152.8900 H   0  0  0  0  0  0  0  0  0  0  0  0
  149.6895  139.6753  152.9429 H   0  0  0  0  0  0  0  0  0  0  0  0
  152.5039  138.0098  154.5350 H   0  0  0  0  0  0  0  0  0  0  0  0
  152.7196  139.3123  155.6893 H   0  0  0  0  0  0  0  0  0  0  0  0
  150.6115  138.7652  156.8249 H   0  0  0  0  0  0  0  0  0  0  0  0
  151.6103  137.3277  156.7044 H   0  0  0  0  0  0  0  0  0  0  0  0
  1  2  1  0  0  0  0
  1 25  1  0  0  0  0
  1 26  1  0  0  0  0
  1 27  1  0  0  0  0
  2  7  1  0  0  0  0
  2  3  2  0  0  0  0
  3  4  1  0  0  0  0
  3 28  1  0  0  0  0
  4  5  2  0  0  0  0
  4 29  1  0  0  0  0
  5  6  1  0  0  0  0
  5 30  1  0  0  0  0
  6  7  2  0  0  0  0
  7  8  1  0  0  0  0
  8  9  1  0  0  0  0
  8 31  1  0  0  0  0
  9 10  2  0  0  0  0
  9 11  1  0  0  0  0
 11 12  1  0  0  0  0
 11 32  1  0  0  0  0
 12 13  1  0  0  0  0
 12 33  1  0  0  0  0
 12 34  1  0  0  0  0
 13 14  1  0  0  0  0
 13 19  1  0  0  0  0
 13 35  1  0  0  0  0
 14 18  1  0  0  0  0
 14 15  1  0  0  0  0
 14 36  1  0  0  0  0
 15 16  1  0  0  0  0
 15 37  1  0  0  0  0
 15 38  1  0  0  0  0
 16 17  1  0  0  0  0
 16 39  1  0  0  0  0
 16 40  1  0  0  0  0
 17 18  1  0  0  0  0
 18 41  1  0  0  0  0
 18 42  1  0  0  0  0
 19 24  1  0  0  0  0
 19 20  1  0  0  0  0
 20 21  1  0  0  0  0
 20 43  1  0  0  0  0
 20 44  1  0  0  0  0
 21 22  1  0  0  0  0
 21 45  1  0  0  0  0
 21 46  1  0  0  0  0
 22 23  1  0  0  0  0
 23 24  1  0  0  0  0
 23 47  1  0  0  0  0
 23 48  1  0  0  0  0
 24 49  1  0  0  0  0
 24 50  1  0  0  0  0
M  END
> <s_m_source_file>
AV-unprocessed.smi

> <i_m_source_file_index>
1734

> <i_lp_mmshare_version>
43012

> <i_f3d_flags>
0

> <s_epik_input>
W0NIM11jMVtjSF1bY0hdW2NIXW5jMVtOSF1DKD1PKVtOSF1bQ0gyXVtDQEhdKFtDQEBIXTJbQ0gyXVtDSDJdT1tDSDJdMilOM1tDSDJdW0NIMl1PW0NIMl1bQ0gyXTM=

> <s_epik_cmdline>
J2VwaWtfcHl0aG9uJywgJy1waCcsICc3LjAnLCAnLXRuJywgJzgnLCAnLW1hJywgJzIwMCcsICctbWV0YWxfYmluZGluZycsICctaW1hZScsICc8aW5maWxlLm1hZT4nLCAnLW9tYWUnLCAnPG91dGZpbGUubWFlPic=

> <r_epik_Ionization_Penalty>
0.125073

> <r_epik_Ionization_Penalty_Charging>
0

> <r_epik_Ionization_Penalty_Neutral>
0.125073

> <r_epik_State_Penalty>
0.114484

> <r_epik_Charging_Adjusted_Penalty>
0.114484

> <i_epik_Tot_Q>
0

> <i_epik_Tot_abs_Q>
0

> <r_epik_Metal_State_Penalty>
0.114483

> <b_epik_Metal_Only>
0

> <s_lp_Force_Field>
OPLS_2005

> <r_lp_Energy>
56.0061

> <b_lp_Chiralities_Consistent>
1

> <s_lp_Variant>
AV-unprocessed.smi:1734-1

> <Gold.Version>
5.8.1

> <Gold.Id.Protein>
6NUR|6NUR_protein|mol2

> <Gold.PLP.Fitness>
47.6547

> <Gold.PLP.PLP>
-38.9967

> <Gold.PLP.part.hbond>
-4.0000

> <Gold.PLP.part.metal>
0.0000

> <Gold.PLP.part.buried>
-7.9209

> <Gold.PLP.part.nonpolar>
-28.4995

> <Gold.PLP.part.repulsive>
0.4293

> <Gold.PLP.ligand.clash>
0.0000

> <Gold.PLP.ligand.torsion>
1.4522

> <Gold.PLP.Chemscore.Hbond>
3.7440

> <Gold.PLP.Chemscore.CHOScore>
0.0000

> <Gold.PLP.Chemscore.Metal>
0.0000

> <Gold.Chemscore.Hbonds>
donor molecule, donor type, donor heavy atom, donor atom, acceptor molecule, acceptor atom, score
      L1  H     8    31       P1  7948  1.00
      L1  H    11    32       P1  7948  0.92
      P1  H  7989  7998       L1    22  1.00

> <Gold.PLP.Chemscore.Internal.Correction>
0.3303

> <Gold.Rescore>
     Score         DG    S(hbond)    S(metal)    S(lipo)     H(rot)  DE(clash)    DE(int)     intcor
     16.37     -17.57       2.29        0.00      73.89       1.65       0.09       1.11       ----

> <Gold.Chemscore.Fitness>
16.3682

> <Gold.Chemscore.DG>
-17.5690

> <Gold.Chemscore.ZeroCoef>
-5.4800

> <Gold.Chemscore.Hbond>
2.2943

> <Gold.Chemscore.Metal>
0.0000

> <Gold.Chemscore.Lipo>
73.8886

> <Gold.Chemscore.Internal_Hbond>
0.0000

> <Gold.Chemscore.DEClash>
0.0882

> <Gold.Chemscore.DEInternal>
1.1126

> <Gold.Chemscore.Rot>
1.6480

> <Gold.Chemscore.Internal.Correction>
   9.000000E+99

> <Gold.Chemscore.Hbonds>
donor molecule, donor type, donor heavy atom, donor atom, acceptor molecule, acceptor atom, score
      L1  H     8    31       P1  7948  0.95
      L1  H    11    32       P1  7948  0.84
      P1  H  7989  7998       L1    22  0.56

> <Gold.Chemscore.Hbond.Weighted>
-7.6629

> <Gold.Chemscore.Metal.Weighted>
-0.0000

> <Gold.Chemscore.Lipo.Weighted>
-8.6450

> <Gold.Chemscore.Internal_Hbond.Weighted>
0.0000

> <Gold.Chemscore.DEClash.Weighted>
0.0882

> <Gold.Chemscore.DEInternal.Weighted>
1.1126

> <Gold.Chemscore.Rot.Weighted>
4.2188

> <Gold.Chemscore.Internal.Correction.Weighted>
   9.000000E+99

> <Gold.Protein.RotatedTorsions>
[ 6907 6896 6895 6894 ] final   57.99 input  -60.11 | X-H torsion
[ 7974 7965 7964 7962 ] final -128.60 input  175.53 | X-H torsion
[ 8008 7997 7996 7995 ] final -137.75 input   59.86 | X-H torsion
[ 10167 10162 10161 10158 ] final   -0.60 input  -65.29 | X-H torsion
[ 10718 10713 10712 10709 ] final   67.01 input   66.30 | X-H torsion
[ 10763 10752 10751 10750 ] final   -2.27 input  -60.55 | X-H torsion
[ 11005 11000 10999 10996 ] final   15.52 input  -57.11 | X-H torsion

> <Gold.Protein.ActiveResidues>
 VAL166  LYS551  ARG553  GLY616  TRP617  ASP618  TYR619  PRO620  LYS621  CYS622 
 ASP623  PHE694  ASN695  SER759  ASP760  ASP761  ALA762  ILE779  LEU786  VAL792 
 PHE793  MET794  SER795  GLU796  ALA797  LYS798  CYS799  TRP800  GLU811  SER814 

> <Gold.Protein.RotatedAtoms>
  152.3782  134.6630  160.0151 H   0  0  0  0  0  0  0  0  0  0  0  0  # atno 6907 bound_to 6896
  151.6902  133.3305  159.3249 H   0  0  0  0  0  0  0  0  0  0  0  0  # atno 6908 bound_to 6896
  150.7726  134.6641  159.6400 H   0  0  0  0  0  0  0  0  0  0  0  0  # atno 6909 bound_to 6896
  144.9655  140.7491  143.4703 H   0  0  0  0  0  0  0  0  0  0  0  0  # atno 7974 bound_to 7965
  155.4170  140.0516  157.3028 H   0  0  0  0  0  0  0  0  0  0  0  0  # atno 8008 bound_to 7997
  154.4920  140.2123  155.9488 H   0  0  0  0  0  0  0  0  0  0  0  0  # atno 8009 bound_to 7997
  156.1355  140.3164  155.8419 H   0  0  0  0  0  0  0  0  0  0  0  0  # atno 8010 bound_to 7997
  140.6774  143.6874  150.8055 H   0  0  0  0  0  0  0  0  0  0  0  0  # atno 10167 bound_to 10162
  157.6204  130.9298  150.0185 H   0  0  0  0  0  0  0  0  0  0  0  0  # atno 10718 bound_to 10713
  153.3559  135.6988  153.6751 H   0  0  0  0  0  0  0  0  0  0  0  0  # atno 10763 bound_to 10752
  153.5459  135.3563  155.2739 H   0  0  0  0  0  0  0  0  0  0  0  0  # atno 10764 bound_to 10752
  154.8660  135.4215  154.2805 H   0  0  0  0  0  0  0  0  0  0  0  0  # atno 10765 bound_to 10752
  140.4574  134.1162  155.7711 H   0  0  0  0  0  0  0  0  0  0  0  0  # atno 11005 bound_to 11000
  145.2637  139.1982  143.4878 LP  0  0  0  0  0  0  0  0  0  0  0  0  # atno 17320 bound_to 7965
  146.3366  140.2571  142.8600 LP  0  0  0  0  0  0  0  0  0  0  0  0  # atno 17321 bound_to 7965
  140.0570  143.5193  152.2646 LP  0  0  0  0  0  0  0  0  0  0  0  0  # atno 17342 bound_to 10162
  139.6075  144.7600  151.3027 LP  0  0  0  0  0  0  0  0  0  0  0  0  # atno 17343 bound_to 10162
  156.1346  130.3643  149.9677 LP  0  0  0  0  0  0  0  0  0  0  0  0  # atno 17370 bound_to 10713
  156.7730  130.9193  151.3644 LP  0  0  0  0  0  0  0  0  0  0  0  0  # atno 17371 bound_to 10713
  141.1637  133.8745  157.1777 LP  0  0  0  0  0  0  0  0  0  0  0  0  # atno 17394 bound_to 11000
  139.9967  135.0044  157.0099 LP  0  0  0  0  0  0  0  0  0  0  0  0  # atno 17395 bound_to 11000

$$$$
