AV-unprocessed.smi:506|AV-procd|sdf|2751|dock7
  -GOLD-   2262023223D 1   1.00000     0.00000
 Structure written by MMmdl.
 41 43  0  0  0  0  0  0  0  0  2 V2000
  146.8243  134.1495  162.1607 C   0  0  0  0  0  0  0  0  0  0  0  0
  147.1314  133.8858  160.7995 O   0  0  0  0  0  0  0  0  0  0  0  0
  147.8114  134.8520  160.0895 C   0  0  0  0  0  0  0  0  0  0  0  0
  148.1055  134.5693  158.7413 C   0  0  0  0  0  0  0  0  0  0  0  0
  148.7930  135.5024  157.9427 C   0  0  0  0  0  0  0  0  0  0  0  0
  149.2036  136.7412  158.4727 C   0  0  0  0  0  0  0  0  0  0  0  0
  149.8653  137.5989  157.6205 O   0  0  0  0  0  0  0  0  0  0  0  0
  150.3676  138.8170  158.1505 C   0  0  0  0  0  0  0  0  0  0  0  0
  151.3334  139.4293  157.1292 C   0  0  0  0  0  0  0  0  0  0  0  0
  151.0929  140.8658  156.9436 N   0  0  0  0  0  0  0  0  0  0  0  0
  150.3470  141.5205  156.0081 C   0  0  0  0  0  0  0  0  0  0  0  0
  149.5622  140.8936  154.8998 C   0  0  0  0  0  0  0  0  0  0  0  0
  150.3636  140.1720  153.9878 O   0  0  0  0  0  0  0  0  0  0  0  0
  150.4506  142.8542  156.2751 N   0  3  0  0  0  0  0  0  0  0  0  0
  151.2625  143.0528  157.3922 C   0  0  0  0  0  0  0  0  0  0  0  0
  151.6554  144.2207  158.0385 C   0  0  0  0  0  0  0  0  0  0  0  0
  152.4920  144.0702  159.1641 C   0  0  0  0  0  0  0  0  0  0  0  0
  152.9043  142.7967  159.6077 C   0  0  0  0  0  0  0  0  0  0  0  0
  152.5002  141.6196  158.9438 C   0  0  0  0  0  0  0  0  0  0  0  0
  151.6757  141.7779  157.8301 C   0  0  0  0  0  0  0  0  0  0  0  0
  148.9149  137.0282  159.8297 C   0  0  0  0  0  0  0  0  0  0  0  0
  148.2260  136.0947  160.6285 C   0  0  0  0  0  0  0  0  0  0  0  0
  146.2860  133.2991  162.5791 H   0  0  0  0  0  0  0  0  0  0  0  0
  146.1845  135.0274  162.2621 H   0  0  0  0  0  0  0  0  0  0  0  0
  147.7291  134.2905  162.7535 H   0  0  0  0  0  0  0  0  0  0  0  0
  147.7985  133.6265  158.3126 H   0  0  0  0  0  0  0  0  0  0  0  0
  149.0051  135.2646  156.9106 H   0  0  0  0  0  0  0  0  0  0  0  0
  149.5493  139.5130  158.3416 H   0  0  0  0  0  0  0  0  0  0  0  0
  150.8863  138.6316  159.0924 H   0  0  0  0  0  0  0  0  0  0  0  0
  152.3715  139.2771  157.4262 H   0  0  0  0  0  0  0  0  0  0  0  0
  151.2142  138.9430  156.1605 H   0  0  0  0  0  0  0  0  0  0  0  0
  148.8167  140.2218  155.3259 H   0  0  0  0  0  0  0  0  0  0  0  0
  149.0259  141.6718  154.3559 H   0  0  0  0  0  0  0  0  0  0  0  0
  149.9018  140.1112  153.1652 H   0  0  0  0  0  0  0  0  0  0  0  0
  151.3390  145.1972  157.7018 H   0  0  0  0  0  0  0  0  0  0  0  0
  152.8232  144.9488  159.6987 H   0  0  0  0  0  0  0  0  0  0  0  0
  153.5438  142.7209  160.4752 H   0  0  0  0  0  0  0  0  0  0  0  0
  152.8201  140.6488  159.2927 H   0  0  0  0  0  0  0  0  0  0  0  0
  149.2106  137.9612  160.2844 H   0  0  0  0  0  0  0  0  0  0  0  0
  148.0263  136.3583  161.6561 H   0  0  0  0  0  0  0  0  0  0  0  0
  149.9911  143.5720  155.7292 H   0  0  0  0  0  0  0  0  0  0  0  0
  1  2  1  0  0  0  0
  1 23  1  0  0  0  0
  1 24  1  0  0  0  0
  1 25  1  0  0  0  0
  2  3  1  0  0  0  0
  3 22  1  0  0  0  0
  3  4  2  0  0  0  0
  4  5  1  0  0  0  0
  4 26  1  0  0  0  0
  5  6  2  0  0  0  0
  5 27  1  0  0  0  0
  6  7  1  0  0  0  0
  6 21  1  0  0  0  0
  7  8  1  0  0  0  0
  8  9  1  0  0  0  0
  8 28  1  0  0  0  0
  8 29  1  0  0  0  0
  9 10  1  0  0  0  0
  9 30  1  0  0  0  0
  9 31  1  0  0  0  0
 10 20  1  0  0  0  0
 10 11  1  0  0  0  0
 11 12  1  0  0  0  0
 11 14  2  0  0  0  0
 12 13  1  0  0  0  0
 12 32  1  0  0  0  0
 12 33  1  0  0  0  0
 13 34  1  0  0  0  0
 14 15  1  0  0  0  0
 14 41  1  0  0  0  0
 15 20  2  0  0  0  0
 15 16  1  0  0  0  0
 16 17  2  0  0  0  0
 16 35  1  0  0  0  0
 17 18  1  0  0  0  0
 17 36  1  0  0  0  0
 18 19  2  0  0  0  0
 18 37  1  0  0  0  0
 19 20  1  0  0  0  0
 19 38  1  0  0  0  0
 21 22  2  0  0  0  0
 21 39  1  0  0  0  0
 22 40  1  0  0  0  0
M  CHG  1  14   1
M  END
> <s_m_source_file>
AV-unprocessed.smi

> <i_m_source_file_index>
506

> <i_lp_mmshare_version>
43012

> <i_f3d_flags>
0

> <s_epik_input>
W0NIM11PYzFbY0hdW2NIXWMoW2NIXVtjSF0xKU9bQ0gyXVtDSDJdbihjKG4yKVtDSDJdW09IXSljKGMyMylbY0hdW2NIXVtjSF1bY0hdMw==

> <s_epik_cmdline>
J2VwaWtfcHl0aG9uJywgJy1waCcsICc3LjAnLCAnLXRuJywgJzgnLCAnLW1hJywgJzIwMCcsICctbWV0YWxfYmluZGluZycsICctaW1hZScsICc8aW5maWxlLm1hZT4nLCAnLW9tYWUnLCAnPG91dGZpbGUubWFlPic=

> <r_lp_tautomer_probability>
1

> <r_epik_Ionization_Penalty>
1.51027

> <r_epik_Ionization_Penalty_Charging>
1.50942

> <r_epik_Ionization_Penalty_Neutral>
0.000855784

> <r_epik_State_Penalty>
1.60032

> <r_epik_Charging_Adjusted_Penalty>
3.10973

> <i_epik_Tot_Q>
1

> <i_epik_Tot_abs_Q>
1

> <r_epik_Metal_State_Penalty>
5.65193

> <b_epik_Metal_Only>
0

> <s_lp_Force_Field>
OPLS_2005

> <r_lp_Energy>
22.2088

> <b_lp_Chiralities_Consistent>
1

> <s_lp_Variant>
AV-unprocessed.smi:506-2

> <Gold.Version>
5.8.1

> <Gold.Id.Protein>
6NUR|6NUR_protein|mol2

> <Gold.PLP.Fitness>
55.0300

> <Gold.PLP.PLP>
-44.6268

> <Gold.PLP.part.hbond>
-2.8567

> <Gold.PLP.part.metal>
0.0000

> <Gold.PLP.part.buried>
-4.7528

> <Gold.PLP.part.nonpolar>
-38.0697

> <Gold.PLP.part.repulsive>
0.1059

> <Gold.PLP.ligand.clash>
0.0000

> <Gold.PLP.ligand.torsion>
0.7342

> <Gold.PLP.Chemscore.Hbond>
3.9513

> <Gold.PLP.Chemscore.CHOScore>
0.0000

> <Gold.PLP.Chemscore.Metal>
0.0000

> <Gold.Chemscore.Hbonds>
donor molecule, donor type, donor heavy atom, donor atom, acceptor molecule, acceptor atom, score
      L1  H    13    34       P1  7957  1.00
      L1  H    14    41       P1  8028  1.95
      P1  H  7989  7998       L1    13  0.86

> <Gold.PLP.Chemscore.Internal.Correction>
0.0179

> <Gold.Rescore>
     Score         DG    S(hbond)    S(metal)    S(lipo)     H(rot)  DE(clash)    DE(int)     intcor
     18.73     -19.52       2.19        0.00     113.29       2.54       0.04       0.75       ----

> <Gold.Chemscore.Fitness>
18.7316

> <Gold.Chemscore.DG>
-19.5234

> <Gold.Chemscore.ZeroCoef>
-5.4800

> <Gold.Chemscore.Hbond>
2.1854

> <Gold.Chemscore.Metal>
0.0000

> <Gold.Chemscore.Lipo>
113.2862

> <Gold.Chemscore.Internal_Hbond>
0.0000

> <Gold.Chemscore.DEClash>
0.0378

> <Gold.Chemscore.DEInternal>
0.7541

> <Gold.Chemscore.Rot>
2.5431

> <Gold.Chemscore.Internal.Correction>
   9.000000E+99

> <Gold.Chemscore.Hbonds>
donor molecule, donor type, donor heavy atom, donor atom, acceptor molecule, acceptor atom, score
      L1  H    13    34       P1  7957  0.93
      L1  H    14    41       P1  8028  0.91
      P1  H  7989  7998       L1    13  0.14

> <Gold.Chemscore.Hbond.Weighted>
-7.2992

> <Gold.Chemscore.Metal.Weighted>
-0.0000

> <Gold.Chemscore.Lipo.Weighted>
-13.2545

> <Gold.Chemscore.Internal_Hbond.Weighted>
0.0000

> <Gold.Chemscore.DEClash.Weighted>
0.0378

> <Gold.Chemscore.DEInternal.Weighted>
0.7541

> <Gold.Chemscore.Rot.Weighted>
6.5103

> <Gold.Chemscore.Internal.Correction.Weighted>
   9.000000E+99

> <Gold.Protein.RotatedTorsions>
[ 6907 6896 6895 6894 ] final  100.46 input  -60.11 | X-H torsion
[ 7974 7965 7964 7962 ] final   61.74 input  175.53 | X-H torsion
[ 8008 7997 7996 7995 ] final   24.47 input   59.86 | X-H torsion
[ 10167 10162 10161 10158 ] final  -66.63 input  -65.29 | X-H torsion
[ 10718 10713 10712 10709 ] final  122.67 input   66.30 | X-H torsion
[ 10763 10752 10751 10750 ] final  168.62 input  -60.55 | X-H torsion
[ 11005 11000 10999 10996 ] final  -48.58 input  -57.11 | X-H torsion

> <Gold.Protein.ActiveResidues>
 VAL166  LYS551  ARG553  GLY616  TRP617  ASP618  TYR619  PRO620  LYS621  CYS622 
 ASP623  PHE694  ASN695  SER759  ASP760  ASP761  ALA762  ILE779  LEU786  VAL792 
 PHE793  MET794  SER795  GLU796  ALA797  LYS798  CYS799  TRP800  GLU811  SER814 

> <Gold.Protein.RotatedAtoms>
  152.5371  134.0273  159.8008 H   0  0  0  0  0  0  0  0  0  0  0  0  # atno 6907 bound_to 6896
  151.0450  133.5665  159.2655 H   0  0  0  0  0  0  0  0  0  0  0  0  # atno 6908 bound_to 6896
  151.2621  135.0665  159.9156 H   0  0  0  0  0  0  0  0  0  0  0  0  # atno 6909 bound_to 6896
  145.8814  139.3446  143.0704 H   0  0  0  0  0  0  0  0  0  0  0  0  # atno 7974 bound_to 7965
  154.9968  140.3120  155.4883 H   0  0  0  0  0  0  0  0  0  0  0  0  # atno 8008 bound_to 7997
  156.2931  140.2239  156.5017 H   0  0  0  0  0  0  0  0  0  0  0  0  # atno 8009 bound_to 7997
  154.7654  140.0456  157.0996 H   0  0  0  0  0  0  0  0  0  0  0  0  # atno 8010 bound_to 7997
  140.5643  143.2314  151.6666 H   0  0  0  0  0  0  0  0  0  0  0  0  # atno 10167 bound_to 10162
  157.5725  131.1082  150.8341 H   0  0  0  0  0  0  0  0  0  0  0  0  # atno 10718 bound_to 10713
  154.3712  135.2753  155.2265 H   0  0  0  0  0  0  0  0  0  0  0  0  # atno 10763 bound_to 10752
  154.4412  135.5954  153.6134 H   0  0  0  0  0  0  0  0  0  0  0  0  # atno 10764 bound_to 10752
  152.9838  135.6019  154.3944 H   0  0  0  0  0  0  0  0  0  0  0  0  # atno 10765 bound_to 10752
  141.0709  133.6679  156.3462 H   0  0  0  0  0  0  0  0  0  0  0  0  # atno 11005 bound_to 11000
  145.9019  140.9237  143.0498 LP  0  0  0  0  0  0  0  0  0  0  0  0  # atno 17320 bound_to 7965
  144.6727  140.1044  143.7459 LP  0  0  0  0  0  0  0  0  0  0  0  0  # atno 17321 bound_to 7965
  139.5085  144.3609  152.0563 LP  0  0  0  0  0  0  0  0  0  0  0  0  # atno 17342 bound_to 10162
  140.2739  144.3934  150.6142 LP  0  0  0  0  0  0  0  0  0  0  0  0  # atno 17343 bound_to 10162
  156.8809  130.5179  149.5291 LP  0  0  0  0  0  0  0  0  0  0  0  0  # atno 17370 bound_to 10713
  156.0770  130.5789  150.9491 LP  0  0  0  0  0  0  0  0  0  0  0  0  # atno 17371 bound_to 10713
  140.5675  134.5873  157.5449 LP  0  0  0  0  0  0  0  0  0  0  0  0  # atno 17394 bound_to 11000
  139.9522  134.7596  156.0421 LP  0  0  0  0  0  0  0  0  0  0  0  0  # atno 17395 bound_to 11000

$$$$
