AV-unprocessed.smi:507|AV-procd|sdf|2755|dock1
  -GOLD-   2262023223D 1   1.00000     0.00000
 Structure written by MMmdl.
 35 36  0  0  0  0  0  0  0  0  3 V2000
  152.1798  144.4683  160.4924 C   0  0  0  0  0  0  0  0  0  0  0  0
  151.9876  143.4036  159.4259 C   0  0  0  0  0  0  0  0  0  0  0  0
  151.1546  143.6968  158.3225 C   0  0  0  0  0  0  0  0  0  0  0  0
  150.9961  142.7016  157.3654 C   0  0  0  0  0  0  0  0  0  0  0  0
  150.2550  142.6788  156.1819 N   0  3  0  0  0  0  0  0  0  0  0  0
  150.4093  141.4710  155.5717 C   0  0  0  0  0  0  0  0  0  0  0  0
  151.2369  140.7211  156.3500 N   0  0  0  0  0  0  0  0  0  0  0  0
  151.7248  139.3477  156.1639 C   0  0  0  0  0  0  0  0  0  0  0  0
  152.2427  139.0869  154.7349 C   0  0  1  0  0  0  0  0  0  0  0  0
  153.6141  138.7430  154.7940 O   0  0  0  0  0  0  0  0  0  0  0  0
  151.4727  137.9532  154.0365 C   0  0  0  0  0  0  0  0  0  0  0  0
  150.1895  138.4276  153.4887 N   0  3  0  0  0  0  0  0  0  0  0  0
  151.6311  141.4497  157.4775 C   0  0  0  0  0  0  0  0  0  0  0  0
  152.4569  141.1448  158.5567 C   0  0  0  0  0  0  0  0  0  0  0  0
  152.6318  142.1444  159.5406 C   0  0  0  0  0  0  0  0  0  0  0  0
  153.5284  141.8419  160.7293 C   0  0  0  0  0  0  0  0  0  0  0  0
  151.6254  145.3765  160.2537 H   0  0  0  0  0  0  0  0  0  0  0  0
  153.2329  144.7352  160.5829 H   0  0  0  0  0  0  0  0  0  0  0  0
  151.8283  144.1088  161.4597 H   0  0  0  0  0  0  0  0  0  0  0  0
  150.6620  144.6537  158.2286 H   0  0  0  0  0  0  0  0  0  0  0  0
  149.9537  141.1632  154.6414 H   0  0  0  0  0  0  0  0  0  0  0  0
  152.5183  139.1800  156.8938 H   0  0  0  0  0  0  0  0  0  0  0  0
  150.9191  138.6591  156.4216 H   0  0  0  0  0  0  0  0  0  0  0  0
  152.1464  140.0013  154.1478 H   0  0  0  0  0  0  0  0  0  0  0  0
  153.9257  138.5841  153.9157 H   0  0  0  0  0  0  0  0  0  0  0  0
  152.0683  137.5107  153.2369 H   0  0  0  0  0  0  0  0  0  0  0  0
  151.2546  137.1566  154.7487 H   0  0  0  0  0  0  0  0  0  0  0  0
  150.3605  139.0490  152.7111 H   0  0  0  0  0  0  0  0  0  0  0  0
  149.6804  138.9207  154.2087 H   0  0  0  0  0  0  0  0  0  0  0  0
  152.9469  140.1866  158.6445 H   0  0  0  0  0  0  0  0  0  0  0  0
  153.9416  140.8344  160.6723 H   0  0  0  0  0  0  0  0  0  0  0  0
  152.9689  141.9194  161.6618 H   0  0  0  0  0  0  0  0  0  0  0  0
  154.3635  142.5420  160.7669 H   0  0  0  0  0  0  0  0  0  0  0  0
  149.6435  137.6379  153.1751 H   0  0  0  0  0  0  0  0  0  0  0  0
  149.6851  143.4309  155.8156 H   0  0  0  0  0  0  0  0  0  0  0  0
  1  2  1  0  0  0  0
  1 17  1  0  0  0  0
  1 18  1  0  0  0  0
  1 19  1  0  0  0  0
  2 15  1  0  0  0  0
  2  3  2  0  0  0  0
  3  4  1  0  0  0  0
  3 20  1  0  0  0  0
  4 13  2  0  0  0  0
  4  5  1  0  0  0  0
  5  6  2  0  0  0  0
  5 35  1  0  0  0  0
  6  7  1  0  0  0  0
  6 21  1  0  0  0  0
  7  8  1  0  0  0  0
  7 13  1  0  0  0  0
  8  9  1  0  0  0  0
  8 22  1  0  0  0  0
  8 23  1  0  0  0  0
  9 10  1  0  0  0  0
  9 11  1  0  0  0  0
  9 24  1  0  0  0  0
 10 25  1  0  0  0  0
 11 12  1  0  0  0  0
 11 26  1  0  0  0  0
 11 27  1  0  0  0  0
 12 28  1  0  0  0  0
 12 29  1  0  0  0  0
 12 34  1  0  0  0  0
 13 14  1  0  0  0  0
 14 15  2  0  0  0  0
 14 30  1  0  0  0  0
 15 16  1  0  0  0  0
 16 31  1  0  0  0  0
 16 32  1  0  0  0  0
 16 33  1  0  0  0  0
M  CHG  1   5   1
M  CHG  1  12   1
M  END
> <s_m_source_file>
AV-unprocessed.smi

> <i_m_source_file_index>
507

> <i_lp_mmshare_version>
43012

> <i_f3d_flags>
0

> <s_epik_input>
W0NIM11jKFtjSF0xKWMoW0NIM10pW2NIXWMoYzEyKW4oW2NIXW4yKVtDSDJdW0NASF0oW09IXSlbQ0gyXVtOSDJd

> <s_epik_cmdline>
J2VwaWtfcHl0aG9uJywgJy1waCcsICc3LjAnLCAnLXRuJywgJzgnLCAnLW1hJywgJzIwMCcsICctbWV0YWxfYmluZGluZycsICctaW1hZScsICc8aW5maWxlLm1hZT4nLCAnLW9tYWUnLCAnPG91dGZpbGUubWFlPic=

> <r_epik_Ionization_Penalty>
1.17892

> <r_epik_Ionization_Penalty_Charging>
1.17892

> <r_epik_Ionization_Penalty_Neutral>
1.79057e-06

> <r_epik_State_Penalty>
1.21155

> <r_epik_Charging_Adjusted_Penalty>
2.39047

> <i_epik_Tot_Q>
2

> <i_epik_Tot_abs_Q>
2

> <r_epik_Metal_State_Penalty>
5.22091

> <b_epik_Metal_Only>
0

> <s_lp_Force_Field>
OPLS_2005

> <r_lp_Energy>
17.3712

> <b_lp_Chiralities_Consistent>
1

> <s_lp_Variant>
AV-unprocessed.smi:507-4

> <Gold.Version>
5.8.1

> <Gold.Id.Protein>
6NUR|6NUR_protein|mol2

> <Gold.PLP.Fitness>
58.0518

> <Gold.PLP.PLP>
-42.3259

> <Gold.PLP.part.hbond>
-3.9989

> <Gold.PLP.part.metal>
0.0000

> <Gold.PLP.part.buried>
-3.7450

> <Gold.PLP.part.nonpolar>
-32.7971

> <Gold.PLP.part.repulsive>
0.1955

> <Gold.PLP.ligand.clash>
0.0000

> <Gold.PLP.ligand.torsion>
1.1060

> <Gold.PLP.Chemscore.Hbond>
5.9760

> <Gold.PLP.Chemscore.CHOScore>
0.0000

> <Gold.PLP.Chemscore.Metal>
0.0000

> <Gold.Chemscore.Hbonds>
donor molecule, donor type, donor heavy atom, donor atom, acceptor molecule, acceptor atom, score
      L1  H     5    35       P1  8028  1.95
      L1  H    12    28       P1  7957  0.96
      L1  H    12    34       P1  7948  2.00
      P1  H  7997  8010       L1    10  0.98

> <Gold.PLP.Chemscore.Internal.Correction>
0.0100

> <Gold.Rescore>
     Score         DG    S(hbond)    S(metal)    S(lipo)     H(rot)  DE(clash)    DE(int)     intcor
     21.11     -22.37       3.17        0.00     104.57       2.32       0.20       1.06       ----

> <Gold.Chemscore.Fitness>
21.1100

> <Gold.Chemscore.DG>
-22.3746

> <Gold.Chemscore.ZeroCoef>
-5.4800

> <Gold.Chemscore.Hbond>
3.1719

> <Gold.Chemscore.Metal>
0.0000

> <Gold.Chemscore.Lipo>
104.5680

> <Gold.Chemscore.Internal_Hbond>
0.0000

> <Gold.Chemscore.DEClash>
0.2006

> <Gold.Chemscore.DEInternal>
1.0641

> <Gold.Chemscore.Rot>
2.3180

> <Gold.Chemscore.Internal.Correction>
   9.000000E+99

> <Gold.Chemscore.Hbonds>
donor molecule, donor type, donor heavy atom, donor atom, acceptor molecule, acceptor atom, score
      L1  H     5    35       P1  8028  0.92
      L1  H    12    28       P1  7957  0.41
      L1  H    12    34       P1  7948  0.70
      P1  H  7997  8010       L1    10  0.52

> <Gold.Chemscore.Hbond.Weighted>
-10.5942

> <Gold.Chemscore.Metal.Weighted>
-0.0000

> <Gold.Chemscore.Lipo.Weighted>
-12.2345

> <Gold.Chemscore.Internal_Hbond.Weighted>
0.0000

> <Gold.Chemscore.DEClash.Weighted>
0.2006

> <Gold.Chemscore.DEInternal.Weighted>
1.0641

> <Gold.Chemscore.Rot.Weighted>
5.9340

> <Gold.Chemscore.Internal.Correction.Weighted>
   9.000000E+99

> <Gold.Protein.RotatedTorsions>
[ 6907 6896 6895 6894 ] final  -84.37 input  -60.11 | X-H torsion
[ 7974 7965 7964 7962 ] final  112.38 input  175.53 | X-H torsion
[ 8008 7997 7996 7995 ] final  109.57 input   59.86 | X-H torsion
[ 10167 10162 10161 10158 ] final  -78.75 input  -65.29 | X-H torsion
[ 10718 10713 10712 10709 ] final -153.03 input   66.30 | X-H torsion
[ 10763 10752 10751 10750 ] final  -55.01 input  -60.55 | X-H torsion
[ 11005 11000 10999 10996 ] final -103.56 input  -57.11 | X-H torsion

> <Gold.Protein.ActiveResidues>
 VAL166  LYS551  ARG553  GLY616  TRP617  ASP618  TYR619  PRO620  LYS621  CYS622 
 ASP623  PHE694  ASN695  SER759  ASP760  ASP761  ALA762  ILE779  LEU786  VAL792 
 PHE793  MET794  SER795  GLU796  ALA797  LYS798  CYS799  TRP800  GLU811  SER814 

> <Gold.Protein.RotatedAtoms>
  150.6877  134.3369  159.4850 H   0  0  0  0  0  0  0  0  0  0  0  0  # atno 6907 bound_to 6896
  152.1227  134.9191  160.0571 H   0  0  0  0  0  0  0  0  0  0  0  0  # atno 6908 bound_to 6896
  152.0391  133.3935  159.4366 H   0  0  0  0  0  0  0  0  0  0  0  0  # atno 6909 bound_to 6896
  145.2303  139.2822  143.4171 H   0  0  0  0  0  0  0  0  0  0  0  0  # atno 7974 bound_to 7965
  156.1989  140.3055  155.9485 H   0  0  0  0  0  0  0  0  0  0  0  0  # atno 8008 bound_to 7997
  155.3000  140.0446  157.3046 H   0  0  0  0  0  0  0  0  0  0  0  0  # atno 8009 bound_to 7997
  154.5545  140.2301  155.8441 H   0  0  0  0  0  0  0  0  0  0  0  0  # atno 8010 bound_to 7997
  140.4655  143.2441  151.8285 H   0  0  0  0  0  0  0  0  0  0  0  0  # atno 10167 bound_to 10162
  156.4804  130.8300  151.2527 H   0  0  0  0  0  0  0  0  0  0  0  0  # atno 10718 bound_to 10713
  154.1840  135.6438  153.5042 H   0  0  0  0  0  0  0  0  0  0  0  0  # atno 10763 bound_to 10752
  153.0052  135.5413  154.6484 H   0  0  0  0  0  0  0  0  0  0  0  0  # atno 10764 bound_to 10752
  154.5856  135.2929  155.0661 H   0  0  0  0  0  0  0  0  0  0  0  0  # atno 10765 bound_to 10752
  141.1140  133.8650  157.1501 H   0  0  0  0  0  0  0  0  0  0  0  0  # atno 11005 bound_to 11000
  146.3354  140.2636  142.8603 LP  0  0  0  0  0  0  0  0  0  0  0  0  # atno 17320 bound_to 7965
  144.9683  140.8343  143.5471 LP  0  0  0  0  0  0  0  0  0  0  0  0  # atno 17321 bound_to 7965
  139.4811  144.4956  151.9128 LP  0  0  0  0  0  0  0  0  0  0  0  0  # atno 17342 bound_to 10162
  140.4042  144.2454  150.5891 LP  0  0  0  0  0  0  0  0  0  0  0  0  # atno 17343 bound_to 10162
  157.7484  131.0047  150.3085 LP  0  0  0  0  0  0  0  0  0  0  0  0  # atno 17370 bound_to 10713
  156.3528  130.3834  149.7315 LP  0  0  0  0  0  0  0  0  0  0  0  0  # atno 17371 bound_to 10713
  140.0051  135.0012  157.0275 LP  0  0  0  0  0  0  0  0  0  0  0  0  # atno 17394 bound_to 11000
  140.4696  134.1400  155.7201 LP  0  0  0  0  0  0  0  0  0  0  0  0  # atno 17395 bound_to 11000

$$$$
