AV-unprocessed.smi:29|AV-procd|sdf|191|dock4
  -GOLD-   2262015463D 1   1.00000     0.00000
 Structure written by MMmdl.
 56 59  0  0  0  0  0  0  0  0  1 V2000
  151.3076  136.9178  159.2763 O   0  0  0  0  0  0  0  0  0  0  0  0
  150.4146  137.2285  158.4880 C   0  0  0  0  0  0  0  0  0  0  0  0
  149.4575  136.1559  157.9459 C   0  0  0  0  0  0  0  0  0  0  0  0
  148.0534  136.3741  158.3547 N   0  0  0  0  0  0  0  0  0  0  0  0
  147.0526  136.4679  157.3554 C   0  0  0  0  0  0  0  0  0  0  0  0
  147.3347  136.3888  156.1590 O   0  0  0  0  0  0  0  0  0  0  0  0
  145.6903  136.6502  157.8436 C   0  0  0  0  0  0  0  0  0  0  0  0
  144.6755  136.7387  156.9670 F   0  0  0  0  0  0  0  0  0  0  0  0
  145.4301  136.7261  159.1648 C   0  0  0  0  0  0  0  0  0  0  0  0
  146.4182  136.6401  160.1285 N   0  0  0  0  0  0  0  0  0  0  0  0
  146.0903  136.7157  161.6031 C   0  0  2  0  0  0  0  0  0  0  0  0
  146.5738  135.4492  162.3187 C   0  0  0  0  0  0  0  0  0  0  0  0
  145.3304  134.5872  162.2983 C   0  0  0  0  0  0  0  0  0  0  0  0
  144.2308  135.6315  162.4545 C   0  0  0  0  0  0  0  0  0  0  0  0
  144.7019  136.7842  161.7605 O   0  0  0  0  0  0  0  0  0  0  0  0
  147.7602  136.4455  159.7374 C   0  0  0  0  0  0  0  0  0  0  0  0
  148.6519  136.3305  160.5815 O   0  0  0  0  0  0  0  0  0  0  0  0
  150.2126  138.4679  158.0059 N   0  0  0  0  0  0  0  0  0  0  0  0
  150.9165  139.6776  158.2779 C   0  0  0  0  0  0  0  0  0  0  0  0
  151.9452  139.7691  159.2480 C   0  0  0  0  0  0  0  0  0  0  0  0
  152.6049  140.9912  159.4927 C   0  0  0  0  0  0  0  0  0  0  0  0
  153.7070  141.0492  160.5401 C   0  0  0  0  0  0  0  0  0  0  0  0
  153.4564  141.9640  161.4778 F   0  0  0  0  0  0  0  0  0  0  0  0
  153.8260  139.8614  161.1334 F   0  0  0  0  0  0  0  0  0  0  0  0
  154.8625  141.3522  159.9491 F   0  0  0  0  0  0  0  0  0  0  0  0
  152.2319  142.1374  158.7615 C   0  0  0  0  0  0  0  0  0  0  0  0
  151.1996  142.0630  157.8093 C   0  0  0  0  0  0  0  0  0  0  0  0
  150.5311  140.8418  157.5663 C   0  0  0  0  0  0  0  0  0  0  0  0
  149.4876  140.7777  156.6274 N   0  0  0  0  0  0  0  0  0  0  0  0
  148.2823  141.4872  157.0359 C   0  0  0  0  0  0  0  0  0  0  0  0
  147.1523  141.2238  156.0258 C   0  0  0  0  0  0  0  0  0  0  0  0
  147.5864  141.5873  154.7180 O   0  0  0  0  0  0  0  0  0  0  0  0
  148.7203  140.8314  154.3000 C   0  0  0  0  0  0  0  0  0  0  0  0
  149.8934  141.0860  155.2626 C   0  0  0  0  0  0  0  0  0  0  0  0
  149.5335  136.1144  156.8576 H   0  0  0  0  0  0  0  0  0  0  0  0
  149.8239  135.1814  158.2719 H   0  0  0  0  0  0  0  0  0  0  0  0
  144.4016  136.8536  159.4677 H   0  0  0  0  0  0  0  0  0  0  0  0
  146.5471  137.6361  161.9703 H   0  0  0  0  0  0  0  0  0  0  0  0
  147.4384  134.9969  161.8306 H   0  0  0  0  0  0  0  0  0  0  0  0
  146.8418  135.7098  163.3434 H   0  0  0  0  0  0  0  0  0  0  0  0
  145.2386  134.0796  161.3373 H   0  0  0  0  0  0  0  0  0  0  0  0
  145.3183  133.8335  163.0861 H   0  0  0  0  0  0  0  0  0  0  0  0
  143.2709  135.2934  162.0636 H   0  0  0  0  0  0  0  0  0  0  0  0
  144.0987  135.8879  163.5064 H   0  0  0  0  0  0  0  0  0  0  0  0
  149.4940  138.5482  157.3008 H   0  0  0  0  0  0  0  0  0  0  0  0
  152.2415  138.9143  159.8347 H   0  0  0  0  0  0  0  0  0  0  0  0
  152.7258  143.0829  158.9292 H   0  0  0  0  0  0  0  0  0  0  0  0
  150.9204  142.9549  157.2674 H   0  0  0  0  0  0  0  0  0  0  0  0
  147.9788  141.1598  158.0311 H   0  0  0  0  0  0  0  0  0  0  0  0
  148.4830  142.5578  157.0939 H   0  0  0  0  0  0  0  0  0  0  0  0
  146.8527  140.1747  156.0426 H   0  0  0  0  0  0  0  0  0  0  0  0
  146.2713  141.8111  156.2850 H   0  0  0  0  0  0  0  0  0  0  0  0
  148.4694  139.7699  154.2651 H   0  0  0  0  0  0  0  0  0  0  0  0
  148.9929  141.1284  153.2873 H   0  0  0  0  0  0  0  0  0  0  0  0
  150.2073  142.1283  155.1945 H   0  0  0  0  0  0  0  0  0  0  0  0
  150.7488  140.4700  154.9825 H   0  0  0  0  0  0  0  0  0  0  0  0
  1  2  2  0  0  0  0
  2  3  1  0  0  0  0
  2 18  1  0  0  0  0
  3  4  1  0  0  0  0
  3 35  1  0  0  0  0
  3 36  1  0  0  0  0
  4 16  1  0  0  0  0
  4  5  1  0  0  0  0
  5  6  2  0  0  0  0
  5  7  1  0  0  0  0
  7  8  1  0  0  0  0
  7  9  2  0  0  0  0
  9 10  1  0  0  0  0
  9 37  1  0  0  0  0
 10 11  1  0  0  0  0
 10 16  1  0  0  0  0
 11 15  1  0  0  0  0
 11 12  1  0  0  0  0
 11 38  1  0  0  0  0
 12 13  1  0  0  0  0
 12 39  1  0  0  0  0
 12 40  1  0  0  0  0
 13 14  1  0  0  0  0
 13 41  1  0  0  0  0
 13 42  1  0  0  0  0
 14 15  1  0  0  0  0
 14 43  1  0  0  0  0
 14 44  1  0  0  0  0
 16 17  2  0  0  0  0
 18 19  1  0  0  0  0
 18 45  1  0  0  0  0
 19 28  1  0  0  0  0
 19 20  2  0  0  0  0
 20 21  1  0  0  0  0
 20 46  1  0  0  0  0
 21 22  1  0  0  0  0
 21 26  2  0  0  0  0
 22 23  1  0  0  0  0
 22 24  1  0  0  0  0
 22 25  1  0  0  0  0
 26 27  1  0  0  0  0
 26 47  1  0  0  0  0
 27 28  2  0  0  0  0
 27 48  1  0  0  0  0
 28 29  1  0  0  0  0
 29 34  1  0  0  0  0
 29 30  1  0  0  0  0
 30 31  1  0  0  0  0
 30 49  1  0  0  0  0
 30 50  1  0  0  0  0
 31 32  1  0  0  0  0
 31 51  1  0  0  0  0
 31 52  1  0  0  0  0
 32 33  1  0  0  0  0
 33 34  1  0  0  0  0
 33 53  1  0  0  0  0
 33 54  1  0  0  0  0
 34 55  1  0  0  0  0
 34 56  1  0  0  0  0
M  END
> <s_m_source_file>
AV-unprocessed.smi

> <i_m_source_file_index>
29

> <i_lp_mmshare_version>
43012

> <i_f3d_flags>
0

> <s_epik_input>
TzFbQ0gyXVtDSDJdW0NIMl1bQ0BIXTFuKGMyPU8pW2NIXWMoRiljKD1PKW4yW0NIMl1DKD1PKVtOSF1jM1tjSF1jKEMoRikoRilGKVtjSF1bY0hdYzNONFtDSDJdW0NIMl1PW0NIMl1bQ0gyXTQ=

> <s_epik_cmdline>
J2VwaWtfcHl0aG9uJywgJy1waCcsICc3LjAnLCAnLXRuJywgJzgnLCAnLW1hJywgJzIwMCcsICctbWV0YWxfYmluZGluZycsICctaW1hZScsICc8aW5maWxlLm1hZT4nLCAnLW9tYWUnLCAnPG91dGZpbGUubWFlPic=

> <r_lp_tautomer_probability>
1

> <r_epik_Ionization_Penalty>
3.5967e-06

> <r_epik_Ionization_Penalty_Charging>
3.88729e-08

> <r_epik_Ionization_Penalty_Neutral>
3.55783e-06

> <r_epik_State_Penalty>
-0

> <r_epik_Charging_Adjusted_Penalty>
3.88729e-08

> <i_epik_Tot_Q>
0

> <i_epik_Tot_abs_Q>
0

> <r_epik_Metal_State_Penalty>
-0

> <b_epik_Metal_Only>
0

> <s_epik_Chemistry_Notes>
This compound contains an acetal/aminal-like group ( X-CH(R)-Y where X, Y are N, S, or O) that may be acid/base labile, releasing an aldehyde.

> <s_lp_Force_Field>
OPLS_2005

> <r_lp_Energy>
49.5757

> <b_lp_Chiralities_Consistent>
1

> <s_lp_Variant>
AV-unprocessed.smi:29-1

> <Gold.Version>
5.8.1

> <Gold.Id.Protein>
6NUR|6NUR_protein|mol2

> <Gold.PLP.Fitness>
50.4393

> <Gold.PLP.PLP>
-47.8520

> <Gold.PLP.part.hbond>
-2.0000

> <Gold.PLP.part.metal>
0.0000

> <Gold.PLP.part.buried>
-8.9088

> <Gold.PLP.part.nonpolar>
-37.0895

> <Gold.PLP.part.repulsive>
0.2929

> <Gold.PLP.ligand.clash>
3.0534

> <Gold.PLP.ligand.torsion>
0.1900

> <Gold.PLP.Chemscore.Hbond>
1.9263

> <Gold.PLP.Chemscore.CHOScore>
0.0000

> <Gold.PLP.Chemscore.Metal>
0.0000

> <Gold.Chemscore.Hbonds>
donor molecule, donor type, donor heavy atom, donor atom, acceptor molecule, acceptor atom, score
      P1  H  6896  6908       L1     1  1.00
      P1  H  6931  6943       L1    17  0.19

> <Gold.PLP.Chemscore.Internal.Correction>
0.2420

> <Gold.Rescore>
     Score         DG    S(hbond)    S(metal)    S(lipo)     H(rot)  DE(clash)    DE(int)     intcor
     13.80     -17.65       1.91        0.00      92.52       1.96       0.11       3.74       ----

> <Gold.Chemscore.Fitness>
13.8026

> <Gold.Chemscore.DG>
-17.6450

> <Gold.Chemscore.ZeroCoef>
-5.4800

> <Gold.Chemscore.Hbond>
1.9067

> <Gold.Chemscore.Metal>
0.0000

> <Gold.Chemscore.Lipo>
92.5195

> <Gold.Chemscore.Internal_Hbond>
0.0000

> <Gold.Chemscore.DEClash>
0.1055

> <Gold.Chemscore.DEInternal>
3.7369

> <Gold.Chemscore.Rot>
1.9641

> <Gold.Chemscore.Internal.Correction>
   9.000000E+99

> <Gold.Chemscore.Hbonds>
donor molecule, donor type, donor heavy atom, donor atom, acceptor molecule, acceptor atom, score
      P1  H  6896  6908       L1     1  0.92
      P1  H  6931  6943       L1    17  0.19

> <Gold.Chemscore.Hbond.Weighted>
-6.3682

> <Gold.Chemscore.Metal.Weighted>
-0.0000

> <Gold.Chemscore.Lipo.Weighted>
-10.8248

> <Gold.Chemscore.Internal_Hbond.Weighted>
0.0000

> <Gold.Chemscore.DEClash.Weighted>
0.1055

> <Gold.Chemscore.DEInternal.Weighted>
3.7369

> <Gold.Chemscore.Rot.Weighted>
5.0280

> <Gold.Chemscore.Internal.Correction.Weighted>
   9.000000E+99

> <Gold.Protein.RotatedTorsions>
[ 6907 6896 6895 6894 ] final -138.88 input  -60.11 | X-H torsion
[ 7974 7965 7964 7962 ] final   13.37 input  175.53 | X-H torsion
[ 8008 7997 7996 7995 ] final -104.95 input   59.86 | X-H torsion
[ 10167 10162 10161 10158 ] final  -28.93 input  -65.29 | X-H torsion
[ 10718 10713 10712 10709 ] final  112.16 input   66.30 | X-H torsion
[ 10763 10752 10751 10750 ] final -136.12 input  -60.55 | X-H torsion
[ 11005 11000 10999 10996 ] final  -14.64 input  -57.11 | X-H torsion

> <Gold.Protein.ActiveResidues>
 VAL166  LYS551  ARG553  GLY616  TRP617  ASP618  TYR619  PRO620  LYS621  CYS622 
 ASP623  PHE694  ASN695  SER759  ASP760  ASP761  ALA762  ILE779  LEU786  VAL792 
 PHE793  MET794  SER795  GLU796  ALA797  LYS798  CYS799  TRP800  GLU811  SER814 

> <Gold.Protein.RotatedAtoms>
  151.0407  133.5709  159.2651 H   0  0  0  0  0  0  0  0  0  0  0  0  # atno 6907 bound_to 6896
  151.2757  135.0697  159.9160 H   0  0  0  0  0  0  0  0  0  0  0  0  # atno 6908 bound_to 6896
  152.5363  134.0129  159.8001 H   0  0  0  0  0  0  0  0  0  0  0  0  # atno 6909 bound_to 6896
  146.2331  139.9198  142.8512 H   0  0  0  0  0  0  0  0  0  0  0  0  # atno 7974 bound_to 7965
  154.8928  140.0415  157.1848 H   0  0  0  0  0  0  0  0  0  0  0  0  # atno 8008 bound_to 7997
  154.8523  140.2931  155.5569 H   0  0  0  0  0  0  0  0  0  0  0  0  # atno 8009 bound_to 7997
  156.2996  140.2462  156.3484 H   0  0  0  0  0  0  0  0  0  0  0  0  # atno 8010 bound_to 7997
  140.7265  143.3970  151.1331 H   0  0  0  0  0  0  0  0  0  0  0  0  # atno 10167 bound_to 10162
  157.6407  131.0963  150.6854 H   0  0  0  0  0  0  0  0  0  0  0  0  # atno 10718 bound_to 10713
  154.8690  135.3682  154.5009 H   0  0  0  0  0  0  0  0  0  0  0  0  # atno 10763 bound_to 10752
  153.5650  135.7022  153.5535 H   0  0  0  0  0  0  0  0  0  0  0  0  # atno 10764 bound_to 10752
  153.3594  135.4050  155.1670 H   0  0  0  0  0  0  0  0  0  0  0  0  # atno 10765 bound_to 10752
  140.7885  133.8307  155.9357 H   0  0  0  0  0  0  0  0  0  0  0  0  # atno 11005 bound_to 11000
  145.2148  140.9910  143.4080 LP  0  0  0  0  0  0  0  0  0  0  0  0  # atno 17320 bound_to 7965
  144.9661  139.3929  143.6332 LP  0  0  0  0  0  0  0  0  0  0  0  0  # atno 17321 bound_to 7965
  139.7584  143.8673  152.3094 LP  0  0  0  0  0  0  0  0  0  0  0  0  # atno 17342 bound_to 10162
  139.8550  144.7145  150.9167 LP  0  0  0  0  0  0  0  0  0  0  0  0  # atno 17343 bound_to 10162
  156.7178  130.4671  149.5530 LP  0  0  0  0  0  0  0  0  0  0  0  0  # atno 17370 bound_to 10713
  156.1686  130.6422  151.0809 LP  0  0  0  0  0  0  0  0  0  0  0  0  # atno 17371 bound_to 10713
  140.9413  134.1897  157.4795 LP  0  0  0  0  0  0  0  0  0  0  0  0  # atno 17394 bound_to 11000
  139.8734  134.9873  156.5361 LP  0  0  0  0  0  0  0  0  0  0  0  0  # atno 17395 bound_to 11000

$$$$
