AV-unprocessed.smi:1293|AV-procd|sdf|5399|dock9
  -GOLD-   22720 4563D 1   1.00000     0.00000
 Structure written by MMmdl.
 39 40  0  0  0  0  0  0  0  0  1 V2000
  146.3174  142.8717  153.7803 C   0  0  0  0  0  0  0  0  0  0  0  0
  146.2890  141.7264  154.6133 O   0  0  0  0  0  0  0  0  0  0  0  0
  147.0730  140.6610  154.1014 C   0  0  0  0  0  0  0  0  0  0  0  0
  148.4910  141.1698  153.7949 C   0  0  0  0  0  0  0  0  0  0  0  0
  149.4882  140.5903  154.7068 N   0  0  0  0  0  0  0  0  0  0  0  0
  150.1756  141.4834  155.5522 C   0  0  0  0  0  0  0  0  0  0  0  0
  151.1106  141.0712  156.4366 C   0  0  0  0  0  0  0  0  0  0  0  0
  151.8225  141.8982  157.3188 N   0  0  0  0  0  0  0  0  0  0  0  0
  151.3976  142.9556  158.0399 C   0  0  0  0  0  0  0  0  0  0  0  0
  150.2551  143.4134  158.0230 O   0  0  0  0  0  0  0  0  0  0  0  0
  152.4633  143.6126  158.9344 C   0  0  0  0  0  0  0  0  0  0  0  0
  153.0656  142.6065  159.9339 C   0  0  0  0  0  0  0  0  0  0  0  0
  152.3155  142.8338  161.2453 C   0  0  0  0  0  0  0  0  0  0  0  0
  152.0759  144.3407  161.2706 C   0  0  0  0  0  0  0  0  0  0  0  0
  151.8726  144.7469  159.8049 C   0  0  0  0  0  0  0  0  0  0  0  0
  151.3807  139.6501  156.4847 C   0  0  0  0  0  0  0  0  0  0  0  0
  150.7228  138.7864  155.6874 C   0  0  0  0  0  0  0  0  0  0  0  0
  149.7077  139.2424  154.7355 C   0  0  0  0  0  0  0  0  0  0  0  0
  149.0921  138.4597  154.0111 O   0  0  0  0  0  0  0  0  0  0  0  0
  145.7035  143.6586  154.2188 H   0  0  0  0  0  0  0  0  0  0  0  0
  145.9205  142.6479  152.7891 H   0  0  0  0  0  0  0  0  0  0  0  0
  147.3323  143.2565  153.6734 H   0  0  0  0  0  0  0  0  0  0  0  0
  147.1058  139.8334  154.8118 H   0  0  0  0  0  0  0  0  0  0  0  0
  146.6168  140.2829  153.1855 H   0  0  0  0  0  0  0  0  0  0  0  0
  148.7475  140.9344  152.7606 H   0  0  0  0  0  0  0  0  0  0  0  0
  148.5097  142.2596  153.8448 H   0  0  0  0  0  0  0  0  0  0  0  0
  149.8649  142.5081  155.4263 H   0  0  0  0  0  0  0  0  0  0  0  0
  152.7978  141.6592  157.4233 H   0  0  0  0  0  0  0  0  0  0  0  0
  153.2614  144.0085  158.3035 H   0  0  0  0  0  0  0  0  0  0  0  0
  152.9979  141.5691  159.6022 H   0  0  0  0  0  0  0  0  0  0  0  0
  154.1244  142.8268  160.0759 H   0  0  0  0  0  0  0  0  0  0  0  0
  151.3609  142.3064  161.2246 H   0  0  0  0  0  0  0  0  0  0  0  0
  152.8721  142.4820  162.1142 H   0  0  0  0  0  0  0  0  0  0  0  0
  151.2314  144.6176  161.9022 H   0  0  0  0  0  0  0  0  0  0  0  0
  152.9606  144.8410  161.6667 H   0  0  0  0  0  0  0  0  0  0  0  0
  152.3646  145.6980  159.5986 H   0  0  0  0  0  0  0  0  0  0  0  0
  150.8096  144.8997  159.6089 H   0  0  0  0  0  0  0  0  0  0  0  0
  152.1222  139.2693  157.1720 H   0  0  0  0  0  0  0  0  0  0  0  0
  150.9482  137.7319  155.7497 H   0  0  0  0  0  0  0  0  0  0  0  0
  1  2  1  0  0  0  0
  1 20  1  0  0  0  0
  1 21  1  0  0  0  0
  1 22  1  0  0  0  0
  2  3  1  0  0  0  0
  3  4  1  0  0  0  0
  3 23  1  0  0  0  0
  3 24  1  0  0  0  0
  4  5  1  0  0  0  0
  4 25  1  0  0  0  0
  4 26  1  0  0  0  0
  5 18  1  0  0  0  0
  5  6  1  0  0  0  0
  6  7  2  0  0  0  0
  6 27  1  0  0  0  0
  7  8  1  0  0  0  0
  7 16  1  0  0  0  0
  8  9  1  0  0  0  0
  8 28  1  0  0  0  0
  9 10  2  0  0  0  0
  9 11  1  0  0  0  0
 11 15  1  0  0  0  0
 11 12  1  0  0  0  0
 11 29  1  0  0  0  0
 12 13  1  0  0  0  0
 12 30  1  0  0  0  0
 12 31  1  0  0  0  0
 13 14  1  0  0  0  0
 13 32  1  0  0  0  0
 13 33  1  0  0  0  0
 14 15  1  0  0  0  0
 14 34  1  0  0  0  0
 14 35  1  0  0  0  0
 15 36  1  0  0  0  0
 15 37  1  0  0  0  0
 16 17  2  0  0  0  0
 16 38  1  0  0  0  0
 17 18  1  0  0  0  0
 17 39  1  0  0  0  0
 18 19  2  0  0  0  0
M  END
> <s_m_source_file>
AV-unprocessed.smi

> <i_m_source_file_index>
1293

> <i_lp_mmshare_version>
43012

> <i_f3d_flags>
0

> <s_epik_input>
W0NIM11PW0NIMl1bQ0gyXW4xW2NIXWMoW2NIXVtjSF1jMT1PKVtOSF1DKD1PKVtDSF0yW0NIMl1bQ0gyXVtDSDJdW0NIMl0y

> <s_epik_cmdline>
J2VwaWtfcHl0aG9uJywgJy1waCcsICc3LjAnLCAnLXRuJywgJzgnLCAnLW1hJywgJzIwMCcsICctbWV0YWxfYmluZGluZycsICctaW1hZScsICc8aW5maWxlLm1hZT4nLCAnLW9tYWUnLCAnPG91dGZpbGUubWFlPic=

> <r_lp_tautomer_probability>
1

> <r_epik_Ionization_Penalty>
2.42474e-06

> <r_epik_Ionization_Penalty_Charging>
2.30353e-06

> <r_epik_Ionization_Penalty_Neutral>
1.21208e-07

> <r_epik_State_Penalty>
-0

> <r_epik_Charging_Adjusted_Penalty>
2.30353e-06

> <i_epik_Tot_Q>
0

> <i_epik_Tot_abs_Q>
0

> <r_epik_Metal_State_Penalty>
-0

> <b_epik_Metal_Only>
0

> <s_lp_Force_Field>
OPLS_2005

> <r_lp_Energy>
36.4395

> <b_lp_Chiralities_Consistent>
1

> <s_lp_Variant>
AV-unprocessed.smi:1293-1

> <Gold.Version>
5.8.1

> <Gold.Id.Protein>
6NUR|6NUR_protein|mol2

> <Gold.PLP.Fitness>
45.5147

> <Gold.PLP.PLP>
-43.9319

> <Gold.PLP.part.hbond>
0.0000

> <Gold.PLP.part.metal>
0.0000

> <Gold.PLP.part.buried>
-2.8797

> <Gold.PLP.part.nonpolar>
-42.0242

> <Gold.PLP.part.repulsive>
1.5202

> <Gold.PLP.ligand.clash>
0.0000

> <Gold.PLP.ligand.torsion>
0.7202

> <Gold.PLP.Chemscore.Hbond>
0.0000

> <Gold.PLP.Chemscore.CHOScore>
1.0000

> <Gold.PLP.Chemscore.Metal>
0.0000

> <Gold.Chemscore.Hbonds>
donor molecule, donor type, donor heavy atom, donor atom, acceptor molecule, acceptor atom, score
      L1  C     6    27       P1  8028  1.00

> <Gold.PLP.Chemscore.Internal.Correction>
0.0231

> <Gold.Rescore>
     Score         DG    S(hbond)    S(metal)    S(lipo)     H(rot)  DE(clash)    DE(int)     intcor
     10.74     -13.98       0.00        0.00     106.18       1.53       1.25       1.98       ----

> <Gold.Chemscore.Fitness>
10.7440

> <Gold.Chemscore.DG>
-13.9822

> <Gold.Chemscore.ZeroCoef>
-5.4800

> <Gold.Chemscore.Hbond>
0.0000

> <Gold.Chemscore.Metal>
0.0000

> <Gold.Chemscore.Lipo>
106.1804

> <Gold.Chemscore.Internal_Hbond>
0.0000

> <Gold.Chemscore.DEClash>
1.2541

> <Gold.Chemscore.DEInternal>
1.9841

> <Gold.Chemscore.Rot>
1.5316

> <Gold.Chemscore.Internal.Correction>
   9.000000E+99

> <Gold.Chemscore.Hbond.Weighted>
-0.0000

> <Gold.Chemscore.Metal.Weighted>
-0.0000

> <Gold.Chemscore.Lipo.Weighted>
-12.4231

> <Gold.Chemscore.Internal_Hbond.Weighted>
0.0000

> <Gold.Chemscore.DEClash.Weighted>
1.2541

> <Gold.Chemscore.DEInternal.Weighted>
1.9841

> <Gold.Chemscore.Rot.Weighted>
3.9209

> <Gold.Chemscore.Internal.Correction.Weighted>
   9.000000E+99

> <Gold.Protein.RotatedTorsions>
[ 6907 6896 6895 6894 ] final  -90.06 input  -60.11 | X-H torsion
[ 7974 7965 7964 7962 ] final  -24.97 input  175.53 | X-H torsion
[ 8008 7997 7996 7995 ] final  -27.46 input   59.86 | X-H torsion
[ 10167 10162 10161 10158 ] final  179.52 input  -65.29 | X-H torsion
[ 10718 10713 10712 10709 ] final  157.93 input   66.30 | X-H torsion
[ 10763 10752 10751 10750 ] final   -0.44 input  -60.55 | X-H torsion
[ 11005 11000 10999 10996 ] final  152.59 input  -57.11 | X-H torsion

> <Gold.Protein.ActiveResidues>
 VAL166  LYS551  ARG553  GLY616  TRP617  ASP618  TYR619  PRO620  LYS621  CYS622 
 ASP623  PHE694  ASN695  SER759  ASP760  ASP761  ALA762  ILE779  LEU786  VAL792 
 PHE793  MET794  SER795  GLU796  ALA797  LYS798  CYS799  TRP800  GLU811  SER814 

> <Gold.Protein.RotatedAtoms>
  150.6878  134.2490  159.4502 H   0  0  0  0  0  0  0  0  0  0  0  0  # atno 6907 bound_to 6896
  152.0429  134.9698  160.0583 H   0  0  0  0  0  0  0  0  0  0  0  0  # atno 6908 bound_to 6896
  152.1192  133.4309  159.4704 H   0  0  0  0  0  0  0  0  0  0  0  0  # atno 6909 bound_to 6896
  146.1521  140.4823  142.8607 H   0  0  0  0  0  0  0  0  0  0  0  0  # atno 7974 bound_to 7965
  154.4376  140.1871  156.0936 H   0  0  0  0  0  0  0  0  0  0  0  0  # atno 8008 bound_to 7997
  156.0347  140.3326  155.7151 H   0  0  0  0  0  0  0  0  0  0  0  0  # atno 8009 bound_to 7997
  155.5788  140.0619  157.2779 H   0  0  0  0  0  0  0  0  0  0  0  0  # atno 8010 bound_to 7997
  139.5340  144.2552  152.0752 H   0  0  0  0  0  0  0  0  0  0  0  0  # atno 10167 bound_to 10162
  157.1848  131.0641  151.2112 H   0  0  0  0  0  0  0  0  0  0  0  0  # atno 10718 bound_to 10713
  153.3319  135.6975  153.6940 H   0  0  0  0  0  0  0  0  0  0  0  0  # atno 10763 bound_to 10752
  153.5739  135.3511  155.2849 H   0  0  0  0  0  0  0  0  0  0  0  0  # atno 10764 bound_to 10752
  154.8620  135.4279  154.2511 H   0  0  0  0  0  0  0  0  0  0  0  0  # atno 10765 bound_to 10752
  140.1322  134.8795  157.2218 H   0  0  0  0  0  0  0  0  0  0  0  0  # atno 11005 bound_to 11000
  144.7917  140.6044  143.6537 LP  0  0  0  0  0  0  0  0  0  0  0  0  # atno 17320 bound_to 7965
  145.4798  139.1496  143.3768 LP  0  0  0  0  0  0  0  0  0  0  0  0  # atno 17321 bound_to 7965
  140.2019  144.4649  150.6427 LP  0  0  0  0  0  0  0  0  0  0  0  0  # atno 17342 bound_to 10162
  140.6535  143.2231  151.6022 LP  0  0  0  0  0  0  0  0  0  0  0  0  # atno 17343 bound_to 10162
  157.3918  130.7286  149.6703 LP  0  0  0  0  0  0  0  0  0  0  0  0  # atno 17370 bound_to 10713
  155.9719  130.4144  150.4132 LP  0  0  0  0  0  0  0  0  0  0  0  0  # atno 17371 bound_to 10713
  140.2828  134.3330  155.7338 LP  0  0  0  0  0  0  0  0  0  0  0  0  # atno 17394 bound_to 11000
  141.2172  133.7488  156.9389 LP  0  0  0  0  0  0  0  0  0  0  0  0  # atno 17395 bound_to 11000

$$$$
