AV-unprocessed.smi:3335|AV-procd|sdf|12841|dock8
  -GOLD-   2272019223D 1   1.00000     0.00000
 Structure written by MMmdl.
 47 48  0  0  0  0  0  0  0  0  2 V2000
  151.8302  143.1253  158.3046 C   0  0  0  0  0  0  0  0  0  0  0  0
  151.2700  142.0182  157.4586 C   0  0  0  0  0  0  0  0  0  0  0  0
  151.1987  140.6308  157.7673 C   0  0  0  0  0  0  0  0  0  0  0  0
  150.6484  139.9181  156.7986 N   0  0  0  0  0  0  0  0  0  0  0  0
  150.3362  140.8202  155.8409 N   0  0  0  0  0  0  0  0  0  0  0  0
  149.7320  140.3994  154.5781 C   0  0  2  0  0  0  0  0  0  0  0  0
  148.6096  141.3561  154.1291 C   0  0  0  0  0  0  0  0  0  0  0  0
  149.2893  138.9110  154.5896 C   0  0  2  0  0  0  0  0  0  0  0  0
  150.4496  137.9157  154.8070 C   0  0  0  0  0  0  0  0  0  0  0  0
  148.5618  138.6127  153.3312 N   0  3  0  0  0  0  0  0  0  0  0  0
  147.1241  138.2702  153.4317 C   0  0  1  0  0  0  0  0  0  0  0  0
  146.3236  139.4111  154.0931 C   0  0  0  0  0  0  0  0  0  0  0  0
  146.5942  137.9579  152.0197 C   0  0  0  0  0  0  0  0  0  0  0  0
  146.7918  138.7664  151.1117 O   0  0  0  0  0  0  0  0  0  0  0  0
  145.9488  136.7909  151.8038 N   0  0  0  0  0  0  0  0  0  0  0  0
  145.4148  136.4015  150.4995 C   0  0  0  0  0  0  0  0  0  0  0  0
  144.5767  135.1482  150.7504 C   0  0  0  0  0  0  0  0  0  0  0  0
  145.1913  134.5363  152.0008 C   0  0  0  0  0  0  0  0  0  0  0  0
  145.7030  135.7399  152.7920 C   0  0  0  0  0  0  0  0  0  0  0  0
  150.7092  142.0952  156.2156 C   0  0  0  0  0  0  0  0  0  0  0  0
  152.2427  142.7514  159.2421 H   0  0  0  0  0  0  0  0  0  0  0  0
  151.0671  143.8601  158.5610 H   0  0  0  0  0  0  0  0  0  0  0  0
  152.6311  143.6584  157.7919 H   0  0  0  0  0  0  0  0  0  0  0  0
  151.5332  140.1231  158.6601 H   0  0  0  0  0  0  0  0  0  0  0  0
  150.5129  140.4940  153.8215 H   0  0  0  0  0  0  0  0  0  0  0  0
  148.2283  141.0765  153.1465 H   0  0  0  0  0  0  0  0  0  0  0  0
  148.9779  142.3799  154.0558 H   0  0  0  0  0  0  0  0  0  0  0  0
  147.7662  141.3613  154.8193 H   0  0  0  0  0  0  0  0  0  0  0  0
  148.5883  138.7980  155.4159 H   0  0  0  0  0  0  0  0  0  0  0  0
  151.0445  138.1813  155.6800 H   0  0  0  0  0  0  0  0  0  0  0  0
  151.1203  137.8814  153.9485 H   0  0  0  0  0  0  0  0  0  0  0  0
  150.0880  136.9029  154.9790 H   0  0  0  0  0  0  0  0  0  0  0  0
  148.6364  139.4157  152.7230 H   0  0  0  0  0  0  0  0  0  0  0  0
  146.9907  137.3841  154.0492 H   0  0  0  0  0  0  0  0  0  0  0  0
  145.2526  139.2054  154.0693 H   0  0  0  0  0  0  0  0  0  0  0  0
  146.4890  140.3656  153.5914 H   0  0  0  0  0  0  0  0  0  0  0  0
  146.5946  139.5383  155.1408 H   0  0  0  0  0  0  0  0  0  0  0  0
  144.8172  137.1941  150.0458 H   0  0  0  0  0  0  0  0  0  0  0  0
  146.2456  136.1776  149.8285 H   0  0  0  0  0  0  0  0  0  0  0  0
  143.5441  135.4338  150.9546 H   0  0  0  0  0  0  0  0  0  0  0  0
  144.5726  134.4642  149.9012 H   0  0  0  0  0  0  0  0  0  0  0  0
  144.4844  133.9281  152.5660 H   0  0  0  0  0  0  0  0  0  0  0  0
  146.0305  133.8986  151.7192 H   0  0  0  0  0  0  0  0  0  0  0  0
  146.5997  135.4799  153.3549 H   0  0  0  0  0  0  0  0  0  0  0  0
  144.9419  136.0813  153.4955 H   0  0  0  0  0  0  0  0  0  0  0  0
  150.5479  142.9470  155.5713 H   0  0  0  0  0  0  0  0  0  0  0  0
  149.0361  137.8394  152.8869 H   0  0  0  0  0  0  0  0  0  0  0  0
  1  2  1  0  0  0  0
  1 21  1  0  0  0  0
  1 22  1  0  0  0  0
  1 23  1  0  0  0  0
  2 20  2  0  0  0  0
  2  3  1  0  0  0  0
  3  4  2  0  0  0  0
  3 24  1  0  0  0  0
  4  5  1  0  0  0  0
  5  6  1  0  0  0  0
  5 20  1  0  0  0  0
  6  7  1  0  0  0  0
  6  8  1  0  0  0  0
  6 25  1  0  0  0  0
  7 26  1  0  0  0  0
  7 27  1  0  0  0  0
  7 28  1  0  0  0  0
  8  9  1  0  0  0  0
  8 10  1  0  0  0  0
  8 29  1  0  0  0  0
  9 30  1  0  0  0  0
  9 31  1  0  0  0  0
  9 32  1  0  0  0  0
 10 11  1  0  0  0  0
 10 33  1  0  0  0  0
 10 47  1  0  0  0  0
 11 12  1  0  0  0  0
 11 13  1  0  0  0  0
 11 34  1  0  0  0  0
 12 35  1  0  0  0  0
 12 36  1  0  0  0  0
 12 37  1  0  0  0  0
 13 14  2  0  0  0  0
 13 15  1  0  0  0  0
 15 19  1  0  0  0  0
 15 16  1  0  0  0  0
 16 17  1  0  0  0  0
 16 38  1  0  0  0  0
 16 39  1  0  0  0  0
 17 18  1  0  0  0  0
 17 40  1  0  0  0  0
 17 41  1  0  0  0  0
 18 19  1  0  0  0  0
 18 42  1  0  0  0  0
 18 43  1  0  0  0  0
 19 44  1  0  0  0  0
 19 45  1  0  0  0  0
 20 46  1  0  0  0  0
M  CHG  1  10   1
M  END
> <s_m_source_file>
AV-unprocessed.smi

> <i_m_source_file_index>
3335

> <i_lp_mmshare_version>
43012

> <i_f3d_flags>
0

> <s_epik_input>
W0NIM11jMVtjSF1ubihbY0hdMSlbQ0BIXShbQ0gzXSlbQ0BIXShbQ0gzXSlbTkhdW0NASF0oW0NIM10pQyg9TylOMltDSDJdW0NIMl1bQ0gyXVtDSDJdMg==

> <s_epik_cmdline>
J2VwaWtfcHl0aG9uJywgJy1waCcsICc3LjAnLCAnLXRuJywgJzgnLCAnLW1hJywgJzIwMCcsICctbWV0YWxfYmluZGluZycsICctaW1hZScsICc8aW5maWxlLm1hZT4nLCAnLW9tYWUnLCAnPG91dGZpbGUubWFlPic=

> <r_lp_tautomer_probability>
1

> <r_epik_Ionization_Penalty>
0.14175

> <r_epik_Ionization_Penalty_Charging>
0.141731

> <r_epik_Ionization_Penalty_Neutral>
1.91261e-05

> <r_epik_State_Penalty>
0.131043

> <r_epik_Charging_Adjusted_Penalty>
0.272773

> <i_epik_Tot_Q>
1

> <i_epik_Tot_abs_Q>
1

> <r_epik_Metal_State_Penalty>
0.131408

> <b_epik_Metal_Only>
0

> <s_lp_Force_Field>
OPLS_2005

> <r_lp_Energy>
38.6819

> <b_lp_Chiralities_Consistent>
1

> <s_lp_Variant>
AV-unprocessed.smi:3335-5

> <Gold.Version>
5.8.1

> <Gold.Id.Protein>
6NUR|6NUR_protein|mol2

> <Gold.PLP.Fitness>
47.2022

> <Gold.PLP.PLP>
-35.2369

> <Gold.PLP.part.hbond>
-3.0000

> <Gold.PLP.part.metal>
0.0000

> <Gold.PLP.part.buried>
3.3736

> <Gold.PLP.part.nonpolar>
-36.3132

> <Gold.PLP.part.repulsive>
1.0326

> <Gold.PLP.ligand.clash>
0.0000

> <Gold.PLP.ligand.torsion>
1.2829

> <Gold.PLP.Chemscore.Hbond>
3.7760

> <Gold.PLP.Chemscore.CHOScore>
1.0000

> <Gold.PLP.Chemscore.Metal>
0.0000

> <Gold.Chemscore.Hbonds>
donor molecule, donor type, donor heavy atom, donor atom, acceptor molecule, acceptor atom, score
      L1  H    10    33       P1  7957  0.82
      L1  H    10    47       P1  7948  2.00
      P1  H  7954  7966       L1    14  0.94
      L1  C    20    46       P1  8028  1.00

> <Gold.PLP.Chemscore.Internal.Correction>
0.2031

> <Gold.Rescore>
     Score         DG    S(hbond)    S(metal)    S(lipo)     H(rot)  DE(clash)    DE(int)     intcor
     15.51     -20.92       2.86        0.00      86.93       1.68       1.47       3.94       ----

> <Gold.Chemscore.Fitness>
15.5135

> <Gold.Chemscore.DG>
-20.9222

> <Gold.Chemscore.ZeroCoef>
-5.4800

> <Gold.Chemscore.Hbond>
2.8644

> <Gold.Chemscore.Metal>
0.0000

> <Gold.Chemscore.Lipo>
86.9262

> <Gold.Chemscore.Internal_Hbond>
0.0000

> <Gold.Chemscore.DEClash>
1.4654

> <Gold.Chemscore.DEInternal>
3.9432

> <Gold.Chemscore.Rot>
1.6778

> <Gold.Chemscore.Internal.Correction>
   9.000000E+99

> <Gold.Chemscore.Hbonds>
donor molecule, donor type, donor heavy atom, donor atom, acceptor molecule, acceptor atom, score
      L1  H    10    33       P1  7957  0.81
      L1  H    10    47       P1  7948  0.95
      P1  H  7954  7966       L1    14  0.46

> <Gold.Chemscore.Hbond.Weighted>
-9.5670

> <Gold.Chemscore.Metal.Weighted>
-0.0000

> <Gold.Chemscore.Lipo.Weighted>
-10.1704

> <Gold.Chemscore.Internal_Hbond.Weighted>
0.0000

> <Gold.Chemscore.DEClash.Weighted>
1.4654

> <Gold.Chemscore.DEInternal.Weighted>
3.9432

> <Gold.Chemscore.Rot.Weighted>
4.2952

> <Gold.Chemscore.Internal.Correction.Weighted>
   9.000000E+99

> <Gold.Protein.RotatedTorsions>
[ 6907 6896 6895 6894 ] final   48.67 input  -60.11 | X-H torsion
[ 7974 7965 7964 7962 ] final -107.65 input  175.53 | X-H torsion
[ 8008 7997 7996 7995 ] final   77.93 input   59.86 | X-H torsion
[ 10167 10162 10161 10158 ] final  -72.26 input  -65.29 | X-H torsion
[ 10718 10713 10712 10709 ] final  125.88 input   66.30 | X-H torsion
[ 10763 10752 10751 10750 ] final  -74.31 input  -60.55 | X-H torsion
[ 11005 11000 10999 10996 ] final   10.50 input  -57.11 | X-H torsion

> <Gold.Protein.ActiveResidues>
 VAL166  LYS551  ARG553  GLY616  TRP617  ASP618  TYR619  PRO620  LYS621  CYS622 
 ASP623  PHE694  ASN695  SER759  ASP760  ASP761  ALA762  ILE779  LEU786  VAL792 
 PHE793  MET794  SER795  GLU796  ALA797  LYS798  CYS799  TRP800  GLU811  SER814 

> <Gold.Protein.RotatedAtoms>
  152.2821  134.7817  160.0394 H   0  0  0  0  0  0  0  0  0  0  0  0  # atno 6907 bound_to 6896
  151.8393  133.3416  159.3646 H   0  0  0  0  0  0  0  0  0  0  0  0  # atno 6908 bound_to 6896
  150.7194  134.5336  159.5756 H   0  0  0  0  0  0  0  0  0  0  0  0  # atno 6909 bound_to 6896
  145.2026  140.9063  143.3360 H   0  0  0  0  0  0  0  0  0  0  0  0  # atno 7974 bound_to 7965
  155.8486  140.3459  155.5678 H   0  0  0  0  0  0  0  0  0  0  0  0  # atno 8008 bound_to 7997
  155.8062  140.0892  157.1949 H   0  0  0  0  0  0  0  0  0  0  0  0  # atno 8009 bound_to 7997
  154.4007  140.1456  156.3321 H   0  0  0  0  0  0  0  0  0  0  0  0  # atno 8010 bound_to 7997
  140.5207  143.2332  151.7435 H   0  0  0  0  0  0  0  0  0  0  0  0  # atno 10167 bound_to 10162
  157.5466  131.1095  150.8772 H   0  0  0  0  0  0  0  0  0  0  0  0  # atno 10718 bound_to 10713
  154.4714  135.5868  153.6324 H   0  0  0  0  0  0  0  0  0  0  0  0  # atno 10763 bound_to 10752
  152.9835  135.6067  154.3362 H   0  0  0  0  0  0  0  0  0  0  0  0  # atno 10764 bound_to 10752
  154.3244  135.2843  155.2482 H   0  0  0  0  0  0  0  0  0  0  0  0  # atno 10765 bound_to 10752
  140.5138  134.0626  155.7825 H   0  0  0  0  0  0  0  0  0  0  0  0  # atno 11005 bound_to 11000
  144.9933  139.3669  143.6204 LP  0  0  0  0  0  0  0  0  0  0  0  0  # atno 17320 bound_to 7965
  146.3414  139.9124  142.8778 LP  0  0  0  0  0  0  0  0  0  0  0  0  # atno 17321 bound_to 7965
  139.4922  144.4259  151.9926 LP  0  0  0  0  0  0  0  0  0  0  0  0  # atno 17342 bound_to 10162
  140.3356  144.3265  150.5978 LP  0  0  0  0  0  0  0  0  0  0  0  0  # atno 17343 bound_to 10162
  156.9309  130.5349  149.5279 LP  0  0  0  0  0  0  0  0  0  0  0  0  # atno 17370 bound_to 10713
  156.0540  130.5605  150.9052 LP  0  0  0  0  0  0  0  0  0  0  0  0  # atno 17371 bound_to 10713
  141.1371  133.9202  157.2409 LP  0  0  0  0  0  0  0  0  0  0  0  0  # atno 17394 bound_to 11000
  139.9644  135.0146  156.9348 LP  0  0  0  0  0  0  0  0  0  0  0  0  # atno 17395 bound_to 11000

$$$$
