#       Name:                AV-unprocessed.smi:21
#       Creating user name   scv26
#       Creation time:       Thu Mar 26 15:41:42 2020


#       File generated by GOLD software.
#

@<TRIPOS>MOLECULE
AV-unprocessed.smi:21
    71    74     1
SMALL
NO_CHARGES


@<TRIPOS>ATOM
      1 ****         0.0736  -3.0153  -1.5760 C.3            1 S1                 0.0000
      2 ****        -1.2209  -2.9864  -0.9948 O.3            1 S1                 0.0000
      3 ****        -2.1092  -2.0956  -1.6550 C.3            1 S1                 0.0000
      4 ****        -1.8165  -0.6278  -1.3117 C.3            1 S1                 0.0000
      5 ****        -3.2014  -0.0289  -1.0336 C.3            1 S1                 0.0000
      6 ****        -3.1707   1.2694  -0.1920 C.3            1 S1                 0.0000
      7 ****        -2.5009   2.3899  -0.8562 N.pl3          1 S1                 0.0000
      8 ****        -3.1724   2.9930  -2.0037 C.3            1 S1                 0.0000
      9 ****        -1.1413   2.4180  -0.8222 C.ar           1 S1                 0.0000
     10 ****        -0.4518   2.5710  -1.9851 N.ar           1 S1                 0.0000
     11 ****         0.8827   2.5214  -1.9945 C.ar           1 S1                 0.0000
     12 ****         1.7162   2.3252  -0.9727 N.ar           1 S1                 0.0000
     13 ****         1.0366   2.1991   0.2023 C.ar           1 S1                 0.0000
     14 ****        -0.3766   2.2554   0.3700 C.ar           1 S1                 0.0000
     15 ****        -0.6917   2.1331   1.7188 N.2            1 S1                 0.0000
     16 ****         0.4621   1.9865   2.3083 C.2            1 S1                 0.0000
     17 ****         1.5505   1.9663   1.4664 N.pl3          1 S1                 0.0000
     18 ****         2.9403   1.7830   1.8482 C.3            1 S1                 0.0000
     19 ****         3.6188   0.5336   1.2179 C.3            1 S1                 0.0000
     20 ****         5.1517   0.6361   1.3999 C.3            1 S1                 0.0000
     21 ****         5.6852   1.7163   0.6620 O.3            1 S1                 0.0000
     22 ****         3.0940  -0.8199   1.7818 C.3            1 S1                 0.0000
     23 ****         1.6160  -1.1197   1.5834 C.3            1 S1                 0.0000
     24 ****         1.5639  -2.6276   1.7746 C.3            1 S1                 0.0000
     25 ****         2.7489  -3.1033   1.1576 O.3            1 S1                 0.0000
     26 ****         3.7187  -2.0603   1.1194 C.3            1 S1                 0.0000
     27 ****        -3.9252  -1.1248  -0.4083 N.3            1 S1                 0.0000
     28 ****        -5.3689  -0.9339  -0.3610 C.3            1 S1                 0.0000
     29 ****        -3.5514  -2.3032  -1.1731 C.3            1 S1                 0.0000
     30 ****        -2.0768  -2.2573  -2.7340 H              1 S1                 0.0000
     31 ****        -3.6692   0.1882  -1.9956 H              1 S1                 0.0000
     32 ****         0.7003  -3.7293  -1.0425 H              1 S1                 0.0000
     33 ****         0.5599  -2.0408  -1.5240 H              1 S1                 0.0000
     34 ****         0.0293  -3.3272  -2.6201 H              1 S1                 0.0000
     35 ****        -1.1994  -0.5680  -0.4134 H              1 S1                 0.0000
     36 ****        -1.2885  -0.1196  -2.1185 H              1 S1                 0.0000
     37 ****        -4.1906   1.5920   0.0157 H              1 S1                 0.0000
     38 ****        -2.7369   1.0605   0.7830 H              1 S1                 0.0000
     39 ****        -2.7886   3.9957  -2.1952 H              1 S1                 0.0000
     40 ****        -4.2434   3.0770  -1.8188 H              1 S1                 0.0000
     41 ****        -3.0297   2.3888  -2.9003 H              1 S1                 0.0000
     42 ****         1.3485   2.6420  -2.9612 H              1 S1                 0.0000
     43 ****         0.5477   1.8557   3.3772 H              1 S1                 0.0000
     44 ****         3.4627   2.6937   1.5551 H              1 S1                 0.0000
     45 ****         3.0043   1.7338   2.9359 H              1 S1                 0.0000
     46 ****         3.4251   0.5360   0.1449 H              1 S1                 0.0000
     47 ****         5.4096   0.7550   2.4527 H              1 S1                 0.0000
     48 ****         5.6569  -0.2627   1.0487 H              1 S1                 0.0000
     49 ****         6.6209   1.7384   0.7940 H              1 S1                 0.0000
     50 ****         3.3021  -0.8627   2.8523 H              1 S1                 0.0000
     51 ****         0.9709  -0.6148   2.2995 H              1 S1                 0.0000
     52 ****         1.2971  -0.8536   0.5747 H              1 S1                 0.0000
     53 ****         1.5935  -2.8781   2.8357 H              1 S1                 0.0000
     54 ****         0.6703  -3.0786   1.3438 H              1 S1                 0.0000
     55 ****         3.9598  -1.8684   0.0732 H              1 S1                 0.0000
     56 ****         4.6344  -2.3719   1.6222 H              1 S1                 0.0000
     57 ****        -5.8566  -1.8097   0.0681 H              1 S1                 0.0000
     58 ****        -5.7797  -0.7719  -1.3584 H              1 S1                 0.0000
     59 ****        -5.6314  -0.0772   0.2591 H              1 S1                 0.0000
     60 ****        -4.1990  -2.4027  -2.0458 H              1 S1                 0.0000
     61 ****        -3.6666  -3.2103  -0.5789 H              1 S1                 0.0000
     62 ****        -1.1348  -2.7006  -0.0404 LP             1 S1                 0.0000
     63 ****        -1.6075  -3.9079  -1.0332 LP             1 S1                 0.0000
     64 ****        -0.9484   2.7218  -2.8399 LP             1 S1                 0.0000
     65 ****         2.7115   2.2767  -1.0573 LP             1 S1                 0.0000
     66 ****        -1.5979   2.1530   2.1411 LP             1 S1                 0.0000
     67 ****         5.2799   2.5737   0.9790 LP             1 S1                 0.0000
     68 ****         5.4849   1.5921  -0.3098 LP             1 S1                 0.0000
     69 ****         2.5427  -3.4005   0.2253 LP             1 S1                 0.0000
     70 ****         3.1103  -3.8749   1.6811 LP             1 S1                 0.0000
     71 ****        -3.6782  -1.2020   0.5576 LP             1 S1                 0.0000
@<TRIPOS>BOND
    1    1    2 1     
    2    1   32 1     
    3    1   33 1     
    4    1   34 1     
    5    2    3 1     
    6    3   30 1     
    7    3   29 1     
    8    3    4 1     
    9    4    5 1     
   10    4   35 1     
   11    4   36 1     
   12    5   31 1     
   13    5    6 1     
   14    5   27 1     
   15    6    7 1     
   16    6   37 1     
   17    6   38 1     
   18    7    8 1     
   19    7    9 1     
   20    8   39 1     
   21    8   40 1     
   22    8   41 1     
   23    9   14 ar    
   24    9   10 ar    
   25   10   11 ar    
   26   11   12 ar    
   27   11   42 1     
   28   12   13 ar    
   29   13   17 1     
   30   13   14 ar    
   31   14   15 1     
   32   15   16 2     
   33   16   17 1     
   34   16   43 1     
   35   17   18 1     
   36   18   19 1     
   37   18   44 1     
   38   18   45 1     
   39   19   20 1     
   40   19   22 1     
   41   19   46 1     
   42   20   21 1     
   43   20   47 1     
   44   20   48 1     
   45   21   49 1     
   46   22   26 1     
   47   22   23 1     
   48   22   50 1     
   49   23   24 1     
   50   23   51 1     
   51   23   52 1     
   52   24   25 1     
   53   24   53 1     
   54   24   54 1     
   55   25   26 1     
   56   26   55 1     
   57   26   56 1     
   58   27   28 1     
   59   27   29 1     
   60   28   57 1     
   61   28   58 1     
   62   28   59 1     
   63   29   60 1     
   64   29   61 1     
   65    2   62 1     
   66    2   63 1     
   67   10   64 1     
   68   12   65 1     
   69   15   66 1     
   70   21   67 1     
   71   21   68 1     
   72   25   69 1     
   73   25   70 1     
   74   27   71 1     
@<TRIPOS>SUBSTRUCTURE
      1 S1             1
@<TRIPOS>SET
LONE_PAIRS      STATIC     ATOMS    <user>   **** ""
10 62 63 64 65 66 67 68 69 70 71
DONOR_HYDROGENS      STATIC     ATOMS    <user>   **** ""
1 49
ATOM$BLUE        STATIC     ATOMS    COLORGROUP SYSTEM
10 62 63 64 65 66 67 68 69 70 71
ATOM$RED        STATIC     ATOMS    COLORGROUP SYSTEM
1 49
