AV-unprocessed.smi:1394|AV-procd|sdf|5666|dock5
  -GOLD-   22720 5293D 1   1.00000     0.00000
 Structure written by MMmdl.
 41 42  0  0  0  0  0  0  0  0  1 V2000
  152.2015  144.7340  158.2193 C   0  0  0  0  0  0  0  0  0  0  0  0
  152.7928  144.0566  159.4672 C   0  0  1  0  0  0  0  0  0  0  0  0
  151.8936  144.2638  160.7034 C   0  0  0  0  0  0  0  0  0  0  0  0
  152.5164  143.6462  161.9655 C   0  0  0  0  0  0  0  0  0  0  0  0
  152.8264  142.1557  161.7628 C   0  0  0  0  0  0  0  0  0  0  0  0
  153.7221  141.9350  160.5316 C   0  0  0  0  0  0  0  0  0  0  0  0
  153.1235  142.5565  159.2532 C   0  0  1  0  0  0  0  0  0  0  0  0
  151.9497  141.7875  158.8333 N   0  0  0  0  0  0  0  0  0  0  0  0
  151.9512  140.5248  158.3786 C   0  0  0  0  0  0  0  0  0  0  0  0
  152.9772  139.8587  158.2328 O   0  0  0  0  0  0  0  0  0  0  0  0
  150.5752  139.9449  158.0197 C   0  0  0  0  0  0  0  0  0  0  0  0
  150.5891  139.1030  156.8105 N   0  0  0  0  0  0  0  0  0  0  0  0
  150.9152  139.7372  155.5985 C   0  0  0  0  0  0  0  0  0  0  0  0
  150.9657  139.0642  154.4411 C   0  0  0  0  0  0  0  0  0  0  0  0
  150.6785  137.6508  154.4611 C   0  0  0  0  0  0  0  0  0  0  0  0
  150.3634  137.0122  155.6119 C   0  0  0  0  0  0  0  0  0  0  0  0
  150.0673  135.5148  155.6523 C   0  0  0  0  0  0  0  0  0  0  0  0
  151.0244  134.8640  156.3152 F   0  0  0  0  0  0  0  0  0  0  0  0
  148.9053  135.2841  156.2646 F   0  0  0  0  0  0  0  0  0  0  0  0
  149.9936  134.9919  154.4272 F   0  0  0  0  0  0  0  0  0  0  0  0
  150.3050  137.7653  156.8815 C   0  0  0  0  0  0  0  0  0  0  0  0
  150.0185  137.2296  157.9536 O   0  0  0  0  0  0  0  0  0  0  0  0
  151.2130  144.3433  157.9771 H   0  0  0  0  0  0  0  0  0  0  0  0
  152.8429  144.5838  157.3506 H   0  0  0  0  0  0  0  0  0  0  0  0
  152.1005  145.8089  158.3710 H   0  0  0  0  0  0  0  0  0  0  0  0
  153.7383  144.5612  159.6726 H   0  0  0  0  0  0  0  0  0  0  0  0
  151.7263  145.3291  160.8664 H   0  0  0  0  0  0  0  0  0  0  0  0
  150.9113  143.8232  160.5276 H   0  0  0  0  0  0  0  0  0  0  0  0
  153.4343  144.1789  162.2176 H   0  0  0  0  0  0  0  0  0  0  0  0
  151.8427  143.7739  162.8133 H   0  0  0  0  0  0  0  0  0  0  0  0
  153.3139  141.7543  162.6515 H   0  0  0  0  0  0  0  0  0  0  0  0
  151.8947  141.6004  161.6474 H   0  0  0  0  0  0  0  0  0  0  0  0
  154.6998  142.3802  160.7204 H   0  0  0  0  0  0  0  0  0  0  0  0
  153.8998  140.8687  160.3857 H   0  0  0  0  0  0  0  0  0  0  0  0
  153.8889  142.4870  158.4782 H   0  0  0  0  0  0  0  0  0  0  0  0
  151.0585  142.2563  158.9074 H   0  0  0  0  0  0  0  0  0  0  0  0
  150.1939  139.3760  158.8697 H   0  0  0  0  0  0  0  0  0  0  0  0
  149.8783  140.7758  157.9000 H   0  0  0  0  0  0  0  0  0  0  0  0
  151.1251  140.7945  155.6714 H   0  0  0  0  0  0  0  0  0  0  0  0
  151.2200  139.5656  153.5187 H   0  0  0  0  0  0  0  0  0  0  0  0
  150.7246  137.1054  153.5305 H   0  0  0  0  0  0  0  0  0  0  0  0
  1  2  1  0  0  0  0
  1 23  1  0  0  0  0
  1 24  1  0  0  0  0
  1 25  1  0  0  0  0
  2  7  1  0  0  0  0
  2  3  1  0  0  0  0
  2 26  1  0  0  0  0
  3  4  1  0  0  0  0
  3 27  1  0  0  0  0
  3 28  1  0  0  0  0
  4  5  1  0  0  0  0
  4 29  1  0  0  0  0
  4 30  1  0  0  0  0
  5  6  1  0  0  0  0
  5 31  1  0  0  0  0
  5 32  1  0  0  0  0
  6  7  1  0  0  0  0
  6 33  1  0  0  0  0
  6 34  1  0  0  0  0
  7  8  1  0  0  0  0
  7 35  1  0  0  0  0
  8  9  1  0  0  0  0
  8 36  1  0  0  0  0
  9 10  2  0  0  0  0
  9 11  1  0  0  0  0
 11 12  1  0  0  0  0
 11 37  1  0  0  0  0
 11 38  1  0  0  0  0
 12 21  1  0  0  0  0
 12 13  1  0  0  0  0
 13 14  2  0  0  0  0
 13 39  1  0  0  0  0
 14 15  1  0  0  0  0
 14 40  1  0  0  0  0
 15 16  2  0  0  0  0
 15 41  1  0  0  0  0
 16 17  1  0  0  0  0
 16 21  1  0  0  0  0
 17 18  1  0  0  0  0
 17 19  1  0  0  0  0
 17 20  1  0  0  0  0
 21 22  2  0  0  0  0
M  END
> <s_m_source_file>
AV-unprocessed.smi

> <i_m_source_file_index>
1394

> <i_lp_mmshare_version>
43012

> <i_f3d_flags>
0

> <s_epik_input>
W0NIM11bQ0BASF0xW0NIMl1bQ0gyXVtDSDJdW0NIMl1bQ0BIXTFbTkhdQyg9TylbQ0gyXW4yW2NIXVtjSF1bY0hdYyhDKEYpKEYpRiljMj1P

> <s_epik_cmdline>
J2VwaWtfcHl0aG9uJywgJy1waCcsICc3LjAnLCAnLXRuJywgJzgnLCAnLW1hJywgJzIwMCcsICctbWV0YWxfYmluZGluZycsICctaW1hZScsICc8aW5maWxlLm1hZT4nLCAnLW9tYWUnLCAnPG91dGZpbGUubWFlPic=

> <r_lp_tautomer_probability>
1

> <r_epik_Ionization_Penalty>
2.11487e-08

> <r_epik_Ionization_Penalty_Charging>
2.10183e-09

> <r_epik_Ionization_Penalty_Neutral>
1.90469e-08

> <r_epik_State_Penalty>
-0

> <r_epik_Charging_Adjusted_Penalty>
2.10183e-09

> <i_epik_Tot_Q>
0

> <i_epik_Tot_abs_Q>
0

> <r_epik_Metal_State_Penalty>
-0

> <b_epik_Metal_Only>
0

> <s_lp_Force_Field>
OPLS_2005

> <r_lp_Energy>
19.806

> <b_lp_Chiralities_Consistent>
1

> <s_lp_Variant>
AV-unprocessed.smi:1394-2

> <Gold.Version>
5.8.1

> <Gold.Id.Protein>
6NUR|6NUR_protein|mol2

> <Gold.PLP.Fitness>
49.7578

> <Gold.PLP.PLP>
-47.7161

> <Gold.PLP.part.hbond>
-1.0000

> <Gold.PLP.part.metal>
0.0000

> <Gold.PLP.part.buried>
-6.0217

> <Gold.PLP.part.nonpolar>
-39.7271

> <Gold.PLP.part.repulsive>
0.0953

> <Gold.PLP.ligand.clash>
0.1515

> <Gold.PLP.ligand.torsion>
0.5792

> <Gold.PLP.Chemscore.Hbond>
1.0000

> <Gold.PLP.Chemscore.CHOScore>
0.0000

> <Gold.PLP.Chemscore.Metal>
0.0000

> <Gold.Chemscore.Hbonds>
donor molecule, donor type, donor heavy atom, donor atom, acceptor molecule, acceptor atom, score
      P1  H  7997  8010       L1    10  1.00

> <Gold.PLP.Chemscore.Internal.Correction>
0.3518

> <Gold.Rescore>
     Score         DG    S(hbond)    S(metal)    S(lipo)     H(rot)  DE(clash)    DE(int)     intcor
     16.07     -18.89       0.98        0.00     119.97       1.52       0.03       2.79       ----

> <Gold.Chemscore.Fitness>
16.0748

> <Gold.Chemscore.DG>
-18.8904

> <Gold.Chemscore.ZeroCoef>
-5.4800

> <Gold.Chemscore.Hbond>
0.9809

> <Gold.Chemscore.Metal>
0.0000

> <Gold.Chemscore.Lipo>
119.9667

> <Gold.Chemscore.Internal_Hbond>
0.0000

> <Gold.Chemscore.DEClash>
0.0251

> <Gold.Chemscore.DEInternal>
2.7905

> <Gold.Chemscore.Rot>
1.5242

> <Gold.Chemscore.Internal.Correction>
   9.000000E+99

> <Gold.Chemscore.Hbonds>
donor molecule, donor type, donor heavy atom, donor atom, acceptor molecule, acceptor atom, score
      P1  H  7997  8010       L1    10  0.94

> <Gold.Chemscore.Hbond.Weighted>
-3.2762

> <Gold.Chemscore.Metal.Weighted>
-0.0000

> <Gold.Chemscore.Lipo.Weighted>
-14.0361

> <Gold.Chemscore.Internal_Hbond.Weighted>
0.0000

> <Gold.Chemscore.DEClash.Weighted>
0.0251

> <Gold.Chemscore.DEInternal.Weighted>
2.7905

> <Gold.Chemscore.Rot.Weighted>
3.9019

> <Gold.Chemscore.Internal.Correction.Weighted>
   9.000000E+99

> <Gold.Protein.RotatedTorsions>
[ 6907 6896 6895 6894 ] final  105.78 input  -60.11 | X-H torsion
[ 7974 7965 7964 7962 ] final  168.34 input  175.53 | X-H torsion
[ 8008 7997 7996 7995 ] final   41.12 input   59.86 | X-H torsion
[ 10167 10162 10161 10158 ] final  -96.85 input  -65.29 | X-H torsion
[ 10718 10713 10712 10709 ] final  128.86 input   66.30 | X-H torsion
[ 10763 10752 10751 10750 ] final  172.18 input  -60.55 | X-H torsion
[ 11005 11000 10999 10996 ] final  -41.53 input  -57.11 | X-H torsion

> <Gold.Protein.ActiveResidues>
 VAL166  LYS551  ARG553  GLY616  TRP617  ASP618  TYR619  PRO620  LYS621  CYS622 
 ASP623  PHE694  ASN695  SER759  ASP760  ASP761  ALA762  ILE779  LEU786  VAL792 
 PHE793  MET794  SER795  GLU796  ALA797  LYS798  CYS799  TRP800  GLU811  SER814 

> <Gold.Protein.RotatedAtoms>
  152.5218  133.9478  159.7657 H   0  0  0  0  0  0  0  0  0  0  0  0  # atno 6907 bound_to 6896
  150.9795  133.6252  159.2732 H   0  0  0  0  0  0  0  0  0  0  0  0  # atno 6908 bound_to 6896
  151.3435  135.0874  159.9432 H   0  0  0  0  0  0  0  0  0  0  0  0  # atno 6909 bound_to 6896
  144.7392  139.8894  143.6402 H   0  0  0  0  0  0  0  0  0  0  0  0  # atno 7974 bound_to 7965
  155.2644  140.3361  155.4270 H   0  0  0  0  0  0  0  0  0  0  0  0  # atno 8008 bound_to 7997
  156.2160  140.1789  156.7629 H   0  0  0  0  0  0  0  0  0  0  0  0  # atno 8009 bound_to 7997
  154.5755  140.0662  156.9012 H   0  0  0  0  0  0  0  0  0  0  0  0  # atno 8010 bound_to 7997
  140.2895  143.3230  152.0360 H   0  0  0  0  0  0  0  0  0  0  0  0  # atno 10167 bound_to 10162
  157.5206  131.1098  150.9159 H   0  0  0  0  0  0  0  0  0  0  0  0  # atno 10718 bound_to 10713
  154.4224  135.2758  155.1967 H   0  0  0  0  0  0  0  0  0  0  0  0  # atno 10763 bound_to 10752
  154.3907  135.6067  153.5845 H   0  0  0  0  0  0  0  0  0  0  0  0  # atno 10764 bound_to 10752
  152.9833  135.5902  154.4522 H   0  0  0  0  0  0  0  0  0  0  0  0  # atno 10765 bound_to 10752
  141.0252  133.6844  156.2470 H   0  0  0  0  0  0  0  0  0  0  0  0  # atno 11005 bound_to 11000
  146.1153  139.4163  143.0262 LP  0  0  0  0  0  0  0  0  0  0  0  0  # atno 17320 bound_to 7965
  145.7383  141.0017  143.1314 LP  0  0  0  0  0  0  0  0  0  0  0  0  # atno 17321 bound_to 7965
  139.4941  144.6535  151.6624 LP  0  0  0  0  0  0  0  0  0  0  0  0  # atno 17342 bound_to 10162
  140.5744  144.0053  150.6234 LP  0  0  0  0  0  0  0  0  0  0  0  0  # atno 17343 bound_to 10162
  156.9771  130.5513  149.5294 LP  0  0  0  0  0  0  0  0  0  0  0  0  # atno 17370 bound_to 10713
  156.0351  130.5439  150.8632 LP  0  0  0  0  0  0  0  0  0  0  0  0  # atno 17371 bound_to 10713
  140.6503  134.5074  157.5577 LP  0  0  0  0  0  0  0  0  0  0  0  0  # atno 17394 bound_to 11000
  139.9171  134.8223  156.1329 LP  0  0  0  0  0  0  0  0  0  0  0  0  # atno 17395 bound_to 11000

$$$$
