AV-unprocessed.smi:1626|AV-procd|sdf|6507|dock3
  -GOLD-   22720 7173D 1   1.00000     0.00000
 Structure written by MMmdl.
 48 50  0  0  0  0  0  0  0  0  2 V2000
  152.7205  142.9741  161.0368 C   0  0  0  0  0  0  0  0  0  0  0  0
  152.3090  142.1970  159.7985 C   0  0  0  0  0  0  0  0  0  0  0  0
  151.3623  142.7634  158.9156 C   0  0  0  0  0  0  0  0  0  0  0  0
  150.9546  142.0749  157.7525 C   0  0  0  0  0  0  0  0  0  0  0  0
  150.0547  142.4343  156.7638 N   0  0  0  0  0  0  0  0  0  0  0  0
  150.1105  141.3812  155.9540 C   0  0  0  0  0  0  0  0  0  0  0  0
  150.9363  140.3765  156.3053 N   0  0  0  0  0  0  0  0  0  0  0  0
  151.1644  139.1363  155.5859 C   0  0  0  0  0  0  0  0  0  0  0  0
  150.1122  138.8872  154.4880 C   0  0  1  0  0  0  0  0  0  0  0  0
  150.6426  137.9978  153.5241 O   0  0  0  0  0  0  0  0  0  0  0  0
  148.8219  138.2746  155.0672 C   0  0  0  0  0  0  0  0  0  0  0  0
  147.8679  137.8463  154.0119 N   0  3  2  0  0  0  0  0  0  0  0  0
  147.3448  138.9773  153.1984 C   0  0  0  0  0  0  0  0  0  0  0  0
  146.4629  138.4720  152.0440 C   0  0  0  0  0  0  0  0  0  0  0  0
  145.3111  137.6066  152.5749 C   0  0  1  0  0  0  0  0  0  0  0  0
  144.5738  137.0746  151.4952 O   0  0  0  0  0  0  0  0  0  0  0  0
  145.8735  136.4620  153.4294 C   0  0  0  0  0  0  0  0  0  0  0  0
  146.7678  137.0075  154.5553 C   0  0  0  0  0  0  0  0  0  0  0  0
  151.5242  140.7937  157.4945 C   0  0  0  0  0  0  0  0  0  0  0  0
  152.4676  140.2198  158.3647 C   0  0  0  0  0  0  0  0  0  0  0  0
  152.8638  140.9213  159.5227 C   0  0  0  0  0  0  0  0  0  0  0  0
  153.8829  140.2939  160.4573 C   0  0  0  0  0  0  0  0  0  0  0  0
  152.1703  143.9119  161.1193 H   0  0  0  0  0  0  0  0  0  0  0  0
  153.7839  143.2115  161.0016 H   0  0  0  0  0  0  0  0  0  0  0  0
  152.5244  142.3926  161.9378 H   0  0  0  0  0  0  0  0  0  0  0  0
  150.9407  143.7357  159.1245 H   0  0  0  0  0  0  0  0  0  0  0  0
  149.5131  141.3357  155.0548 H   0  0  0  0  0  0  0  0  0  0  0  0
  152.1673  139.1603  155.1568 H   0  0  0  0  0  0  0  0  0  0  0  0
  151.1544  138.3199  156.3093 H   0  0  0  0  0  0  0  0  0  0  0  0
  149.8969  139.8336  153.9930 H   0  0  0  0  0  0  0  0  0  0  0  0
  149.9416  137.7213  152.9524 H   0  0  0  0  0  0  0  0  0  0  0  0
  149.0971  137.4199  155.6873 H   0  0  0  0  0  0  0  0  0  0  0  0
  148.3257  138.9822  155.7333 H   0  0  0  0  0  0  0  0  0  0  0  0
  146.7717  139.6512  153.8374 H   0  0  0  0  0  0  0  0  0  0  0  0
  148.1657  139.5612  152.7843 H   0  0  0  0  0  0  0  0  0  0  0  0
  146.0685  139.3188  151.4811 H   0  0  0  0  0  0  0  0  0  0  0  0
  147.0736  137.8943  151.3483 H   0  0  0  0  0  0  0  0  0  0  0  0
  144.6393  138.2182  153.1786 H   0  0  0  0  0  0  0  0  0  0  0  0
  144.2049  137.7884  150.9973 H   0  0  0  0  0  0  0  0  0  0  0  0
  145.0586  135.8752  153.8549 H   0  0  0  0  0  0  0  0  0  0  0  0
  146.4530  135.7806  152.8047 H   0  0  0  0  0  0  0  0  0  0  0  0
  147.1851  136.1690  155.1139 H   0  0  0  0  0  0  0  0  0  0  0  0
  146.1741  137.5941  155.2582 H   0  0  0  0  0  0  0  0  0  0  0  0
  152.8836  139.2483  158.1425 H   0  0  0  0  0  0  0  0  0  0  0  0
  154.2228  139.3270  160.0853 H   0  0  0  0  0  0  0  0  0  0  0  0
  153.4492  140.1384  161.4454 H   0  0  0  0  0  0  0  0  0  0  0  0
  154.7560  140.9386  160.5592 H   0  0  0  0  0  0  0  0  0  0  0  0
  148.3924  137.2488  153.3881 H   0  0  0  0  0  0  0  0  0  0  0  0
  1  2  1  0  0  0  0
  1 23  1  0  0  0  0
  1 24  1  0  0  0  0
  1 25  1  0  0  0  0
  2 21  1  0  0  0  0
  2  3  2  0  0  0  0
  3  4  1  0  0  0  0
  3 26  1  0  0  0  0
  4 19  2  0  0  0  0
  4  5  1  0  0  0  0
  5  6  2  0  0  0  0
  6  7  1  0  0  0  0
  6 27  1  0  0  0  0
  7  8  1  0  0  0  0
  7 19  1  0  0  0  0
  8  9  1  0  0  0  0
  8 28  1  0  0  0  0
  8 29  1  0  0  0  0
  9 10  1  0  0  0  0
  9 11  1  0  0  0  0
  9 30  1  0  0  0  0
 10 31  1  0  0  0  0
 11 12  1  0  0  0  0
 11 32  1  0  0  0  0
 11 33  1  0  0  0  0
 12 18  1  0  0  0  0
 12 13  1  0  0  0  0
 12 48  1  0  0  0  0
 13 14  1  0  0  0  0
 13 34  1  0  0  0  0
 13 35  1  0  0  0  0
 14 15  1  0  0  0  0
 14 36  1  0  0  0  0
 14 37  1  0  0  0  0
 15 16  1  0  0  0  0
 15 17  1  0  0  0  0
 15 38  1  0  0  0  0
 16 39  1  0  0  0  0
 17 18  1  0  0  0  0
 17 40  1  0  0  0  0
 17 41  1  0  0  0  0
 18 42  1  0  0  0  0
 18 43  1  0  0  0  0
 19 20  1  0  0  0  0
 20 21  2  0  0  0  0
 20 44  1  0  0  0  0
 21 22  1  0  0  0  0
 22 45  1  0  0  0  0
 22 46  1  0  0  0  0
 22 47  1  0  0  0  0
M  CHG  1  12   1
M  END
> <s_m_source_file>
AV-unprocessed.smi

> <i_m_source_file_index>
1626

> <i_lp_mmshare_version>
43012

> <i_f3d_flags>
0

> <s_epik_input>
W0NIM11jKFtjSF0xKWMoW0NIM10pW2NIXWMoYzEyKW4oW2NIXW4yKVtDSDJdW0NASF0oW09IXSlbQ0gyXU4zW0NIMl1bQ0gyXVtDSF0oW09IXSlbQ0gyXVtDSDJdMw==

> <s_epik_cmdline>
J2VwaWtfcHl0aG9uJywgJy1waCcsICc3LjAnLCAnLXRuJywgJzgnLCAnLW1hJywgJzIwMCcsICctbWV0YWxfYmluZGluZycsICctaW1hZScsICc8aW5maWxlLm1hZT4nLCAnLW9tYWUnLCAnPG91dGZpbGUubWFlPic=

> <r_epik_Ionization_Penalty>
0.106584

> <r_epik_Ionization_Penalty_Charging>
0.0185694

> <r_epik_Ionization_Penalty_Neutral>
0.0880147

> <r_epik_State_Penalty>
0.0908428

> <r_epik_Charging_Adjusted_Penalty>
0.109412

> <i_epik_Tot_Q>
1

> <i_epik_Tot_abs_Q>
1

> <r_epik_Metal_State_Penalty>
0.0153739

> <b_epik_Metal_Only>
0

> <s_lp_Force_Field>
OPLS_2005

> <r_lp_Energy>
20.8081

> <b_lp_Chiralities_Consistent>
1

> <s_lp_Variant>
AV-unprocessed.smi:1626-2

> <Gold.Version>
5.8.1

> <Gold.Id.Protein>
6NUR|6NUR_protein|mol2

> <Gold.PLP.Fitness>
51.9423

> <Gold.PLP.PLP>
-40.8277

> <Gold.PLP.part.hbond>
-3.9596

> <Gold.PLP.part.metal>
0.0000

> <Gold.PLP.part.buried>
-4.1030

> <Gold.PLP.part.nonpolar>
-36.0324

> <Gold.PLP.part.repulsive>
2.5107

> <Gold.PLP.ligand.clash>
0.0000

> <Gold.PLP.ligand.torsion>
0.4501

> <Gold.PLP.Chemscore.Hbond>
3.9913

> <Gold.PLP.Chemscore.CHOScore>
0.0000

> <Gold.PLP.Chemscore.Metal>
0.0000

> <Gold.Chemscore.Hbonds>
donor molecule, donor type, donor heavy atom, donor atom, acceptor molecule, acceptor atom, score
      L1  H    10    31       P1  7948  0.96
      L1  H    12    48       P1  7948  2.00
      L1  H    16    39       P1 10171  0.84

> <Gold.PLP.Chemscore.Internal.Correction>
0.0409

> <Gold.Rescore>
     Score         DG    S(hbond)    S(metal)    S(lipo)     H(rot)  DE(clash)    DE(int)     intcor
     17.60     -19.58       2.29        0.00     113.46       2.67       1.60       0.37       ----

> <Gold.Chemscore.Fitness>
17.6006

> <Gold.Chemscore.DG>
-19.5789

> <Gold.Chemscore.ZeroCoef>
-5.4800

> <Gold.Chemscore.Hbond>
2.2941

> <Gold.Chemscore.Metal>
0.0000

> <Gold.Chemscore.Lipo>
113.4623

> <Gold.Chemscore.Internal_Hbond>
0.0000

> <Gold.Chemscore.DEClash>
1.6042

> <Gold.Chemscore.DEInternal>
0.3740

> <Gold.Chemscore.Rot>
2.6712

> <Gold.Chemscore.Internal.Correction>
   9.000000E+99

> <Gold.Chemscore.Hbonds>
donor molecule, donor type, donor heavy atom, donor atom, acceptor molecule, acceptor atom, score
      L1  H    10    31       P1  7948  0.26
      L1  H    12    48       P1  7948  1.00
      L1  H    16    39       P1 10171  0.82

> <Gold.Chemscore.Hbond.Weighted>
-7.6621

> <Gold.Chemscore.Metal.Weighted>
-0.0000

> <Gold.Chemscore.Lipo.Weighted>
-13.2751

> <Gold.Chemscore.Internal_Hbond.Weighted>
0.0000

> <Gold.Chemscore.DEClash.Weighted>
1.6042

> <Gold.Chemscore.DEInternal.Weighted>
0.3740

> <Gold.Chemscore.Rot.Weighted>
6.8383

> <Gold.Chemscore.Internal.Correction.Weighted>
   9.000000E+99

> <Gold.Protein.RotatedTorsions>
[ 6907 6896 6895 6894 ] final -102.68 input  -60.11 | X-H torsion
[ 7974 7965 7964 7962 ] final  -62.88 input  175.53 | X-H torsion
[ 8008 7997 7996 7995 ] final  135.68 input   59.86 | X-H torsion
[ 10167 10162 10161 10158 ] final -163.74 input  -65.29 | X-H torsion
[ 10718 10713 10712 10709 ] final  -33.81 input   66.30 | X-H torsion
[ 10763 10752 10751 10750 ] final -126.16 input  -60.55 | X-H torsion
[ 11005 11000 10999 10996 ] final  -27.49 input  -57.11 | X-H torsion

> <Gold.Protein.ActiveResidues>
 VAL166  LYS551  ARG553  GLY616  TRP617  ASP618  TYR619  PRO620  LYS621  CYS622 
 ASP623  PHE694  ASN695  SER759  ASP760  ASP761  ALA762  ILE779  LEU786  VAL792 
 PHE793  MET794  SER795  GLU796  ALA797  LYS798  CYS799  TRP800  GLU811  SER814 

> <Gold.Protein.RotatedAtoms>
  150.7206  134.0545  159.3809 H   0  0  0  0  0  0  0  0  0  0  0  0  # atno 6907 bound_to 6896
  151.8523  135.0551  160.0469 H   0  0  0  0  0  0  0  0  0  0  0  0  # atno 6908 bound_to 6896
  152.2781  133.5408  159.5517 H   0  0  0  0  0  0  0  0  0  0  0  0  # atno 6909 bound_to 6896
  145.7859  140.8736  143.0306 H   0  0  0  0  0  0  0  0  0  0  0  0  # atno 7974 bound_to 7965
  156.3003  140.2464  156.3621 H   0  0  0  0  0  0  0  0  0  0  0  0  # atno 8008 bound_to 7997
  154.8867  140.0410  157.1834 H   0  0  0  0  0  0  0  0  0  0  0  0  # atno 8009 bound_to 7997
  154.8639  140.2925  155.5526 H   0  0  0  0  0  0  0  0  0  0  0  0  # atno 8010 bound_to 7997
  139.6299  144.0459  152.2007 H   0  0  0  0  0  0  0  0  0  0  0  0  # atno 10167 bound_to 10162
  156.3581  130.4319  149.7647 H   0  0  0  0  0  0  0  0  0  0  0  0  # atno 10718 bound_to 10713
  154.8743  135.4005  154.3385 H   0  0  0  0  0  0  0  0  0  0  0  0  # atno 10763 bound_to 10752
  153.4188  135.7022  153.6314 H   0  0  0  0  0  0  0  0  0  0  0  0  # atno 10764 bound_to 10752
  153.4985  135.3733  155.2498 H   0  0  0  0  0  0  0  0  0  0  0  0  # atno 10765 bound_to 10752
  140.9124  133.7452  156.0689 H   0  0  0  0  0  0  0  0  0  0  0  0  # atno 11005 bound_to 11000
  144.6789  140.0055  143.7484 LP  0  0  0  0  0  0  0  0  0  0  0  0  # atno 17320 bound_to 7965
  146.0026  139.3104  143.0918 LP  0  0  0  0  0  0  0  0  0  0  0  0  # atno 17321 bound_to 7965
  140.0122  144.6215  150.7637 LP  0  0  0  0  0  0  0  0  0  0  0  0  # atno 17342 bound_to 10162
  140.7433  143.2844  151.3505 LP  0  0  0  0  0  0  0  0  0  0  0  0  # atno 17343 bound_to 10162
  156.4821  130.8046  151.3060 LP  0  0  0  0  0  0  0  0  0  0  0  0  # atno 17370 bound_to 10713
  157.7470  131.0002  150.2918 LP  0  0  0  0  0  0  0  0  0  0  0  0  # atno 17371 bound_to 10713
  140.8093  134.3418  157.5416 LP  0  0  0  0  0  0  0  0  0  0  0  0  # atno 17394 bound_to 11000
  139.8760  134.9244  156.3349 LP  0  0  0  0  0  0  0  0  0  0  0  0  # atno 17395 bound_to 11000

$$$$
