AV-unprocessed.smi:1097|AV-procd|sdf|4751|dock7
  -GOLD-   22720 3283D 1   1.00000     0.00000
 Structure written by MMmdl.
 40 41  0  0  0  0  0  0  0  0  1 V2000
  153.3892  138.7001  154.5082 C   0  0  0  0  0  0  0  0  0  0  0  0
  152.3325  138.0053  155.1468 O   0  0  0  0  0  0  0  0  0  0  0  0
  151.0884  138.6725  155.0173 C   0  0  0  0  0  0  0  0  0  0  0  0
  151.2329  140.1048  155.5384 C   0  0  0  0  0  0  0  0  0  0  0  0
  151.8837  140.0627  156.8044 O   0  0  0  0  0  0  0  0  0  0  0  0
  151.8292  141.1755  157.6230 C   0  0  0  0  0  0  0  0  0  0  0  0
  151.0496  142.2153  157.2299 N   0  0  0  0  0  0  0  0  0  0  0  0
  150.9739  143.3051  158.0203 C   0  0  0  0  0  0  0  0  0  0  0  0
  151.6666  143.4207  159.2385 C   0  0  0  0  0  0  0  0  0  0  0  0
  152.4760  142.3463  159.6502 C   0  0  0  0  0  0  0  0  0  0  0  0
  152.5622  141.1915  158.8385 C   0  0  0  0  0  0  0  0  0  0  0  0
  153.4393  140.0398  159.2457 C   0  0  0  0  0  0  0  0  0  0  0  0
  153.6757  139.1102  158.4736 O   0  0  0  0  0  0  0  0  0  0  0  0
  153.9016  140.0902  160.5054 N   0  0  0  0  0  0  0  0  0  0  0  0
  154.7510  139.0776  161.1255 C   0  0  2  0  0  0  0  0  0  0  0  0
  153.9882  137.7648  161.3634 C   0  0  0  0  0  0  0  0  0  0  0  0
  154.3384  137.4009  162.7963 C   0  0  0  0  0  0  0  0  0  0  0  0
  153.9977  136.3406  163.3185 O   0  0  0  0  0  0  0  0  0  0  0  0
  155.0488  138.3721  163.3774 N   0  0  0  0  0  0  0  0  0  0  0  0
  155.5477  138.3600  164.7456 C   0  0  0  0  0  0  0  0  0  0  0  0
  155.2536  139.5216  162.5142 C   0  0  0  0  0  0  0  0  0  0  0  0
  154.3221  138.1533  154.6444 H   0  0  0  0  0  0  0  0  0  0  0  0
  153.5190  139.6966  154.9327 H   0  0  0  0  0  0  0  0  0  0  0  0
  153.2080  138.7963  153.4369 H   0  0  0  0  0  0  0  0  0  0  0  0
  150.7802  138.6877  153.9707 H   0  0  0  0  0  0  0  0  0  0  0  0
  150.3174  138.1453  155.5813 H   0  0  0  0  0  0  0  0  0  0  0  0
  151.8134  140.6980  154.8299 H   0  0  0  0  0  0  0  0  0  0  0  0
  150.2458  140.5605  155.6348 H   0  0  0  0  0  0  0  0  0  0  0  0
  150.3431  144.1090  157.6708 H   0  0  0  0  0  0  0  0  0  0  0  0
  151.5823  144.3135  159.8404 H   0  0  0  0  0  0  0  0  0  0  0  0
  153.0252  142.4186  160.5778 H   0  0  0  0  0  0  0  0  0  0  0  0
  153.6430  140.8824  161.0755 H   0  0  0  0  0  0  0  0  0  0  0  0
  155.6054  138.8692  160.4785 H   0  0  0  0  0  0  0  0  0  0  0  0
  152.9075  137.8902  161.2817 H   0  0  0  0  0  0  0  0  0  0  0  0
  154.2994  136.9808  160.6721 H   0  0  0  0  0  0  0  0  0  0  0  0
  156.1782  137.4863  164.9164 H   0  0  0  0  0  0  0  0  0  0  0  0
  154.7187  138.3299  165.4535 H   0  0  0  0  0  0  0  0  0  0  0  0
  156.1408  139.2509  164.9558 H   0  0  0  0  0  0  0  0  0  0  0  0
  156.3049  139.8108  162.4846 H   0  0  0  0  0  0  0  0  0  0  0  0
  154.6818  140.3632  162.9088 H   0  0  0  0  0  0  0  0  0  0  0  0
  1  2  1  0  0  0  0
  1 22  1  0  0  0  0
  1 23  1  0  0  0  0
  1 24  1  0  0  0  0
  2  3  1  0  0  0  0
  3  4  1  0  0  0  0
  3 25  1  0  0  0  0
  3 26  1  0  0  0  0
  4  5  1  0  0  0  0
  4 27  1  0  0  0  0
  4 28  1  0  0  0  0
  5  6  1  0  0  0  0
  6 11  1  0  0  0  0
  6  7  2  0  0  0  0
  7  8  1  0  0  0  0
  8  9  2  0  0  0  0
  8 29  1  0  0  0  0
  9 10  1  0  0  0  0
  9 30  1  0  0  0  0
 10 11  2  0  0  0  0
 10 31  1  0  0  0  0
 11 12  1  0  0  0  0
 12 13  2  0  0  0  0
 12 14  1  0  0  0  0
 14 15  1  0  0  0  0
 14 32  1  0  0  0  0
 15 21  1  0  0  0  0
 15 16  1  0  0  0  0
 15 33  1  0  0  0  0
 16 17  1  0  0  0  0
 16 34  1  0  0  0  0
 16 35  1  0  0  0  0
 17 18  2  0  0  0  0
 17 19  1  0  0  0  0
 19 20  1  0  0  0  0
 19 21  1  0  0  0  0
 20 36  1  0  0  0  0
 20 37  1  0  0  0  0
 20 38  1  0  0  0  0
 21 39  1  0  0  0  0
 21 40  1  0  0  0  0
M  END
> <s_m_source_file>
AV-unprocessed.smi

> <i_m_source_file_index>
1097

> <i_lp_mmshare_version>
43012

> <i_f3d_flags>
0

> <s_epik_input>
W0NIM11PW0NIMl1bQ0gyXU9jMW5bY0hdW2NIXVtjSF1jMUMoPU8pW05IXVtDQEBIXTJbQ0gyXUMoPU8pTihbQ0gzXSlbQ0gyXTI=

> <s_epik_cmdline>
J2VwaWtfcHl0aG9uJywgJy1waCcsICc3LjAnLCAnLXRuJywgJzgnLCAnLW1hJywgJzIwMCcsICctbWV0YWxfYmluZGluZycsICctaW1hZScsICc8aW5maWxlLm1hZT4nLCAnLW9tYWUnLCAnPG91dGZpbGUubWFlPic=

> <r_lp_tautomer_probability>
1

> <r_epik_Ionization_Penalty>
2.30122e-06

> <r_epik_Ionization_Penalty_Charging>
0

> <r_epik_Ionization_Penalty_Neutral>
2.30122e-06

> <r_epik_State_Penalty>
-0

> <r_epik_Charging_Adjusted_Penalty>
0

> <i_epik_Tot_Q>
0

> <i_epik_Tot_abs_Q>
0

> <r_epik_Metal_State_Penalty>
-0

> <b_epik_Metal_Only>
0

> <s_lp_Force_Field>
OPLS_2005

> <r_lp_Energy>
19.8502

> <b_lp_Chiralities_Consistent>
1

> <s_lp_Variant>
AV-unprocessed.smi:1097-1

> <Gold.Version>
5.8.1

> <Gold.Id.Protein>
6NUR|6NUR_protein|mol2

> <Gold.PLP.Fitness>
42.3804

> <Gold.PLP.PLP>
-36.7862

> <Gold.PLP.part.hbond>
-1.2029

> <Gold.PLP.part.metal>
0.0000

> <Gold.PLP.part.buried>
-4.9853

> <Gold.PLP.part.nonpolar>
-30.4264

> <Gold.PLP.part.repulsive>
0.1833

> <Gold.PLP.ligand.clash>
0.0000

> <Gold.PLP.ligand.torsion>
0.2538

> <Gold.PLP.Chemscore.Hbond>
1.0000

> <Gold.PLP.Chemscore.CHOScore>
1.0000

> <Gold.PLP.Chemscore.Metal>
0.0000

> <Gold.Chemscore.Hbonds>
donor molecule, donor type, donor heavy atom, donor atom, acceptor molecule, acceptor atom, score
      P1  H  7997  8008       L1    13  1.00
      L1  C     8    29       P1  8028  1.00

> <Gold.PLP.Chemscore.Internal.Correction>
0.1017

> <Gold.Rescore>
     Score         DG    S(hbond)    S(metal)    S(lipo)     H(rot)  DE(clash)    DE(int)     intcor
     11.35     -13.45       0.98        0.00      82.86       1.95       0.05       2.05       ----

> <Gold.Chemscore.Fitness>
11.3537

> <Gold.Chemscore.DG>
-13.4548

> <Gold.Chemscore.ZeroCoef>
-5.4800

> <Gold.Chemscore.Hbond>
0.9773

> <Gold.Chemscore.Metal>
0.0000

> <Gold.Chemscore.Lipo>
82.8589

> <Gold.Chemscore.Internal_Hbond>
0.0000

> <Gold.Chemscore.DEClash>
0.0530

> <Gold.Chemscore.DEInternal>
2.0482

> <Gold.Chemscore.Rot>
1.9468

> <Gold.Chemscore.Internal.Correction>
   9.000000E+99

> <Gold.Chemscore.Hbonds>
donor molecule, donor type, donor heavy atom, donor atom, acceptor molecule, acceptor atom, score
      P1  H  7997  8008       L1    13  0.34

> <Gold.Chemscore.Hbond.Weighted>
-3.2642

> <Gold.Chemscore.Metal.Weighted>
-0.0000

> <Gold.Chemscore.Lipo.Weighted>
-9.6945

> <Gold.Chemscore.Internal_Hbond.Weighted>
0.0000

> <Gold.Chemscore.DEClash.Weighted>
0.0530

> <Gold.Chemscore.DEInternal.Weighted>
2.0482

> <Gold.Chemscore.Rot.Weighted>
4.9839

> <Gold.Chemscore.Internal.Correction.Weighted>
   9.000000E+99

> <Gold.Protein.RotatedTorsions>
[ 6907 6896 6895 6894 ] final  142.81 input  -60.11 | X-H torsion
[ 7974 7965 7964 7962 ] final -117.83 input  175.53 | X-H torsion
[ 8008 7997 7996 7995 ] final  -84.02 input   59.86 | X-H torsion
[ 10167 10162 10161 10158 ] final   73.43 input  -65.29 | X-H torsion
[ 10718 10713 10712 10709 ] final  -56.24 input   66.30 | X-H torsion
[ 10763 10752 10751 10750 ] final  -31.18 input  -60.55 | X-H torsion
[ 11005 11000 10999 10996 ] final   57.63 input  -57.11 | X-H torsion

> <Gold.Protein.ActiveResidues>
 VAL166  LYS551  ARG553  GLY616  TRP617  ASP618  TYR619  PRO620  LYS621  CYS622 
 ASP623  PHE694  ASN695  SER759  ASP760  ASP761  ALA762  ILE779  LEU786  VAL792 
 PHE793  MET794  SER795  GLU796  ALA797  LYS798  CYS799  TRP800  GLU811  SER814 

> <Gold.Protein.RotatedAtoms>
  152.2140  133.4933  159.5125 H   0  0  0  0  0  0  0  0  0  0  0  0  # atno 6907 bound_to 6896
  150.6997  134.1429  159.4121 H   0  0  0  0  0  0  0  0  0  0  0  0  # atno 6908 bound_to 6896
  151.9349  135.0239  160.0582 H   0  0  0  0  0  0  0  0  0  0  0  0  # atno 6909 bound_to 6896
  145.0807  140.8424  143.4040 H   0  0  0  0  0  0  0  0  0  0  0  0  # atno 7974 bound_to 7965
  154.6253  140.0611  156.9665 H   0  0  0  0  0  0  0  0  0  0  0  0  # atno 8008 bound_to 7997
  155.1752  140.3294  155.4367 H   0  0  0  0  0  0  0  0  0  0  0  0  # atno 8009 bound_to 7997
  156.2454  140.1907  156.6852 H   0  0  0  0  0  0  0  0  0  0  0  0  # atno 8010 bound_to 7997
  140.0246  144.5514  150.7555 H   0  0  0  0  0  0  0  0  0  0  0  0  # atno 10167 bound_to 10162
  156.1304  130.4160  150.0279 H   0  0  0  0  0  0  0  0  0  0  0  0  # atno 10718 bound_to 10713
  153.7932  135.6896  153.4868 H   0  0  0  0  0  0  0  0  0  0  0  0  # atno 10763 bound_to 10752
  153.1736  135.4533  154.9934 H   0  0  0  0  0  0  0  0  0  0  0  0  # atno 10764 bound_to 10752
  154.8036  135.3348  154.7426 H   0  0  0  0  0  0  0  0  0  0  0  0  # atno 10765 bound_to 10752
  140.0438  134.5835  155.9349 H   0  0  0  0  0  0  0  0  0  0  0  0  # atno 11005 bound_to 11000
  145.1181  139.2711  143.5602 LP  0  0  0  0  0  0  0  0  0  0  0  0  # atno 17320 bound_to 7965
  146.3531  140.0797  142.8618 LP  0  0  0  0  0  0  0  0  0  0  0  0  # atno 17321 bound_to 7965
  140.7328  143.2710  151.3890 LP  0  0  0  0  0  0  0  0  0  0  0  0  # atno 17342 bound_to 10162
  139.6117  144.1086  152.2305 LP  0  0  0  0  0  0  0  0  0  0  0  0  # atno 17343 bound_to 10162
  156.8193  130.9353  151.3642 LP  0  0  0  0  0  0  0  0  0  0  0  0  # atno 17370 bound_to 10713
  157.6482  130.8862  149.9581 LP  0  0  0  0  0  0  0  0  0  0  0  0  # atno 17371 bound_to 10713
  141.1896  133.6566  156.5376 LP  0  0  0  0  0  0  0  0  0  0  0  0  # atno 17394 bound_to 11000
  140.4027  134.7342  157.4789 LP  0  0  0  0  0  0  0  0  0  0  0  0  # atno 17395 bound_to 11000

$$$$
