AV-unprocessed.smi:787|AV-procd|sdf|3726|dock8
  -GOLD-   22720 1153D 1   1.00000     0.00000
 Structure written by MMmdl.
 47 49  0  0  0  0  0  0  0  0  2 V2000
  147.2019  135.4396  153.6266 C   0  0  0  0  0  0  0  0  0  0  0  0
  148.3256  136.3350  153.8505 N   0  0  0  0  0  0  0  0  0  0  0  0
  149.2600  136.0714  154.8625 C   0  0  0  0  0  0  0  0  0  0  0  0
  149.2499  134.8787  155.5005 N   0  0  0  0  0  0  0  0  0  0  0  0
  150.1657  134.6725  156.4566 C   0  0  0  0  0  0  0  0  0  0  0  0
  151.1284  135.4977  156.8976 N   0  0  0  0  0  0  0  0  0  0  0  0
  151.1450  136.6830  156.2731 C   0  0  0  0  0  0  0  0  0  0  0  0
  152.0231  137.7241  156.5223 N   0  0  0  0  0  0  0  0  0  0  0  0
  151.6119  138.6416  155.6504 C   0  0  0  0  0  0  0  0  0  0  0  0
  150.5640  138.3250  154.8641 N   0  0  0  0  0  0  0  0  0  0  0  0
  149.9454  139.1648  153.8547 C   0  0  0  0  0  0  0  0  0  0  0  0
  149.7772  140.6231  154.3310 C   0  0  1  0  0  0  0  0  0  0  0  0
  149.1096  141.3646  153.3305 O   0  0  0  0  0  0  0  0  0  0  0  0
  148.9654  140.7290  155.6350 C   0  0  0  0  0  0  0  0  0  0  0  0
  149.5900  141.6744  156.5982 N   0  3  1  0  0  0  0  0  0  0  0  0
  148.9036  141.6919  157.9105 C   0  0  0  0  0  0  0  0  0  0  0  0
  151.0562  141.4984  156.7390 C   0  0  0  0  0  0  0  0  0  0  0  0
  151.6061  142.3005  157.9059 C   0  0  0  0  0  0  0  0  0  0  0  0
  152.2171  141.6362  158.9905 C   0  0  0  0  0  0  0  0  0  0  0  0
  152.7150  142.3733  160.0824 C   0  0  0  0  0  0  0  0  0  0  0  0
  152.6077  143.7773  160.0923 C   0  0  0  0  0  0  0  0  0  0  0  0
  152.0023  144.4443  159.0098 C   0  0  0  0  0  0  0  0  0  0  0  0
  151.5033  143.7080  157.9180 C   0  0  0  0  0  0  0  0  0  0  0  0
  150.2236  137.0276  155.2392 C   0  0  0  0  0  0  0  0  0  0  0  0
  146.5888  135.8095  152.8049 H   0  0  0  0  0  0  0  0  0  0  0  0
  146.5762  135.3749  154.5176 H   0  0  0  0  0  0  0  0  0  0  0  0
  147.5499  134.4387  153.3692 H   0  0  0  0  0  0  0  0  0  0  0  0
  148.4292  137.1527  153.2696 H   0  0  0  0  0  0  0  0  0  0  0  0
  150.1236  133.7078  156.9400 H   0  0  0  0  0  0  0  0  0  0  0  0
  152.0989  139.6038  155.5831 H   0  0  0  0  0  0  0  0  0  0  0  0
  150.5461  139.1257  152.9445 H   0  0  0  0  0  0  0  0  0  0  0  0
  148.9807  138.7257  153.6002 H   0  0  0  0  0  0  0  0  0  0  0  0
  150.7547  141.0849  154.4680 H   0  0  0  0  0  0  0  0  0  0  0  0
  148.1880  141.3934  153.5393 H   0  0  0  0  0  0  0  0  0  0  0  0
  147.9426  141.0503  155.4300 H   0  0  0  0  0  0  0  0  0  0  0  0
  148.8806  139.7312  156.0657 H   0  0  0  0  0  0  0  0  0  0  0  0
  149.0283  140.7405  158.4293 H   0  0  0  0  0  0  0  0  0  0  0  0
  147.8362  141.8804  157.7979 H   0  0  0  0  0  0  0  0  0  0  0  0
  149.3073  142.4819  158.5447 H   0  0  0  0  0  0  0  0  0  0  0  0
  151.2882  140.4484  156.9248 H   0  0  0  0  0  0  0  0  0  0  0  0
  151.5582  141.7695  155.8086 H   0  0  0  0  0  0  0  0  0  0  0  0
  152.3013  140.5592  158.9908 H   0  0  0  0  0  0  0  0  0  0  0  0
  153.1799  141.8622  160.9128 H   0  0  0  0  0  0  0  0  0  0  0  0
  152.9910  144.3429  160.9290 H   0  0  0  0  0  0  0  0  0  0  0  0
  151.9212  145.5215  159.0173 H   0  0  0  0  0  0  0  0  0  0  0  0
  151.0389  144.2283  157.0928 H   0  0  0  0  0  0  0  0  0  0  0  0
  149.4723  142.5965  156.2041 H   0  0  0  0  0  0  0  0  0  0  0  0
  1  2  1  0  0  0  0
  1 25  1  0  0  0  0
  1 26  1  0  0  0  0
  1 27  1  0  0  0  0
  2  3  1  0  0  0  0
  2 28  1  0  0  0  0
  3 24  1  0  0  0  0
  3  4  2  0  0  0  0
  4  5  1  0  0  0  0
  5  6  2  0  0  0  0
  5 29  1  0  0  0  0
  6  7  1  0  0  0  0
  7 24  2  0  0  0  0
  7  8  1  0  0  0  0
  8  9  2  0  0  0  0
  9 10  1  0  0  0  0
  9 30  1  0  0  0  0
 10 11  1  0  0  0  0
 10 24  1  0  0  0  0
 11 12  1  0  0  0  0
 11 31  1  0  0  0  0
 11 32  1  0  0  0  0
 12 13  1  0  0  0  0
 12 14  1  0  0  0  0
 12 33  1  0  0  0  0
 13 34  1  0  0  0  0
 14 15  1  0  0  0  0
 14 35  1  0  0  0  0
 14 36  1  0  0  0  0
 15 16  1  0  0  0  0
 15 17  1  0  0  0  0
 15 47  1  0  0  0  0
 16 37  1  0  0  0  0
 16 38  1  0  0  0  0
 16 39  1  0  0  0  0
 17 18  1  0  0  0  0
 17 40  1  0  0  0  0
 17 41  1  0  0  0  0
 18 23  1  0  0  0  0
 18 19  2  0  0  0  0
 19 20  1  0  0  0  0
 19 42  1  0  0  0  0
 20 21  2  0  0  0  0
 20 43  1  0  0  0  0
 21 22  1  0  0  0  0
 21 44  1  0  0  0  0
 22 23  2  0  0  0  0
 22 45  1  0  0  0  0
 23 46  1  0  0  0  0
M  CHG  1  15   1
M  END
> <s_m_source_file>
AV-unprocessed.smi

> <i_m_source_file_index>
787

> <i_lp_mmshare_version>
43012

> <i_f3d_flags>
0

> <s_epik_input>
bjFbY0hdbmMoW05IXVtDSDNdKWMoYzEyKW4oW2NIXW4yKVtDSDJdW0NASF0oW09IXSlbQ0gyXU4oW0NIM10pW0NIMl1jM1tjSF1bY0hdW2NIXVtjSF1bY0hdMw==

> <s_epik_cmdline>
J2VwaWtfcHl0aG9uJywgJy1waCcsICc3LjAnLCAnLXRuJywgJzgnLCAnLW1hJywgJzIwMCcsICctbWV0YWxfYmluZGluZycsICctaW1hZScsICc8aW5maWxlLm1hZT4nLCAnLW9tYWUnLCAnPG91dGZpbGUubWFlPic=

> <r_lp_tautomer_probability>
0.999987

> <r_epik_Ionization_Penalty>
0.0526284

> <r_epik_Ionization_Penalty_Charging>
0.0475377

> <r_epik_Ionization_Penalty_Neutral>
0.00509065

> <r_epik_State_Penalty>
0.0404888

> <r_epik_Charging_Adjusted_Penalty>
0.0880265

> <i_epik_Tot_Q>
1

> <i_epik_Tot_abs_Q>
1

> <r_epik_Metal_State_Penalty>
0.040507

> <b_epik_Metal_Only>
0

> <s_lp_Force_Field>
OPLS_2005

> <r_lp_Energy>
14.3877

> <b_lp_Chiralities_Consistent>
1

> <s_lp_Variant>
AV-unprocessed.smi:787-2

> <Gold.Version>
5.8.1

> <Gold.Id.Protein>
6NUR|6NUR_protein|mol2

> <Gold.PLP.Fitness>
48.4592

> <Gold.PLP.PLP>
-40.9772

> <Gold.PLP.part.hbond>
-5.7527

> <Gold.PLP.part.metal>
0.0000

> <Gold.PLP.part.buried>
-0.6518

> <Gold.PLP.part.nonpolar>
-33.2516

> <Gold.PLP.part.repulsive>
0.0683

> <Gold.PLP.ligand.clash>
0.0000

> <Gold.PLP.ligand.torsion>
1.0779

> <Gold.PLP.Chemscore.Hbond>
3.1422

> <Gold.PLP.Chemscore.CHOScore>
0.0000

> <Gold.PLP.Chemscore.Metal>
0.0000

> <Gold.Chemscore.Hbonds>
donor molecule, donor type, donor heavy atom, donor atom, acceptor molecule, acceptor atom, score
      L1  H    15    47       P1  8028  0.81
      P1  H  8011  8017       L1    13  0.98

> <Gold.PLP.Chemscore.Internal.Correction>
0.2111

> <Gold.Rescore>
     Score         DG    S(hbond)    S(metal)    S(lipo)     H(rot)  DE(clash)    DE(int)     intcor
     14.71     -15.69       1.88        0.00     103.31       3.19       0.08       0.89       ----

> <Gold.Chemscore.Fitness>
14.7112

> <Gold.Chemscore.DG>
-15.6881

> <Gold.Chemscore.ZeroCoef>
-5.4800

> <Gold.Chemscore.Hbond>
1.8844

> <Gold.Chemscore.Metal>
0.0000

> <Gold.Chemscore.Lipo>
103.3136

> <Gold.Chemscore.Internal_Hbond>
0.0000

> <Gold.Chemscore.DEClash>
0.0848

> <Gold.Chemscore.DEInternal>
0.8921

> <Gold.Chemscore.Rot>
3.1928

> <Gold.Chemscore.Internal.Correction>
   9.000000E+99

> <Gold.Chemscore.Hbonds>
donor molecule, donor type, donor heavy atom, donor atom, acceptor molecule, acceptor atom, score
      L1  H     2    28       P1  7948  0.01
      L1  H    15    47       P1  8028  0.39
      P1  H  8011  8017       L1    13  0.91

> <Gold.Chemscore.Hbond.Weighted>
-6.2940

> <Gold.Chemscore.Metal.Weighted>
-0.0000

> <Gold.Chemscore.Lipo.Weighted>
-12.0877

> <Gold.Chemscore.Internal_Hbond.Weighted>
0.0000

> <Gold.Chemscore.DEClash.Weighted>
0.0848

> <Gold.Chemscore.DEInternal.Weighted>
0.8921

> <Gold.Chemscore.Rot.Weighted>
8.1736

> <Gold.Chemscore.Internal.Correction.Weighted>
   9.000000E+99

> <Gold.Protein.RotatedTorsions>
[ 6907 6896 6895 6894 ] final   35.70 input  -60.11 | X-H torsion
[ 7974 7965 7964 7962 ] final  -59.34 input  175.53 | X-H torsion
[ 8008 7997 7996 7995 ] final  -96.49 input   59.86 | X-H torsion
[ 10167 10162 10161 10158 ] final   40.93 input  -65.29 | X-H torsion
[ 10718 10713 10712 10709 ] final   89.18 input   66.30 | X-H torsion
[ 10763 10752 10751 10750 ] final  -47.45 input  -60.55 | X-H torsion
[ 11005 11000 10999 10996 ] final   83.19 input  -57.11 | X-H torsion

> <Gold.Protein.ActiveResidues>
 VAL166  LYS551  ARG553  GLY616  TRP617  ASP618  TYR619  PRO620  LYS621  CYS622 
 ASP623  PHE694  ASN695  SER759  ASP760  ASP761  ALA762  ILE779  LEU786  VAL792 
 PHE793  MET794  SER795  GLU796  ALA797  LYS798  CYS799  TRP800  GLU811  SER814 

> <Gold.Protein.RotatedAtoms>
  152.1197  134.9215  160.0563 H   0  0  0  0  0  0  0  0  0  0  0  0  # atno 6907 bound_to 6896
  152.0360  133.3952  159.4325 H   0  0  0  0  0  0  0  0  0  0  0  0  # atno 6908 bound_to 6896
  150.6848  134.3388  159.4903 H   0  0  0  0  0  0  0  0  0  0  0  0  # atno 6909 bound_to 6896
  145.8286  140.8494  143.0095 H   0  0  0  0  0  0  0  0  0  0  0  0  # atno 7974 bound_to 7965
  154.7752  140.0471  157.1083 H   0  0  0  0  0  0  0  0  0  0  0  0  # atno 8008 bound_to 7997
  154.9772  140.3097  155.4942 H   0  0  0  0  0  0  0  0  0  0  0  0  # atno 8009 bound_to 7997
  156.2928  140.2242  156.4868 H   0  0  0  0  0  0  0  0  0  0  0  0  # atno 8010 bound_to 7997
  140.3694  144.2125  150.6134 H   0  0  0  0  0  0  0  0  0  0  0  0  # atno 10167 bound_to 10162
  157.6954  131.0323  150.3387 H   0  0  0  0  0  0  0  0  0  0  0  0  # atno 10718 bound_to 10713
  154.0617  135.6617  153.4812 H   0  0  0  0  0  0  0  0  0  0  0  0  # atno 10763 bound_to 10752
  153.0424  135.5136  154.7653 H   0  0  0  0  0  0  0  0  0  0  0  0  # atno 10764 bound_to 10752
  154.6691  135.3027  154.9732 H   0  0  0  0  0  0  0  0  0  0  0  0  # atno 10765 bound_to 10752
  139.9039  134.8127  156.2276 H   0  0  0  0  0  0  0  0  0  0  0  0  # atno 11005 bound_to 11000
  144.6741  140.0639  143.7475 LP  0  0  0  0  0  0  0  0  0  0  0  0  # atno 17320 bound_to 7965
  145.9596  139.2791  143.1164 LP  0  0  0  0  0  0  0  0  0  0  0  0  # atno 17321 bound_to 7965
  140.5049  143.2307  151.8623 LP  0  0  0  0  0  0  0  0  0  0  0  0  # atno 17342 bound_to 10162
  139.4805  144.5017  151.9051 LP  0  0  0  0  0  0  0  0  0  0  0  0  # atno 17343 bound_to 10162
  156.3851  130.3887  149.7072 LP  0  0  0  0  0  0  0  0  0  0  0  0  # atno 17370 bound_to 10713
  156.4441  130.7875  151.2896 LP  0  0  0  0  0  0  0  0  0  0  0  0  # atno 17371 bound_to 10713
  141.0366  133.6960  156.1523 LP  0  0  0  0  0  0  0  0  0  0  0  0  # atno 17394 bound_to 11000
  140.7018  134.4556  157.5586 LP  0  0  0  0  0  0  0  0  0  0  0  0  # atno 17395 bound_to 11000

$$$$
