#       Name:                AV-unprocessed.smi:3199
#       Creating user name   scv26
#       Creation time:       Fri Mar 27 18:06:54 2020


#       File generated by GOLD software.
#

@<TRIPOS>MOLECULE
AV-unprocessed.smi:3199
    40    41     1
SMALL
NO_CHARGES


@<TRIPOS>ATOM
      1 ****        -3.1549   5.8433   0.2176 C.3            1 S1                 0.0000
      2 ****        -2.7151   4.4025   0.0637 C.ar           1 S1                 0.0000
      3 ****        -2.6268   3.7708  -1.1954 C.ar           1 S1                 0.0000
      4 ****        -2.2156   2.4234  -1.2627 C.ar           1 S1                 0.0000
      5 ****        -1.9030   1.7340  -0.0707 C.ar           1 S1                 0.0000
      6 ****        -1.4672   0.2822  -0.1103 C.3            1 S1                 0.0000
      7 ****         0.0564   0.1320  -0.2115 C.3            1 S1                 0.0000
      8 ****         0.4261  -1.2756  -0.2482 N.am           1 S1                 0.0000
      9 ****         1.6862  -1.7323  -0.2290 C.2            1 S1                 0.0000
     10 ****         2.6687  -0.9918  -0.1775 O.2            1 S1                 0.0000
     11 ****         1.8489  -3.2572  -0.2562 C.3            1 S1                 0.0000
     12 ****         3.1467  -3.7611  -0.9183 C.3            1 S1                 0.0000
     13 ****         3.9280  -4.3645   0.2332 C.3            1 S1                 0.0000
     14 ****         2.8152  -4.7967   1.1774 C.3            1 S1                 0.0000
     15 ****         1.8939  -3.7218   1.0912 O.3            1 S1                 0.0000
     16 ****        -2.0058   2.4180   1.1596 C.ar           1 S1                 0.0000
     17 ****        -2.4029   3.7094   1.1818 N.pl3          1 S1                 1.0000
     18 ****        -3.2992   6.3158  -0.7546 H              1 S1                 0.0000
     19 ****        -2.4055   6.4152   0.7655 H              1 S1                 0.0000
     20 ****        -4.0970   5.8954   0.7641 H              1 S1                 0.0000
     21 ****        -2.8717   4.3085  -2.1001 H              1 S1                 0.0000
     22 ****        -2.1436   1.9262  -2.2193 H              1 S1                 0.0000
     23 ****        -1.8334  -0.2206   0.7861 H              1 S1                 0.0000
     24 ****        -1.9486  -0.2100  -0.9568 H              1 S1                 0.0000
     25 ****         0.4260   0.6237  -1.1129 H              1 S1                 0.0000
     26 ****         0.5379   0.6138   0.6414 H              1 S1                 0.0000
     27 ****        -0.3239  -1.9508  -0.2822 H              1 S1                 0.0000
     28 ****         0.9903  -3.7098  -0.7556 H              1 S1                 0.0000
     29 ****         2.9068  -4.5344  -1.6491 H              1 S1                 0.0000
     30 ****         3.7182  -2.9923  -1.4396 H              1 S1                 0.0000
     31 ****         4.5746  -5.1876  -0.0720 H              1 S1                 0.0000
     32 ****         4.5445  -3.6008   0.7091 H              1 S1                 0.0000
     33 ****         2.3407  -5.7158   0.8297 H              1 S1                 0.0000
     34 ****         3.1624  -4.9497   2.1995 H              1 S1                 0.0000
     35 ****        -1.7865   1.9747   2.1202 H              1 S1                 0.0000
     36 ****        -2.4719   4.1822   2.0834 H              1 S1                 0.0000
     37 ****         2.5462   0.0003  -0.1478 LP             1 S1                 0.0000
     38 ****         3.5892  -1.3824  -0.1654 LP             1 S1                 0.0000
     39 ****         0.9857  -4.0353   1.3684 LP             1 S1                 0.0000
     40 ****         2.1880  -2.9789   1.6925 LP             1 S1                 0.0000
@<TRIPOS>BOND
    1    1    2 1     
    2    1   18 1     
    3    1   19 1     
    4    1   20 1     
    5    2   17 ar    
    6    2    3 ar    
    7    3    4 ar    
    8    3   21 1     
    9    4    5 ar    
   10    4   22 1     
   11    5    6 1     
   12    5   16 ar    
   13    6    7 1     
   14    6   23 1     
   15    6   24 1     
   16    7    8 1     
   17    7   25 1     
   18    7   26 1     
   19    8    9 am    
   20    8   27 1     
   21    9   10 2     
   22    9   11 1     
   23   11   15 1     
   24   11   12 1     
   25   11   28 1     
   26   12   13 1     
   27   12   29 1     
   28   12   30 1     
   29   13   14 1     
   30   13   31 1     
   31   13   32 1     
   32   14   15 1     
   33   14   33 1     
   34   14   34 1     
   35   16   17 ar    
   36   16   35 1     
   37   17   36 1     
   38   10   37 1     
   39   10   38 1     
   40   15   39 1     
   41   15   40 1     
@<TRIPOS>SUBSTRUCTURE
      1 S1             1
@<TRIPOS>SET
LONE_PAIRS      STATIC     ATOMS    <user>   **** ""
4 37 38 39 40
DONOR_HYDROGENS      STATIC     ATOMS    <user>   **** ""
2 27 36
ATOM$BLUE        STATIC     ATOMS    COLORGROUP SYSTEM
4 37 38 39 40
ATOM$RED        STATIC     ATOMS    COLORGROUP SYSTEM
2 27 36
