AV-unprocessed.smi:1662|AV-procd|sdf|6664|dock4
  -GOLD-   22720 7373D 1   1.00000     0.00000
 Structure written by MMmdl.
 47 48  0  0  0  0  0  0  0  0  1 V2000
  155.8725  140.0489  162.7909 C   0  0  0  0  0  0  0  0  0  0  0  0
  155.4675  138.6810  162.3120 C   0  0  0  0  0  0  0  0  0  0  0  0
  154.7340  138.6316  161.2489 N   0  0  0  0  0  0  0  0  0  0  0  0
  154.3011  137.4270  160.7292 N   0  0  0  0  0  0  0  0  0  0  0  0
  153.4575  137.5555  159.5323 C   0  0  0  0  0  0  0  0  0  0  0  0
  153.5212  138.9564  158.9084 C   0  0  0  0  0  0  0  0  0  0  0  0
  154.5237  139.3214  158.2932 O   0  0  0  0  0  0  0  0  0  0  0  0
  152.4292  139.7204  159.0621 N   0  0  0  0  0  0  0  0  0  0  0  0
  152.2708  141.0881  158.5726 C   0  0  1  0  0  0  0  0  0  0  0  0
  150.8957  141.2274  157.8895 C   0  0  0  0  0  0  0  0  0  0  0  0
  150.6269  142.6673  157.4308 C   0  0  0  0  0  0  0  0  0  0  0  0
  150.7740  143.6580  158.5964 C   0  0  0  0  0  0  0  0  0  0  0  0
  152.1538  143.5563  159.2782 C   0  0  2  0  0  0  0  0  0  0  0  0
  153.2677  144.1582  158.3970 C   0  0  0  0  0  0  0  0  0  0  0  0
  152.4239  142.0984  159.7387 C   0  0  2  0  0  0  0  0  0  0  0  0
  153.7661  141.9555  160.4840 C   0  0  0  0  0  0  0  0  0  0  0  0
  154.5992  136.2028  161.2530 C   0  0  0  0  0  0  0  0  0  0  0  0
  154.1970  135.1518  160.7509 O   0  0  0  0  0  0  0  0  0  0  0  0
  155.4321  136.2666  162.4559 C   0  0  0  0  0  0  0  0  0  0  0  0
  155.7636  135.0068  163.0392 C   0  0  0  0  0  0  0  0  0  0  0  0
  156.0141  133.9790  163.5092 N   0  0  0  0  0  0  0  0  0  0  0  0
  155.8574  137.4433  162.9801 C   0  0  0  0  0  0  0  0  0  0  0  0
  156.7212  137.5639  164.2282 C   0  0  0  0  0  0  0  0  0  0  0  0
  156.9580  140.1472  162.8103 H   0  0  0  0  0  0  0  0  0  0  0  0
  155.4975  140.2323  163.7979 H   0  0  0  0  0  0  0  0  0  0  0  0
  155.4825  140.8380  162.1460 H   0  0  0  0  0  0  0  0  0  0  0  0
  153.7642  136.8351  158.7720 H   0  0  0  0  0  0  0  0  0  0  0  0
  152.4241  137.3005  159.7764 H   0  0  0  0  0  0  0  0  0  0  0  0
  151.6525  139.3333  159.5781 H   0  0  0  0  0  0  0  0  0  0  0  0
  153.0484  141.2982  157.8366 H   0  0  0  0  0  0  0  0  0  0  0  0
  150.8322  140.5539  157.0339 H   0  0  0  0  0  0  0  0  0  0  0  0
  150.1093  140.9205  158.5807 H   0  0  0  0  0  0  0  0  0  0  0  0
  151.3129  142.9310  156.6254 H   0  0  0  0  0  0  0  0  0  0  0  0
  149.6233  142.7385  157.0109 H   0  0  0  0  0  0  0  0  0  0  0  0
  150.5995  144.6753  158.2449 H   0  0  0  0  0  0  0  0  0  0  0  0
  149.9949  143.4569  159.3328 H   0  0  0  0  0  0  0  0  0  0  0  0
  152.1075  144.1766  160.1744 H   0  0  0  0  0  0  0  0  0  0  0  0
  153.4357  143.5780  157.4904 H   0  0  0  0  0  0  0  0  0  0  0  0
  154.2150  144.2163  158.9324 H   0  0  0  0  0  0  0  0  0  0  0  0
  153.0145  145.1740  158.0925 H   0  0  0  0  0  0  0  0  0  0  0  0
  151.6476  141.8606  160.4681 H   0  0  0  0  0  0  0  0  0  0  0  0
  154.6145  142.0557  159.8066 H   0  0  0  0  0  0  0  0  0  0  0  0
  153.8525  140.9837  160.9703 H   0  0  0  0  0  0  0  0  0  0  0  0
  153.8659  142.7131  161.2616 H   0  0  0  0  0  0  0  0  0  0  0  0
  156.9676  136.5925  164.6557 H   0  0  0  0  0  0  0  0  0  0  0  0
  156.2036  138.1378  164.9975 H   0  0  0  0  0  0  0  0  0  0  0  0
  157.6608  138.0667  163.9971 H   0  0  0  0  0  0  0  0  0  0  0  0
  1  2  1  0  0  0  0
  1 24  1  0  0  0  0
  1 25  1  0  0  0  0
  1 26  1  0  0  0  0
  2 22  1  0  0  0  0
  2  3  2  0  0  0  0
  3  4  1  0  0  0  0
  4  5  1  0  0  0  0
  4 17  1  0  0  0  0
  5  6  1  0  0  0  0
  5 27  1  0  0  0  0
  5 28  1  0  0  0  0
  6  7  2  0  0  0  0
  6  8  1  0  0  0  0
  8  9  1  0  0  0  0
  8 29  1  0  0  0  0
  9 15  1  0  0  0  0
  9 10  1  0  0  0  0
  9 30  1  0  0  0  0
 10 11  1  0  0  0  0
 10 31  1  0  0  0  0
 10 32  1  0  0  0  0
 11 12  1  0  0  0  0
 11 33  1  0  0  0  0
 11 34  1  0  0  0  0
 12 13  1  0  0  0  0
 12 35  1  0  0  0  0
 12 36  1  0  0  0  0
 13 14  1  0  0  0  0
 13 15  1  0  0  0  0
 13 37  1  0  0  0  0
 14 38  1  0  0  0  0
 14 39  1  0  0  0  0
 14 40  1  0  0  0  0
 15 16  1  0  0  0  0
 15 41  1  0  0  0  0
 16 42  1  0  0  0  0
 16 43  1  0  0  0  0
 16 44  1  0  0  0  0
 17 18  2  0  0  0  0
 17 19  1  0  0  0  0
 19 20  1  0  0  0  0
 19 22  2  0  0  0  0
 20 21  3  0  0  0  0
 22 23  1  0  0  0  0
 23 45  1  0  0  0  0
 23 46  1  0  0  0  0
 23 47  1  0  0  0  0
M  END
> <s_m_source_file>
AV-unprocessed.smi

> <i_m_source_file_index>
1662

> <i_lp_mmshare_version>
43012

> <i_f3d_flags>
0

> <s_epik_input>
TiNDYyhjMVtDSDNdKWMoPU8pbihuYzFbQ0gzXSlbQ0gyXUMoPU8pW05IXVtDQEBIXTJbQ0gyXVtDSDJdW0NIMl1bQ0BASF0oW0NIM10pW0NASF0yW0NIM10=

> <s_epik_cmdline>
J2VwaWtfcHl0aG9uJywgJy1waCcsICc3LjAnLCAnLXRuJywgJzgnLCAnLW1hJywgJzIwMCcsICctbWV0YWxfYmluZGluZycsICctaW1hZScsICc8aW5maWxlLm1hZT4nLCAnLW9tYWUnLCAnPG91dGZpbGUubWFlPic=

> <r_lp_tautomer_probability>
1

> <r_epik_Ionization_Penalty>
1.90709e-08

> <r_epik_Ionization_Penalty_Charging>
2.37982e-11

> <r_epik_Ionization_Penalty_Neutral>
1.90471e-08

> <r_epik_State_Penalty>
-0

> <r_epik_Charging_Adjusted_Penalty>
2.37982e-11

> <i_epik_Tot_Q>
0

> <i_epik_Tot_abs_Q>
0

> <r_epik_Metal_State_Penalty>
-0

> <b_epik_Metal_Only>
0

> <s_lp_Force_Field>
OPLS_2005

> <r_lp_Energy>
29.0639

> <b_lp_Chiralities_Consistent>
1

> <s_lp_Variant>
AV-unprocessed.smi:1662-8

> <Gold.Version>
5.8.1

> <Gold.Id.Protein>
6NUR|6NUR_protein|mol2

> <Gold.PLP.Fitness>
42.9216

> <Gold.PLP.PLP>
-37.9890

> <Gold.PLP.part.hbond>
-1.8636

> <Gold.PLP.part.metal>
0.0000

> <Gold.PLP.part.buried>
-3.5715

> <Gold.PLP.part.nonpolar>
-33.3519

> <Gold.PLP.part.repulsive>
0.1533

> <Gold.PLP.ligand.clash>
0.0000

> <Gold.PLP.ligand.torsion>
0.5116

> <Gold.PLP.Chemscore.Hbond>
1.9833

> <Gold.PLP.Chemscore.CHOScore>
0.0000

> <Gold.PLP.Chemscore.Metal>
0.0000

> <Gold.Chemscore.Hbonds>
donor molecule, donor type, donor heavy atom, donor atom, acceptor molecule, acceptor atom, score
      P1  H  6896  6908       L1    18  1.00
      P1  H  7997  8008       L1     7  0.61

> <Gold.PLP.Chemscore.Internal.Correction>
0.0058

> <Gold.Rescore>
     Score         DG    S(hbond)    S(metal)    S(lipo)     H(rot)  DE(clash)    DE(int)     intcor
     19.35     -21.26       1.94        0.00     111.20       1.45       0.29       1.62       ----

> <Gold.Chemscore.Fitness>
19.3505

> <Gold.Chemscore.DG>
-21.2602

> <Gold.Chemscore.ZeroCoef>
-5.4800

> <Gold.Chemscore.Hbond>
1.9411

> <Gold.Chemscore.Metal>
0.0000

> <Gold.Chemscore.Lipo>
111.1967

> <Gold.Chemscore.Internal_Hbond>
0.0000

> <Gold.Chemscore.DEClash>
0.2934

> <Gold.Chemscore.DEInternal>
1.6163

> <Gold.Chemscore.Rot>
1.4504

> <Gold.Chemscore.Internal.Correction>
   9.000000E+99

> <Gold.Chemscore.Hbonds>
donor molecule, donor type, donor heavy atom, donor atom, acceptor molecule, acceptor atom, score
      P1  H  6896  6908       L1    18  0.94
      P1  H  7997  8008       L1     7  0.61

> <Gold.Chemscore.Hbond.Weighted>
-6.4832

> <Gold.Chemscore.Metal.Weighted>
-0.0000

> <Gold.Chemscore.Lipo.Weighted>
-13.0100

> <Gold.Chemscore.Internal_Hbond.Weighted>
0.0000

> <Gold.Chemscore.DEClash.Weighted>
0.2934

> <Gold.Chemscore.DEInternal.Weighted>
1.6163

> <Gold.Chemscore.Rot.Weighted>
3.7129

> <Gold.Chemscore.Internal.Correction.Weighted>
   9.000000E+99

> <Gold.Protein.RotatedTorsions>
[ 6907 6896 6895 6894 ] final  -65.66 input  -60.11 | X-H torsion
[ 7974 7965 7964 7962 ] final  -69.56 input  175.53 | X-H torsion
[ 8008 7997 7996 7995 ] final -133.13 input   59.86 | X-H torsion
[ 10167 10162 10161 10158 ] final  -92.47 input  -65.29 | X-H torsion
[ 10718 10713 10712 10709 ] final   63.69 input   66.30 | X-H torsion
[ 10763 10752 10751 10750 ] final -118.59 input  -60.55 | X-H torsion
[ 11005 11000 10999 10996 ] final  140.09 input  -57.11 | X-H torsion

> <Gold.Protein.ActiveResidues>
 VAL166  LYS551  ARG553  GLY616  TRP617  ASP618  TYR619  PRO620  LYS621  CYS622 
 ASP623  PHE694  ASN695  SER759  ASP760  ASP761  ALA762  ILE779  LEU786  VAL792 
 PHE793  MET794  SER795  GLU796  ALA797  LYS798  CYS799  TRP800  GLU811  SER814 

> <Gold.Protein.RotatedAtoms>
  150.7511  134.6130  159.6095 H   0  0  0  0  0  0  0  0  0  0  0  0  # atno 6907 bound_to 6896
  152.3458  134.7069  160.0259 H   0  0  0  0  0  0  0  0  0  0  0  0  # atno 6908 bound_to 6896
  151.7506  133.3291  159.3427 H   0  0  0  0  0  0  0  0  0  0  0  0  # atno 6909 bound_to 6896
  145.7022  140.9112  143.0725 H   0  0  0  0  0  0  0  0  0  0  0  0  # atno 7974 bound_to 7965
  155.3403  140.0472  157.3044 H   0  0  0  0  0  0  0  0  0  0  0  0  # atno 8008 bound_to 7997
  154.5281  140.2247  155.8819 H   0  0  0  0  0  0  0  0  0  0  0  0  # atno 8009 bound_to 7997
  156.1760  140.3085  155.9066 H   0  0  0  0  0  0  0  0  0  0  0  0  # atno 8010 bound_to 7997
  140.3344  143.2976  151.9905 H   0  0  0  0  0  0  0  0  0  0  0  0  # atno 10167 bound_to 10162
  157.5988  130.9119  149.9748 H   0  0  0  0  0  0  0  0  0  0  0  0  # atno 10718 bound_to 10713
  154.8592  135.4268  154.2163 H   0  0  0  0  0  0  0  0  0  0  0  0  # atno 10763 bound_to 10752
  153.3178  135.6980  153.7064 H   0  0  0  0  0  0  0  0  0  0  0  0  # atno 10764 bound_to 10752
  153.6131  135.3515  155.2959 H   0  0  0  0  0  0  0  0  0  0  0  0  # atno 10765 bound_to 10752
  140.0301  134.9356  157.0646 H   0  0  0  0  0  0  0  0  0  0  0  0  # atno 11005 bound_to 11000
  144.6965  139.8962  143.7456 LP  0  0  0  0  0  0  0  0  0  0  0  0  # atno 17320 bound_to 7965
  146.0788  139.3776  143.0477 LP  0  0  0  0  0  0  0  0  0  0  0  0  # atno 17321 bound_to 7965
  139.4851  144.6208  151.7258 LP  0  0  0  0  0  0  0  0  0  0  0  0  # atno 17342 bound_to 10162
  140.5367  144.0644  150.6073 LP  0  0  0  0  0  0  0  0  0  0  0  0  # atno 17343 bound_to 10162
  156.1057  130.3653  150.0139 LP  0  0  0  0  0  0  0  0  0  0  0  0  # atno 17370 bound_to 10713
  156.8246  130.9371  151.3640 LP  0  0  0  0  0  0  0  0  0  0  0  0  # atno 17371 bound_to 10713
  140.4239  134.1851  155.7165 LP  0  0  0  0  0  0  0  0  0  0  0  0  # atno 17394 bound_to 11000
  141.1826  133.8381  157.1203 LP  0  0  0  0  0  0  0  0  0  0  0  0  # atno 17395 bound_to 11000

$$$$
