#       Name:                AV-unprocessed.smi:1611
#       Creating user name   scv26
#       Creation time:       Fri Mar 27 07:13:23 2020


#       File generated by GOLD software.
#

@<TRIPOS>MOLECULE
AV-unprocessed.smi:1611
    56    57     1
SMALL
NO_CHARGES


@<TRIPOS>ATOM
      1 ****        -5.7744   1.3029   2.6065 C.3            1 S1                 0.0000
      2 ****        -5.0105   1.4463   1.3014 C.ar           1 S1                 0.0000
      3 ****        -5.7245   1.7370   0.1212 C.ar           1 S1                 0.0000
      4 ****        -5.0483   1.8830  -1.1025 C.ar           1 S1                 0.0000
      5 ****        -3.6495   1.7316  -1.1608 C.ar           1 S1                 0.0000
      6 ****        -2.9321   1.8988  -2.4877 C.3            1 S1                 0.0000
      7 ****        -2.9260   1.4227   0.0141 C.ar           1 S1                 0.0000
      8 ****        -1.5652   1.2700  -0.0563 O.3            1 S1                 0.0000
      9 ****        -1.1546  -0.0718  -0.2769 C.3            1 S1                 0.0000
     10 ****         0.3631  -0.0938  -0.5204 C.3            1 S1                 0.0000
     11 ****         0.5746   0.2622  -1.8726 O.3            1 S1                 0.0000
     12 ****         0.9604  -1.5017  -0.3037 C.3            1 S1                 0.0000
     13 ****         2.4156  -1.4595  -0.1120 N.am           1 S1                 0.0000
     14 ****         3.1390  -1.7663  -1.2473 N.2            1 S1                 0.0000
     15 ****         4.4316  -1.7672  -1.2425 C.2            1 S1                 0.0000
     16 ****         5.1128  -2.1182  -2.5379 C.3            1 S1                 0.0000
     17 ****         5.1503  -1.4376  -0.0158 C.2            1 S1                 0.0000
     18 ****         6.6720  -1.4543  -0.0701 C.3            1 S1                 0.0000
     19 ****         4.4283  -1.1413   1.0938 C.2            1 S1                 0.0000
     20 ****         5.0434  -0.8128   2.3392 C.1            1 S1                 0.0000
     21 ****         5.5604  -0.5538   3.3421 N.1            1 S1                 0.0000
     22 ****         2.9636  -1.1368   1.0945 C.2            1 S1                 0.0000
     23 ****         2.2787  -0.8648   2.0818 O.2            1 S1                 0.0000
     24 ****        -3.6018   1.2963   1.2540 C.ar           1 S1                 0.0000
     25 ****        -2.8197   0.9990   2.5264 C.3            1 S1                 0.0000
     26 ****        -6.8517   1.3042   2.4383 H              1 S1                 0.0000
     27 ****        -5.5384   2.1301   3.2764 H              1 S1                 0.0000
     28 ****        -5.5175   0.3677   3.1044 H              1 S1                 0.0000
     29 ****        -6.7980   1.8548   0.1495 H              1 S1                 0.0000
     30 ****        -5.6090   2.1122  -1.9968 H              1 S1                 0.0000
     31 ****        -2.0160   2.4767  -2.3622 H              1 S1                 0.0000
     32 ****        -3.5585   2.4200  -3.2120 H              1 S1                 0.0000
     33 ****        -2.6709   0.9247  -2.9012 H              1 S1                 0.0000
     34 ****        -1.3945  -0.6473   0.6183 H              1 S1                 0.0000
     35 ****        -1.6953  -0.5351  -1.1044 H              1 S1                 0.0000
     36 ****         0.8454   0.6315   0.1361 H              1 S1                 0.0000
     37 ****         1.5046   0.2611  -2.0397 H              1 S1                 0.0000
     38 ****         0.5107  -1.9654   0.5761 H              1 S1                 0.0000
     39 ****         0.6932  -2.1620  -1.1315 H              1 S1                 0.0000
     40 ****         5.7781  -2.9717  -2.4070 H              1 S1                 0.0000
     41 ****         5.7061  -1.2792  -2.9020 H              1 S1                 0.0000
     42 ****         4.3951  -2.3775  -3.3178 H              1 S1                 0.0000
     43 ****         7.1223  -1.1431   0.8722 H              1 S1                 0.0000
     44 ****         7.0369  -0.7775  -0.8434 H              1 S1                 0.0000
     45 ****         7.0348  -2.4584  -0.2922 H              1 S1                 0.0000
     46 ****        -1.7500   1.1670   2.4033 H              1 S1                 0.0000
     47 ****        -2.9666  -0.0401   2.8214 H              1 S1                 0.0000
     48 ****        -3.1489   1.6390   3.3447 H              1 S1                 0.0000
     49 ****        -1.1666   1.5851   0.8050 LP             1 S1                 0.0000
     50 ****        -1.2222   1.8333  -0.8080 LP             1 S1                 0.0000
     51 ****         0.2019   1.1741  -2.0439 LP             1 S1                 0.0000
     52 ****         0.1233  -0.4001  -2.4707 LP             1 S1                 0.0000
     53 ****         2.6526  -1.9927  -2.0912 LP             1 S1                 0.0000
     54 ****         6.0070  -0.3301   4.2084 LP             1 S1                 0.0000
     55 ****         1.2809  -0.8755   2.0165 LP             1 S1                 0.0000
     56 ****         2.7206  -0.6334   2.9485 LP             1 S1                 0.0000
@<TRIPOS>BOND
    1    1    2 1     
    2    1   26 1     
    3    1   27 1     
    4    1   28 1     
    5    2   24 ar    
    6    2    3 ar    
    7    3    4 ar    
    8    3   29 1     
    9    4    5 ar    
   10    4   30 1     
   11    5    6 1     
   12    5    7 ar    
   13    6   31 1     
   14    6   32 1     
   15    6   33 1     
   16    7    8 1     
   17    7   24 ar    
   18    8    9 1     
   19    9   10 1     
   20    9   34 1     
   21    9   35 1     
   22   10   11 1     
   23   10   12 1     
   24   10   36 1     
   25   11   37 1     
   26   12   13 1     
   27   12   38 1     
   28   12   39 1     
   29   13   22 am    
   30   13   14 1     
   31   14   15 2     
   32   15   16 1     
   33   15   17 1     
   34   16   40 1     
   35   16   41 1     
   36   16   42 1     
   37   17   18 1     
   38   17   19 2     
   39   18   43 1     
   40   18   44 1     
   41   18   45 1     
   42   19   20 1     
   43   19   22 1     
   44   20   21 3     
   45   22   23 2     
   46   24   25 1     
   47   25   46 1     
   48   25   47 1     
   49   25   48 1     
   50    8   49 1     
   51    8   50 1     
   52   11   51 1     
   53   11   52 1     
   54   14   53 1     
   55   21   54 1     
   56   23   55 1     
   57   23   56 1     
@<TRIPOS>SUBSTRUCTURE
      1 S1             1
@<TRIPOS>SET
LONE_PAIRS      STATIC     ATOMS    <user>   **** ""
8 49 50 51 52 53 54 55 56
DONOR_HYDROGENS      STATIC     ATOMS    <user>   **** ""
1 37
ATOM$BLUE        STATIC     ATOMS    COLORGROUP SYSTEM
8 49 50 51 52 53 54 55 56
ATOM$RED        STATIC     ATOMS    COLORGROUP SYSTEM
1 37
