AV-unprocessed.smi:1737|AV-procd|sdf|6993|dock1
  -GOLD-   22720 8203D 1   1.00000     0.00000
 Structure written by MMmdl.
 42 43  0  0  0  0  0  0  0  0  1 V2000
  147.9558  132.9084  152.4111 C   0  0  0  0  0  0  0  0  0  0  0  0
  146.5869  132.9420  151.7503 C   0  0  0  0  0  0  0  0  0  0  0  0
  146.0833  131.7715  151.1441 C   0  0  0  0  0  0  0  0  0  0  0  0
  144.8176  131.8050  150.5343 C   0  0  0  0  0  0  0  0  0  0  0  0
  144.1042  133.0156  150.5572 C   0  0  0  0  0  0  0  0  0  0  0  0
  144.5779  134.1389  151.1339 N   0  0  0  0  0  0  0  0  0  0  0  0
  145.7984  134.1236  151.7260 C   0  0  0  0  0  0  0  0  0  0  0  0
  146.3640  135.2697  152.3516 N   0  0  0  0  0  0  0  0  0  0  0  0
  145.7983  136.1058  153.2397 C   0  0  0  0  0  0  0  0  0  0  0  0
  144.6566  136.0043  153.6892 O   0  0  0  0  0  0  0  0  0  0  0  0
  146.6466  137.0850  153.5814 N   0  0  0  0  0  0  0  0  0  0  0  0
  146.3563  138.1872  154.4947 C   0  0  0  0  0  0  0  0  0  0  0  0
  147.1983  139.4414  154.1506 C   0  0  2  0  0  0  0  0  0  0  0  0
  147.2242  139.5914  152.6124 C   0  0  0  0  0  0  0  0  0  0  0  0
  148.5431  139.4498  154.7681 N   0  0  0  0  0  0  0  0  0  0  0  0
  149.5206  138.6765  153.9970 C   0  0  0  0  0  0  0  0  0  0  0  0
  150.9228  138.6984  154.6295 C   0  0  0  0  0  0  0  0  0  0  0  0
  151.3624  140.0425  154.7732 O   0  0  0  0  0  0  0  0  0  0  0  0
  150.4763  140.8154  155.5721 C   0  0  0  0  0  0  0  0  0  0  0  0
  149.0717  140.8058  154.9447 C   0  0  0  0  0  0  0  0  0  0  0  0
  148.4160  131.9238  152.3240 H   0  0  0  0  0  0  0  0  0  0  0  0
  147.8727  133.1463  153.4720 H   0  0  0  0  0  0  0  0  0  0  0  0
  148.6239  133.6325  151.9441 H   0  0  0  0  0  0  0  0  0  0  0  0
  146.6577  130.8570  151.1444 H   0  0  0  0  0  0  0  0  0  0  0  0
  144.4048  130.9263  150.0610 H   0  0  0  0  0  0  0  0  0  0  0  0
  143.1279  133.0847  150.1006 H   0  0  0  0  0  0  0  0  0  0  0  0
  147.3121  135.4838  152.0804 H   0  0  0  0  0  0  0  0  0  0  0  0
  147.5635  137.0867  153.1590 H   0  0  0  0  0  0  0  0  0  0  0  0
  145.2963  138.4457  154.4720 H   0  0  0  0  0  0  0  0  0  0  0  0
  146.5398  137.8534  155.5153 H   0  0  0  0  0  0  0  0  0  0  0  0
  146.6462  140.3000  154.5361 H   0  0  0  0  0  0  0  0  0  0  0  0
  146.2268  139.4749  152.1876 H   0  0  0  0  0  0  0  0  0  0  0  0
  147.8679  138.8437  152.1478 H   0  0  0  0  0  0  0  0  0  0  0  0
  147.5714  140.5761  152.3010 H   0  0  0  0  0  0  0  0  0  0  0  0
  149.2117  137.6350  153.9233 H   0  0  0  0  0  0  0  0  0  0  0  0
  149.5775  139.0628  152.9782 H   0  0  0  0  0  0  0  0  0  0  0  0
  150.9167  138.2029  155.6018 H   0  0  0  0  0  0  0  0  0  0  0  0
  151.6298  138.1584  153.9996 H   0  0  0  0  0  0  0  0  0  0  0  0
  150.4485  140.4179  156.5879 H   0  0  0  0  0  0  0  0  0  0  0  0
  150.8550  141.8355  155.6377 H   0  0  0  0  0  0  0  0  0  0  0  0
  149.1017  141.3194  153.9825 H   0  0  0  0  0  0  0  0  0  0  0  0
  148.4209  141.3898  155.5935 H   0  0  0  0  0  0  0  0  0  0  0  0
  1  2  1  0  0  0  0
  1 21  1  0  0  0  0
  1 22  1  0  0  0  0
  1 23  1  0  0  0  0
  2  7  1  0  0  0  0
  2  3  2  0  0  0  0
  3  4  1  0  0  0  0
  3 24  1  0  0  0  0
  4  5  2  0  0  0  0
  4 25  1  0  0  0  0
  5  6  1  0  0  0  0
  5 26  1  0  0  0  0
  6  7  2  0  0  0  0
  7  8  1  0  0  0  0
  8  9  1  0  0  0  0
  8 27  1  0  0  0  0
  9 10  2  0  0  0  0
  9 11  1  0  0  0  0
 11 12  1  0  0  0  0
 11 28  1  0  0  0  0
 12 13  1  0  0  0  0
 12 29  1  0  0  0  0
 12 30  1  0  0  0  0
 13 14  1  0  0  0  0
 13 15  1  0  0  0  0
 13 31  1  0  0  0  0
 14 32  1  0  0  0  0
 14 33  1  0  0  0  0
 14 34  1  0  0  0  0
 15 20  1  0  0  0  0
 15 16  1  0  0  0  0
 16 17  1  0  0  0  0
 16 35  1  0  0  0  0
 16 36  1  0  0  0  0
 17 18  1  0  0  0  0
 17 37  1  0  0  0  0
 17 38  1  0  0  0  0
 18 19  1  0  0  0  0
 19 20  1  0  0  0  0
 19 39  1  0  0  0  0
 19 40  1  0  0  0  0
 20 41  1  0  0  0  0
 20 42  1  0  0  0  0
M  END
> <s_m_source_file>
AV-unprocessed.smi

> <i_m_source_file_index>
1737

> <i_lp_mmshare_version>
43012

> <i_f3d_flags>
0

> <s_epik_input>
W0NIM11jMVtjSF1bY0hdW2NIXW5jMVtOSF1DKD1PKVtOSF1bQ0gyXVtDQEhdKFtDSDNdKU4yW0NIMl1bQ0gyXU9bQ0gyXVtDSDJdMg==

> <s_epik_cmdline>
J2VwaWtfcHl0aG9uJywgJy1waCcsICc3LjAnLCAnLXRuJywgJzgnLCAnLW1hJywgJzIwMCcsICctbWV0YWxfYmluZGluZycsICctaW1hZScsICc8aW5maWxlLm1hZT4nLCAnLW9tYWUnLCAnPG91dGZpbGUubWFlPic=

> <r_epik_Ionization_Penalty>
0.266048

> <r_epik_Ionization_Penalty_Charging>
0

> <r_epik_Ionization_Penalty_Neutral>
0.266048

> <r_epik_State_Penalty>
0.257924

> <r_epik_Charging_Adjusted_Penalty>
0.257924

> <i_epik_Tot_Q>
0

> <i_epik_Tot_abs_Q>
0

> <r_epik_Metal_State_Penalty>
0.257922

> <b_epik_Metal_Only>
0

> <s_lp_Force_Field>
OPLS_2005

> <r_lp_Energy>
34.2136

> <b_lp_Chiralities_Consistent>
1

> <s_lp_Variant>
AV-unprocessed.smi:1737-1

> <Gold.Version>
5.8.1

> <Gold.Id.Protein>
6NUR|6NUR_protein|mol2

> <Gold.PLP.Fitness>
41.1606

> <Gold.PLP.PLP>
-31.9645

> <Gold.PLP.part.hbond>
-3.0000

> <Gold.PLP.part.metal>
0.0000

> <Gold.PLP.part.buried>
-0.4641

> <Gold.PLP.part.nonpolar>
-29.6571

> <Gold.PLP.part.repulsive>
0.4323

> <Gold.PLP.ligand.clash>
0.0508

> <Gold.PLP.ligand.torsion>
1.2854

> <Gold.PLP.Chemscore.Hbond>
2.9188

> <Gold.PLP.Chemscore.CHOScore>
1.0000

> <Gold.PLP.Chemscore.Metal>
0.0000

> <Gold.Chemscore.Hbonds>
donor molecule, donor type, donor heavy atom, donor atom, acceptor molecule, acceptor atom, score
      L1  H     8    27       P1  7948  1.00
      L1  H    11    28       P1  7948  0.86
      P1  H  7989  7998       L1    18  1.00
      L1  C     5    26       P1 10186  0.91

> <Gold.PLP.Chemscore.Internal.Correction>
0.0612

> <Gold.Rescore>
     Score         DG    S(hbond)    S(metal)    S(lipo)     H(rot)  DE(clash)    DE(int)     intcor
     17.24     -20.05       2.52        0.00      84.54       1.47       1.43       1.38       ----

> <Gold.Chemscore.Fitness>
17.2448

> <Gold.Chemscore.DG>
-20.0488

> <Gold.Chemscore.ZeroCoef>
-5.4800

> <Gold.Chemscore.Hbond>
2.5247

> <Gold.Chemscore.Metal>
0.0000

> <Gold.Chemscore.Lipo>
84.5388

> <Gold.Chemscore.Internal_Hbond>
0.0000

> <Gold.Chemscore.DEClash>
1.4266

> <Gold.Chemscore.DEInternal>
1.3774

> <Gold.Chemscore.Rot>
1.4667

> <Gold.Chemscore.Internal.Correction>
   9.000000E+99

> <Gold.Chemscore.Hbonds>
donor molecule, donor type, donor heavy atom, donor atom, acceptor molecule, acceptor atom, score
      L1  H     8    27       P1  7948  1.00
      L1  H    11    28       P1  7948  0.79
      P1  H  7989  7998       L1    18  0.55

> <Gold.Chemscore.Hbond.Weighted>
-8.4326

> <Gold.Chemscore.Metal.Weighted>
-0.0000

> <Gold.Chemscore.Lipo.Weighted>
-9.8910

> <Gold.Chemscore.Internal_Hbond.Weighted>
0.0000

> <Gold.Chemscore.DEClash.Weighted>
1.4266

> <Gold.Chemscore.DEInternal.Weighted>
1.3774

> <Gold.Chemscore.Rot.Weighted>
3.7549

> <Gold.Chemscore.Internal.Correction.Weighted>
   9.000000E+99

> <Gold.Protein.RotatedTorsions>
[ 6907 6896 6895 6894 ] final -163.24 input  -60.11 | X-H torsion
[ 7974 7965 7964 7962 ] final  -96.61 input  175.53 | X-H torsion
[ 8008 7997 7996 7995 ] final  -15.59 input   59.86 | X-H torsion
[ 10167 10162 10161 10158 ] final   76.67 input  -65.29 | X-H torsion
[ 10718 10713 10712 10709 ] final  -58.04 input   66.30 | X-H torsion
[ 10763 10752 10751 10750 ] final   94.62 input  -60.55 | X-H torsion
[ 11005 11000 10999 10996 ] final  -51.89 input  -57.11 | X-H torsion

> <Gold.Protein.ActiveResidues>
 VAL166  LYS551  ARG553  GLY616  TRP617  ASP618  TYR619  PRO620  LYS621  CYS622 
 ASP623  PHE694  ASN695  SER759  ASP760  ASP761  ALA762  ILE779  LEU786  VAL792 
 PHE793  MET794  SER795  GLU796  ALA797  LYS798  CYS799  TRP800  GLU811  SER814 

> <Gold.Protein.RotatedAtoms>
  151.3930  133.3782  159.2722 H   0  0  0  0  0  0  0  0  0  0  0  0  # atno 6907 bound_to 6896
  150.9491  134.8894  159.7671 H   0  0  0  0  0  0  0  0  0  0  0  0  # atno 6908 bound_to 6896
  152.5104  134.3884  159.9427 H   0  0  0  0  0  0  0  0  0  0  0  0  # atno 6909 bound_to 6896
  145.3446  140.9466  143.2588 H   0  0  0  0  0  0  0  0  0  0  0  0  # atno 7974 bound_to 7965
  154.5118  140.2192  155.9141 H   0  0  0  0  0  0  0  0  0  0  0  0  # atno 8008 bound_to 7997
  156.1561  140.3151  155.8695 H   0  0  0  0  0  0  0  0  0  0  0  0  # atno 8009 bound_to 7997
  155.3843  140.0474  157.3033 H   0  0  0  0  0  0  0  0  0  0  0  0  # atno 8010 bound_to 7997
  139.9897  144.5766  150.7828 H   0  0  0  0  0  0  0  0  0  0  0  0  # atno 10167 bound_to 10162
  156.1165  130.4170  150.0523 H   0  0  0  0  0  0  0  0  0  0  0  0  # atno 10718 bound_to 10713
  153.2437  135.4283  155.0725 H   0  0  0  0  0  0  0  0  0  0  0  0  # atno 10763 bound_to 10752
  154.8352  135.3409  154.6612 H   0  0  0  0  0  0  0  0  0  0  0  0  # atno 10764 bound_to 10752
  153.7035  135.7027  153.5113 H   0  0  0  0  0  0  0  0  0  0  0  0  # atno 10765 bound_to 10752
  141.0895  133.6635  156.3944 H   0  0  0  0  0  0  0  0  0  0  0  0  # atno 11005 bound_to 11000
  144.8764  139.4966  143.6744 LP  0  0  0  0  0  0  0  0  0  0  0  0  # atno 17320 bound_to 7965
  146.2993  139.7376  142.9103 LP  0  0  0  0  0  0  0  0  0  0  0  0  # atno 17321 bound_to 7965
  140.7459  143.2883  151.3402 LP  0  0  0  0  0  0  0  0  0  0  0  0  # atno 17342 bound_to 10162
  139.6349  144.0650  152.2507 LP  0  0  0  0  0  0  0  0  0  0  0  0  # atno 17343 bound_to 10162
  156.8473  130.9446  151.3628 LP  0  0  0  0  0  0  0  0  0  0  0  0  # atno 17370 bound_to 10713
  157.6348  130.8758  149.9339 LP  0  0  0  0  0  0  0  0  0  0  0  0  # atno 17371 bound_to 10713
  140.5285  134.6236  157.5342 LP  0  0  0  0  0  0  0  0  0  0  0  0  # atno 17394 bound_to 11000
  139.9719  134.7279  156.0025 LP  0  0  0  0  0  0  0  0  0  0  0  0  # atno 17395 bound_to 11000

$$$$
