AV-unprocessed.smi:260|AV-procd|sdf|1979|dock5
  -GOLD-   2262021153D 1   1.00000     0.00000
 Structure written by MMmdl.
 53 56  0  0  0  0  0  0  0  0  1 V2000
  146.6367  132.4700  158.2143 C   0  0  0  0  0  0  0  0  0  0  0  0
  147.6873  132.6256  157.2203 N   0  0  0  0  0  0  0  0  0  0  0  0
  148.6039  133.6065  157.2324 C   0  0  0  0  0  0  0  0  0  0  0  0
  148.6261  134.4679  158.1130 O   0  0  0  0  0  0  0  0  0  0  0  0
  149.6514  133.6099  156.0870 C   0  0  1  0  0  0  0  0  0  0  0  0
  150.4262  132.2740  156.0461 C   0  0  0  0  0  0  0  0  0  0  0  0
  149.0027  133.9179  154.7182 C   0  0  0  0  0  0  0  0  0  0  0  0
  148.9401  135.4492  154.6302 C   0  0  0  0  0  0  0  0  0  0  0  0
  149.9103  135.9380  155.5985 N   0  0  0  0  0  0  0  0  0  0  0  0
  150.5080  137.1491  155.4522 C   0  0  0  0  0  0  0  0  0  0  0  0
  151.5096  137.2764  154.5412 N   0  0  0  0  0  0  0  0  0  0  0  0
  152.1221  138.4503  154.3636 C   0  0  0  0  0  0  0  0  0  0  0  0
  151.8988  139.6097  154.9837 N   0  0  0  0  0  0  0  0  0  0  0  0
  150.9047  139.4897  155.9086 C   0  0  0  0  0  0  0  0  0  0  0  0
  150.1645  138.3094  156.2081 C   0  0  0  0  0  0  0  0  0  0  0  0
  149.2458  138.5807  157.2173 N   0  0  0  0  0  0  0  0  0  0  0  0
  149.4252  139.8440  157.4890 C   0  0  0  0  0  0  0  0  0  0  0  0
  150.4020  140.4674  156.7480 N   0  0  0  0  0  0  0  0  0  0  0  0
  150.8098  141.8585  156.8370 C   0  0  0  0  0  0  0  0  0  0  0  0
  150.5657  142.4583  158.2356 C   0  0  2  0  0  0  0  0  0  0  0  0
  150.1126  143.7920  158.0986 O   0  0  0  0  0  0  0  0  0  0  0  0
  151.8403  142.4531  159.0997 C   0  0  1  0  0  0  0  0  0  0  0  0
  151.7000  143.1648  160.4441 C   0  0  0  0  0  0  0  0  0  0  0  0
  152.8513  142.5803  161.2371 C   0  0  0  0  0  0  0  0  0  0  0  0
  153.0171  141.1793  160.6424 C   0  0  0  0  0  0  0  0  0  0  0  0
  152.1702  141.1297  159.4978 O   0  0  0  0  0  0  0  0  0  0  0  0
  150.5937  134.8185  156.2334 C   0  0  0  0  0  0  0  0  0  0  0  0
  146.0186  131.6062  157.9698 H   0  0  0  0  0  0  0  0  0  0  0  0
  145.9952  133.3517  158.2428 H   0  0  0  0  0  0  0  0  0  0  0  0
  147.0616  132.3158  159.2069 H   0  0  0  0  0  0  0  0  0  0  0  0
  147.7223  131.9461  156.4743 H   0  0  0  0  0  0  0  0  0  0  0  0
  151.1081  132.2368  155.1959 H   0  0  0  0  0  0  0  0  0  0  0  0
  149.7481  131.4243  155.9556 H   0  0  0  0  0  0  0  0  0  0  0  0
  151.0322  132.1268  156.9408 H   0  0  0  0  0  0  0  0  0  0  0  0
  149.6390  133.5480  153.9130 H   0  0  0  0  0  0  0  0  0  0  0  0
  148.0248  133.4549  154.5784 H   0  0  0  0  0  0  0  0  0  0  0  0
  149.1615  135.7902  153.6183 H   0  0  0  0  0  0  0  0  0  0  0  0
  147.9496  135.8124  154.9066 H   0  0  0  0  0  0  0  0  0  0  0  0
  152.9020  138.4620  153.6168 H   0  0  0  0  0  0  0  0  0  0  0  0
  148.8486  140.3575  158.2443 H   0  0  0  0  0  0  0  0  0  0  0  0
  151.8679  141.9166  156.5794 H   0  0  0  0  0  0  0  0  0  0  0  0
  150.2738  142.4285  156.0770 H   0  0  0  0  0  0  0  0  0  0  0  0
  149.7846  141.8885  158.7410 H   0  0  0  0  0  0  0  0  0  0  0  0
  150.0702  144.0015  157.1783 H   0  0  0  0  0  0  0  0  0  0  0  0
  152.6828  142.8712  158.5448 H   0  0  0  0  0  0  0  0  0  0  0  0
  151.7511  144.2508  160.3602 H   0  0  0  0  0  0  0  0  0  0  0  0
  150.7517  142.9029  160.9159 H   0  0  0  0  0  0  0  0  0  0  0  0
  153.7562  143.1655  161.0685 H   0  0  0  0  0  0  0  0  0  0  0  0
  152.6547  142.5643  162.3096 H   0  0  0  0  0  0  0  0  0  0  0  0
  154.0528  140.9980  160.3526 H   0  0  0  0  0  0  0  0  0  0  0  0
  152.7215  140.4019  161.3473 H   0  0  0  0  0  0  0  0  0  0  0  0
  150.8157  135.0414  157.2783 H   0  0  0  0  0  0  0  0  0  0  0  0
  151.5408  134.6350  155.7238 H   0  0  0  0  0  0  0  0  0  0  0  0
  1  2  1  0  0  0  0
  1 28  1  0  0  0  0
  1 29  1  0  0  0  0
  1 30  1  0  0  0  0
  2  3  1  0  0  0  0
  2 31  1  0  0  0  0
  3  4  2  0  0  0  0
  3  5  1  0  0  0  0
  5 27  1  0  0  0  0
  5  6  1  0  0  0  0
  5  7  1  0  0  0  0
  6 32  1  0  0  0  0
  6 33  1  0  0  0  0
  6 34  1  0  0  0  0
  7  8  1  0  0  0  0
  7 35  1  0  0  0  0
  7 36  1  0  0  0  0
  8  9  1  0  0  0  0
  8 37  1  0  0  0  0
  8 38  1  0  0  0  0
  9 10  1  0  0  0  0
  9 27  1  0  0  0  0
 10 15  1  0  0  0  0
 10 11  2  0  0  0  0
 11 12  1  0  0  0  0
 12 13  2  0  0  0  0
 12 39  1  0  0  0  0
 13 14  1  0  0  0  0
 14 18  1  0  0  0  0
 14 15  2  0  0  0  0
 15 16  1  0  0  0  0
 16 17  2  0  0  0  0
 17 18  1  0  0  0  0
 17 40  1  0  0  0  0
 18 19  1  0  0  0  0
 19 20  1  0  0  0  0
 19 41  1  0  0  0  0
 19 42  1  0  0  0  0
 20 21  1  0  0  0  0
 20 22  1  0  0  0  0
 20 43  1  0  0  0  0
 21 44  1  0  0  0  0
 22 26  1  0  0  0  0
 22 23  1  0  0  0  0
 22 45  1  0  0  0  0
 23 24  1  0  0  0  0
 23 46  1  0  0  0  0
 23 47  1  0  0  0  0
 24 25  1  0  0  0  0
 24 48  1  0  0  0  0
 24 49  1  0  0  0  0
 25 26  1  0  0  0  0
 25 50  1  0  0  0  0
 25 51  1  0  0  0  0
 27 52  1  0  0  0  0
 27 53  1  0  0  0  0
M  END
> <s_m_source_file>
AV-unprocessed.smi

> <i_m_source_file_index>
260

> <i_lp_mmshare_version>
43012

> <i_f3d_flags>
0

> <s_epik_input>
W0NIM11bTkhdQyg9TylbQ0BAXTEoW0NIM10pW0NIMl1bQ0gyXU4oW0NIMl0xKWMobltjSF1uMiljKGMyMyluW2NIXW4zW0NIMl1bQ0BIXShbT0hdKVtDQEBIXTRbQ0gyXVtDSDJdW0NIMl1PNA==

> <s_epik_cmdline>
J2VwaWtfcHl0aG9uJywgJy1waCcsICc3LjAnLCAnLXRuJywgJzgnLCAnLW1hJywgJzIwMCcsICctbWV0YWxfYmluZGluZycsICctaW1hZScsICc8aW5maWxlLm1hZT4nLCAnLW9tYWUnLCAnPG91dGZpbGUubWFlPic=

> <r_lp_tautomer_probability>
1

> <r_epik_Ionization_Penalty>
0.00115068

> <r_epik_Ionization_Penalty_Charging>
0

> <r_epik_Ionization_Penalty_Neutral>
0.00115068

> <r_epik_State_Penalty>
0.000668876

> <r_epik_Charging_Adjusted_Penalty>
0.000668876

> <i_epik_Tot_Q>
0

> <i_epik_Tot_abs_Q>
0

> <r_epik_Metal_State_Penalty>
-0

> <b_epik_Metal_Only>
0

> <s_lp_Force_Field>
OPLS_2005

> <r_lp_Energy>
50.4513

> <b_lp_Chiralities_Consistent>
1

> <s_lp_Variant>
AV-unprocessed.smi:260-5

> <Gold.Version>
5.8.1

> <Gold.Id.Protein>
6NUR|6NUR_protein|mol2

> <Gold.PLP.Fitness>
49.2944

> <Gold.PLP.PLP>
-42.2178

> <Gold.PLP.part.hbond>
-4.5151

> <Gold.PLP.part.metal>
0.0000

> <Gold.PLP.part.buried>
-7.6574

> <Gold.PLP.part.nonpolar>
-31.4929

> <Gold.PLP.part.repulsive>
0.2135

> <Gold.PLP.ligand.clash>
0.0000

> <Gold.PLP.ligand.torsion>
2.4417

> <Gold.PLP.Chemscore.Hbond>
3.8553

> <Gold.PLP.Chemscore.CHOScore>
0.0000

> <Gold.PLP.Chemscore.Metal>
0.0000

> <Gold.Chemscore.Hbonds>
donor molecule, donor type, donor heavy atom, donor atom, acceptor molecule, acceptor atom, score
      L1  H    21    44       P1  8028  0.89
      P1  H  6896  6909       L1     4  0.08
      P1  H  7989  7998       L1    13  0.98
      P1  H 10752 10765       L1    11  0.55

> <Gold.PLP.Chemscore.Internal.Correction>
0.3941

> <Gold.Rescore>
     Score         DG    S(hbond)    S(metal)    S(lipo)     H(rot)  DE(clash)    DE(int)     intcor
     14.57     -17.20       2.65        0.00      79.83       2.53       0.38       2.26       ----

> <Gold.Chemscore.Fitness>
14.5658

> <Gold.Chemscore.DG>
-17.2026

> <Gold.Chemscore.ZeroCoef>
-5.4800

> <Gold.Chemscore.Hbond>
2.6494

> <Gold.Chemscore.Metal>
0.0000

> <Gold.Chemscore.Lipo>
79.8287

> <Gold.Chemscore.Internal_Hbond>
0.0000

> <Gold.Chemscore.DEClash>
0.3800

> <Gold.Chemscore.DEInternal>
2.2568

> <Gold.Chemscore.Rot>
2.5259

> <Gold.Chemscore.Internal.Correction>
   9.000000E+99

> <Gold.Chemscore.Hbonds>
donor molecule, donor type, donor heavy atom, donor atom, acceptor molecule, acceptor atom, score
      L1  H    21    44       P1  8028  0.72
      P1  H  6896  6909       L1     4  0.09
      P1  H  7989  7998       L1    13  0.35
      P1  H 10752 10765       L1    11  0.37

> <Gold.Chemscore.Hbond.Weighted>
-8.8490

> <Gold.Chemscore.Metal.Weighted>
-0.0000

> <Gold.Chemscore.Lipo.Weighted>
-9.3400

> <Gold.Chemscore.Internal_Hbond.Weighted>
0.0000

> <Gold.Chemscore.DEClash.Weighted>
0.3800

> <Gold.Chemscore.DEInternal.Weighted>
2.2568

> <Gold.Chemscore.Rot.Weighted>
6.4663

> <Gold.Chemscore.Internal.Correction.Weighted>
   9.000000E+99

> <Gold.Protein.RotatedTorsions>
[ 6907 6896 6895 6894 ] final   26.42 input  -60.11 | X-H torsion
[ 7974 7965 7964 7962 ] final  -38.94 input  175.53 | X-H torsion
[ 8008 7997 7996 7995 ] final  -65.33 input   59.86 | X-H torsion
[ 10167 10162 10161 10158 ] final -131.10 input  -65.29 | X-H torsion
[ 10718 10713 10712 10709 ] final -161.92 input   66.30 | X-H torsion
[ 10763 10752 10751 10750 ] final -178.14 input  -60.55 | X-H torsion
[ 11005 11000 10999 10996 ] final  172.88 input  -57.11 | X-H torsion

> <Gold.Protein.ActiveResidues>
 VAL166  LYS551  ARG553  GLY616  TRP617  ASP618  TYR619  PRO620  LYS621  CYS622 
 ASP623  PHE694  ASN695  SER759  ASP760  ASP761  ALA762  ILE779  LEU786  VAL792 
 PHE793  MET794  SER795  GLU796  ALA797  LYS798  CYS799  TRP800  GLU811  SER814 

> <Gold.Protein.RotatedAtoms>
  151.9871  134.9998  160.0559 H   0  0  0  0  0  0  0  0  0  0  0  0  # atno 6907 bound_to 6896
  152.1642  133.4597  159.4885 H   0  0  0  0  0  0  0  0  0  0  0  0  # atno 6908 bound_to 6896
  150.6892  134.1951  159.4343 H   0  0  0  0  0  0  0  0  0  0  0  0  # atno 6909 bound_to 6896
  146.0441  140.6569  142.9073 H   0  0  0  0  0  0  0  0  0  0  0  0  # atno 7974 bound_to 7965
  154.4665  140.0935  156.7033 H   0  0  0  0  0  0  0  0  0  0  0  0  # atno 8008 bound_to 7997
  155.4844  140.3468  155.4326 H   0  0  0  0  0  0  0  0  0  0  0  0  # atno 8009 bound_to 7997
  156.0965  140.1411  156.9512 H   0  0  0  0  0  0  0  0  0  0  0  0  # atno 8010 bound_to 7997
  139.9224  143.6367  152.2550 H   0  0  0  0  0  0  0  0  0  0  0  0  # atno 10167 bound_to 10162
  156.6031  130.8819  151.2919 H   0  0  0  0  0  0  0  0  0  0  0  0  # atno 10718 bound_to 10713
  154.5514  135.2813  155.1005 H   0  0  0  0  0  0  0  0  0  0  0  0  # atno 10763 bound_to 10752
  154.2450  135.6350  153.5224 H   0  0  0  0  0  0  0  0  0  0  0  0  # atno 10764 bound_to 10752
  153.0004  135.5569  154.6081 H   0  0  0  0  0  0  0  0  0  0  0  0  # atno 10765 bound_to 10752
  140.3345  134.7329  157.4158 H   0  0  0  0  0  0  0  0  0  0  0  0  # atno 11005 bound_to 11000
  144.7089  140.3962  143.7096 LP  0  0  0  0  0  0  0  0  0  0  0  0  # atno 17320 bound_to 7965
  145.6835  139.1623  143.2687 LP  0  0  0  0  0  0  0  0  0  0  0  0  # atno 17321 bound_to 7965
  139.6850  144.7652  151.1539 LP  0  0  0  0  0  0  0  0  0  0  0  0  # atno 17342 bound_to 10162
  140.7659  143.5670  150.9037 LP  0  0  0  0  0  0  0  0  0  0  0  0  # atno 17343 bound_to 10162
  157.7274  130.9642  150.1698 LP  0  0  0  0  0  0  0  0  0  0  0  0  # atno 17370 bound_to 10713
  156.2452  130.3695  149.8293 LP  0  0  0  0  0  0  0  0  0  0  0  0  # atno 17371 bound_to 10713
  140.0833  134.5701  155.8518 LP  0  0  0  0  0  0  0  0  0  0  0  0  # atno 17394 bound_to 11000
  141.2055  133.6647  156.6183 LP  0  0  0  0  0  0  0  0  0  0  0  0  # atno 17395 bound_to 11000

$$$$
