AV-unprocessed.smi:3337|AV-procd|sdf|12862|dock6
  -GOLD-   2272019263D 1   1.00000     0.00000
 Structure written by MMmdl.
 46 47  0  0  0  0  0  0  0  0  2 V2000
  145.5855  131.6912  150.7281 C   0  0  0  0  0  0  0  0  0  0  0  0
  145.8871  132.5318  151.9767 C   0  0  1  0  0  0  0  0  0  0  0  0
  146.5196  131.6769  153.0884 C   0  0  0  0  0  0  0  0  0  0  0  0
  146.8574  132.5359  154.3195 C   0  0  1  0  0  0  0  0  0  0  0  0
  147.5101  131.6945  155.4253 C   0  0  0  0  0  0  0  0  0  0  0  0
  147.7571  133.7200  153.9072 C   0  0  0  0  0  0  0  0  0  0  0  0
  147.1407  134.5480  152.8372 N   0  3  2  0  0  0  0  0  0  0  0  0
  146.0456  135.4291  153.3243 C   0  0  0  0  0  0  0  0  0  0  0  0
  146.4227  136.1742  154.6201 C   0  0  0  0  0  0  0  0  0  0  0  0
  147.7684  136.7309  154.5474 N   0  0  0  0  0  0  0  0  0  0  0  0
  148.4280  137.2773  155.5815 C   0  0  0  0  0  0  0  0  0  0  0  0
  147.9555  137.3403  156.7173 O   0  0  0  0  0  0  0  0  0  0  0  0
  149.8286  137.8344  155.2819 C   0  0  2  0  0  0  0  0  0  0  0  0
  150.9490  137.0098  155.9472 C   0  0  0  0  0  0  0  0  0  0  0  0
  149.8981  139.2457  155.6401 N   0  0  0  0  0  0  0  0  0  0  0  0
  150.5802  139.8509  156.6150 C   0  0  0  0  0  0  0  0  0  0  0  0
  150.4460  141.1694  156.6284 N   0  0  0  0  0  0  0  0  0  0  0  0
  149.6166  141.3253  155.5544 C   0  0  0  0  0  0  0  0  0  0  0  0
  149.2665  140.2066  154.9202 N   0  0  0  0  0  0  0  0  0  0  0  0
  146.7995  133.7321  151.6391 C   0  0  0  0  0  0  0  0  0  0  0  0
  146.4973  131.2763  150.2971 H   0  0  0  0  0  0  0  0  0  0  0  0
  145.0970  132.2915  149.9599 H   0  0  0  0  0  0  0  0  0  0  0  0
  144.9214  130.8595  150.9655 H   0  0  0  0  0  0  0  0  0  0  0  0
  144.9317  132.9089  152.3418 H   0  0  0  0  0  0  0  0  0  0  0  0
  145.8387  130.8730  153.3715 H   0  0  0  0  0  0  0  0  0  0  0  0
  147.4257  131.1973  152.7145 H   0  0  0  0  0  0  0  0  0  0  0  0
  145.9253  132.9331  154.7236 H   0  0  0  0  0  0  0  0  0  0  0  0
  148.4593  131.2710  155.0953 H   0  0  0  0  0  0  0  0  0  0  0  0
  146.8637  130.8683  155.7234 H   0  0  0  0  0  0  0  0  0  0  0  0
  147.7045  132.2960  156.3138 H   0  0  0  0  0  0  0  0  0  0  0  0
  147.9961  134.3424  154.7705 H   0  0  0  0  0  0  0  0  0  0  0  0
  148.7112  133.3412  153.5371 H   0  0  0  0  0  0  0  0  0  0  0  0
  145.7457  136.1291  152.5450 H   0  0  0  0  0  0  0  0  0  0  0  0
  145.1661  134.8192  153.5351 H   0  0  0  0  0  0  0  0  0  0  0  0
  145.7258  136.9946  154.7932 H   0  0  0  0  0  0  0  0  0  0  0  0
  146.3571  135.5242  155.4928 H   0  0  0  0  0  0  0  0  0  0  0  0
  148.2234  136.7176  153.6459 H   0  0  0  0  0  0  0  0  0  0  0  0
  149.9818  137.7708  154.2030 H   0  0  0  0  0  0  0  0  0  0  0  0
  150.9111  135.9676  155.6283 H   0  0  0  0  0  0  0  0  0  0  0  0
  150.8798  137.0243  157.0357 H   0  0  0  0  0  0  0  0  0  0  0  0
  151.9305  137.3990  155.6753 H   0  0  0  0  0  0  0  0  0  0  0  0
  151.1901  139.3168  157.3287 H   0  0  0  0  0  0  0  0  0  0  0  0
  149.2656  142.2928  155.2262 H   0  0  0  0  0  0  0  0  0  0  0  0
  147.7325  133.3651  151.2089 H   0  0  0  0  0  0  0  0  0  0  0  0
  146.3427  134.3510  150.8679 H   0  0  0  0  0  0  0  0  0  0  0  0
  147.8686  135.1835  152.5432 H   0  0  0  0  0  0  0  0  0  0  0  0
  1  2  1  0  0  0  0
  1 21  1  0  0  0  0
  1 22  1  0  0  0  0
  1 23  1  0  0  0  0
  2 20  1  0  0  0  0
  2  3  1  0  0  0  0
  2 24  1  0  0  0  0
  3  4  1  0  0  0  0
  3 25  1  0  0  0  0
  3 26  1  0  0  0  0
  4  5  1  0  0  0  0
  4  6  1  0  0  0  0
  4 27  1  0  0  0  0
  5 28  1  0  0  0  0
  5 29  1  0  0  0  0
  5 30  1  0  0  0  0
  6  7  1  0  0  0  0
  6 31  1  0  0  0  0
  6 32  1  0  0  0  0
  7  8  1  0  0  0  0
  7 20  1  0  0  0  0
  7 46  1  0  0  0  0
  8  9  1  0  0  0  0
  8 33  1  0  0  0  0
  8 34  1  0  0  0  0
  9 10  1  0  0  0  0
  9 35  1  0  0  0  0
  9 36  1  0  0  0  0
 10 11  1  0  0  0  0
 10 37  1  0  0  0  0
 11 12  2  0  0  0  0
 11 13  1  0  0  0  0
 13 14  1  0  0  0  0
 13 15  1  0  0  0  0
 13 38  1  0  0  0  0
 14 39  1  0  0  0  0
 14 40  1  0  0  0  0
 14 41  1  0  0  0  0
 15 19  1  0  0  0  0
 15 16  1  0  0  0  0
 16 17  2  0  0  0  0
 16 42  1  0  0  0  0
 17 18  1  0  0  0  0
 18 19  2  0  0  0  0
 18 43  1  0  0  0  0
 20 44  1  0  0  0  0
 20 45  1  0  0  0  0
M  CHG  1   7   1
M  END
> <s_m_source_file>
AV-unprocessed.smi

> <i_m_source_file_index>
3337

> <i_lp_mmshare_version>
43012

> <i_f3d_flags>
0

> <s_epik_input>
W0NIM11bQ0BASF0xW0NIMl1bQ0BASF0oW0NIM10pW0NIMl1OKFtDSDJdMSlbQ0gyXVtDSDJdW05IXUMoPU8pW0NASF0oW0NIM10pbjJbY0hdbltjSF1uMg==

> <s_epik_cmdline>
J2VwaWtfcHl0aG9uJywgJy1waCcsICc3LjAnLCAnLXRuJywgJzgnLCAnLW1hJywgJzIwMCcsICctbWV0YWxfYmluZGluZycsICctaW1hZScsICc8aW5maWxlLm1hZT4nLCAnLW9tYWUnLCAnPG91dGZpbGUubWFlPic=

> <r_lp_tautomer_probability>
1

> <r_epik_Ionization_Penalty>
0.00175613

> <r_epik_Ionization_Penalty_Charging>
0.00174812

> <r_epik_Ionization_Penalty_Neutral>
8.01354e-06

> <r_epik_State_Penalty>
0.00118332

> <r_epik_Charging_Adjusted_Penalty>
0.00293143

> <i_epik_Tot_Q>
1

> <i_epik_Tot_abs_Q>
1

> <r_epik_Metal_State_Penalty>
-0

> <b_epik_Metal_Only>
0

> <s_lp_Force_Field>
OPLS_2005

> <r_lp_Energy>
24.5444

> <b_lp_Chiralities_Consistent>
1

> <s_lp_Variant>
AV-unprocessed.smi:3337-2

> <Gold.Version>
5.8.1

> <Gold.Id.Protein>
6NUR|6NUR_protein|mol2

> <Gold.PLP.Fitness>
42.2927

> <Gold.PLP.PLP>
-31.2600

> <Gold.PLP.part.hbond>
-2.5750

> <Gold.PLP.part.metal>
0.0000

> <Gold.PLP.part.buried>
-0.5108

> <Gold.PLP.part.nonpolar>
-28.5659

> <Gold.PLP.part.repulsive>
0.2058

> <Gold.PLP.ligand.clash>
0.0000

> <Gold.PLP.ligand.torsion>
0.5386

> <Gold.PLP.Chemscore.Hbond>
3.0000

> <Gold.PLP.Chemscore.CHOScore>
0.9922

> <Gold.PLP.Chemscore.Metal>
0.0000

> <Gold.Chemscore.Hbonds>
donor molecule, donor type, donor heavy atom, donor atom, acceptor molecule, acceptor atom, score
      L1  H     7    46       P1  7948  2.00
      L1  H    10    37       P1  7948  1.00
      L1  C    18    43       P1  8028  1.00

> <Gold.PLP.Chemscore.Internal.Correction>
0.1332

> <Gold.Rescore>
     Score         DG    S(hbond)    S(metal)    S(lipo)     H(rot)  DE(clash)    DE(int)     intcor
     11.97     -12.43       1.88        0.00      60.70       2.51       0.09       0.37       ----

> <Gold.Chemscore.Fitness>
11.9658

> <Gold.Chemscore.DG>
-12.4255

> <Gold.Chemscore.ZeroCoef>
-5.4800

> <Gold.Chemscore.Hbond>
1.8791

> <Gold.Chemscore.Metal>
0.0000

> <Gold.Chemscore.Lipo>
60.7045

> <Gold.Chemscore.Internal_Hbond>
0.0000

> <Gold.Chemscore.DEClash>
0.0898

> <Gold.Chemscore.DEInternal>
0.3700

> <Gold.Chemscore.Rot>
2.5129

> <Gold.Chemscore.Internal.Correction>
   9.000000E+99

> <Gold.Chemscore.Hbonds>
donor molecule, donor type, donor heavy atom, donor atom, acceptor molecule, acceptor atom, score
      L1  H     7    46       P1  7948  0.98
      L1  H    10    37       P1  7948  0.97

> <Gold.Chemscore.Hbond.Weighted>
-6.2762

> <Gold.Chemscore.Metal.Weighted>
-0.0000

> <Gold.Chemscore.Lipo.Weighted>
-7.1024

> <Gold.Chemscore.Internal_Hbond.Weighted>
0.0000

> <Gold.Chemscore.DEClash.Weighted>
0.0898

> <Gold.Chemscore.DEInternal.Weighted>
0.3700

> <Gold.Chemscore.Rot.Weighted>
6.4331

> <Gold.Chemscore.Internal.Correction.Weighted>
   9.000000E+99

> <Gold.Protein.RotatedTorsions>
[ 6907 6896 6895 6894 ] final  172.52 input  -60.11 | X-H torsion
[ 7974 7965 7964 7962 ] final  -50.25 input  175.53 | X-H torsion
[ 8008 7997 7996 7995 ] final -136.77 input   59.86 | X-H torsion
[ 10167 10162 10161 10158 ] final  109.53 input  -65.29 | X-H torsion
[ 10718 10713 10712 10709 ] final   10.24 input   66.30 | X-H torsion
[ 10763 10752 10751 10750 ] final   61.89 input  -60.55 | X-H torsion
[ 11005 11000 10999 10996 ] final -113.40 input  -57.11 | X-H torsion

> <Gold.Protein.ActiveResidues>
 VAL166  LYS551  ARG553  GLY616  TRP617  ASP618  TYR619  PRO620  LYS621  CYS622 
 ASP623  PHE694  ASN695  SER759  ASP760  ASP761  ALA762  ILE779  LEU786  VAL792 
 PHE793  MET794  SER795  GLU796  ALA797  LYS798  CYS799  TRP800  GLU811  SER814 

> <Gold.Protein.RotatedAtoms>
  151.7829  133.3351  159.3476 H   0  0  0  0  0  0  0  0  0  0  0  0  # atno 6907 bound_to 6896
  150.7419  134.5914  159.5999 H   0  0  0  0  0  0  0  0  0  0  0  0  # atno 6908 bound_to 6896
  152.3263  134.7317  160.0352 H   0  0  0  0  0  0  0  0  0  0  0  0  # atno 6909 bound_to 6896
  145.9319  140.7741  142.9595 H   0  0  0  0  0  0  0  0  0  0  0  0  # atno 7974 bound_to 7965
  155.4008  140.0506  157.3037 H   0  0  0  0  0  0  0  0  0  0  0  0  # atno 8008 bound_to 7997
  154.4992  140.2150  155.9344 H   0  0  0  0  0  0  0  0  0  0  0  0  # atno 8009 bound_to 7997
  156.1445  140.3148  155.8553 H   0  0  0  0  0  0  0  0  0  0  0  0  # atno 8010 bound_to 7997
  139.6760  144.7122  151.1602 H   0  0  0  0  0  0  0  0  0  0  0  0  # atno 10167 bound_to 10162
  156.9781  130.5995  149.5674 H   0  0  0  0  0  0  0  0  0  0  0  0  # atno 10718 bound_to 10713
  152.9965  135.5484  154.6106 H   0  0  0  0  0  0  0  0  0  0  0  0  # atno 10763 bound_to 10752
  154.5428  135.2821  155.1082 H   0  0  0  0  0  0  0  0  0  0  0  0  # atno 10764 bound_to 10752
  154.2353  135.6426  153.5241 H   0  0  0  0  0  0  0  0  0  0  0  0  # atno 10765 bound_to 10752
  141.0617  133.9525  157.2655 H   0  0  0  0  0  0  0  0  0  0  0  0  # atno 11005 bound_to 11000
  144.6766  140.2141  143.7374 LP  0  0  0  0  0  0  0  0  0  0  0  0  # atno 17320 bound_to 7965
  145.8415  139.2132  143.1825 LP  0  0  0  0  0  0  0  0  0  0  0  0  # atno 17321 bound_to 7965
  140.7635  143.5772  150.8933 LP  0  0  0  0  0  0  0  0  0  0  0  0  # atno 17342 bound_to 10162
  139.9441  143.6348  152.3046 LP  0  0  0  0  0  0  0  0  0  0  0  0  # atno 17343 bound_to 10162
  156.0255  130.5349  150.8395 LP  0  0  0  0  0  0  0  0  0  0  0  0  # atno 17370 bound_to 10713
  157.5545  131.0944  150.9647 LP  0  0  0  0  0  0  0  0  0  0  0  0  # atno 17371 bound_to 10713
  139.9438  135.0187  156.8791 LP  0  0  0  0  0  0  0  0  0  0  0  0  # atno 17394 bound_to 11000
  140.5856  134.0311  155.7480 LP  0  0  0  0  0  0  0  0  0  0  0  0  # atno 17395 bound_to 11000

$$$$
