#       Name:                AV-unprocessed.smi:2410
#       Creating user name   scv26
#       Creation time:       Fri Mar 27 13:16:11 2020


#       File generated by GOLD software.
#

@<TRIPOS>MOLECULE
AV-unprocessed.smi:2410
    52    54     1
SMALL
NO_CHARGES


@<TRIPOS>ATOM
      1 ****        -2.0813   4.7203  -2.4044 C.3            1 S1                 0.0000
      2 ****        -2.1993   3.4903  -1.5207 C.ar           1 S1                 0.0000
      3 ****        -2.9767   3.5777  -0.3433 C.ar           1 S1                 0.0000
      4 ****        -3.0663   2.4356   0.4438 C.ar           1 S1                 0.0000
      5 ****        -3.7409   2.1992   1.6440 N.pl3          1 S1                 1.0000
      6 ****        -3.5310   0.9121   2.0378 C.2            1 S1                 0.0000
      7 ****        -2.7317   0.3247   1.1066 N.pl3          1 S1                 0.0000
      8 ****        -2.1991  -1.0416   1.0359 C.3            1 S1                 0.0000
      9 ****        -0.7269  -1.1266   1.4831 C.3            1 S1                 0.0000
     10 ****        -0.6619  -0.7881   2.8549 O.3            1 S1                 0.0000
     11 ****        -0.1470  -2.5440   1.2858 C.3            1 S1                 0.0000
     12 ****         1.3095  -2.5189   1.0740 N.am           1 S1                 0.0000
     13 ****         2.1063  -2.8422   2.1840 C.2            1 S1                 0.0000
     14 ****         3.3971  -2.8548   2.1123 N.2            1 S1                 0.0000
     15 ****         4.0320  -2.5364   0.9081 C.2            1 S1                 0.0000
     16 ****         5.5493  -2.5873   0.9338 C.3            1 S1                 0.0000
     17 ****         3.3174  -2.2035  -0.2014 C.2            1 S1                 0.0000
     18 ****         3.9540  -1.8458  -1.5385 C.3            1 S1                 0.0000
     19 ****         1.8474  -2.1796  -0.1336 C.2            1 S1                 0.0000
     20 ****         1.1373  -1.8709  -1.0934 O.2            1 S1                 0.0000
     21 ****        -2.4165   1.2365   0.0943 C.ar           1 S1                 0.0000
     22 ****        -1.6454   1.1327  -1.0607 C.ar           1 S1                 0.0000
     23 ****        -1.5408   2.2836  -1.8738 C.ar           1 S1                 0.0000
     24 ****        -0.7066   2.2002  -3.1407 C.3            1 S1                 0.0000
     25 ****        -2.6655   5.5527  -2.0107 H              1 S1                 0.0000
     26 ****        -2.4438   4.5067  -3.4102 H              1 S1                 0.0000
     27 ****        -1.0424   5.0444  -2.4712 H              1 S1                 0.0000
     28 ****        -3.4796   4.4930  -0.0675 H              1 S1                 0.0000
     29 ****        -3.9250   0.4438   2.9283 H              1 S1                 0.0000
     30 ****        -2.8295  -1.6800   1.6566 H              1 S1                 0.0000
     31 ****        -2.3165  -1.3942   0.0103 H              1 S1                 0.0000
     32 ****        -0.1431  -0.3963   0.9221 H              1 S1                 0.0000
     33 ****        -1.1606  -1.4232   3.3459 H              1 S1                 0.0000
     34 ****        -0.4389  -3.1994   2.1093 H              1 S1                 0.0000
     35 ****        -0.6031  -3.0051   0.4078 H              1 S1                 0.0000
     36 ****         1.5630  -3.0762   3.1011 H              1 S1                 0.0000
     37 ****         5.9191  -3.3251   0.2213 H              1 S1                 0.0000
     38 ****         5.9212  -2.8614   1.9219 H              1 S1                 0.0000
     39 ****         5.9689  -1.6137   0.6785 H              1 S1                 0.0000
     40 ****         3.6637  -0.8371  -1.8348 H              1 S1                 0.0000
     41 ****         3.6172  -2.5367  -2.3121 H              1 S1                 0.0000
     42 ****         5.0421  -1.8810  -1.5193 H              1 S1                 0.0000
     43 ****        -1.1438   0.2138  -1.3279 H              1 S1                 0.0000
     44 ****        -0.2400   1.2203  -3.2467 H              1 S1                 0.0000
     45 ****         0.0878   2.9466  -3.1285 H              1 S1                 0.0000
     46 ****        -1.3297   2.3702  -4.0189 H              1 S1                 0.0000
     47 ****        -4.3026   2.8653   2.1589 H              1 S1                 0.0000
     48 ****        -1.0467   0.1241   2.9954 LP             1 S1                 0.0000
     49 ****         0.2905  -0.7988   3.1598 LP             1 S1                 0.0000
     50 ****         3.9409  -3.0921   2.9173 LP             1 S1                 0.0000
     51 ****         0.1420  -1.8652  -0.9976 LP             1 S1                 0.0000
     52 ****         1.5569  -1.6263  -1.9676 LP             1 S1                 0.0000
@<TRIPOS>BOND
    1    1    2 1     
    2    1   25 1     
    3    1   26 1     
    4    1   27 1     
    5    2   23 ar    
    6    2    3 ar    
    7    3    4 ar    
    8    3   28 1     
    9    4   21 ar    
   10    4    5 1     
   11    5    6 2     
   12    5   47 1     
   13    6    7 1     
   14    6   29 1     
   15    7    8 1     
   16    7   21 1     
   17    8    9 1     
   18    8   30 1     
   19    8   31 1     
   20    9   10 1     
   21    9   11 1     
   22    9   32 1     
   23   10   33 1     
   24   11   12 1     
   25   11   34 1     
   26   11   35 1     
   27   12   19 am    
   28   12   13 1     
   29   13   14 2     
   30   13   36 1     
   31   14   15 1     
   32   15   16 1     
   33   15   17 2     
   34   16   37 1     
   35   16   38 1     
   36   16   39 1     
   37   17   18 1     
   38   17   19 1     
   39   18   40 1     
   40   18   41 1     
   41   18   42 1     
   42   19   20 2     
   43   21   22 ar    
   44   22   23 ar    
   45   22   43 1     
   46   23   24 1     
   47   24   44 1     
   48   24   45 1     
   49   24   46 1     
   50   10   48 1     
   51   10   49 1     
   52   14   50 1     
   53   20   51 1     
   54   20   52 1     
@<TRIPOS>SUBSTRUCTURE
      1 S1             1
@<TRIPOS>SET
LONE_PAIRS      STATIC     ATOMS    <user>   **** ""
5 48 49 50 51 52
DONOR_HYDROGENS      STATIC     ATOMS    <user>   **** ""
2 47 33
ATOM$BLUE        STATIC     ATOMS    COLORGROUP SYSTEM
5 48 49 50 51 52
ATOM$RED        STATIC     ATOMS    COLORGROUP SYSTEM
2 47 33
