AV-unprocessed.smi:55|AV-procd|sdf|568|dock1
  -GOLD-   2262016473D 1   1.00000     0.00000
 Structure written by MMmdl.
 31 32  0  0  0  0  0  0  0  0  1 V2000
  141.1322  137.7564  152.9613 C   0  0  0  0  0  0  0  0  0  0  0  0
  142.2061  136.6944  153.1298 C   0  0  0  0  0  0  0  0  0  0  0  0
  143.5152  136.9350  152.8631 C   0  0  0  0  0  0  0  0  0  0  0  0
  144.5185  135.9865  153.0037 N   0  0  0  0  0  0  0  0  0  0  0  0
  145.9573  136.3292  152.6879 C   0  0  1  0  0  0  0  0  0  0  0  0
  146.0649  137.0419  151.3358 C   0  0  0  0  0  0  0  0  0  0  0  0
  146.3211  138.4800  151.7460 C   0  0  2  0  0  0  0  0  0  0  0  0
  147.0862  139.1571  150.7700 O   0  0  0  0  0  0  0  0  0  0  0  0
  147.0741  138.3158  153.0685 C   0  0  1  0  0  0  0  0  0  0  0  0
  146.9681  139.5384  153.9924 C   0  0  0  0  0  0  0  0  0  0  0  0
  145.6118  139.8268  154.2567 O   0  0  0  0  0  0  0  0  0  0  0  0
  146.4327  137.1966  153.6731 O   0  0  0  0  0  0  0  0  0  0  0  0
  144.1838  134.6868  153.4390 C   0  0  0  0  0  0  0  0  0  0  0  0
  145.0113  133.7856  153.5691 O   0  0  0  0  0  0  0  0  0  0  0  0
  142.8403  134.4404  153.7174 N   0  0  0  0  0  0  0  0  0  0  0  0
  141.8006  135.3655  153.5951 C   0  0  0  0  0  0  0  0  0  0  0  0
  140.6510  135.0270  153.8716 O   0  0  0  0  0  0  0  0  0  0  0  0
  146.5389  135.4074  152.7305 H   0  0  0  0  0  0  0  0  0  0  0  0
  145.3749  139.0000  151.9006 H   0  0  0  0  0  0  0  0  0  0  0  0
  148.1163  138.0598  152.8662 H   0  0  0  0  0  0  0  0  0  0  0  0
  142.5972  133.5125  154.0318 H   0  0  0  0  0  0  0  0  0  0  0  0
  141.5507  138.7051  152.6247 H   0  0  0  0  0  0  0  0  0  0  0  0
  140.6197  137.9341  153.9072 H   0  0  0  0  0  0  0  0  0  0  0  0
  140.3932  137.4371  152.2256 H   0  0  0  0  0  0  0  0  0  0  0  0
  143.7881  137.9223  152.5214 H   0  0  0  0  0  0  0  0  0  0  0  0
  146.9193  136.6255  150.8000 H   0  0  0  0  0  0  0  0  0  0  0  0
  145.1701  136.9117  150.7252 H   0  0  0  0  0  0  0  0  0  0  0  0
  147.9848  139.1911  151.0610 H   0  0  0  0  0  0  0  0  0  0  0  0
  147.4497  139.3299  154.9482 H   0  0  0  0  0  0  0  0  0  0  0  0
  147.4664  140.4070  153.5607 H   0  0  0  0  0  0  0  0  0  0  0  0
  145.1199  139.7193  153.4571 H   0  0  0  0  0  0  0  0  0  0  0  0
  1  2  1  0  0  0  0
  1 22  1  0  0  0  0
  1 23  1  0  0  0  0
  1 24  1  0  0  0  0
  2 16  1  0  0  0  0
  2  3  2  0  0  0  0
  3  4  1  0  0  0  0
  3 25  1  0  0  0  0
  4  5  1  0  0  0  0
  4 13  1  0  0  0  0
  5 18  1  0  0  0  0
  5 12  1  0  0  0  0
  5  6  1  0  0  0  0
  6  7  1  0  0  0  0
  6 26  1  0  0  0  0
  6 27  1  0  0  0  0
  7 19  1  0  0  0  0
  7  8  1  0  0  0  0
  7  9  1  0  0  0  0
  8 28  1  0  0  0  0
  9 20  1  0  0  0  0
  9 10  1  0  0  0  0
  9 12  1  0  0  0  0
 10 11  1  0  0  0  0
 10 29  1  0  0  0  0
 10 30  1  0  0  0  0
 11 31  1  0  0  0  0
 13 14  2  0  0  0  0
 13 15  1  0  0  0  0
 15 21  1  0  0  0  0
 15 16  1  0  0  0  0
 16 17  2  0  0  0  0
M  END
> <s_m_source_file>
AV-unprocessed.smi

> <i_m_source_file_index>
55

> <i_lp_mmshare_version>
43012

> <i_f3d_flags>
0

> <s_epik_input>
Tz1jMVtuSF1jKD1PKW4oW2NIXWMxW0NIM10pW0NAQEhdMltDSDJdW0NAQEhdKFtPSF0pW0NAQEhdKE8yKVtDSDJdW09IXQ==

> <s_epik_cmdline>
J2VwaWtfcHl0aG9uJywgJy1waCcsICc3LjAnLCAnLXRuJywgJzgnLCAnLW1hJywgJzIwMCcsICctbWV0YWxfYmluZGluZycsICctaW1hZScsICc8aW5maWxlLm1hZT4nLCAnLW9tYWUnLCAnPG91dGZpbGUubWFlPic=

> <r_lp_tautomer_probability>
0.999537

> <r_epik_Ionization_Penalty>
0.00121888

> <r_epik_Ionization_Penalty_Charging>
0.00121876

> <r_epik_Ionization_Penalty_Neutral>
1.19946e-07

> <r_epik_State_Penalty>
0.000805124

> <r_epik_Charging_Adjusted_Penalty>
0.00202389

> <i_epik_Tot_Q>
0

> <i_epik_Tot_abs_Q>
0

> <r_epik_Metal_State_Penalty>
0.662472

> <b_epik_Metal_Only>
0

> <s_epik_Chemistry_Notes>
This compound contains an acetal/aminal-like group ( X-CH(R)-Y where X, Y are N, S, or O) that may be acid/base labile, releasing an aldehyde.

> <s_lp_Force_Field>
OPLS_2005

> <r_lp_Energy>
24.9253

> <b_lp_Chiralities_Consistent>
1

> <s_lp_Variant>
AV-unprocessed.smi:55-8

> <Gold.Version>
5.8.1

> <Gold.Id.Protein>
6NUR|6NUR_protein|mol2

> <Gold.PLP.Fitness>
37.6266

> <Gold.PLP.PLP>
-22.5545

> <Gold.PLP.part.hbond>
-6.3848

> <Gold.PLP.part.metal>
0.0000

> <Gold.PLP.part.buried>
5.7527

> <Gold.PLP.part.nonpolar>
-21.9627

> <Gold.PLP.part.repulsive>
0.4493

> <Gold.PLP.ligand.clash>
0.0000

> <Gold.PLP.ligand.torsion>
0.2382

> <Gold.PLP.Chemscore.Hbond>
4.0000

> <Gold.PLP.Chemscore.CHOScore>
1.1799

> <Gold.PLP.Chemscore.Metal>
0.0000

> <Gold.Chemscore.Hbonds>
donor molecule, donor type, donor heavy atom, donor atom, acceptor molecule, acceptor atom, score
      L1  H     8    28       P1  7957  0.99
      L1  H    11    31       P1 10175  0.83
      L1  H    15    21       P1 10957  1.00
      P1  H 11000 11005       L1    17  1.00
      L1  C     3    25       P1 10171  0.32
      L1  C     3    25       P1 10175  1.00

> <Gold.PLP.Chemscore.Internal.Correction>
0.0089

> <Gold.Rescore>
     Score         DG    S(hbond)    S(metal)    S(lipo)     H(rot)  DE(clash)    DE(int)     intcor
     14.97     -15.91       3.88        0.00      37.95       2.73       0.47       0.47       ----

> <Gold.Chemscore.Fitness>
14.9661

> <Gold.Chemscore.DG>
-15.9079

> <Gold.Chemscore.ZeroCoef>
-5.4800

> <Gold.Chemscore.Hbond>
3.8816

> <Gold.Chemscore.Metal>
0.0000

> <Gold.Chemscore.Lipo>
37.9508

> <Gold.Chemscore.Internal_Hbond>
0.0000

> <Gold.Chemscore.DEClash>
0.4673

> <Gold.Chemscore.DEInternal>
0.4745

> <Gold.Chemscore.Rot>
2.7253

> <Gold.Chemscore.Internal.Correction>
   9.000000E+99

> <Gold.Chemscore.Hbonds>
donor molecule, donor type, donor heavy atom, donor atom, acceptor molecule, acceptor atom, score
      L1  H     8    28       P1  7957  0.42
      L1  H    11    31       P1 10175  0.83
      L1  H    15    21       P1 10957  1.00
      P1  H 11000 11005       L1    17  0.90

> <Gold.Chemscore.Hbond.Weighted>
-12.9645

> <Gold.Chemscore.Metal.Weighted>
-0.0000

> <Gold.Chemscore.Lipo.Weighted>
-4.4402

> <Gold.Chemscore.Internal_Hbond.Weighted>
0.0000

> <Gold.Chemscore.DEClash.Weighted>
0.4673

> <Gold.Chemscore.DEInternal.Weighted>
0.4745

> <Gold.Chemscore.Rot.Weighted>
6.9769

> <Gold.Chemscore.Internal.Correction.Weighted>
   9.000000E+99

> <Gold.Protein.RotatedTorsions>
[ 6907 6896 6895 6894 ] final -159.41 input  -60.11 | X-H torsion
[ 7974 7965 7964 7962 ] final -109.14 input  175.53 | X-H torsion
[ 8008 7997 7996 7995 ] final  -66.66 input   59.86 | X-H torsion
[ 10167 10162 10161 10158 ] final  -30.92 input  -65.29 | X-H torsion
[ 10718 10713 10712 10709 ] final   -3.95 input   66.30 | X-H torsion
[ 10763 10752 10751 10750 ] final -151.22 input  -60.55 | X-H torsion
[ 11005 11000 10999 10996 ] final   27.86 input  -57.11 | X-H torsion

> <Gold.Protein.ActiveResidues>
 VAL166  LYS551  ARG553  GLY616  TRP617  ASP618  TYR619  PRO620  LYS621  CYS622 
 ASP623  PHE694  ASN695  SER759  ASP760  ASP761  ALA762  ILE779  LEU786  VAL792 
 PHE793  MET794  SER795  GLU796  ALA797  LYS798  CYS799  TRP800  GLU811  SER814 

> <Gold.Protein.RotatedAtoms>
  151.3332  133.3992  159.2664 H   0  0  0  0  0  0  0  0  0  0  0  0  # atno 6907 bound_to 6896
  150.9938  134.9267  159.7925 H   0  0  0  0  0  0  0  0  0  0  0  0  # atno 6908 bound_to 6896
  152.5255  134.3297  159.9231 H   0  0  0  0  0  0  0  0  0  0  0  0  # atno 6909 bound_to 6896
  145.1842  140.8985  143.3462 H   0  0  0  0  0  0  0  0  0  0  0  0  # atno 7974 bound_to 7965
  154.4748  140.0908  156.7236 H   0  0  0  0  0  0  0  0  0  0  0  0  # atno 8008 bound_to 7997
  155.4625  140.3461  155.4296 H   0  0  0  0  0  0  0  0  0  0  0  0  # atno 8009 bound_to 7997
  156.1099  140.1445  156.9341 H   0  0  0  0  0  0  0  0  0  0  0  0  # atno 8010 bound_to 7997
  140.7243  143.3811  151.1600 H   0  0  0  0  0  0  0  0  0  0  0  0  # atno 10167 bound_to 10162
  156.7684  130.5292  149.5772 H   0  0  0  0  0  0  0  0  0  0  0  0  # atno 10718 bound_to 10713
  154.8071  135.3265  154.7403 H   0  0  0  0  0  0  0  0  0  0  0  0  # atno 10763 bound_to 10752
  153.8059  135.6899  153.4852 H   0  0  0  0  0  0  0  0  0  0  0  0  # atno 10764 bound_to 10752
  153.1824  135.4582  154.9990 H   0  0  0  0  0  0  0  0  0  0  0  0  # atno 10765 bound_to 10752
  140.3217  134.2536  155.7716 H   0  0  0  0  0  0  0  0  0  0  0  0  # atno 11005 bound_to 11000
  145.0106  139.3514  143.6122 LP  0  0  0  0  0  0  0  0  0  0  0  0  # atno 17320 bound_to 7965
  146.3448  139.9366  142.8746 LP  0  0  0  0  0  0  0  0  0  0  0  0  # atno 17321 bound_to 7965
  139.7399  143.8940  152.3047 LP  0  0  0  0  0  0  0  0  0  0  0  0  # atno 17342 bound_to 10162
  139.8758  144.7044  150.8935 LP  0  0  0  0  0  0  0  0  0  0  0  0  # atno 17343 bound_to 10162
  156.1294  130.6167  151.0310 LP  0  0  0  0  0  0  0  0  0  0  0  0  # atno 17370 bound_to 10713
  157.6702  131.0863  150.7630 LP  0  0  0  0  0  0  0  0  0  0  0  0  # atno 17371 bound_to 10713
  141.2085  133.7776  157.0056 LP  0  0  0  0  0  0  0  0  0  0  0  0  # atno 17394 bound_to 11000
  140.0936  134.9578  157.1814 LP  0  0  0  0  0  0  0  0  0  0  0  0  # atno 17395 bound_to 11000

$$$$
