AV-unprocessed.smi:1586|AV-procd|sdf|6378|dock6
  -GOLD-   22720 7 13D 1   1.00000     0.00000
 Structure written by MMmdl.
 46 47  0  0  0  0  0  0  0  0  1 V2000
  153.1688  141.9531  160.1493 C   0  0  0  0  0  0  0  0  0  0  0  0
  152.1806  142.3261  159.0351 C   0  0  0  0  0  0  0  0  0  0  0  0
  152.0714  141.3469  157.9553 N   0  0  0  0  0  0  0  0  0  0  0  0
  151.7014  140.0351  158.4776 C   0  0  0  0  0  0  0  0  0  0  0  0
  151.6048  138.9833  157.3584 C   0  0  0  0  0  0  0  0  0  0  0  0
  150.6097  139.3417  156.3359 N   0  0  0  0  0  0  0  0  0  0  0  0
  150.5072  138.3274  155.2604 C   0  0  1  0  0  0  0  0  0  0  0  0
  151.7652  138.2909  154.3550 C   0  0  0  0  0  0  0  0  0  0  0  0
  150.2213  136.8955  155.7970 C   0  0  0  0  0  0  0  0  0  0  0  0
  149.5932  136.0254  154.8050 N   0  0  0  0  0  0  0  0  0  0  0  0
  149.2490  134.7429  154.9967 C   0  0  0  0  0  0  0  0  0  0  0  0
  149.4226  134.1398  156.0560 O   0  0  0  0  0  0  0  0  0  0  0  0
  148.7069  134.2144  153.8864 N   0  0  0  0  0  0  0  0  0  0  0  0
  148.2616  132.8821  153.6919 C   0  0  0  0  0  0  0  0  0  0  0  0
  147.0677  132.6112  152.9721 C   0  0  0  0  0  0  0  0  0  0  0  0
  146.9940  131.2469  153.0012 C   0  0  0  0  0  0  0  0  0  0  0  0
  146.0119  130.2722  152.4479 C   0  0  0  0  0  0  0  0  0  0  0  0
  148.0515  130.7296  153.6834 O   0  0  0  0  0  0  0  0  0  0  0  0
  148.8615  131.7832  154.1231 N   0  0  0  0  0  0  0  0  0  0  0  0
  150.9672  140.6769  155.8314 C   0  0  0  0  0  0  0  0  0  0  0  0
  151.0733  141.7245  156.9557 C   0  0  0  0  0  0  0  0  0  0  0  0
  153.1204  142.6782  160.9615 H   0  0  0  0  0  0  0  0  0  0  0  0
  154.1984  141.9362  159.7929 H   0  0  0  0  0  0  0  0  0  0  0  0
  152.9384  140.9727  160.5672 H   0  0  0  0  0  0  0  0  0  0  0  0
  151.2004  142.4498  159.4972 H   0  0  0  0  0  0  0  0  0  0  0  0
  152.4439  143.3026  158.6261 H   0  0  0  0  0  0  0  0  0  0  0  0
  152.4409  139.7078  159.2094 H   0  0  0  0  0  0  0  0  0  0  0  0
  150.7478  140.0959  159.0051 H   0  0  0  0  0  0  0  0  0  0  0  0
  152.5836  138.8430  156.8970 H   0  0  0  0  0  0  0  0  0  0  0  0
  151.3427  138.0419  157.8371 H   0  0  0  0  0  0  0  0  0  0  0  0
  149.6656  138.6006  154.6220 H   0  0  0  0  0  0  0  0  0  0  0  0
  151.6992  137.5290  153.5800 H   0  0  0  0  0  0  0  0  0  0  0  0
  152.6643  138.0887  154.9378 H   0  0  0  0  0  0  0  0  0  0  0  0
  151.9158  139.2228  153.8127 H   0  0  0  0  0  0  0  0  0  0  0  0
  151.1368  136.4533  156.1938 H   0  0  0  0  0  0  0  0  0  0  0  0
  149.5123  136.9193  156.6223 H   0  0  0  0  0  0  0  0  0  0  0  0
  149.4128  136.4332  153.8993 H   0  0  0  0  0  0  0  0  0  0  0  0
  148.6190  134.8263  153.0887 H   0  0  0  0  0  0  0  0  0  0  0  0
  146.3783  133.3011  152.5082 H   0  0  0  0  0  0  0  0  0  0  0  0
  145.3411  130.7556  151.7376 H   0  0  0  0  0  0  0  0  0  0  0  0
  145.4070  129.8399  153.2449 H   0  0  0  0  0  0  0  0  0  0  0  0
  146.5218  129.4594  151.9304 H   0  0  0  0  0  0  0  0  0  0  0  0
  151.9079  140.6302  155.2807 H   0  0  0  0  0  0  0  0  0  0  0  0
  150.2119  141.0413  155.1384 H   0  0  0  0  0  0  0  0  0  0  0  0
  150.0984  141.8538  157.4286 H   0  0  0  0  0  0  0  0  0  0  0  0
  151.3327  142.6838  156.5090 H   0  0  0  0  0  0  0  0  0  0  0  0
  1  2  1  0  0  0  0
  1 22  1  0  0  0  0
  1 23  1  0  0  0  0
  1 24  1  0  0  0  0
  2  3  1  0  0  0  0
  2 25  1  0  0  0  0
  2 26  1  0  0  0  0
  3 21  1  0  0  0  0
  3  4  1  0  0  0  0
  4  5  1  0  0  0  0
  4 27  1  0  0  0  0
  4 28  1  0  0  0  0
  5  6  1  0  0  0  0
  5 29  1  0  0  0  0
  5 30  1  0  0  0  0
  6  7  1  0  0  0  0
  6 20  1  0  0  0  0
  7  8  1  0  0  0  0
  7  9  1  0  0  0  0
  7 31  1  0  0  0  0
  8 32  1  0  0  0  0
  8 33  1  0  0  0  0
  8 34  1  0  0  0  0
  9 10  1  0  0  0  0
  9 35  1  0  0  0  0
  9 36  1  0  0  0  0
 10 11  1  0  0  0  0
 10 37  1  0  0  0  0
 11 12  2  0  0  0  0
 11 13  1  0  0  0  0
 13 14  1  0  0  0  0
 13 38  1  0  0  0  0
 14 19  2  0  0  0  0
 14 15  1  0  0  0  0
 15 16  2  0  0  0  0
 15 39  1  0  0  0  0
 16 17  1  0  0  0  0
 16 18  1  0  0  0  0
 17 40  1  0  0  0  0
 17 41  1  0  0  0  0
 17 42  1  0  0  0  0
 18 19  1  0  0  0  0
 20 21  1  0  0  0  0
 20 43  1  0  0  0  0
 20 44  1  0  0  0  0
 21 45  1  0  0  0  0
 21 46  1  0  0  0  0
M  END
> <s_m_source_file>
AV-unprocessed.smi

> <i_m_source_file_index>
1586

> <i_lp_mmshare_version>
43012

> <i_f3d_flags>
0

> <s_epik_input>
W0NIM11bQ0gyXU4xW0NIMl1bQ0gyXU4oW0NIMl1bQ0gyXTEpW0NASF0oW0NIM10pW0NIMl1bTkhdQyg9TylbTkhdYzJbY0hdYyhbQ0gzXSlvbjI=

> <s_epik_cmdline>
J2VwaWtfcHl0aG9uJywgJy1waCcsICc3LjAnLCAnLXRuJywgJzgnLCAnLW1hJywgJzIwMCcsICctbWV0YWxfYmluZGluZycsICctaW1hZScsICc8aW5maWxlLm1hZT4nLCAnLW9tYWUnLCAnPG91dGZpbGUubWFlPic=

> <r_epik_Ionization_Penalty>
2.42597

> <r_epik_Ionization_Penalty_Charging>
0

> <r_epik_Ionization_Penalty_Neutral>
2.42597

> <r_epik_State_Penalty>
1.76326

> <r_epik_Charging_Adjusted_Penalty>
1.76326

> <i_epik_Tot_Q>
0

> <i_epik_Tot_abs_Q>
0

> <r_epik_Metal_State_Penalty>
1.7742

> <b_epik_Metal_Only>
0

> <s_lp_Force_Field>
OPLS_2005

> <r_lp_Energy>
39.6445

> <b_lp_Chiralities_Consistent>
1

> <s_lp_Variant>
AV-unprocessed.smi:1586-6

> <Gold.Version>
5.8.1

> <Gold.Id.Protein>
6NUR|6NUR_protein|mol2

> <Gold.PLP.Fitness>
39.6477

> <Gold.PLP.PLP>
-34.7323

> <Gold.PLP.part.hbond>
-2.0000

> <Gold.PLP.part.metal>
0.0000

> <Gold.PLP.part.buried>
-4.7057

> <Gold.PLP.part.nonpolar>
-27.8977

> <Gold.PLP.part.repulsive>
0.2060

> <Gold.PLP.ligand.clash>
0.0000

> <Gold.PLP.ligand.torsion>
0.5654

> <Gold.PLP.Chemscore.Hbond>
2.0000

> <Gold.PLP.Chemscore.CHOScore>
0.0000

> <Gold.PLP.Chemscore.Metal>
0.0000

> <Gold.Chemscore.Hbonds>
donor molecule, donor type, donor heavy atom, donor atom, acceptor molecule, acceptor atom, score
      L1  H    10    37       P1  7948  0.89
      L1  H    13    38       P1  7948  1.00

> <Gold.PLP.Chemscore.Internal.Correction>
0.0463

> <Gold.Rescore>
     Score         DG    S(hbond)    S(metal)    S(lipo)     H(rot)  DE(clash)    DE(int)     intcor
     15.11     -15.82       1.67        0.00      78.27       1.72       0.11       0.61       ----

> <Gold.Chemscore.Fitness>
15.1092

> <Gold.Chemscore.DG>
-15.8240

> <Gold.Chemscore.ZeroCoef>
-5.4800

> <Gold.Chemscore.Hbond>
1.6717

> <Gold.Chemscore.Metal>
0.0000

> <Gold.Chemscore.Lipo>
78.2740

> <Gold.Chemscore.Internal_Hbond>
0.0000

> <Gold.Chemscore.DEClash>
0.1071

> <Gold.Chemscore.DEInternal>
0.6077

> <Gold.Chemscore.Rot>
1.7178

> <Gold.Chemscore.Internal.Correction>
   9.000000E+99

> <Gold.Chemscore.Hbonds>
donor molecule, donor type, donor heavy atom, donor atom, acceptor molecule, acceptor atom, score
      L1  H    10    37       P1  7948  0.70
      L1  H    13    38       P1  7948  0.40

> <Gold.Chemscore.Hbond.Weighted>
-5.5835

> <Gold.Chemscore.Metal.Weighted>
-0.0000

> <Gold.Chemscore.Lipo.Weighted>
-9.1581

> <Gold.Chemscore.Internal_Hbond.Weighted>
0.0000

> <Gold.Chemscore.DEClash.Weighted>
0.1071

> <Gold.Chemscore.DEInternal.Weighted>
0.6077

> <Gold.Chemscore.Rot.Weighted>
4.3976

> <Gold.Chemscore.Internal.Correction.Weighted>
   9.000000E+99

> <Gold.Protein.RotatedTorsions>
[ 6907 6896 6895 6894 ] final   94.87 input  -60.11 | X-H torsion
[ 7974 7965 7964 7962 ] final    1.42 input  175.53 | X-H torsion
[ 8008 7997 7996 7995 ] final  -96.14 input   59.86 | X-H torsion
[ 10167 10162 10161 10158 ] final  -10.67 input  -65.29 | X-H torsion
[ 10718 10713 10712 10709 ] final   36.09 input   66.30 | X-H torsion
[ 10763 10752 10751 10750 ] final  -33.12 input  -60.55 | X-H torsion
[ 11005 11000 10999 10996 ] final  -52.44 input  -57.11 | X-H torsion

> <Gold.Protein.ActiveResidues>
 VAL166  LYS551  ARG553  GLY616  TRP617  ASP618  TYR619  PRO620  LYS621  CYS622 
 ASP623  PHE694  ASN695  SER759  ASP760  ASP761  ALA762  ILE779  LEU786  VAL792 
 PHE793  MET794  SER795  GLU796  ALA797  LYS798  CYS799  TRP800  GLU811  SER814 

> <Gold.Protein.RotatedAtoms>
  152.5447  134.1127  159.8365 H   0  0  0  0  0  0  0  0  0  0  0  0  # atno 6907 bound_to 6896
  151.1192  133.5109  159.2610 H   0  0  0  0  0  0  0  0  0  0  0  0  # atno 6908 bound_to 6896
  151.1798  135.0365  159.8842 H   0  0  0  0  0  0  0  0  0  0  0  0  # atno 6909 bound_to 6896
  146.2440  140.0990  142.8348 H   0  0  0  0  0  0  0  0  0  0  0  0  # atno 7974 bound_to 7965
  154.7705  140.0474  157.1047 H   0  0  0  0  0  0  0  0  0  0  0  0  # atno 8008 bound_to 7997
  154.9826  140.3103  155.4920 H   0  0  0  0  0  0  0  0  0  0  0  0  # atno 8009 bound_to 7997
  156.2920  140.2233  156.4926 H   0  0  0  0  0  0  0  0  0  0  0  0  # atno 8010 bound_to 7997
  140.7120  143.5723  150.9080 H   0  0  0  0  0  0  0  0  0  0  0  0  # atno 10167 bound_to 10162
  157.3306  130.7496  149.6845 H   0  0  0  0  0  0  0  0  0  0  0  0  # atno 10718 bound_to 10713
  153.8250  135.6871  153.4822 H   0  0  0  0  0  0  0  0  0  0  0  0  # atno 10763 bound_to 10752
  153.1546  135.4604  154.9683 H   0  0  0  0  0  0  0  0  0  0  0  0  # atno 10764 bound_to 10752
  154.7911  135.3302  154.7719 H   0  0  0  0  0  0  0  0  0  0  0  0  # atno 10765 bound_to 10752
  141.0924  133.6630  156.4024 H   0  0  0  0  0  0  0  0  0  0  0  0  # atno 11005 bound_to 11000
  145.0585  140.9070  143.4953 LP  0  0  0  0  0  0  0  0  0  0  0  0  # atno 17320 bound_to 7965
  145.1101  139.2763  143.5642 LP  0  0  0  0  0  0  0  0  0  0  0  0  # atno 17321 bound_to 7965
  139.9449  143.6339  152.3044 LP  0  0  0  0  0  0  0  0  0  0  0  0  # atno 17342 bound_to 10162
  139.6837  144.7653  151.1562 LP  0  0  0  0  0  0  0  0  0  0  0  0  # atno 17343 bound_to 10162
  155.9695  130.4196  150.4384 LP  0  0  0  0  0  0  0  0  0  0  0  0  # atno 17370 bound_to 10713
  157.2416  131.0526  151.2433 LP  0  0  0  0  0  0  0  0  0  0  0  0  # atno 17371 bound_to 10713
  140.5220  134.6295  157.5321 LP  0  0  0  0  0  0  0  0  0  0  0  0  # atno 17394 bound_to 11000
  139.9753  134.7225  155.9962 LP  0  0  0  0  0  0  0  0  0  0  0  0  # atno 17395 bound_to 11000

$$$$
