AV-unprocessed.smi:2062|AV-procd|sdf|8403|dock8
  -GOLD-   2272011 93D 1   1.00000     0.00000
 Structure written by MMmdl.
 42 43  0  0  0  0  0  0  0  0  3 V2000
  145.9365  132.1067  149.8185 C   0  0  0  0  0  0  0  0  0  0  0  0
  145.3709  132.3458  151.2262 C   0  0  0  0  0  0  0  0  0  0  0  0
  144.0414  133.1148  151.1453 C   0  0  0  0  0  0  0  0  0  0  0  0
  146.4068  133.0737  152.1108 C   0  0  0  0  0  0  0  0  0  0  0  0
  147.6001  132.2393  152.4190 N   0  3  2  0  0  0  0  0  0  0  0  0
  147.3160  131.1195  153.3490 C   0  0  0  0  0  0  0  0  0  0  0  0
  147.2353  131.6132  154.8036 C   0  0  0  0  0  0  0  0  0  0  0  0
  148.4503  132.2688  155.1379 O   0  0  0  0  0  0  0  0  0  0  0  0
  148.6846  133.4296  154.3464 C   0  0  1  0  0  0  0  0  0  0  0  0
  149.9715  134.1162  154.8370 C   0  0  0  0  0  0  0  0  0  0  0  0
  149.9844  135.5349  154.4969 N   0  0  0  0  0  0  0  0  0  0  0  0
  150.7403  136.4771  155.0776 C   0  0  0  0  0  0  0  0  0  0  0  0
  151.5364  136.1677  155.9670 O   0  0  0  0  0  0  0  0  0  0  0  0
  150.5224  137.7203  154.5938 N   0  5  0  0  0  0  0  0  0  0  0  0
  150.6666  138.7872  155.3968 C   0  0  0  0  0  0  0  0  0  0  0  0
  150.8725  140.0263  154.9350 N   0  0  0  0  0  0  0  0  0  0  0  0
  150.9979  140.9812  155.9457 C   0  0  0  0  0  0  0  0  0  0  0  0
  150.8948  140.4555  157.2064 C   0  0  0  0  0  0  0  0  0  0  0  0
  150.6339  138.7352  157.1614 S   0  0  0  0  0  0  0  0  0  0  0  0
  148.7975  132.9972  152.8674 C   0  0  0  0  0  0  0  0  0  0  0  0
  146.1586  133.0478  149.3141 H   0  0  0  0  0  0  0  0  0  0  0  0
  145.2281  131.5569  149.1979 H   0  0  0  0  0  0  0  0  0  0  0  0
  146.8573  131.5239  149.8573 H   0  0  0  0  0  0  0  0  0  0  0  0
  145.1639  131.3636  151.6501 H   0  0  0  0  0  0  0  0  0  0  0  0
  144.1831  134.1105  150.7237 H   0  0  0  0  0  0  0  0  0  0  0  0
  143.5850  133.2311  152.1285 H   0  0  0  0  0  0  0  0  0  0  0  0
  143.3227  132.5886  150.5163 H   0  0  0  0  0  0  0  0  0  0  0  0
  146.7157  134.0090  151.6440 H   0  0  0  0  0  0  0  0  0  0  0  0
  145.9140  133.3552  153.0424 H   0  0  0  0  0  0  0  0  0  0  0  0
  146.4015  130.5989  153.0629 H   0  0  0  0  0  0  0  0  0  0  0  0
  148.1222  130.3897  153.2628 H   0  0  0  0  0  0  0  0  0  0  0  0
  146.3870  132.2829  154.9529 H   0  0  0  0  0  0  0  0  0  0  0  0
  147.0956  130.7688  155.4786 H   0  0  0  0  0  0  0  0  0  0  0  0
  147.8543  134.1266  154.4700 H   0  0  0  0  0  0  0  0  0  0  0  0
  150.1078  133.9689  155.9097 H   0  0  0  0  0  0  0  0  0  0  0  0
  150.8364  133.6620  154.3530 H   0  0  0  0  0  0  0  0  0  0  0  0
  149.3544  135.8359  153.7679 H   0  0  0  0  0  0  0  0  0  0  0  0
  151.1605  142.0140  155.6759 H   0  0  0  0  0  0  0  0  0  0  0  0
  150.9567  140.9706  158.1530 H   0  0  0  0  0  0  0  0  0  0  0  0
  149.6665  132.3484  152.7494 H   0  0  0  0  0  0  0  0  0  0  0  0
  148.9785  133.8600  152.2281 H   0  0  0  0  0  0  0  0  0  0  0  0
  147.8469  131.8069  151.5401 H   0  0  0  0  0  0  0  0  0  0  0  0
  1  2  1  0  0  0  0
  1 21  1  0  0  0  0
  1 22  1  0  0  0  0
  1 23  1  0  0  0  0
  2  3  1  0  0  0  0
  2  4  1  0  0  0  0
  2 24  1  0  0  0  0
  3 25  1  0  0  0  0
  3 26  1  0  0  0  0
  3 27  1  0  0  0  0
  4  5  1  0  0  0  0
  4 28  1  0  0  0  0
  4 29  1  0  0  0  0
  5 20  1  0  0  0  0
  5  6  1  0  0  0  0
  5 42  1  0  0  0  0
  6  7  1  0  0  0  0
  6 30  1  0  0  0  0
  6 31  1  0  0  0  0
  7  8  1  0  0  0  0
  7 32  1  0  0  0  0
  7 33  1  0  0  0  0
  8  9  1  0  0  0  0
  9 10  1  0  0  0  0
  9 20  1  0  0  0  0
  9 34  1  0  0  0  0
 10 11  1  0  0  0  0
 10 35  1  0  0  0  0
 10 36  1  0  0  0  0
 11 12  1  0  0  0  0
 11 37  1  0  0  0  0
 12 13  2  0  0  0  0
 12 14  1  0  0  0  0
 14 15  1  0  0  0  0
 15 19  1  0  0  0  0
 15 16  2  0  0  0  0
 16 17  1  0  0  0  0
 17 18  2  0  0  0  0
 17 38  1  0  0  0  0
 18 19  1  0  0  0  0
 18 39  1  0  0  0  0
 20 40  1  0  0  0  0
 20 41  1  0  0  0  0
M  CHG  1   5   1
M  CHG  1  14  -1
M  END
> <s_m_source_file>
AV-unprocessed.smi

> <i_m_source_file_index>
2062

> <i_lp_mmshare_version>
43012

> <i_f3d_flags>
0

> <s_epik_input>
W0NIM11bQ0hdKFtDSDNdKVtDSDJdTjFbQ0gyXVtDSDJdT1tDQEhdKFtDSDJdMSlbQ0gyXVtOSF1DKD1PKVtOSF1jMm5bY0hdW2NIXXMy

> <s_epik_cmdline>
J2VwaWtfcHl0aG9uJywgJy1waCcsICc3LjAnLCAnLXRuJywgJzgnLCAnLW1hJywgJzIwMCcsICctbWV0YWxfYmluZGluZycsICctaW1hZScsICc8aW5maWxlLm1hZT4nLCAnLW9tYWUnLCAnPG91dGZpbGUubWFlPic=

> <r_lp_tautomer_probability>
0.999

> <r_epik_Ionization_Penalty>
6.35835

> <r_epik_Ionization_Penalty_Charging>
5.49938

> <r_epik_Ionization_Penalty_Neutral>
0.858963

> <r_epik_State_Penalty>
5.49328

> <r_epik_Charging_Adjusted_Penalty>
10.9927

> <i_epik_Tot_Q>
0

> <i_epik_Tot_abs_Q>
2

> <r_epik_Metal_State_Penalty>
1.51523

> <b_epik_Metal_Only>
1

> <s_lp_Force_Field>
OPLS_2005

> <r_lp_Energy>
10.4353

> <b_lp_Chiralities_Consistent>
1

> <s_lp_Variant>
AV-unprocessed.smi:2062-8

> <Gold.Version>
5.8.1

> <Gold.Id.Protein>
6NUR|6NUR_protein|mol2

> <Gold.PLP.Fitness>
44.6880

> <Gold.PLP.PLP>
-34.2757

> <Gold.PLP.part.hbond>
-4.4391

> <Gold.PLP.part.metal>
0.0000

> <Gold.PLP.part.buried>
-6.2653

> <Gold.PLP.part.nonpolar>
-24.4861

> <Gold.PLP.part.repulsive>
0.3587

> <Gold.PLP.ligand.clash>
0.0000

> <Gold.PLP.ligand.torsion>
0.8509

> <Gold.PLP.Chemscore.Hbond>
3.9920

> <Gold.PLP.Chemscore.CHOScore>
0.0000

> <Gold.PLP.Chemscore.Metal>
0.0000

> <Gold.Chemscore.Hbonds>
donor molecule, donor type, donor heavy atom, donor atom, acceptor molecule, acceptor atom, score
      L1  H     5    42       P1 10747  1.00
      L1  H    11    37       P1  7948  0.99
      P1  H  7989  7998       L1    16  1.00
      P1  H 10752 10764       L1    13  1.00

> <Gold.PLP.Chemscore.Internal.Correction>
0.1380

> <Gold.Rescore>
     Score         DG    S(hbond)    S(metal)    S(lipo)     H(rot)  DE(clash)    DE(int)     intcor
     19.70     -20.87       3.42        0.00      71.41       1.72       0.02       1.15       ----

> <Gold.Chemscore.Fitness>
19.6995

> <Gold.Chemscore.DG>
-20.8702

> <Gold.Chemscore.ZeroCoef>
-5.4800

> <Gold.Chemscore.Hbond>
3.4241

> <Gold.Chemscore.Metal>
0.0000

> <Gold.Chemscore.Lipo>
71.4144

> <Gold.Chemscore.Internal_Hbond>
0.0000

> <Gold.Chemscore.DEClash>
0.0231

> <Gold.Chemscore.DEInternal>
1.1476

> <Gold.Chemscore.Rot>
1.7194

> <Gold.Chemscore.Internal.Correction>
   9.000000E+99

> <Gold.Chemscore.Hbonds>
donor molecule, donor type, donor heavy atom, donor atom, acceptor molecule, acceptor atom, score
      L1  H     5    42       P1 10747  0.98
      L1  H    11    37       P1  7948  0.56
      P1  H  7989  7998       L1    16  0.35
      P1  H 10752 10764       L1    13  0.25

> <Gold.Chemscore.Hbond.Weighted>
-11.4365

> <Gold.Chemscore.Metal.Weighted>
-0.0000

> <Gold.Chemscore.Lipo.Weighted>
-8.3555

> <Gold.Chemscore.Internal_Hbond.Weighted>
0.0000

> <Gold.Chemscore.DEClash.Weighted>
0.0231

> <Gold.Chemscore.DEInternal.Weighted>
1.1476

> <Gold.Chemscore.Rot.Weighted>
4.4017

> <Gold.Chemscore.Internal.Correction.Weighted>
   9.000000E+99

> <Gold.Protein.RotatedTorsions>
[ 6907 6896 6895 6894 ] final -175.92 input  -60.11 | X-H torsion
[ 7974 7965 7964 7962 ] final   36.19 input  175.53 | X-H torsion
[ 8008 7997 7996 7995 ] final -175.83 input   59.86 | X-H torsion
[ 10167 10162 10161 10158 ] final -123.35 input  -65.29 | X-H torsion
[ 10718 10713 10712 10709 ] final  161.76 input   66.30 | X-H torsion
[ 10763 10752 10751 10750 ] final  -42.20 input  -60.55 | X-H torsion
[ 11005 11000 10999 10996 ] final  134.87 input  -57.11 | X-H torsion

> <Gold.Protein.ActiveResidues>
 VAL166  LYS551  ARG553  GLY616  TRP617  ASP618  TYR619  PRO620  LYS621  CYS622 
 ASP623  PHE694  ASN695  SER759  ASP760  ASP761  ALA762  ILE779  LEU786  VAL792 
 PHE793  MET794  SER795  GLU796  ALA797  LYS798  CYS799  TRP800  GLU811  SER814 

> <Gold.Protein.RotatedAtoms>
  151.5964  133.3361  159.3038 H   0  0  0  0  0  0  0  0  0  0  0  0  # atno 6907 bound_to 6896
  150.8231  134.7453  159.6801 H   0  0  0  0  0  0  0  0  0  0  0  0  # atno 6908 bound_to 6896
  152.4323  134.5759  159.9986 H   0  0  0  0  0  0  0  0  0  0  0  0  # atno 6909 bound_to 6896
  146.1229  139.6049  142.9278 H   0  0  0  0  0  0  0  0  0  0  0  0  # atno 7974 bound_to 7965
  155.9874  140.1194  157.0670 H   0  0  0  0  0  0  0  0  0  0  0  0  # atno 8008 bound_to 7997
  154.4201  140.1132  156.5586 H   0  0  0  0  0  0  0  0  0  0  0  0  # atno 8009 bound_to 7997
  155.6389  140.3473  155.4710 H   0  0  0  0  0  0  0  0  0  0  0  0  # atno 8010 bound_to 7997
  140.0045  143.5506  152.2289 H   0  0  0  0  0  0  0  0  0  0  0  0  # atno 10167 bound_to 10162
  157.1320  131.0519  151.2367 H   0  0  0  0  0  0  0  0  0  0  0  0  # atno 10718 bound_to 10713
  153.9751  135.6723  153.4748 H   0  0  0  0  0  0  0  0  0  0  0  0  # atno 10763 bound_to 10752
  153.0774  135.4941  154.8430 H   0  0  0  0  0  0  0  0  0  0  0  0  # atno 10764 bound_to 10752
  154.7196  135.3114  154.9029 H   0  0  0  0  0  0  0  0  0  0  0  0  # atno 10765 bound_to 10752
  139.9943  134.9503  156.9928 H   0  0  0  0  0  0  0  0  0  0  0  0  # atno 11005 bound_to 11000
  145.5427  141.0419  143.2322 LP  0  0  0  0  0  0  0  0  0  0  0  0  # atno 17320 bound_to 7965
  144.7614  139.6947  143.7232 LP  0  0  0  0  0  0  0  0  0  0  0  0  # atno 17321 bound_to 7965
  139.6248  144.7635  151.2662 LP  0  0  0  0  0  0  0  0  0  0  0  0  # atno 17342 bound_to 10162
  140.7406  143.6583  150.8187 LP  0  0  0  0  0  0  0  0  0  0  0  0  # atno 17343 bound_to 10162
  157.4384  130.7530  149.7048 LP  0  0  0  0  0  0  0  0  0  0  0  0  # atno 17370 bound_to 10713
  155.9806  130.4028  150.3520 LP  0  0  0  0  0  0  0  0  0  0  0  0  # atno 17371 bound_to 10713
  140.4849  134.1252  155.7223 LP  0  0  0  0  0  0  0  0  0  0  0  0  # atno 17394 bound_to 11000
  141.1591  133.8826  157.1896 LP  0  0  0  0  0  0  0  0  0  0  0  0  # atno 17395 bound_to 11000

$$$$
