AV-unprocessed.smi:771|AV-procd|sdf|3684|dock7
  -GOLD-   22720 1103D 1   1.00000     0.00000
 Structure written by MMmdl.
 41 42  0  0  0  0  0  0  0  0  3 V2000
  146.4868  138.1370  154.5972 O   0  0  0  0  0  0  0  0  0  0  0  0
  146.4414  138.5466  153.4362 C   0  0  0  0  0  0  0  0  0  0  0  0
  147.4755  139.5509  152.9074 C   0  0  0  0  0  0  0  0  0  0  0  0
  148.5176  139.8890  153.8912 N   0  0  0  0  0  0  0  0  0  0  0  0
  149.6910  139.1098  153.8645 C   0  0  0  0  0  0  0  0  0  0  0  0
  150.7173  139.3309  154.7090 C   0  0  0  0  0  0  0  0  0  0  0  0
  151.9168  138.5240  154.6630 N   0  3  0  0  0  0  0  0  0  0  0  0
  152.9708  139.0132  155.0565 O   0  0  0  0  0  0  0  0  0  0  0  0
  151.8461  137.3763  154.2331 O   0  5  0  0  0  0  0  0  0  0  0  0
  150.5810  140.4112  155.6666 C   0  0  0  0  0  0  0  0  0  0  0  0
  149.4631  141.1634  155.6941 C   0  0  0  0  0  0  0  0  0  0  0  0
  148.3500  140.9247  154.7695 C   0  0  0  0  0  0  0  0  0  0  0  0
  147.3306  141.6146  154.7831 O   0  0  0  0  0  0  0  0  0  0  0  0
  145.5037  138.1584  152.5590 N   0  0  0  0  0  0  0  0  0  0  0  0
  144.4121  137.2340  152.8509 C   0  0  0  0  0  0  0  0  0  0  0  0
  144.6613  135.8104  152.2936 C   0  0  1  0  0  0  0  0  0  0  0  0
  143.4132  134.9106  152.4544 C   0  0  0  0  0  0  0  0  0  0  0  0
  143.6360  133.5029  151.8814 C   0  0  0  0  0  0  0  0  0  0  0  0
  144.0570  133.5660  150.4074 C   0  0  0  0  0  0  0  0  0  0  0  0
  145.3121  134.4323  150.2364 C   0  0  0  0  0  0  0  0  0  0  0  0
  145.1027  135.8464  150.8094 C   0  0  2  0  0  0  0  0  0  0  0  0
  146.3200  136.5523  150.6745 O   0  0  0  0  0  0  0  0  0  0  0  0
  147.9162  139.1497  151.9932 H   0  0  0  0  0  0  0  0  0  0  0  0
  146.9548  140.4579  152.5955 H   0  0  0  0  0  0  0  0  0  0  0  0
  149.6960  138.3355  153.1105 H   0  0  0  0  0  0  0  0  0  0  0  0
  151.3740  140.6258  156.3679 H   0  0  0  0  0  0  0  0  0  0  0  0
  149.3834  141.9636  156.4154 H   0  0  0  0  0  0  0  0  0  0  0  0
  145.5421  138.5371  151.6236 H   0  0  0  0  0  0  0  0  0  0  0  0
  144.2894  137.1913  153.9335 H   0  0  0  0  0  0  0  0  0  0  0  0
  143.4839  137.6496  152.4559 H   0  0  0  0  0  0  0  0  0  0  0  0
  145.4705  135.3556  152.8675 H   0  0  0  0  0  0  0  0  0  0  0  0
  143.1397  134.8211  153.5060 H   0  0  0  0  0  0  0  0  0  0  0  0
  142.5615  135.3735  151.9540 H   0  0  0  0  0  0  0  0  0  0  0  0
  144.4040  132.9889  152.4612 H   0  0  0  0  0  0  0  0  0  0  0  0
  142.7249  132.9126  151.9827 H   0  0  0  0  0  0  0  0  0  0  0  0
  144.2434  132.5604  150.0296 H   0  0  0  0  0  0  0  0  0  0  0  0
  143.2423  133.9766  149.8094 H   0  0  0  0  0  0  0  0  0  0  0  0
  146.1522  133.9491  150.7380 H   0  0  0  0  0  0  0  0  0  0  0  0
  145.5757  134.4915  149.1797 H   0  0  0  0  0  0  0  0  0  0  0  0
  144.3464  136.3638  150.2175 H   0  0  0  0  0  0  0  0  0  0  0  0
  146.9817  136.1120  151.1860 H   0  0  0  0  0  0  0  0  0  0  0  0
  1  2  2  0  0  0  0
  2  3  1  0  0  0  0
  2 14  1  0  0  0  0
  3  4  1  0  0  0  0
  3 23  1  0  0  0  0
  3 24  1  0  0  0  0
  4 12  1  0  0  0  0
  4  5  1  0  0  0  0
  5  6  2  0  0  0  0
  5 25  1  0  0  0  0
  6  7  1  0  0  0  0
  6 10  1  0  0  0  0
  7  8  2  0  0  0  0
  7  9  1  0  0  0  0
 10 11  2  0  0  0  0
 10 26  1  0  0  0  0
 11 12  1  0  0  0  0
 11 27  1  0  0  0  0
 12 13  2  0  0  0  0
 14 15  1  0  0  0  0
 14 28  1  0  0  0  0
 15 16  1  0  0  0  0
 15 29  1  0  0  0  0
 15 30  1  0  0  0  0
 16 21  1  0  0  0  0
 16 17  1  0  0  0  0
 16 31  1  0  0  0  0
 17 18  1  0  0  0  0
 17 32  1  0  0  0  0
 17 33  1  0  0  0  0
 18 19  1  0  0  0  0
 18 34  1  0  0  0  0
 18 35  1  0  0  0  0
 19 20  1  0  0  0  0
 19 36  1  0  0  0  0
 19 37  1  0  0  0  0
 20 21  1  0  0  0  0
 20 38  1  0  0  0  0
 20 39  1  0  0  0  0
 21 22  1  0  0  0  0
 21 40  1  0  0  0  0
 22 41  1  0  0  0  0
M  CHG  1   7   1
M  CHG  1   9  -1
M  END
> <s_m_source_file>
AV-unprocessed.smi

> <i_m_source_file_index>
771

> <i_lp_mmshare_version>
43012

> <i_f3d_flags>
0

> <s_epik_input>
Tz1jMVtjSF1bY0hdYyhbTitdKD1PKVtPLV0pW2NIXW4xW0NIMl1DKD1PKVtOSF1bQ0gyXVtDQEBIXTJbQ0gyXVtDSDJdW0NIMl1bQ0gyXVtDQEhdMltPSF0=

> <s_epik_cmdline>
J2VwaWtfcHl0aG9uJywgJy1waCcsICc3LjAnLCAnLXRuJywgJzgnLCAnLW1hJywgJzIwMCcsICctbWV0YWxfYmluZGluZycsICctaW1hZScsICc8aW5maWxlLm1hZT4nLCAnLW9tYWUnLCAnPG91dGZpbGUubWFlPic=

> <r_lp_tautomer_probability>
1

> <r_epik_Ionization_Penalty>
3.77175e-07

> <r_epik_Ionization_Penalty_Charging>
7.70067e-11

> <r_epik_Ionization_Penalty_Neutral>
3.77098e-07

> <r_epik_State_Penalty>
-0

> <r_epik_Charging_Adjusted_Penalty>
7.70067e-11

> <i_epik_Tot_Q>
0

> <i_epik_Tot_abs_Q>
2

> <r_epik_Metal_State_Penalty>
-0

> <b_epik_Metal_Only>
0

> <s_lp_Force_Field>
OPLS_2005

> <r_lp_Energy>
22.9473

> <b_lp_Chiralities_Consistent>
1

> <s_lp_Variant>
AV-unprocessed.smi:771-4

> <Gold.Version>
5.8.1

> <Gold.Id.Protein>
6NUR|6NUR_protein|mol2

> <Gold.PLP.Fitness>
45.8666

> <Gold.PLP.PLP>
-35.4223

> <Gold.PLP.part.hbond>
-4.4166

> <Gold.PLP.part.metal>
0.0000

> <Gold.PLP.part.buried>
4.6519

> <Gold.PLP.part.nonpolar>
-36.0718

> <Gold.PLP.part.repulsive>
0.3867

> <Gold.PLP.ligand.clash>
0.0000

> <Gold.PLP.ligand.torsion>
0.8385

> <Gold.PLP.Chemscore.Hbond>
2.8240

> <Gold.PLP.Chemscore.CHOScore>
1.2039

> <Gold.PLP.Chemscore.Metal>
0.0000

> <Gold.Chemscore.Hbonds>
donor molecule, donor type, donor heavy atom, donor atom, acceptor molecule, acceptor atom, score
      L1  H    22    41       P1  7948  0.84
      P1  H  7954  7966       L1    22  0.02
      P1  H  7997  8008       L1     8  0.91
      P1  H 10752 10765       L1     9  1.00
      L1  C     5    25       P1  7948  1.00
      L1  C     5    25       P1  7957  0.25

> <Gold.PLP.Chemscore.Internal.Correction>
0.0375

> <Gold.Rescore>
     Score         DG    S(hbond)    S(metal)    S(lipo)     H(rot)  DE(clash)    DE(int)     intcor
     13.36     -15.77       2.59        0.00      68.34       2.48       0.09       2.32       ----

> <Gold.Chemscore.Fitness>
13.3635

> <Gold.Chemscore.DG>
-15.7739

> <Gold.Chemscore.ZeroCoef>
-5.4800

> <Gold.Chemscore.Hbond>
2.5852

> <Gold.Chemscore.Metal>
0.0000

> <Gold.Chemscore.Lipo>
68.3422

> <Gold.Chemscore.Internal_Hbond>
0.0000

> <Gold.Chemscore.DEClash>
0.0935

> <Gold.Chemscore.DEInternal>
2.3169

> <Gold.Chemscore.Rot>
2.4753

> <Gold.Chemscore.Internal.Correction>
   9.000000E+99

> <Gold.Chemscore.Hbonds>
donor molecule, donor type, donor heavy atom, donor atom, acceptor molecule, acceptor atom, score
      L1  H    14    28       P1 10171  0.02
      L1  H    22    41       P1  7948  0.79
      P1  H  7997  8008       L1     8  0.88
      P1  H 10752 10765       L1     9  0.88

> <Gold.Chemscore.Hbond.Weighted>
-8.6347

> <Gold.Chemscore.Metal.Weighted>
-0.0000

> <Gold.Chemscore.Lipo.Weighted>
-7.9960

> <Gold.Chemscore.Internal_Hbond.Weighted>
0.0000

> <Gold.Chemscore.DEClash.Weighted>
0.0935

> <Gold.Chemscore.DEInternal.Weighted>
2.3169

> <Gold.Chemscore.Rot.Weighted>
6.3369

> <Gold.Chemscore.Internal.Correction.Weighted>
   9.000000E+99

> <Gold.Protein.RotatedTorsions>
[ 6907 6896 6895 6894 ] final  -75.59 input  -60.11 | X-H torsion
[ 7974 7965 7964 7962 ] final -105.49 input  175.53 | X-H torsion
[ 8008 7997 7996 7995 ] final  -19.27 input   59.86 | X-H torsion
[ 10167 10162 10161 10158 ] final  -57.30 input  -65.29 | X-H torsion
[ 10718 10713 10712 10709 ] final   27.80 input   66.30 | X-H torsion
[ 10763 10752 10751 10750 ] final  161.31 input  -60.55 | X-H torsion
[ 11005 11000 10999 10996 ] final  159.06 input  -57.11 | X-H torsion

> <Gold.Protein.ActiveResidues>
 VAL166  LYS551  ARG553  GLY616  TRP617  ASP618  TYR619  PRO620  LYS621  CYS622 
 ASP623  PHE694  ASN695  SER759  ASP760  ASP761  ALA762  ILE779  LEU786  VAL792 
 PHE793  MET794  SER795  GLU796  ALA797  LYS798  CYS799  TRP800  GLU811  SER814 

> <Gold.Protein.RotatedAtoms>
  150.7054  134.4698  159.5419 H   0  0  0  0  0  0  0  0  0  0  0  0  # atno 6907 bound_to 6896
  152.2356  134.8276  160.0476 H   0  0  0  0  0  0  0  0  0  0  0  0  # atno 6908 bound_to 6896
  151.9076  133.3518  159.3889 H   0  0  0  0  0  0  0  0  0  0  0  0  # atno 6909 bound_to 6896
  145.2297  140.9166  143.3211 H   0  0  0  0  0  0  0  0  0  0  0  0  # atno 7974 bound_to 7965
  154.4848  140.2093  155.9680 H   0  0  0  0  0  0  0  0  0  0  0  0  # atno 8008 bound_to 7997
  156.1220  140.3212  155.8191 H   0  0  0  0  0  0  0  0  0  0  0  0  # atno 8009 bound_to 7997
  155.4451  140.0513  157.2997 H   0  0  0  0  0  0  0  0  0  0  0  0  # atno 8010 bound_to 7997
  140.6266  143.2441  151.5347 H   0  0  0  0  0  0  0  0  0  0  0  0  # atno 10167 bound_to 10162
  157.2250  130.6996  149.6287 H   0  0  0  0  0  0  0  0  0  0  0  0  # atno 10718 bound_to 10713
  154.2610  135.2768  155.2778 H   0  0  0  0  0  0  0  0  0  0  0  0  # atno 10763 bound_to 10752
  154.5384  135.5710  153.6821 H   0  0  0  0  0  0  0  0  0  0  0  0  # atno 10764 bound_to 10752
  152.9962  135.6245  154.2761 H   0  0  0  0  0  0  0  0  0  0  0  0  # atno 10765 bound_to 10752
  140.1925  134.8397  157.2928 H   0  0  0  0  0  0  0  0  0  0  0  0  # atno 11005 bound_to 11000
  144.9688  139.3902  143.6319 LP  0  0  0  0  0  0  0  0  0  0  0  0  # atno 17320 bound_to 7965
  146.3356  139.8775  142.8829 LP  0  0  0  0  0  0  0  0  0  0  0  0  # atno 17321 bound_to 7965
  139.5486  144.2455  152.1488 LP  0  0  0  0  0  0  0  0  0  0  0  0  # atno 17342 bound_to 10162
  140.1689  144.4955  150.6591 LP  0  0  0  0  0  0  0  0  0  0  0  0  # atno 17343 bound_to 10162
  155.9679  130.4507  150.5709 LP  0  0  0  0  0  0  0  0  0  0  0  0  # atno 17370 bound_to 10713
  157.3537  131.0738  151.1692 LP  0  0  0  0  0  0  0  0  0  0  0  0  # atno 17371 bound_to 10713
  140.2143  134.4100  155.7597 LP  0  0  0  0  0  0  0  0  0  0  0  0  # atno 17394 bound_to 11000
  141.2226  133.7134  156.8389 LP  0  0  0  0  0  0  0  0  0  0  0  0  # atno 17395 bound_to 11000

$$$$
