AV-unprocessed.smi:2574|AV-procd|sdf|10114|dock2
  -GOLD-   2272014133D 1   1.00000     0.00000
 Structure written by MMmdl.
 38 40  0  0  0  0  0  0  0  0  1 V2000
  152.8214  139.4854  157.7801 O   0  0  0  0  0  0  0  0  0  0  0  0
  152.6658  140.5625  158.3564 C   0  0  0  0  0  0  0  0  0  0  0  0
  153.2556  140.8717  159.6680 C   0  0  0  0  0  0  0  0  0  0  0  0
  154.1010  139.7957  160.3444 C   0  0  0  0  0  0  0  0  0  0  0  0
  154.4207  140.1327  161.5948 F   0  0  0  0  0  0  0  0  0  0  0  0
  153.4405  138.6381  160.3913 F   0  0  0  0  0  0  0  0  0  0  0  0
  155.2354  139.6016  159.6711 F   0  0  0  0  0  0  0  0  0  0  0  0
  153.0368  142.0789  160.2442 C   0  0  0  0  0  0  0  0  0  0  0  0
  152.2223  143.0726  159.5744 C   0  0  0  0  0  0  0  0  0  0  0  0
  151.9310  144.4255  160.1583 C   0  0  0  0  0  0  0  0  0  0  0  0
  150.5204  144.9163  160.3918 C   0  0  0  0  0  0  0  0  0  0  0  0
  151.3726  145.5487  159.3160 C   0  0  0  0  0  0  0  0  0  0  0  0
  151.7113  142.8015  158.4211 N   0  0  0  0  0  0  0  0  0  0  0  0
  151.9231  141.5753  157.8205 N   0  0  0  0  0  0  0  0  0  0  0  0
  151.2495  141.4248  156.5243 C   0  0  0  0  0  0  0  0  0  0  0  0
  149.7248  141.6433  156.6352 C   0  0  2  0  0  0  0  0  0  0  0  0
  149.2791  141.1660  157.8899 O   0  0  0  0  0  0  0  0  0  0  0  0
  148.9934  140.9556  155.4917 C   0  0  0  0  0  0  0  0  0  0  0  0
  149.2277  139.5886  155.2286 C   0  0  0  0  0  0  0  0  0  0  0  0
  148.5470  138.9402  154.1799 C   0  0  0  0  0  0  0  0  0  0  0  0
  147.6267  139.6543  153.3888 C   0  0  0  0  0  0  0  0  0  0  0  0
  147.3857  141.0170  153.6486 C   0  0  0  0  0  0  0  0  0  0  0  0
  148.0655  141.6658  154.6978 C   0  0  0  0  0  0  0  0  0  0  0  0
  153.4612  142.3241  161.2062 H   0  0  0  0  0  0  0  0  0  0  0  0
  152.6748  144.6900  160.9076 H   0  0  0  0  0  0  0  0  0  0  0  0
  149.6927  144.2895  160.0648 H   0  0  0  0  0  0  0  0  0  0  0  0
  150.3355  145.4980  161.2926 H   0  0  0  0  0  0  0  0  0  0  0  0
  151.7526  146.5514  159.5003 H   0  0  0  0  0  0  0  0  0  0  0  0
  151.1142  145.3313  158.2812 H   0  0  0  0  0  0  0  0  0  0  0  0
  151.6665  142.1819  155.8571 H   0  0  0  0  0  0  0  0  0  0  0  0
  151.4766  140.4739  156.0388 H   0  0  0  0  0  0  0  0  0  0  0  0
  149.4994  142.7097  156.5904 H   0  0  0  0  0  0  0  0  0  0  0  0
  148.3455  141.0277  157.8435 H   0  0  0  0  0  0  0  0  0  0  0  0
  149.9289  139.0305  155.8317 H   0  0  0  0  0  0  0  0  0  0  0  0
  148.7299  137.8941  153.9834 H   0  0  0  0  0  0  0  0  0  0  0  0
  147.1040  139.1566  152.5856 H   0  0  0  0  0  0  0  0  0  0  0  0
  146.6777  141.5644  153.0441 H   0  0  0  0  0  0  0  0  0  0  0  0
  147.8700  142.7104  154.8931 H   0  0  0  0  0  0  0  0  0  0  0  0
  1  2  2  0  0  0  0
  2 14  1  0  0  0  0
  2  3  1  0  0  0  0
  3  4  1  0  0  0  0
  3  8  2  0  0  0  0
  4  5  1  0  0  0  0
  4  6  1  0  0  0  0
  4  7  1  0  0  0  0
  8  9  1  0  0  0  0
  8 24  1  0  0  0  0
  9 10  1  0  0  0  0
  9 13  2  0  0  0  0
 10 12  1  0  0  0  0
 10 11  1  0  0  0  0
 10 25  1  0  0  0  0
 11 12  1  0  0  0  0
 11 26  1  0  0  0  0
 11 27  1  0  0  0  0
 12 28  1  0  0  0  0
 12 29  1  0  0  0  0
 13 14  1  0  0  0  0
 14 15  1  0  0  0  0
 15 16  1  0  0  0  0
 15 30  1  0  0  0  0
 15 31  1  0  0  0  0
 16 17  1  0  0  0  0
 16 18  1  0  0  0  0
 16 32  1  0  0  0  0
 17 33  1  0  0  0  0
 18 23  1  0  0  0  0
 18 19  2  0  0  0  0
 19 20  1  0  0  0  0
 19 34  1  0  0  0  0
 20 21  2  0  0  0  0
 20 35  1  0  0  0  0
 21 22  1  0  0  0  0
 21 36  1  0  0  0  0
 22 23  2  0  0  0  0
 22 37  1  0  0  0  0
 23 38  1  0  0  0  0
M  END
> <s_m_source_file>
AV-unprocessed.smi

> <i_m_source_file_index>
2574

> <i_lp_mmshare_version>
43012

> <i_f3d_flags>
0

> <s_epik_input>
Tz1jMWMoQyhGKShGKUYpW2NIXWMoW0NIXTJbQ0gyXVtDSDJdMilubjFbQ0gyXVtDQEhdKFtPSF0pYzNbY0hdW2NIXVtjSF1bY0hdW2NIXTM=

> <s_epik_cmdline>
J2VwaWtfcHl0aG9uJywgJy1waCcsICc3LjAnLCAnLXRuJywgJzgnLCAnLW1hJywgJzIwMCcsICctbWV0YWxfYmluZGluZycsICctaW1hZScsICc8aW5maWxlLm1hZT4nLCAnLW9tYWUnLCAnPG91dGZpbGUubWFlPic=

> <r_lp_tautomer_probability>
1

> <r_epik_Ionization_Penalty>
7.26807e-08

> <r_epik_Ionization_Penalty_Charging>
9.677e-10

> <r_epik_Ionization_Penalty_Neutral>
7.1713e-08

> <r_epik_State_Penalty>
-0

> <r_epik_Charging_Adjusted_Penalty>
9.677e-10

> <i_epik_Tot_Q>
0

> <i_epik_Tot_abs_Q>
0

> <r_epik_Metal_State_Penalty>
-0

> <b_epik_Metal_Only>
0

> <s_lp_Force_Field>
OPLS_2005

> <r_lp_Energy>
33.7887

> <b_lp_Chiralities_Consistent>
1

> <s_lp_Variant>
AV-unprocessed.smi:2574-1

> <Gold.Version>
5.8.1

> <Gold.Id.Protein>
6NUR|6NUR_protein|mol2

> <Gold.PLP.Fitness>
46.4401

> <Gold.PLP.PLP>
-45.0652

> <Gold.PLP.part.hbond>
-1.0000

> <Gold.PLP.part.metal>
0.0000

> <Gold.PLP.part.buried>
-2.6656

> <Gold.PLP.part.nonpolar>
-40.9606

> <Gold.PLP.part.repulsive>
0.0312

> <Gold.PLP.ligand.clash>
0.2356

> <Gold.PLP.ligand.torsion>
0.8159

> <Gold.PLP.Chemscore.Hbond>
0.8500

> <Gold.PLP.Chemscore.CHOScore>
0.0000

> <Gold.PLP.Chemscore.Metal>
0.0000

> <Gold.Chemscore.Hbonds>
donor molecule, donor type, donor heavy atom, donor atom, acceptor molecule, acceptor atom, score
      P1  H  7997  8010       L1     1  0.79

> <Gold.PLP.Chemscore.Internal.Correction>
0.6924

> <Gold.Rescore>
     Score         DG    S(hbond)    S(metal)    S(lipo)     H(rot)  DE(clash)    DE(int)     intcor
     12.69     -15.75       0.63        0.00     115.41       2.09       0.72       2.33       ----

> <Gold.Chemscore.Fitness>
12.6913

> <Gold.Chemscore.DG>
-15.7450

> <Gold.Chemscore.ZeroCoef>
-5.4800

> <Gold.Chemscore.Hbond>
0.6329

> <Gold.Chemscore.Metal>
0.0000

> <Gold.Chemscore.Lipo>
115.4128

> <Gold.Chemscore.Internal_Hbond>
0.0000

> <Gold.Chemscore.DEClash>
0.7241

> <Gold.Chemscore.DEInternal>
2.3296

> <Gold.Chemscore.Rot>
2.0906

> <Gold.Chemscore.Internal.Correction>
   9.000000E+99

> <Gold.Chemscore.Hbonds>
donor molecule, donor type, donor heavy atom, donor atom, acceptor molecule, acceptor atom, score
      P1  H  7997  8010       L1     1  0.11

> <Gold.Chemscore.Hbond.Weighted>
-2.1138

> <Gold.Chemscore.Metal.Weighted>
-0.0000

> <Gold.Chemscore.Lipo.Weighted>
-13.5033

> <Gold.Chemscore.Internal_Hbond.Weighted>
0.0000

> <Gold.Chemscore.DEClash.Weighted>
0.7241

> <Gold.Chemscore.DEInternal.Weighted>
2.3296

> <Gold.Chemscore.Rot.Weighted>
5.3520

> <Gold.Chemscore.Internal.Correction.Weighted>
   9.000000E+99

> <Gold.Protein.RotatedTorsions>
[ 6907 6896 6895 6894 ] final  121.98 input  -60.11 | X-H torsion
[ 7974 7965 7964 7962 ] final  -75.14 input  175.53 | X-H torsion
[ 8008 7997 7996 7995 ] final   62.90 input   59.86 | X-H torsion
[ 10167 10162 10161 10158 ] final -174.11 input  -65.29 | X-H torsion
[ 10718 10713 10712 10709 ] final   20.93 input   66.30 | X-H torsion
[ 10763 10752 10751 10750 ] final -102.69 input  -60.55 | X-H torsion
[ 11005 11000 10999 10996 ] final -119.45 input  -57.11 | X-H torsion

> <Gold.Protein.ActiveResidues>
 VAL166  LYS551  ARG553  GLY616  TRP617  ASP618  TYR619  PRO620  LYS621  CYS622 
 ASP623  PHE694  ASN695  SER759  ASP760  ASP761  ALA762  ILE779  LEU786  VAL792 
 PHE793  MET794  SER795  GLU796  ALA797  LYS798  CYS799  TRP800  GLU811  SER814 

> <Gold.Protein.RotatedAtoms>
  152.4279  133.7226  159.6541 H   0  0  0  0  0  0  0  0  0  0  0  0  # atno 6907 bound_to 6896
  150.8156  133.8332  159.3168 H   0  0  0  0  0  0  0  0  0  0  0  0  # atno 6908 bound_to 6896
  151.6029  135.1048  160.0116 H   0  0  0  0  0  0  0  0  0  0  0  0  # atno 6909 bound_to 6896
  145.6300  140.9340  143.1092 H   0  0  0  0  0  0  0  0  0  0  0  0  # atno 7974 bound_to 7965
  155.6217  140.3496  155.4654 H   0  0  0  0  0  0  0  0  0  0  0  0  # atno 8008 bound_to 7997
  156.0073  140.1226  157.0512 H   0  0  0  0  0  0  0  0  0  0  0  0  # atno 8009 bound_to 7997
  154.4269  140.1088  156.5767 H   0  0  0  0  0  0  0  0  0  0  0  0  # atno 8010 bound_to 7997
  139.5652  144.1774  152.1301 H   0  0  0  0  0  0  0  0  0  0  0  0  # atno 10167 bound_to 10162
  157.1314  130.6592  149.5953 H   0  0  0  0  0  0  0  0  0  0  0  0  # atno 10718 bound_to 10713
  154.7752  135.4851  153.9730 H   0  0  0  0  0  0  0  0  0  0  0  0  # atno 10763 bound_to 10752
  153.1420  135.6774  153.9020 H   0  0  0  0  0  0  0  0  0  0  0  0  # atno 10764 bound_to 10752
  153.8692  135.3146  155.3419 H   0  0  0  0  0  0  0  0  0  0  0  0  # atno 10765 bound_to 10752
  141.0215  134.0117  157.3276 H   0  0  0  0  0  0  0  0  0  0  0  0  # atno 11005 bound_to 11000
  144.7197  139.8071  143.7386 LP  0  0  0  0  0  0  0  0  0  0  0  0  # atno 17320 bound_to 7965
  146.1364  139.4411  143.0136 LP  0  0  0  0  0  0  0  0  0  0  0  0  # atno 17321 bound_to 7965
  140.1295  144.5301  150.6811 LP  0  0  0  0  0  0  0  0  0  0  0  0  # atno 17342 bound_to 10162
  140.6935  143.2389  151.5067 LP  0  0  0  0  0  0  0  0  0  0  0  0  # atno 17343 bound_to 10162
  155.9807  130.4809  150.6787 LP  0  0  0  0  0  0  0  0  0  0  0  0  # atno 17370 bound_to 10713
  157.4389  131.0859  151.0964 LP  0  0  0  0  0  0  0  0  0  0  0  0  # atno 17371 bound_to 10713
  139.9149  135.0195  156.7840 LP  0  0  0  0  0  0  0  0  0  0  0  0  # atno 17394 bound_to 11000
  140.6565  133.9684  155.7782 LP  0  0  0  0  0  0  0  0  0  0  0  0  # atno 17395 bound_to 11000

$$$$
