#       Name:                AV-unprocessed.smi:162
#       Creating user name   scv26
#       Creation time:       Thu Mar 26 19:10:33 2020


#       File generated by GOLD software.
#

@<TRIPOS>MOLECULE
AV-unprocessed.smi:162
    66    69     1
SMALL
NO_CHARGES


@<TRIPOS>ATOM
      1 ****        -3.5795  -3.5993  -0.8981 C.3            1 S1                 0.0000
      2 ****        -3.6090  -2.1972  -0.6983 O.3            1 S1                 0.0000
      3 ****        -2.9412  -1.8031   0.4884 C.3            1 S1                 0.0000
      4 ****        -3.0509  -0.2763   0.6404 C.3            1 S1                 0.0000
      5 ****        -4.4827   0.2224   0.8280 C.3            1 S1                 0.0000
      6 ****        -4.3105   1.5924   1.4936 C.3            1 S1                 0.0000
      7 ****        -4.4518   2.6105   0.5122 O.3            1 S1                 0.0000
      8 ****        -4.5935   3.9112   1.0605 C.3            1 S1                 0.0000
      9 ****        -2.8768   1.5702   2.0590 C.3            1 S1                 0.0000
     10 ****        -2.3568   0.2322   1.8149 N.3            1 S1                 0.0000
     11 ****        -1.0086   0.1463   1.8026 C.ar           1 S1                 0.0000
     12 ****        -0.4349  -0.5746   2.7965 N.ar           1 S1                 0.0000
     13 ****         0.8937  -0.7115   2.8420 C.ar           1 S1                 0.0000
     14 ****         1.8130  -0.2198   2.0086 N.ar           1 S1                 0.0000
     15 ****         1.2377   0.5087   1.0090 C.ar           1 S1                 0.0000
     16 ****        -0.1547   0.7438   0.8318 C.ar           1 S1                 0.0000
     17 ****        -0.3613   1.5341  -0.2928 N.2            1 S1                 0.0000
     18 ****         0.8393   1.7470  -0.7579 C.2            1 S1                 0.0000
     19 ****         1.8585   1.1615  -0.0414 N.pl3          1 S1                 0.0000
     20 ****         3.2816   1.2286  -0.3360 C.3            1 S1                 0.0000
     21 ****         3.7578   0.1718  -1.3632 C.3            1 S1                 0.0000
     22 ****         3.1281   0.4616  -2.5997 O.3            1 S1                 0.0000
     23 ****         5.2841   0.2628  -1.5621 C.3            1 S1                 0.0000
     24 ****         5.8229  -0.8754  -2.4472 C.3            1 S1                 0.0000
     25 ****         5.4471  -2.1347  -1.9030 O.3            1 S1                 0.0000
     26 ****         4.0373  -2.3209  -1.8681 C.3            1 S1                 0.0000
     27 ****         3.3860  -1.2700  -0.9515 C.3            1 S1                 0.0000
     28 ****        -2.6374   0.1978  -0.2501 H              1 S1                 0.0000
     29 ****        -5.0557   1.7128   2.2820 H              1 S1                 0.0000
     30 ****        -4.0962  -3.8470  -1.8251 H              1 S1                 0.0000
     31 ****        -4.0805  -4.1236  -0.0834 H              1 S1                 0.0000
     32 ****        -2.5553  -3.9667  -0.9746 H              1 S1                 0.0000
     33 ****        -3.3764  -2.3039   1.3549 H              1 S1                 0.0000
     34 ****        -1.8942  -2.1045   0.4278 H              1 S1                 0.0000
     35 ****        -5.0431   0.2643  -0.1066 H              1 S1                 0.0000
     36 ****        -5.0203  -0.4424   1.5058 H              1 S1                 0.0000
     37 ****        -4.7030   4.6358   0.2538 H              1 S1                 0.0000
     38 ****        -3.7227   4.1981   1.6508 H              1 S1                 0.0000
     39 ****        -5.4803   3.9772   1.6919 H              1 S1                 0.0000
     40 ****        -2.2547   2.3274   1.5800 H              1 S1                 0.0000
     41 ****        -2.8793   1.7752   3.1300 H              1 S1                 0.0000
     42 ****         1.2747  -1.3016   3.6624 H              1 S1                 0.0000
     43 ****         1.0160   2.3355  -1.6465 H              1 S1                 0.0000
     44 ****         3.5099   2.2345  -0.6914 H              1 S1                 0.0000
     45 ****         3.8263   1.1092   0.6017 H              1 S1                 0.0000
     46 ****         3.4114  -0.1757  -3.2375 H              1 S1                 0.0000
     47 ****         5.5584   1.2295  -1.9865 H              1 S1                 0.0000
     48 ****         5.7782   0.2055  -0.5912 H              1 S1                 0.0000
     49 ****         5.4588  -0.7847  -3.4716 H              1 S1                 0.0000
     50 ****         6.9108  -0.8257  -2.4947 H              1 S1                 0.0000
     51 ****         3.6273  -2.2704  -2.8779 H              1 S1                 0.0000
     52 ****         3.8257  -3.3224  -1.4930 H              1 S1                 0.0000
     53 ****         3.7209  -1.4484   0.0712 H              1 S1                 0.0000
     54 ****         2.3042  -1.4084  -0.9484 H              1 S1                 0.0000
     55 ****        -4.5626  -1.9013  -0.6429 LP             1 S1                 0.0000
     56 ****        -3.1669  -1.7530  -1.4776 LP             1 S1                 0.0000
     57 ****        -5.2622   2.4092  -0.0380 LP             1 S1                 0.0000
     58 ****        -3.6409   2.6005  -0.0729 LP             1 S1                 0.0000
     59 ****        -2.5525  -0.3713   2.5878 LP             1 S1                 0.0000
     60 ****        -1.0059  -1.0042   3.4960 LP             1 S1                 0.0000
     61 ****         2.7975  -0.3666   2.1046 LP             1 S1                 0.0000
     62 ****        -1.2305   1.8639  -0.6611 LP             1 S1                 0.0000
     63 ****         3.3857   1.3792  -2.9025 LP             1 S1                 0.0000
     64 ****         2.1351   0.4126  -2.4921 LP             1 S1                 0.0000
     65 ****         5.8011  -2.1981  -0.9699 LP             1 S1                 0.0000
     66 ****         5.8513  -2.8582  -2.4627 LP             1 S1                 0.0000
@<TRIPOS>BOND
    1    1    2 1     
    2    1   30 1     
    3    1   31 1     
    4    1   32 1     
    5    2    3 1     
    6    3    4 1     
    7    3   33 1     
    8    3   34 1     
    9    4   28 1     
   10    4   10 1     
   11    4    5 1     
   12    5    6 1     
   13    5   35 1     
   14    5   36 1     
   15    6   29 1     
   16    6    7 1     
   17    6    9 1     
   18    7    8 1     
   19    8   37 1     
   20    8   38 1     
   21    8   39 1     
   22    9   10 1     
   23    9   40 1     
   24    9   41 1     
   25   10   11 1     
   26   11   16 ar    
   27   11   12 ar    
   28   12   13 ar    
   29   13   14 ar    
   30   13   42 1     
   31   14   15 ar    
   32   15   19 1     
   33   15   16 ar    
   34   16   17 1     
   35   17   18 2     
   36   18   19 1     
   37   18   43 1     
   38   19   20 1     
   39   20   21 1     
   40   20   44 1     
   41   20   45 1     
   42   21   27 1     
   43   21   22 1     
   44   21   23 1     
   45   22   46 1     
   46   23   24 1     
   47   23   47 1     
   48   23   48 1     
   49   24   25 1     
   50   24   49 1     
   51   24   50 1     
   52   25   26 1     
   53   26   27 1     
   54   26   51 1     
   55   26   52 1     
   56   27   53 1     
   57   27   54 1     
   58    2   55 1     
   59    2   56 1     
   60    7   57 1     
   61    7   58 1     
   62   10   59 1     
   63   12   60 1     
   64   14   61 1     
   65   17   62 1     
   66   22   63 1     
   67   22   64 1     
   68   25   65 1     
   69   25   66 1     
@<TRIPOS>SUBSTRUCTURE
      1 S1             1
@<TRIPOS>SET
LONE_PAIRS      STATIC     ATOMS    <user>   **** ""
12 55 56 57 58 59 60 61 62 63 64 65 66
DONOR_HYDROGENS      STATIC     ATOMS    <user>   **** ""
1 46
ATOM$BLUE        STATIC     ATOMS    COLORGROUP SYSTEM
12 55 56 57 58 59 60 61 62 63 64 65 66
ATOM$RED        STATIC     ATOMS    COLORGROUP SYSTEM
1 46
