AV-unprocessed.smi:787|AV-procd|sdf|3726|dock1
  -GOLD-   22720 1153D 1   1.00000     0.00000
 Structure written by MMmdl.
 47 49  0  0  0  0  0  0  0  0  2 V2000
  150.6698  134.6859  156.2258 C   0  0  0  0  0  0  0  0  0  0  0  0
  150.3384  135.8264  155.3866 N   0  0  0  0  0  0  0  0  0  0  0  0
  151.1103  136.9963  155.4318 C   0  0  0  0  0  0  0  0  0  0  0  0
  152.4056  136.9393  155.8173 N   0  0  0  0  0  0  0  0  0  0  0  0
  153.1029  138.0833  155.8395 C   0  0  0  0  0  0  0  0  0  0  0  0
  152.7003  139.3253  155.5276 N   0  0  0  0  0  0  0  0  0  0  0  0
  151.4174  139.3925  155.1468 C   0  0  0  0  0  0  0  0  0  0  0  0
  150.7367  140.5383  154.7717 N   0  0  0  0  0  0  0  0  0  0  0  0
  149.5257  140.0586  154.4991 C   0  0  0  0  0  0  0  0  0  0  0  0
  149.3327  138.7341  154.6575 N   0  0  0  0  0  0  0  0  0  0  0  0
  148.1029  137.9979  154.4282 C   0  0  0  0  0  0  0  0  0  0  0  0
  147.2722  138.5939  153.2721 C   0  0  1  0  0  0  0  0  0  0  0  0
  147.9834  138.4391  152.0611 O   0  0  0  0  0  0  0  0  0  0  0  0
  145.8999  137.9128  153.1182 C   0  0  0  0  0  0  0  0  0  0  0  0
  146.0291  136.5196  152.6145 N   0  3  1  0  0  0  0  0  0  0  0  0
  145.9832  135.5119  153.6989 C   0  0  0  0  0  0  0  0  0  0  0  0
  145.0897  136.1956  151.5130 C   0  0  0  0  0  0  0  0  0  0  0  0
  145.2403  134.7549  151.0556 C   0  0  0  0  0  0  0  0  0  0  0  0
  146.5159  134.1520  151.0377 C   0  0  0  0  0  0  0  0  0  0  0  0
  146.6640  132.8216  150.6000 C   0  0  0  0  0  0  0  0  0  0  0  0
  145.5371  132.0876  150.1827 C   0  0  0  0  0  0  0  0  0  0  0  0
  144.2618  132.6843  150.2030 C   0  0  0  0  0  0  0  0  0  0  0  0
  144.1128  134.0149  150.6395 C   0  0  0  0  0  0  0  0  0  0  0  0
  150.5670  138.2482  155.0819 C   0  0  0  0  0  0  0  0  0  0  0  0
  149.9592  133.8775  156.0533 H   0  0  0  0  0  0  0  0  0  0  0  0
  150.6282  134.9580  157.2811 H   0  0  0  0  0  0  0  0  0  0  0  0
  151.6699  134.3156  155.9983 H   0  0  0  0  0  0  0  0  0  0  0  0
  149.5442  135.7703  154.7679 H   0  0  0  0  0  0  0  0  0  0  0  0
  154.1328  137.9936  156.1520 H   0  0  0  0  0  0  0  0  0  0  0  0
  148.7296  140.7105  154.1693 H   0  0  0  0  0  0  0  0  0  0  0  0
  148.3474  136.9538  154.2261 H   0  0  0  0  0  0  0  0  0  0  0  0
  147.5333  138.0012  155.3577 H   0  0  0  0  0  0  0  0  0  0  0  0
  147.1363  139.6642  153.4248 H   0  0  0  0  0  0  0  0  0  0  0  0
  148.6560  137.7864  152.1862 H   0  0  0  0  0  0  0  0  0  0  0  0
  145.3639  137.9015  154.0690 H   0  0  0  0  0  0  0  0  0  0  0  0
  145.2929  138.5176  152.4444 H   0  0  0  0  0  0  0  0  0  0  0  0
  144.9969  135.4833  154.1640 H   0  0  0  0  0  0  0  0  0  0  0  0
  146.7184  135.7284  154.4736 H   0  0  0  0  0  0  0  0  0  0  0  0
  146.2057  134.5179  153.3093 H   0  0  0  0  0  0  0  0  0  0  0  0
  144.0607  136.3259  151.8519 H   0  0  0  0  0  0  0  0  0  0  0  0
  145.2345  136.8862  150.6805 H   0  0  0  0  0  0  0  0  0  0  0  0
  147.3853  134.7095  151.3546 H   0  0  0  0  0  0  0  0  0  0  0  0
  147.6421  132.3633  150.5846 H   0  0  0  0  0  0  0  0  0  0  0  0
  145.6504  131.0666  149.8485 H   0  0  0  0  0  0  0  0  0  0  0  0
  143.3974  132.1205  149.8838 H   0  0  0  0  0  0  0  0  0  0  0  0
  143.1306  134.4649  150.6502 H   0  0  0  0  0  0  0  0  0  0  0  0
  146.9491  136.4528  152.2039 H   0  0  0  0  0  0  0  0  0  0  0  0
  1  2  1  0  0  0  0
  1 25  1  0  0  0  0
  1 26  1  0  0  0  0
  1 27  1  0  0  0  0
  2  3  1  0  0  0  0
  2 28  1  0  0  0  0
  3 24  1  0  0  0  0
  3  4  2  0  0  0  0
  4  5  1  0  0  0  0
  5  6  2  0  0  0  0
  5 29  1  0  0  0  0
  6  7  1  0  0  0  0
  7 24  2  0  0  0  0
  7  8  1  0  0  0  0
  8  9  2  0  0  0  0
  9 10  1  0  0  0  0
  9 30  1  0  0  0  0
 10 11  1  0  0  0  0
 10 24  1  0  0  0  0
 11 12  1  0  0  0  0
 11 31  1  0  0  0  0
 11 32  1  0  0  0  0
 12 13  1  0  0  0  0
 12 14  1  0  0  0  0
 12 33  1  0  0  0  0
 13 34  1  0  0  0  0
 14 15  1  0  0  0  0
 14 35  1  0  0  0  0
 14 36  1  0  0  0  0
 15 16  1  0  0  0  0
 15 17  1  0  0  0  0
 15 47  1  0  0  0  0
 16 37  1  0  0  0  0
 16 38  1  0  0  0  0
 16 39  1  0  0  0  0
 17 18  1  0  0  0  0
 17 40  1  0  0  0  0
 17 41  1  0  0  0  0
 18 23  1  0  0  0  0
 18 19  2  0  0  0  0
 19 20  1  0  0  0  0
 19 42  1  0  0  0  0
 20 21  2  0  0  0  0
 20 43  1  0  0  0  0
 21 22  1  0  0  0  0
 21 44  1  0  0  0  0
 22 23  2  0  0  0  0
 22 45  1  0  0  0  0
 23 46  1  0  0  0  0
M  CHG  1  15   1
M  END
> <s_m_source_file>
AV-unprocessed.smi

> <i_m_source_file_index>
787

> <i_lp_mmshare_version>
43012

> <i_f3d_flags>
0

> <s_epik_input>
bjFbY0hdbmMoW05IXVtDSDNdKWMoYzEyKW4oW2NIXW4yKVtDSDJdW0NASF0oW09IXSlbQ0gyXU4oW0NIM10pW0NIMl1jM1tjSF1bY0hdW2NIXVtjSF1bY0hdMw==

> <s_epik_cmdline>
J2VwaWtfcHl0aG9uJywgJy1waCcsICc3LjAnLCAnLXRuJywgJzgnLCAnLW1hJywgJzIwMCcsICctbWV0YWxfYmluZGluZycsICctaW1hZScsICc8aW5maWxlLm1hZT4nLCAnLW9tYWUnLCAnPG91dGZpbGUubWFlPic=

> <r_lp_tautomer_probability>
0.999987

> <r_epik_Ionization_Penalty>
0.0526284

> <r_epik_Ionization_Penalty_Charging>
0.0475377

> <r_epik_Ionization_Penalty_Neutral>
0.00509065

> <r_epik_State_Penalty>
0.0404888

> <r_epik_Charging_Adjusted_Penalty>
0.0880265

> <i_epik_Tot_Q>
1

> <i_epik_Tot_abs_Q>
1

> <r_epik_Metal_State_Penalty>
0.040507

> <b_epik_Metal_Only>
0

> <s_lp_Force_Field>
OPLS_2005

> <r_lp_Energy>
14.3877

> <b_lp_Chiralities_Consistent>
1

> <s_lp_Variant>
AV-unprocessed.smi:787-2

> <Gold.Version>
5.8.1

> <Gold.Id.Protein>
6NUR|6NUR_protein|mol2

> <Gold.PLP.Fitness>
54.4626

> <Gold.PLP.PLP>
-40.3856

> <Gold.PLP.part.hbond>
-5.6902

> <Gold.PLP.part.metal>
0.0000

> <Gold.PLP.part.buried>
-1.2469

> <Gold.PLP.part.nonpolar>
-32.7524

> <Gold.PLP.part.repulsive>
0.1908

> <Gold.PLP.ligand.clash>
0.0000

> <Gold.PLP.ligand.torsion>
1.5233

> <Gold.PLP.Chemscore.Hbond>
5.4375

> <Gold.PLP.Chemscore.CHOScore>
0.0000

> <Gold.PLP.Chemscore.Metal>
0.0000

> <Gold.Chemscore.Hbonds>
donor molecule, donor type, donor heavy atom, donor atom, acceptor molecule, acceptor atom, score
      L1  H    13    34       P1  7948  0.82
      L1  H    15    47       P1  7948  2.00
      P1  H  7954  7966       L1    13  0.07
      P1  H  7989  7998       L1     8  0.85
      P1  H  7997  8008       L1     6  0.70
      P1  H 10752 10765       L1     4  0.78

> <Gold.PLP.Chemscore.Internal.Correction>
0.8108

> <Gold.Rescore>
     Score         DG    S(hbond)    S(metal)    S(lipo)     H(rot)  DE(clash)    DE(int)     intcor
     15.75     -17.36       3.42        0.00      73.85       3.19       0.13       1.49       ----

> <Gold.Chemscore.Fitness>
15.7485

> <Gold.Chemscore.DG>
-17.3639

> <Gold.Chemscore.ZeroCoef>
-5.4800

> <Gold.Chemscore.Hbond>
3.4184

> <Gold.Chemscore.Metal>
0.0000

> <Gold.Chemscore.Lipo>
73.8476

> <Gold.Chemscore.Internal_Hbond>
0.0000

> <Gold.Chemscore.DEClash>
0.1293

> <Gold.Chemscore.DEInternal>
1.4861

> <Gold.Chemscore.Rot>
3.1928

> <Gold.Chemscore.Internal.Correction>
   9.000000E+99

> <Gold.Chemscore.Hbonds>
donor molecule, donor type, donor heavy atom, donor atom, acceptor molecule, acceptor atom, score
      L1  H    13    34       P1  7948  0.80
      L1  H    15    47       P1  7948  0.93
      P1  H  7989  7998       L1     8  0.12
      P1  H  7997  8008       L1     6  0.07
      P1  H 10752 10765       L1     4  0.61

> <Gold.Chemscore.Hbond.Weighted>
-11.4174

> <Gold.Chemscore.Metal.Weighted>
-0.0000

> <Gold.Chemscore.Lipo.Weighted>
-8.6402

> <Gold.Chemscore.Internal_Hbond.Weighted>
0.0000

> <Gold.Chemscore.DEClash.Weighted>
0.1293

> <Gold.Chemscore.DEInternal.Weighted>
1.4861

> <Gold.Chemscore.Rot.Weighted>
8.1736

> <Gold.Chemscore.Internal.Correction.Weighted>
   9.000000E+99

> <Gold.Protein.RotatedTorsions>
[ 6907 6896 6895 6894 ] final -165.76 input  -60.11 | X-H torsion
[ 7974 7965 7964 7962 ] final  -30.06 input  175.53 | X-H torsion
[ 8008 7997 7996 7995 ] final  -30.87 input   59.86 | X-H torsion
[ 10167 10162 10161 10158 ] final   90.54 input  -65.29 | X-H torsion
[ 10718 10713 10712 10709 ] final  170.08 input   66.30 | X-H torsion
[ 10763 10752 10751 10750 ] final -139.50 input  -60.55 | X-H torsion
[ 11005 11000 10999 10996 ] final  125.13 input  -57.11 | X-H torsion

> <Gold.Protein.ActiveResidues>
 VAL166  LYS551  ARG553  GLY616  TRP617  ASP618  TYR619  PRO620  LYS621  CYS622 
 ASP623  PHE694  ASN695  SER759  ASP760  ASP761  ALA762  ILE779  LEU786  VAL792 
 PHE793  MET794  SER795  GLU796  ALA797  LYS798  CYS799  TRP800  GLU811  SER814 

> <Gold.Protein.RotatedAtoms>
  151.4327  133.3665  159.2770 H   0  0  0  0  0  0  0  0  0  0  0  0  # atno 6907 bound_to 6896
  150.9213  134.8632  159.7501 H   0  0  0  0  0  0  0  0  0  0  0  0  # atno 6908 bound_to 6896
  152.4983  134.4265  159.9550 H   0  0  0  0  0  0  0  0  0  0  0  0  # atno 6909 bound_to 6896
  146.1170  140.5492  142.8752 H   0  0  0  0  0  0  0  0  0  0  0  0  # atno 7974 bound_to 7965
  154.4234  140.1780  156.1475 H   0  0  0  0  0  0  0  0  0  0  0  0  # atno 8008 bound_to 7997
  155.9942  140.3366  155.6757 H   0  0  0  0  0  0  0  0  0  0  0  0  # atno 8009 bound_to 7997
  155.6332  140.0672  157.2633 H   0  0  0  0  0  0  0  0  0  0  0  0  # atno 8010 bound_to 7997
  139.8463  144.6616  150.9222 H   0  0  0  0  0  0  0  0  0  0  0  0  # atno 10167 bound_to 10162
  157.0134  131.0211  151.2796 H   0  0  0  0  0  0  0  0  0  0  0  0  # atno 10718 bound_to 10713
  154.8607  135.3581  154.5556 H   0  0  0  0  0  0  0  0  0  0  0  0  # atno 10763 bound_to 10752
  153.6172  135.7007  153.5329 H   0  0  0  0  0  0  0  0  0  0  0  0  # atno 10764 bound_to 10752
  153.3159  135.4165  155.1336 H   0  0  0  0  0  0  0  0  0  0  0  0  # atno 10765 bound_to 10752
  139.9392  134.9637  156.8513 H   0  0  0  0  0  0  0  0  0  0  0  0  # atno 11005 bound_to 11000
  144.7562  140.5314  143.6767 LP  0  0  0  0  0  0  0  0  0  0  0  0  # atno 17320 bound_to 7965
  145.5545  139.1477  143.3376 LP  0  0  0  0  0  0  0  0  0  0  0  0  # atno 17321 bound_to 7965
  140.7792  143.3867  151.1382 LP  0  0  0  0  0  0  0  0  0  0  0  0  # atno 17342 bound_to 10162
  139.7509  143.8781  152.3076 LP  0  0  0  0  0  0  0  0  0  0  0  0  # atno 17343 bound_to 10162
  157.5304  130.8055  149.7910 LP  0  0  0  0  0  0  0  0  0  0  0  0  # atno 17370 bound_to 10713
  156.0128  130.3826  150.2208 LP  0  0  0  0  0  0  0  0  0  0  0  0  # atno 17371 bound_to 10713
  140.5997  134.0184  155.7532 LP  0  0  0  0  0  0  0  0  0  0  0  0  # atno 17394 bound_to 11000
  141.1019  133.9755  157.3064 LP  0  0  0  0  0  0  0  0  0  0  0  0  # atno 17395 bound_to 11000

$$$$
