AV-unprocessed.smi:1830|AV-procd|sdf|7449|dock8
  -GOLD-   22720 9143D 1   1.00000     0.00000
 Structure written by MMmdl.
 54 57  0  0  0  0  0  0  0  0  3 V2000
  149.4703  136.8102  156.2279 O   0  0  0  0  0  0  0  0  0  0  0  0
  148.8701  137.2055  155.2292 C   0  0  0  0  0  0  0  0  0  0  0  0
  148.0774  136.4237  154.4835 N   0  0  0  0  0  0  0  0  0  0  0  0
  147.8296  135.0041  154.7194 C   0  0  0  0  0  0  0  0  0  0  0  0
  146.9228  134.3593  153.6519 C   0  0  1  0  0  0  0  0  0  0  0  0
  145.8478  133.4249  154.2468 C   0  0  0  0  0  0  0  0  0  0  0  0
  144.9051  132.9393  153.2125 N   0  3  2  0  0  0  0  0  0  0  0  0
  145.3682  131.8094  152.3767 C   0  0  0  0  0  0  0  0  0  0  0  0
  144.6807  131.9729  151.0118 C   0  0  0  0  0  0  0  0  0  0  0  0
  143.7782  133.2035  151.1527 C   0  0  0  0  0  0  0  0  0  0  0  0
  144.3939  133.9910  152.3103 C   0  0  2  0  0  0  0  0  0  0  0  0
  145.5272  134.9304  151.8401 C   0  0  0  0  0  0  0  0  0  0  0  0
  146.2661  135.4107  152.9546 O   0  0  0  0  0  0  0  0  0  0  0  0
  148.8982  138.4624  154.7564 N   0  0  0  0  0  0  0  0  0  0  0  0
  149.5610  139.5931  155.3128 C   0  0  0  0  0  0  0  0  0  0  0  0
  150.8434  139.4918  155.9107 C   0  0  0  0  0  0  0  0  0  0  0  0
  151.4754  140.6460  156.4119 C   0  0  0  0  0  0  0  0  0  0  0  0
  150.8217  141.8856  156.2975 C   0  0  0  0  0  0  0  0  0  0  0  0
  149.6092  141.9507  155.7095 N   0  3  0  0  0  0  0  0  0  0  0  0
  148.9532  140.8748  155.2088 C   0  0  0  0  0  0  0  0  0  0  0  0
  147.6770  141.0605  154.6348 N   0  0  0  0  0  0  0  0  0  0  0  0
  146.6553  141.5190  155.5729 C   0  0  0  0  0  0  0  0  0  0  0  0
  145.7487  142.4751  154.7946 C   0  0  0  0  0  0  0  0  0  0  0  0
  146.6670  143.0134  153.7043 C   0  0  0  0  0  0  0  0  0  0  0  0
  147.5409  141.8029  153.3821 C   0  0  0  0  0  0  0  0  0  0  0  0
  147.6243  136.8335  153.6795 H   0  0  0  0  0  0  0  0  0  0  0  0
  148.7947  134.4970  154.7376 H   0  0  0  0  0  0  0  0  0  0  0  0
  147.3948  134.8715  155.7113 H   0  0  0  0  0  0  0  0  0  0  0  0
  147.5480  133.8074  152.9485 H   0  0  0  0  0  0  0  0  0  0  0  0
  146.2979  132.5727  154.7577 H   0  0  0  0  0  0  0  0  0  0  0  0
  145.2712  133.9700  154.9949 H   0  0  0  0  0  0  0  0  0  0  0  0
  146.4516  131.8287  152.2524 H   0  0  0  0  0  0  0  0  0  0  0  0
  145.1069  130.8647  152.8540 H   0  0  0  0  0  0  0  0  0  0  0  0
  145.4306  132.1435  150.2383 H   0  0  0  0  0  0  0  0  0  0  0  0
  144.1131  131.0865  150.7271 H   0  0  0  0  0  0  0  0  0  0  0  0
  143.7005  133.7817  150.2312 H   0  0  0  0  0  0  0  0  0  0  0  0
  142.7714  132.8840  151.4257 H   0  0  0  0  0  0  0  0  0  0  0  0
  143.6368  134.5775  152.8326 H   0  0  0  0  0  0  0  0  0  0  0  0
  146.2018  134.4280  151.1446 H   0  0  0  0  0  0  0  0  0  0  0  0
  145.1065  135.7809  151.3033 H   0  0  0  0  0  0  0  0  0  0  0  0
  148.2917  138.6566  153.9728 H   0  0  0  0  0  0  0  0  0  0  0  0
  151.3627  138.5479  155.9788 H   0  0  0  0  0  0  0  0  0  0  0  0
  152.4513  140.5810  156.8708 H   0  0  0  0  0  0  0  0  0  0  0  0
  151.2297  142.8213  156.6518 H   0  0  0  0  0  0  0  0  0  0  0  0
  146.0868  140.6820  155.9796 H   0  0  0  0  0  0  0  0  0  0  0  0
  147.1219  142.0440  156.4085 H   0  0  0  0  0  0  0  0  0  0  0  0
  144.9263  141.9199  154.3412 H   0  0  0  0  0  0  0  0  0  0  0  0
  145.3217  143.2592  155.4203 H   0  0  0  0  0  0  0  0  0  0  0  0
  146.1261  143.3902  152.8355 H   0  0  0  0  0  0  0  0  0  0  0  0
  147.2815  143.8231  154.1008 H   0  0  0  0  0  0  0  0  0  0  0  0
  148.4825  142.0974  152.9197 H   0  0  0  0  0  0  0  0  0  0  0  0
  147.0291  141.1565  152.6683 H   0  0  0  0  0  0  0  0  0  0  0  0
  144.0969  132.5827  153.7024 H   0  0  0  0  0  0  0  0  0  0  0  0
  149.1593  142.8638  155.6404 H   0  0  0  0  0  0  0  0  0  0  0  0
  1  2  2  0  0  0  0
  2  3  1  0  0  0  0
  2 14  1  0  0  0  0
  3  4  1  0  0  0  0
  3 26  1  0  0  0  0
  4  5  1  0  0  0  0
  4 27  1  0  0  0  0
  4 28  1  0  0  0  0
  5 13  1  0  0  0  0
  5  6  1  0  0  0  0
  5 29  1  0  0  0  0
  6  7  1  0  0  0  0
  6 30  1  0  0  0  0
  6 31  1  0  0  0  0
  7 11  1  0  0  0  0
  7  8  1  0  0  0  0
  7 53  1  0  0  0  0
  8  9  1  0  0  0  0
  8 32  1  0  0  0  0
  8 33  1  0  0  0  0
  9 10  1  0  0  0  0
  9 34  1  0  0  0  0
  9 35  1  0  0  0  0
 10 11  1  0  0  0  0
 10 36  1  0  0  0  0
 10 37  1  0  0  0  0
 11 12  1  0  0  0  0
 11 38  1  0  0  0  0
 12 13  1  0  0  0  0
 12 39  1  0  0  0  0
 12 40  1  0  0  0  0
 14 15  1  0  0  0  0
 14 41  1  0  0  0  0
 15 20  1  0  0  0  0
 15 16  2  0  0  0  0
 16 17  1  0  0  0  0
 16 42  1  0  0  0  0
 17 18  2  0  0  0  0
 17 43  1  0  0  0  0
 18 19  1  0  0  0  0
 18 44  1  0  0  0  0
 19 20  2  0  0  0  0
 19 54  1  0  0  0  0
 20 21  1  0  0  0  0
 21 25  1  0  0  0  0
 21 22  1  0  0  0  0
 22 23  1  0  0  0  0
 22 45  1  0  0  0  0
 22 46  1  0  0  0  0
 23 24  1  0  0  0  0
 23 47  1  0  0  0  0
 23 48  1  0  0  0  0
 24 25  1  0  0  0  0
 24 49  1  0  0  0  0
 24 50  1  0  0  0  0
 25 51  1  0  0  0  0
 25 52  1  0  0  0  0
M  CHG  1   7   1
M  CHG  1  19   1
M  END
> <s_m_source_file>
AV-unprocessed.smi

> <i_m_source_file_index>
1830

> <i_lp_mmshare_version>
43012

> <i_f3d_flags>
0

> <s_epik_input>
W0NIMl0xW0NIMl1bQ0gyXVtDQEhdKE4xMilbQ0gyXU9bQ0BASF0oW0NIMl0yKVtDSDJdW05IXUMoPU8pW05IXWMzW2NIXVtjSF1bY0hdbmMzTjRbQ0gyXVtDSDJdW0NIMl1bQ0gyXTQ=

> <s_epik_cmdline>
J2VwaWtfcHl0aG9uJywgJy1waCcsICc3LjAnLCAnLXRuJywgJzgnLCAnLW1hJywgJzIwMCcsICctbWV0YWxfYmluZGluZycsICctaW1hZScsICc8aW5maWxlLm1hZT4nLCAnLW9tYWUnLCAnPG91dGZpbGUubWFlPic=

> <r_lp_tautomer_probability>
0.999994

> <r_epik_Ionization_Penalty>
1.29113

> <r_epik_Ionization_Penalty_Charging>
1.29111

> <r_epik_Ionization_Penalty_Neutral>
1.88144e-05

> <r_epik_State_Penalty>
1.32676

> <r_epik_Charging_Adjusted_Penalty>
2.61787

> <i_epik_Tot_Q>
2

> <i_epik_Tot_abs_Q>
2

> <r_epik_Metal_State_Penalty>
1.40425

> <b_epik_Metal_Only>
0

> <s_lp_Force_Field>
OPLS_2005

> <r_lp_Energy>
74.6229

> <b_lp_Chiralities_Consistent>
1

> <s_lp_Variant>
AV-unprocessed.smi:1830-18

> <Gold.Version>
5.8.1

> <Gold.Id.Protein>
6NUR|6NUR_protein|mol2

> <Gold.PLP.Fitness>
45.7873

> <Gold.PLP.PLP>
-35.5699

> <Gold.PLP.part.hbond>
-3.0000

> <Gold.PLP.part.metal>
0.0000

> <Gold.PLP.part.buried>
-5.9337

> <Gold.PLP.part.nonpolar>
-27.3214

> <Gold.PLP.part.repulsive>
1.0590

> <Gold.PLP.ligand.clash>
0.0000

> <Gold.PLP.ligand.torsion>
0.9705

> <Gold.PLP.Chemscore.Hbond>
4.0000

> <Gold.PLP.Chemscore.CHOScore>
0.0000

> <Gold.PLP.Chemscore.Metal>
0.0000

> <Gold.Chemscore.Hbonds>
donor molecule, donor type, donor heavy atom, donor atom, acceptor molecule, acceptor atom, score
      L1  H     3    26       P1  7948  0.02
      L1  H     7    53       P1 10957  2.00
      L1  H    19    54       P1  8028  2.00

> <Gold.PLP.Chemscore.Internal.Correction>
0.1583

> <Gold.Rescore>
     Score         DG    S(hbond)    S(metal)    S(lipo)     H(rot)  DE(clash)    DE(int)     intcor
     15.14     -17.26       1.90        0.00      77.66       1.43       0.08       2.04       ----

> <Gold.Chemscore.Fitness>
15.1388

> <Gold.Chemscore.DG>
-17.2623

> <Gold.Chemscore.ZeroCoef>
-5.4800

> <Gold.Chemscore.Hbond>
1.9017

> <Gold.Chemscore.Metal>
0.0000

> <Gold.Chemscore.Lipo>
77.6563

> <Gold.Chemscore.Internal_Hbond>
0.0000

> <Gold.Chemscore.DEClash>
0.0791

> <Gold.Chemscore.DEInternal>
2.0444

> <Gold.Chemscore.Rot>
1.4278

> <Gold.Chemscore.Internal.Correction>
   9.000000E+99

> <Gold.Chemscore.Hbonds>
donor molecule, donor type, donor heavy atom, donor atom, acceptor molecule, acceptor atom, score
      L1  H     3    26       P1  7948  0.03
      L1  H     7    53       P1 10957  0.49
      L1  H    19    54       P1  8028  1.00

> <Gold.Chemscore.Hbond.Weighted>
-6.3516

> <Gold.Chemscore.Metal.Weighted>
-0.0000

> <Gold.Chemscore.Lipo.Weighted>
-9.0858

> <Gold.Chemscore.Internal_Hbond.Weighted>
0.0000

> <Gold.Chemscore.DEClash.Weighted>
0.0791

> <Gold.Chemscore.DEInternal.Weighted>
2.0444

> <Gold.Chemscore.Rot.Weighted>
3.6551

> <Gold.Chemscore.Internal.Correction.Weighted>
   9.000000E+99

> <Gold.Protein.RotatedTorsions>
[ 6907 6896 6895 6894 ] final -133.53 input  -60.11 | X-H torsion
[ 7974 7965 7964 7962 ] final  -64.51 input  175.53 | X-H torsion
[ 8008 7997 7996 7995 ] final   56.64 input   59.86 | X-H torsion
[ 10167 10162 10161 10158 ] final  110.25 input  -65.29 | X-H torsion
[ 10718 10713 10712 10709 ] final   99.02 input   66.30 | X-H torsion
[ 10763 10752 10751 10750 ] final -132.66 input  -60.55 | X-H torsion
[ 11005 11000 10999 10996 ] final  -81.27 input  -57.11 | X-H torsion

> <Gold.Protein.ActiveResidues>
 VAL166  LYS551  ARG553  GLY616  TRP617  ASP618  TYR619  PRO620  LYS621  CYS622 
 ASP623  PHE694  ASN695  SER759  ASP760  ASP761  ALA762  ILE779  LEU786  VAL792 
 PHE793  MET794  SER795  GLU796  ALA797  LYS798  CYS799  TRP800  GLU811  SER814 

> <Gold.Protein.RotatedAtoms>
  150.9751  133.6303  159.2731 H   0  0  0  0  0  0  0  0  0  0  0  0  # atno 6907 bound_to 6896
  151.3578  135.0896  159.9434 H   0  0  0  0  0  0  0  0  0  0  0  0  # atno 6908 bound_to 6896
  152.5196  133.9331  159.7645 H   0  0  0  0  0  0  0  0  0  0  0  0  # atno 6909 bound_to 6896
  145.7658  140.8838  143.0406 H   0  0  0  0  0  0  0  0  0  0  0  0  # atno 7974 bound_to 7965
  155.5208  140.3479  155.4406 H   0  0  0  0  0  0  0  0  0  0  0  0  # atno 8008 bound_to 7997
  156.0785  140.1380  156.9768 H   0  0  0  0  0  0  0  0  0  0  0  0  # atno 8009 bound_to 7997
  154.4567  140.0951  156.6752 H   0  0  0  0  0  0  0  0  0  0  0  0  # atno 8010 bound_to 7997
  139.6703  144.7125  151.1700 H   0  0  0  0  0  0  0  0  0  0  0  0  # atno 10167 bound_to 10162
  157.6884  131.0657  150.4885 H   0  0  0  0  0  0  0  0  0  0  0  0  # atno 10718 bound_to 10713
  154.8741  135.3790  154.4446 H   0  0  0  0  0  0  0  0  0  0  0  0  # atno 10763 bound_to 10752
  153.5128  135.7029  153.5777 H   0  0  0  0  0  0  0  0  0  0  0  0  # atno 10764 bound_to 10752
  153.4059  135.3937  155.1984 H   0  0  0  0  0  0  0  0  0  0  0  0  # atno 10765 bound_to 10752
  141.1667  133.7189  156.8398 H   0  0  0  0  0  0  0  0  0  0  0  0  # atno 11005 bound_to 11000
  144.6821  139.9787  143.7483 LP  0  0  0  0  0  0  0  0  0  0  0  0  # atno 17320 bound_to 7965
  146.0219  139.3258  143.0808 LP  0  0  0  0  0  0  0  0  0  0  0  0  # atno 17321 bound_to 7965
  140.7615  143.5854  150.8851 LP  0  0  0  0  0  0  0  0  0  0  0  0  # atno 17342 bound_to 10162
  139.9519  143.6262  152.3026 LP  0  0  0  0  0  0  0  0  0  0  0  0  # atno 17343 bound_to 10162
  156.5213  130.4162  149.6249 LP  0  0  0  0  0  0  0  0  0  0  0  0  # atno 17370 bound_to 10713
  156.3152  130.7250  151.2151 LP  0  0  0  0  0  0  0  0  0  0  0  0  # atno 17371 bound_to 10713
  140.1991  134.8910  157.3149 LP  0  0  0  0  0  0  0  0  0  0  0  0  # atno 17394 bound_to 11000
  140.2207  134.4027  155.7567 LP  0  0  0  0  0  0  0  0  0  0  0  0  # atno 17395 bound_to 11000

$$$$
