AV-unprocessed.smi:2712|AV-procd|sdf|10476|dock8
  -GOLD-   2272014513D 1   1.00000     0.00000
 Structure written by MMmdl.
 52 53  0  0  0  0  0  0  0  0  1 V2000
  147.7867  140.6551  153.9982 C   0  0  0  0  0  0  0  0  0  0  0  0
  149.0947  140.3521  154.6674 C   0  0  0  0  0  0  0  0  0  0  0  0
  149.7611  141.2860  155.5551 C   0  0  0  0  0  0  0  0  0  0  0  0
  150.9400  140.9401  156.1152 C   0  0  0  0  0  0  0  0  0  0  0  0
  151.5641  139.6448  155.8540 C   0  0  0  0  0  0  0  0  0  0  0  0
  152.6386  139.3009  156.3462 O   0  0  0  0  0  0  0  0  0  0  0  0
  150.8417  138.8470  155.0125 N   0  0  0  0  0  0  0  0  0  0  0  0
  151.3063  137.4986  154.6555 C   0  0  0  0  0  0  0  0  0  0  0  0
  150.4120  136.3754  155.2020 C   0  0  0  0  0  0  0  0  0  0  0  0
  150.1994  136.2644  156.4106 O   0  0  0  0  0  0  0  0  0  0  0  0
  149.8809  135.5539  154.2836 N   0  0  0  0  0  0  0  0  0  0  0  0
  148.9958  134.4249  154.5630 C   0  0  2  0  0  0  0  0  0  0  0  0
  149.1310  133.3664  153.4500 C   0  0  0  0  0  0  0  0  0  0  0  0
  147.9904  132.3395  153.4042 C   0  0  0  0  0  0  0  0  0  0  0  0
  146.8064  132.7868  152.5257 C   0  0  0  0  0  0  0  0  0  0  0  0
  145.8926  133.9011  153.1093 C   0  0  2  0  0  0  0  0  0  0  0  0
  144.6716  134.2544  152.1805 C   0  0  0  0  0  0  0  0  0  0  0  0
  143.9454  132.9882  151.6766 C   0  0  0  0  0  0  0  0  0  0  0  0
  145.1374  135.0757  150.9542 C   0  0  0  0  0  0  0  0  0  0  0  0
  143.6427  135.1385  152.9227 C   0  0  0  0  0  0  0  0  0  0  0  0
  146.7137  135.1507  153.5391 C   0  0  0  0  0  0  0  0  0  0  0  0
  147.5607  134.9319  154.8056 C   0  0  0  0  0  0  0  0  0  0  0  0
  149.6362  139.2026  154.4300 N   0  0  0  0  0  0  0  0  0  0  0  0
  147.4476  141.6643  154.2335 H   0  0  0  0  0  0  0  0  0  0  0  0
  147.0141  139.9582  154.3243 H   0  0  0  0  0  0  0  0  0  0  0  0
  147.8770  140.5780  152.9142 H   0  0  0  0  0  0  0  0  0  0  0  0
  149.3118  142.2463  155.7605 H   0  0  0  0  0  0  0  0  0  0  0  0
  151.4351  141.6361  156.7765 H   0  0  0  0  0  0  0  0  0  0  0  0
  151.3552  137.3944  153.5701 H   0  0  0  0  0  0  0  0  0  0  0  0
  152.3286  137.3498  155.0086 H   0  0  0  0  0  0  0  0  0  0  0  0
  150.1093  135.7202  153.3143 H   0  0  0  0  0  0  0  0  0  0  0  0
  149.3154  133.9687  155.5019 H   0  0  0  0  0  0  0  0  0  0  0  0
  149.2227  133.8464  152.4744 H   0  0  0  0  0  0  0  0  0  0  0  0
  150.0738  132.8382  153.5990 H   0  0  0  0  0  0  0  0  0  0  0  0
  148.3896  131.4223  152.9697 H   0  0  0  0  0  0  0  0  0  0  0  0
  147.6596  132.0688  154.4075 H   0  0  0  0  0  0  0  0  0  0  0  0
  147.1826  133.0814  151.5464 H   0  0  0  0  0  0  0  0  0  0  0  0
  146.2134  131.8895  152.3569 H   0  0  0  0  0  0  0  0  0  0  0  0
  145.4570  133.4816  154.0173 H   0  0  0  0  0  0  0  0  0  0  0  0
  143.0903  133.2501  151.0523 H   0  0  0  0  0  0  0  0  0  0  0  0
  143.5663  132.3806  152.4981 H   0  0  0  0  0  0  0  0  0  0  0  0
  144.5970  132.3575  151.0721 H   0  0  0  0  0  0  0  0  0  0  0  0
  145.7440  134.4965  150.2599 H   0  0  0  0  0  0  0  0  0  0  0  0
  145.7181  135.9480  151.2561 H   0  0  0  0  0  0  0  0  0  0  0  0
  144.2874  135.4400  150.3758 H   0  0  0  0  0  0  0  0  0  0  0  0
  142.8720  135.5084  152.2455 H   0  0  0  0  0  0  0  0  0  0  0  0
  144.1189  136.0077  153.3780 H   0  0  0  0  0  0  0  0  0  0  0  0
  143.1185  134.5920  153.7066 H   0  0  0  0  0  0  0  0  0  0  0  0
  147.3349  135.5131  152.7193 H   0  0  0  0  0  0  0  0  0  0  0  0
  146.0419  135.9728  153.7710 H   0  0  0  0  0  0  0  0  0  0  0  0
  147.0406  134.2451  155.4740 H   0  0  0  0  0  0  0  0  0  0  0  0
  147.6123  135.8672  155.3651 H   0  0  0  0  0  0  0  0  0  0  0  0
  1  2  1  0  0  0  0
  1 24  1  0  0  0  0
  1 25  1  0  0  0  0
  1 26  1  0  0  0  0
  2 23  2  0  0  0  0
  2  3  1  0  0  0  0
  3  4  2  0  0  0  0
  3 27  1  0  0  0  0
  4  5  1  0  0  0  0
  4 28  1  0  0  0  0
  5  6  2  0  0  0  0
  5  7  1  0  0  0  0
  7  8  1  0  0  0  0
  7 23  1  0  0  0  0
  8  9  1  0  0  0  0
  8 29  1  0  0  0  0
  8 30  1  0  0  0  0
  9 10  2  0  0  0  0
  9 11  1  0  0  0  0
 11 12  1  0  0  0  0
 11 31  1  0  0  0  0
 12 22  1  0  0  0  0
 12 13  1  0  0  0  0
 12 32  1  0  0  0  0
 13 14  1  0  0  0  0
 13 33  1  0  0  0  0
 13 34  1  0  0  0  0
 14 15  1  0  0  0  0
 14 35  1  0  0  0  0
 14 36  1  0  0  0  0
 15 16  1  0  0  0  0
 15 37  1  0  0  0  0
 15 38  1  0  0  0  0
 16 17  1  0  0  0  0
 16 21  1  0  0  0  0
 16 39  1  0  0  0  0
 17 18  1  0  0  0  0
 17 19  1  0  0  0  0
 17 20  1  0  0  0  0
 18 40  1  0  0  0  0
 18 41  1  0  0  0  0
 18 42  1  0  0  0  0
 19 43  1  0  0  0  0
 19 44  1  0  0  0  0
 19 45  1  0  0  0  0
 20 46  1  0  0  0  0
 20 47  1  0  0  0  0
 20 48  1  0  0  0  0
 21 22  1  0  0  0  0
 21 49  1  0  0  0  0
 21 50  1  0  0  0  0
 22 51  1  0  0  0  0
 22 52  1  0  0  0  0
M  END
> <s_m_source_file>
AV-unprocessed.smi

> <i_m_source_file_index>
2712

> <i_lp_mmshare_version>
43012

> <i_f3d_flags>
0

> <s_epik_input>
W0NIM11jMVtjSF1bY0hdYyg9TyluKG4xKVtDSDJdQyg9TylbTkhdW0NAQEhdMltDSDJdW0NIMl1bQ0gyXVtDQEBIXShDKFtDSDNdKShbQ0gzXSlbQ0gzXSlbQ0gyXVtDSDJdMg==

> <s_epik_cmdline>
J2VwaWtfcHl0aG9uJywgJy1waCcsICc3LjAnLCAnLXRuJywgJzgnLCAnLW1hJywgJzIwMCcsICctbWV0YWxfYmluZGluZycsICctaW1hZScsICc8aW5maWxlLm1hZT4nLCAnLW9tYWUnLCAnPG91dGZpbGUubWFlPic=

> <r_lp_tautomer_probability>
1

> <r_epik_Ionization_Penalty>
8.71758e-07

> <r_epik_Ionization_Penalty_Charging>
8.50442e-07

> <r_epik_Ionization_Penalty_Neutral>
2.13165e-08

> <r_epik_State_Penalty>
-0

> <r_epik_Charging_Adjusted_Penalty>
8.50442e-07

> <i_epik_Tot_Q>
0

> <i_epik_Tot_abs_Q>
0

> <r_epik_Metal_State_Penalty>
-0

> <b_epik_Metal_Only>
0

> <s_lp_Force_Field>
OPLS_2005

> <r_lp_Energy>
39.6201

> <b_lp_Chiralities_Consistent>
1

> <s_lp_Variant>
AV-unprocessed.smi:2712-3

> <Gold.Version>
5.8.1

> <Gold.Id.Protein>
6NUR|6NUR_protein|mol2

> <Gold.PLP.Fitness>
44.3580

> <Gold.PLP.PLP>
-42.1007

> <Gold.PLP.part.hbond>
-2.8315

> <Gold.PLP.part.metal>
0.0000

> <Gold.PLP.part.buried>
-1.2547

> <Gold.PLP.part.nonpolar>
-38.2415

> <Gold.PLP.part.repulsive>
0.2440

> <Gold.PLP.ligand.clash>
0.0000

> <Gold.PLP.ligand.torsion>
0.5119

> <Gold.PLP.Chemscore.Hbond>
1.0576

> <Gold.PLP.Chemscore.CHOScore>
0.0000

> <Gold.PLP.Chemscore.Metal>
0.0000

> <Gold.Chemscore.Hbonds>
donor molecule, donor type, donor heavy atom, donor atom, acceptor molecule, acceptor atom, score
      L1  H    11    31       P1  7948  0.06
      P1  H  7997  8009       L1     6  1.00

> <Gold.PLP.Chemscore.Internal.Correction>
0.1084

> <Gold.Rescore>
     Score         DG    S(hbond)    S(metal)    S(lipo)     H(rot)  DE(clash)    DE(int)     intcor
     14.40     -14.99       1.00        0.00      85.93       1.52       0.21       0.38       ----

> <Gold.Chemscore.Fitness>
14.4006

> <Gold.Chemscore.DG>
-14.9929

> <Gold.Chemscore.ZeroCoef>
-5.4800

> <Gold.Chemscore.Hbond>
1.0000

> <Gold.Chemscore.Metal>
0.0000

> <Gold.Chemscore.Lipo>
85.9341

> <Gold.Chemscore.Internal_Hbond>
0.0000

> <Gold.Chemscore.DEClash>
0.2103

> <Gold.Chemscore.DEInternal>
0.3820

> <Gold.Chemscore.Rot>
1.5162

> <Gold.Chemscore.Internal.Correction>
   9.000000E+99

> <Gold.Chemscore.Hbonds>
donor molecule, donor type, donor heavy atom, donor atom, acceptor molecule, acceptor atom, score
      P1  H  7997  8009       L1     6  0.99

> <Gold.Chemscore.Hbond.Weighted>
-3.3400

> <Gold.Chemscore.Metal.Weighted>
-0.0000

> <Gold.Chemscore.Lipo.Weighted>
-10.0543

> <Gold.Chemscore.Internal_Hbond.Weighted>
0.0000

> <Gold.Chemscore.DEClash.Weighted>
0.2103

> <Gold.Chemscore.DEInternal.Weighted>
0.3820

> <Gold.Chemscore.Rot.Weighted>
3.8814

> <Gold.Chemscore.Internal.Correction.Weighted>
   9.000000E+99

> <Gold.Protein.RotatedTorsions>
[ 6907 6896 6895 6894 ] final -164.31 input  -60.11 | X-H torsion
[ 7974 7965 7964 7962 ] final   91.60 input  175.53 | X-H torsion
[ 8008 7997 7996 7995 ] final -152.49 input   59.86 | X-H torsion
[ 10167 10162 10161 10158 ] final   96.30 input  -65.29 | X-H torsion
[ 10718 10713 10712 10709 ] final   99.01 input   66.30 | X-H torsion
[ 10763 10752 10751 10750 ] final -174.27 input  -60.55 | X-H torsion
[ 11005 11000 10999 10996 ] final    0.43 input  -57.11 | X-H torsion

> <Gold.Protein.ActiveResidues>
 VAL166  LYS551  ARG553  GLY616  TRP617  ASP618  TYR619  PRO620  LYS621  CYS622 
 ASP623  PHE694  ASN695  SER759  ASP760  ASP761  ALA762  ILE779  LEU786  VAL792 
 PHE793  MET794  SER795  GLU796  ALA797  LYS798  CYS799  TRP800  GLU811  SER814 

> <Gold.Protein.RotatedAtoms>
  151.4097  133.3731  159.2742 H   0  0  0  0  0  0  0  0  0  0  0  0  # atno 6907 bound_to 6896
  150.9372  134.8785  159.7599 H   0  0  0  0  0  0  0  0  0  0  0  0  # atno 6908 bound_to 6896
  152.5055  134.4046  159.9480 H   0  0  0  0  0  0  0  0  0  0  0  0  # atno 6909 bound_to 6896
  145.5034  139.2276  143.2764 H   0  0  0  0  0  0  0  0  0  0  0  0  # atno 7974 bound_to 7965
  155.6560  140.0717  157.2570 H   0  0  0  0  0  0  0  0  0  0  0  0  # atno 8008 bound_to 7997
  154.4152  140.1724  156.1776 H   0  0  0  0  0  0  0  0  0  0  0  0  # atno 8009 bound_to 7997
  155.9737  140.3360  155.6602 H   0  0  0  0  0  0  0  0  0  0  0  0  # atno 8010 bound_to 7997
  139.7907  144.6853  150.9896 H   0  0  0  0  0  0  0  0  0  0  0  0  # atno 10167 bound_to 10162
  157.6884  131.0657  150.4884 H   0  0  0  0  0  0  0  0  0  0  0  0  # atno 10718 bound_to 10713
  154.5982  135.2852  155.0563 H   0  0  0  0  0  0  0  0  0  0  0  0  # atno 10763 bound_to 10752
  154.1838  135.6452  153.5045 H   0  0  0  0  0  0  0  0  0  0  0  0  # atno 10764 bound_to 10752
  153.0147  135.5430  154.6692 H   0  0  0  0  0  0  0  0  0  0  0  0  # atno 10765 bound_to 10752
  140.6266  133.9613  155.8252 H   0  0  0  0  0  0  0  0  0  0  0  0  # atno 11005 bound_to 11000
  146.2211  140.5837  142.9016 LP  0  0  0  0  0  0  0  0  0  0  0  0  # atno 17320 bound_to 7965
  144.7767  140.5754  143.6633 LP  0  0  0  0  0  0  0  0  0  0  0  0  # atno 17321 bound_to 7965
  140.7820  143.4383  151.0589 LP  0  0  0  0  0  0  0  0  0  0  0  0  # atno 17342 bound_to 10162
  139.8060  143.8017  152.3167 LP  0  0  0  0  0  0  0  0  0  0  0  0  # atno 17343 bound_to 10162
  156.5212  130.4162  149.6250 LP  0  0  0  0  0  0  0  0  0  0  0  0  # atno 17370 bound_to 10713
  156.3153  130.7251  151.2152 LP  0  0  0  0  0  0  0  0  0  0  0  0  # atno 17371 bound_to 10713
  141.0705  134.0213  157.3533 LP  0  0  0  0  0  0  0  0  0  0  0  0  # atno 17394 bound_to 11000
  139.9132  135.0193  156.7777 LP  0  0  0  0  0  0  0  0  0  0  0  0  # atno 17395 bound_to 11000

$$$$
