AV-unprocessed.smi:2238|AV-procd|sdf|9055|dock9
  -GOLD-   2272012263D 1   1.00000     0.00000
 Structure written by MMmdl.
 38 39  0  0  0  0  0  0  0  0  1 V2000
  151.3808  145.3777  159.9428 C   0  0  0  0  0  0  0  0  0  0  0  0
  151.9165  143.9608  159.9188 C   0  0  0  0  0  0  0  0  0  0  0  0
  152.6732  143.4677  160.9998 C   0  0  0  0  0  0  0  0  0  0  0  0
  153.1690  142.1519  160.9670 C   0  0  0  0  0  0  0  0  0  0  0  0
  152.9111  141.3254  159.8560 C   0  0  0  0  0  0  0  0  0  0  0  0
  153.5322  139.7133  159.8421 Cl  0  0  0  0  0  0  0  0  0  0  0  0
  152.1538  141.8043  158.7637 C   0  0  0  0  0  0  0  0  0  0  0  0
  151.9411  140.9382  157.7111 O   0  0  0  0  0  0  0  0  0  0  0  0
  151.2519  141.4206  156.5658 C   0  0  0  0  0  0  0  0  0  0  0  0
  151.0400  140.2510  155.5885 C   0  0  1  0  0  0  0  0  0  0  0  0
  152.0610  139.3006  155.8118 O   0  0  0  0  0  0  0  0  0  0  0  0
  149.6906  139.5186  155.7750 C   0  0  0  0  0  0  0  0  0  0  0  0
  148.5215  140.3805  155.5235 N   0  0  0  0  0  0  0  0  0  0  0  0
  148.3723  140.8819  154.2145 C   0  0  0  0  0  0  0  0  0  0  0  0
  147.3822  141.6493  153.8856 N   0  0  0  0  0  0  0  0  0  0  0  0
  146.4304  141.9998  154.8479 C   0  0  0  0  0  0  0  0  0  0  0  0
  145.2877  142.8915  154.4082 C   0  0  0  0  0  0  0  0  0  0  0  0
  146.5321  141.5530  156.1207 C   0  0  0  0  0  0  0  0  0  0  0  0
  147.6439  140.6910  156.5226 C   0  0  0  0  0  0  0  0  0  0  0  0
  147.7777  140.2771  157.6743 O   0  0  0  0  0  0  0  0  0  0  0  0
  151.6591  143.1331  158.8068 C   0  0  0  0  0  0  0  0  0  0  0  0
  151.5079  145.8341  160.9250 H   0  0  0  0  0  0  0  0  0  0  0  0
  150.3178  145.3871  159.6999 H   0  0  0  0  0  0  0  0  0  0  0  0
  151.9062  145.9910  159.2104 H   0  0  0  0  0  0  0  0  0  0  0  0
  152.8765  144.0944  161.8559 H   0  0  0  0  0  0  0  0  0  0  0  0
  153.7489  141.7762  161.7973 H   0  0  0  0  0  0  0  0  0  0  0  0
  150.2984  141.8808  156.8308 H   0  0  0  0  0  0  0  0  0  0  0  0
  151.8747  142.1843  156.1001 H   0  0  0  0  0  0  0  0  0  0  0  0
  151.1262  140.6081  154.5618 H   0  0  0  0  0  0  0  0  0  0  0  0
  152.5021  139.1388  154.9914 H   0  0  0  0  0  0  0  0  0  0  0  0
  149.6425  138.6677  155.0926 H   0  0  0  0  0  0  0  0  0  0  0  0
  149.6539  139.0722  156.7710 H   0  0  0  0  0  0  0  0  0  0  0  0
  149.1406  140.5754  153.5028 H   0  0  0  0  0  0  0  0  0  0  0  0
  145.1469  143.7089  155.1160 H   0  0  0  0  0  0  0  0  0  0  0  0
  144.3617  142.3183  154.3560 H   0  0  0  0  0  0  0  0  0  0  0  0
  145.4786  143.3238  153.4252 H   0  0  0  0  0  0  0  0  0  0  0  0
  145.7872  141.8320  156.8521 H   0  0  0  0  0  0  0  0  0  0  0  0
  151.0775  143.5424  157.9946 H   0  0  0  0  0  0  0  0  0  0  0  0
  1  2  1  0  0  0  0
  1 22  1  0  0  0  0
  1 23  1  0  0  0  0
  1 24  1  0  0  0  0
  2 21  1  0  0  0  0
  2  3  2  0  0  0  0
  3  4  1  0  0  0  0
  3 25  1  0  0  0  0
  4  5  2  0  0  0  0
  4 26  1  0  0  0  0
  5  6  1  0  0  0  0
  5  7  1  0  0  0  0
  7  8  1  0  0  0  0
  7 21  2  0  0  0  0
  8  9  1  0  0  0  0
  9 10  1  0  0  0  0
  9 27  1  0  0  0  0
  9 28  1  0  0  0  0
 10 11  1  0  0  0  0
 10 12  1  0  0  0  0
 10 29  1  0  0  0  0
 11 30  1  0  0  0  0
 12 13  1  0  0  0  0
 12 31  1  0  0  0  0
 12 32  1  0  0  0  0
 13 19  1  0  0  0  0
 13 14  1  0  0  0  0
 14 15  2  0  0  0  0
 14 33  1  0  0  0  0
 15 16  1  0  0  0  0
 16 17  1  0  0  0  0
 16 18  2  0  0  0  0
 17 34  1  0  0  0  0
 17 35  1  0  0  0  0
 17 36  1  0  0  0  0
 18 19  1  0  0  0  0
 18 37  1  0  0  0  0
 19 20  2  0  0  0  0
 21 38  1  0  0  0  0
M  END
> <s_m_source_file>
AV-unprocessed.smi

> <i_m_source_file_index>
2238

> <i_lp_mmshare_version>
43012

> <i_f3d_flags>
0

> <s_epik_input>
W0NIM11jMVtjSF1bY0hdYyhDbCljKFtjSF0xKU9bQ0gyXVtDQEhdKFtPSF0pW0NIMl1uMltjSF1uYyhbQ0gzXSlbY0hdYzI9Tw==

> <s_epik_cmdline>
J2VwaWtfcHl0aG9uJywgJy1waCcsICc3LjAnLCAnLXRuJywgJzgnLCAnLW1hJywgJzIwMCcsICctbWV0YWxfYmluZGluZycsICctaW1hZScsICc8aW5maWxlLm1hZT4nLCAnLW9tYWUnLCAnPG91dGZpbGUubWFlPic=

> <r_lp_tautomer_probability>
1

> <r_epik_Ionization_Penalty>
1.78029e-05

> <r_epik_Ionization_Penalty_Charging>
3.78421e-08

> <r_epik_Ionization_Penalty_Neutral>
1.7765e-05

> <r_epik_State_Penalty>
-0

> <r_epik_Charging_Adjusted_Penalty>
3.78421e-08

> <i_epik_Tot_Q>
0

> <i_epik_Tot_abs_Q>
0

> <r_epik_Metal_State_Penalty>
-0

> <b_epik_Metal_Only>
0

> <s_lp_Force_Field>
OPLS_2005

> <r_lp_Energy>
22.1977

> <b_lp_Chiralities_Consistent>
1

> <s_lp_Variant>
AV-unprocessed.smi:2238-2

> <Gold.Version>
5.8.1

> <Gold.Id.Protein>
6NUR|6NUR_protein|mol2

> <Gold.PLP.Fitness>
45.6079

> <Gold.PLP.PLP>
-43.5430

> <Gold.PLP.part.hbond>
0.0000

> <Gold.PLP.part.metal>
0.0000

> <Gold.PLP.part.buried>
-5.9832

> <Gold.PLP.part.nonpolar>
-37.1180

> <Gold.PLP.part.repulsive>
0.1840

> <Gold.PLP.ligand.clash>
0.0000

> <Gold.PLP.ligand.torsion>
0.4728

> <Gold.PLP.Chemscore.Hbond>
0.0000

> <Gold.PLP.Chemscore.CHOScore>
1.0000

> <Gold.PLP.Chemscore.Metal>
0.0000

> <Gold.Chemscore.Hbonds>
donor molecule, donor type, donor heavy atom, donor atom, acceptor molecule, acceptor atom, score
      L1  C    14    33       P1  7957  1.00

> <Gold.PLP.Chemscore.Internal.Correction>
0.0105

> <Gold.Rescore>
     Score         DG    S(hbond)    S(metal)    S(lipo)     H(rot)  DE(clash)    DE(int)     intcor
     12.35     -12.85       0.00        0.00     117.07       2.47       0.02       0.48       ----

> <Gold.Chemscore.Fitness>
12.3471

> <Gold.Chemscore.DG>
-12.8489

> <Gold.Chemscore.ZeroCoef>
-5.4800

> <Gold.Chemscore.Hbond>
0.0000

> <Gold.Chemscore.Metal>
0.0000

> <Gold.Chemscore.Lipo>
117.0667

> <Gold.Chemscore.Internal_Hbond>
0.0000

> <Gold.Chemscore.DEClash>
0.0243

> <Gold.Chemscore.DEInternal>
0.4775

> <Gold.Chemscore.Rot>
2.4718

> <Gold.Chemscore.Internal.Correction>
   9.000000E+99

> <Gold.Chemscore.Hbond.Weighted>
-0.0000

> <Gold.Chemscore.Metal.Weighted>
-0.0000

> <Gold.Chemscore.Lipo.Weighted>
-13.6968

> <Gold.Chemscore.Internal_Hbond.Weighted>
0.0000

> <Gold.Chemscore.DEClash.Weighted>
0.0243

> <Gold.Chemscore.DEInternal.Weighted>
0.4775

> <Gold.Chemscore.Rot.Weighted>
6.3279

> <Gold.Chemscore.Internal.Correction.Weighted>
   9.000000E+99

> <Gold.Protein.RotatedTorsions>
[ 6907 6896 6895 6894 ] final   84.46 input  -60.11 | X-H torsion
[ 7974 7965 7964 7962 ] final -149.14 input  175.53 | X-H torsion
[ 8008 7997 7996 7995 ] final  -50.97 input   59.86 | X-H torsion
[ 10167 10162 10161 10158 ] final  -27.31 input  -65.29 | X-H torsion
[ 10718 10713 10712 10709 ] final -147.29 input   66.30 | X-H torsion
[ 10763 10752 10751 10750 ] final -154.39 input  -60.55 | X-H torsion
[ 11005 11000 10999 10996 ] final  174.75 input  -57.11 | X-H torsion

> <Gold.Protein.ActiveResidues>
 VAL166  LYS551  ARG553  GLY616  TRP617  ASP618  TYR619  PRO620  LYS621  CYS622 
 ASP623  PHE694  ASN695  SER759  ASP760  ASP761  ALA762  ILE779  LEU786  VAL792 
 PHE793  MET794  SER795  GLU796  ALA797  LYS798  CYS799  TRP800  GLU811  SER814 

> <Gold.Protein.RotatedAtoms>
  152.5353  134.2737  159.8981 H   0  0  0  0  0  0  0  0  0  0  0  0  # atno 6907 bound_to 6896
  151.2693  133.4256  159.2628 H   0  0  0  0  0  0  0  0  0  0  0  0  # atno 6908 bound_to 6896
  151.0382  134.9603  159.8204 H   0  0  0  0  0  0  0  0  0  0  0  0  # atno 6909 bound_to 6896
  144.7985  140.5103  143.5723 H   0  0  0  0  0  0  0  0  0  0  0  0  # atno 7974 bound_to 7965
  154.4073  140.1259  156.4752 H   0  0  0  0  0  0  0  0  0  0  0  0  # atno 8008 bound_to 7997
  155.7140  140.3493  155.4966 H   0  0  0  0  0  0  0  0  0  0  0  0  # atno 8009 bound_to 7997
  155.9275  140.1063  157.1149 H   0  0  0  0  0  0  0  0  0  0  0  0  # atno 8010 bound_to 7997
  140.7278  143.4104  151.1115 H   0  0  0  0  0  0  0  0  0  0  0  0  # atno 10167 bound_to 10162
  156.4057  130.7956  151.2170 H   0  0  0  0  0  0  0  0  0  0  0  0  # atno 10718 bound_to 10713
  154.7862  135.3191  154.7881 H   0  0  0  0  0  0  0  0  0  0  0  0  # atno 10763 bound_to 10752
  153.8580  135.6856  153.4790 H   0  0  0  0  0  0  0  0  0  0  0  0  # atno 10764 bound_to 10752
  153.1514  135.4697  154.9582 H   0  0  0  0  0  0  0  0  0  0  0  0  # atno 10765 bound_to 10752
  140.3547  134.7165  157.4291 H   0  0  0  0  0  0  0  0  0  0  0  0  # atno 11005 bound_to 11000
  145.5611  139.1479  143.3340 LP  0  0  0  0  0  0  0  0  0  0  0  0  # atno 17320 bound_to 7965
  146.2260  140.5747  142.8996 LP  0  0  0  0  0  0  0  0  0  0  0  0  # atno 17321 bound_to 7965
  139.7737  143.8457  152.3125 LP  0  0  0  0  0  0  0  0  0  0  0  0  # atno 17342 bound_to 10162
  139.8384  144.7221  150.9362 LP  0  0  0  0  0  0  0  0  0  0  0  0  # atno 17343 bound_to 10162
  157.7505  131.0273  150.4000 LP  0  0  0  0  0  0  0  0  0  0  0  0  # atno 17370 bound_to 10713
  156.4288  130.3968  149.6774 LP  0  0  0  0  0  0  0  0  0  0  0  0  # atno 17371 bound_to 10713
  140.0675  134.5909  155.8679 LP  0  0  0  0  0  0  0  0  0  0  0  0  # atno 17394 bound_to 11000
  141.2002  133.6611  156.5883 LP  0  0  0  0  0  0  0  0  0  0  0  0  # atno 17395 bound_to 11000

$$$$
