AV-unprocessed.smi:114|AV-procd|sdf|1117|dock6
  -GOLD-   2262018233D 1   1.00000     0.00000
 Structure written by MMmdl.
 32 34  0  0  0  0  0  0  0  0  1 V2000
  150.3212  130.2471  157.3904 N   0  0  0  0  0  0  0  0  0  0  0  0
  150.0019  131.1042  156.4103 C   0  0  0  0  0  0  0  0  0  0  0  0
  149.2900  130.6408  155.3571 N   0  0  0  0  0  0  0  0  0  0  0  0
  148.9487  131.4633  154.3582 C   0  0  0  0  0  0  0  0  0  0  0  0
  148.2386  130.9162  153.3439 F   0  0  0  0  0  0  0  0  0  0  0  0
  149.2325  132.7653  154.2482 N   0  0  0  0  0  0  0  0  0  0  0  0
  149.9505  133.2397  155.3069 C   0  0  0  0  0  0  0  0  0  0  0  0
  150.3732  132.4712  156.4253 C   0  0  0  0  0  0  0  0  0  0  0  0
  151.0804  133.2717  157.3109 N   0  0  0  0  0  0  0  0  0  0  0  0
  151.0693  134.4487  156.7452 C   0  0  0  0  0  0  0  0  0  0  0  0
  150.4181  134.5208  155.5327 N   0  0  0  0  0  0  0  0  0  0  0  0
  150.2345  135.7406  154.6826 C   0  0  2  0  0  0  0  0  0  0  0  0
  151.4087  136.4955  154.7440 O   0  0  0  0  0  0  0  0  0  0  0  0
  151.1622  137.7687  155.3393 C   0  0  1  0  0  0  0  0  0  0  0  0
  152.1413  138.8289  154.8043 C   0  0  0  0  0  0  0  0  0  0  0  0
  152.3236  139.8488  155.7633 O   0  0  0  0  0  0  0  0  0  0  0  0
  149.6790  138.0223  155.0402 C   0  0  1  0  0  0  0  0  0  0  0  0
  149.5173  138.5504  153.7325 O   0  0  0  0  0  0  0  0  0  0  0  0
  149.0825  136.6254  155.1833 C   0  0  1  0  0  0  0  0  0  0  0  0
  147.8925  136.4841  154.4300 O   0  0  0  0  0  0  0  0  0  0  0  0
  150.0931  135.3686  153.6669 H   0  0  0  0  0  0  0  0  0  0  0  0
  151.2739  137.6848  156.4201 H   0  0  0  0  0  0  0  0  0  0  0  0
  149.2366  138.7236  155.7486 H   0  0  0  0  0  0  0  0  0  0  0  0
  148.8779  136.4196  156.2339 H   0  0  0  0  0  0  0  0  0  0  0  0
  150.8513  130.5689  158.1874 H   0  0  0  0  0  0  0  0  0  0  0  0
  150.0250  129.2834  157.3334 H   0  0  0  0  0  0  0  0  0  0  0  0
  151.5406  135.3062  157.2034 H   0  0  0  0  0  0  0  0  0  0  0  0
  153.1014  138.3864  154.5368 H   0  0  0  0  0  0  0  0  0  0  0  0
  151.7354  139.2963  153.9067 H   0  0  0  0  0  0  0  0  0  0  0  0
  151.6075  139.8140  156.3789 H   0  0  0  0  0  0  0  0  0  0  0  0
  149.2210  137.8534  153.1667 H   0  0  0  0  0  0  0  0  0  0  0  0
  148.0986  136.6206  153.5177 H   0  0  0  0  0  0  0  0  0  0  0  0
  1  2  1  0  0  0  0
  1 25  1  0  0  0  0
  1 26  1  0  0  0  0
  2  8  1  0  0  0  0
  2  3  2  0  0  0  0
  3  4  1  0  0  0  0
  4  5  1  0  0  0  0
  4  6  2  0  0  0  0
  6  7  1  0  0  0  0
  7 11  1  0  0  0  0
  7  8  2  0  0  0  0
  8  9  1  0  0  0  0
  9 10  2  0  0  0  0
 10 11  1  0  0  0  0
 10 27  1  0  0  0  0
 11 12  1  0  0  0  0
 12 21  1  0  0  0  0
 12 19  1  0  0  0  0
 12 13  1  0  0  0  0
 13 14  1  0  0  0  0
 14 22  1  0  0  0  0
 14 15  1  0  0  0  0
 14 17  1  0  0  0  0
 15 16  1  0  0  0  0
 15 28  1  0  0  0  0
 15 29  1  0  0  0  0
 16 30  1  0  0  0  0
 17 23  1  0  0  0  0
 17 18  1  0  0  0  0
 17 19  1  0  0  0  0
 18 31  1  0  0  0  0
 19 24  1  0  0  0  0
 19 20  1  0  0  0  0
 20 32  1  0  0  0  0
M  END
> <s_m_source_file>
AV-unprocessed.smi

> <i_m_source_file_index>
114

> <i_lp_mmshare_version>
43012

> <i_f3d_flags>
0

> <s_epik_input>
RmMobjEpbmMoW05IMl0pYyhjMTIpbltjSF1uMltDQEBIXTNPW0NASF0oW0NIMl1bT0hdKVtDQEBIXShbT0hdKVtDQEBIXTNbT0hd

> <s_epik_cmdline>
J2VwaWtfcHl0aG9uJywgJy1waCcsICc3LjAnLCAnLXRuJywgJzgnLCAnLW1hJywgJzIwMCcsICctbWV0YWxfYmluZGluZycsICctaW1hZScsICc8aW5maWxlLm1hZT4nLCAnLW9tYWUnLCAnPG91dGZpbGUubWFlPic=

> <r_lp_tautomer_probability>
1

> <r_epik_Ionization_Penalty>
1.13199e-05

> <r_epik_Ionization_Penalty_Charging>
0

> <r_epik_Ionization_Penalty_Neutral>
1.13199e-05

> <r_epik_State_Penalty>
-0

> <r_epik_Charging_Adjusted_Penalty>
0

> <i_epik_Tot_Q>
0

> <i_epik_Tot_abs_Q>
0

> <r_epik_Metal_State_Penalty>
-0

> <b_epik_Metal_Only>
0

> <s_epik_Chemistry_Notes>
This compound contains an acetal/aminal-like group ( X-CH(R)-Y where X, Y are N, S, or O) that may be acid/base labile, releasing an aldehyde.

> <s_lp_Force_Field>
OPLS_2005

> <r_lp_Energy>
42.9568

> <b_lp_Chiralities_Consistent>
1

> <s_lp_Variant>
AV-unprocessed.smi:114-11

> <Gold.Version>
5.8.1

> <Gold.Id.Protein>
6NUR|6NUR_protein|mol2

> <Gold.PLP.Fitness>
39.4037

> <Gold.PLP.PLP>
-27.0906

> <Gold.PLP.part.hbond>
-6.1524

> <Gold.PLP.part.metal>
0.0000

> <Gold.PLP.part.buried>
-3.0271

> <Gold.PLP.part.nonpolar>
-18.9593

> <Gold.PLP.part.repulsive>
0.2482

> <Gold.PLP.ligand.clash>
0.0000

> <Gold.PLP.ligand.torsion>
0.9512

> <Gold.PLP.Chemscore.Hbond>
4.7360

> <Gold.PLP.Chemscore.CHOScore>
0.0000

> <Gold.PLP.Chemscore.Metal>
0.0000

> <Gold.Chemscore.Hbonds>
donor molecule, donor type, donor heavy atom, donor atom, acceptor molecule, acceptor atom, score
      L1  H    18    31       P1  7948  0.91
      L1  H    20    32       P1  7948  1.00
      P1  H  6896  6908       L1     9  0.75
      P1  H  7997  8009       L1    16  0.83
      P1  H 10752 10765       L1    13  1.00

> <Gold.PLP.Chemscore.Internal.Correction>
0.0076

> <Gold.Rescore>
     Score         DG    S(hbond)    S(metal)    S(lipo)     H(rot)  DE(clash)    DE(int)     intcor
     11.80     -13.04       4.34        0.00      28.74       4.03       0.12       1.12       ----

> <Gold.Chemscore.Fitness>
11.7973

> <Gold.Chemscore.DG>
-13.0422

> <Gold.Chemscore.ZeroCoef>
-5.4800

> <Gold.Chemscore.Hbond>
4.3446

> <Gold.Chemscore.Metal>
0.0000

> <Gold.Chemscore.Lipo>
28.7377

> <Gold.Chemscore.Internal_Hbond>
0.0000

> <Gold.Chemscore.DEClash>
0.1220

> <Gold.Chemscore.DEInternal>
1.1228

> <Gold.Chemscore.Rot>
4.0277

> <Gold.Chemscore.Internal.Correction>
   9.000000E+99

> <Gold.Chemscore.Hbonds>
donor molecule, donor type, donor heavy atom, donor atom, acceptor molecule, acceptor atom, score
      L1  H    18    31       P1  7948  0.86
      L1  H    20    32       P1  7948  0.98
      P1  H  6896  6908       L1     9  0.62
      P1  H  7997  8009       L1    16  0.68
      P1  H 10752 10765       L1    13  0.93

> <Gold.Chemscore.Hbond.Weighted>
-14.5109

> <Gold.Chemscore.Metal.Weighted>
-0.0000

> <Gold.Chemscore.Lipo.Weighted>
-3.3623

> <Gold.Chemscore.Internal_Hbond.Weighted>
0.0000

> <Gold.Chemscore.DEClash.Weighted>
0.1220

> <Gold.Chemscore.DEInternal.Weighted>
1.1228

> <Gold.Chemscore.Rot.Weighted>
10.3110

> <Gold.Chemscore.Internal.Correction.Weighted>
   9.000000E+99

> <Gold.Protein.RotatedTorsions>
[ 6907 6896 6895 6894 ] final   77.11 input  -60.11 | X-H torsion
[ 7974 7965 7964 7962 ] final   11.43 input  175.53 | X-H torsion
[ 8008 7997 7996 7995 ] final -161.44 input   59.86 | X-H torsion
[ 10167 10162 10161 10158 ] final   25.35 input  -65.29 | X-H torsion
[ 10718 10713 10712 10709 ] final  -73.88 input   66.30 | X-H torsion
[ 10763 10752 10751 10750 ] final -174.68 input  -60.55 | X-H torsion
[ 11005 11000 10999 10996 ] final   68.91 input  -57.11 | X-H torsion

> <Gold.Protein.ActiveResidues>
 VAL166  LYS551  ARG553  GLY616  TRP617  ASP618  TYR619  PRO620  LYS621  CYS622 
 ASP623  PHE694  ASN695  SER759  ASP760  ASP761  ALA762  ILE779  LEU786  VAL792 
 PHE793  MET794  SER795  GLU796  ALA797  LYS798  CYS799  TRP800  GLU811  SER814 

> <Gold.Protein.RotatedAtoms>
  152.5103  134.3866  159.9369 H   0  0  0  0  0  0  0  0  0  0  0  0  # atno 6907 bound_to 6896
  151.3825  133.3810  159.2719 H   0  0  0  0  0  0  0  0  0  0  0  0  # atno 6908 bound_to 6896
  150.9494  134.8916  159.7721 H   0  0  0  0  0  0  0  0  0  0  0  0  # atno 6909 bound_to 6896
  146.2371  139.9487  142.8473 H   0  0  0  0  0  0  0  0  0  0  0  0  # atno 7974 bound_to 7965
  155.7923  140.0880  157.2002 H   0  0  0  0  0  0  0  0  0  0  0  0  # atno 8008 bound_to 7997
  154.3985  140.1488  156.3235 H   0  0  0  0  0  0  0  0  0  0  0  0  # atno 8009 bound_to 7997
  155.8546  140.3433  155.5719 H   0  0  0  0  0  0  0  0  0  0  0  0  # atno 8010 bound_to 7997
  140.5113  144.0156  150.6374 H   0  0  0  0  0  0  0  0  0  0  0  0  # atno 10167 bound_to 10162
  156.0263  130.4404  150.2809 H   0  0  0  0  0  0  0  0  0  0  0  0  # atno 10718 bound_to 10713
  154.5933  135.2847  155.0612 H   0  0  0  0  0  0  0  0  0  0  0  0  # atno 10763 bound_to 10752
  154.1904  135.6441  153.5062 H   0  0  0  0  0  0  0  0  0  0  0  0  # atno 10764 bound_to 10752
  153.0129  135.5445  154.6627 H   0  0  0  0  0  0  0  0  0  0  0  0  # atno 10765 bound_to 10752
  139.9684  134.6942  156.0498 H   0  0  0  0  0  0  0  0  0  0  0  0  # atno 11005 bound_to 11000
  145.1882  140.9799  143.4226 LP  0  0  0  0  0  0  0  0  0  0  0  0  # atno 17320 bound_to 7965
  144.9881  139.3717  143.6229 LP  0  0  0  0  0  0  0  0  0  0  0  0  # atno 17321 bound_to 7965
  140.3479  143.2980  152.0519 LP  0  0  0  0  0  0  0  0  0  0  0  0  # atno 17342 bound_to 10162
  139.4897  144.6395  151.6906 LP  0  0  0  0  0  0  0  0  0  0  0  0  # atno 17343 bound_to 10162
  157.0912  131.0170  151.3121 LP  0  0  0  0  0  0  0  0  0  0  0  0  # atno 17370 bound_to 10713
  157.4852  130.7789  149.7453 LP  0  0  0  0  0  0  0  0  0  0  0  0  # atno 17371 bound_to 10713
  141.1364  133.6574  156.3605 LP  0  0  0  0  0  0  0  0  0  0  0  0  # atno 17394 bound_to 11000
  140.5347  134.6179  157.5361 LP  0  0  0  0  0  0  0  0  0  0  0  0  # atno 17395 bound_to 11000

$$$$
