#       Name:                AV-unprocessed.smi:1049
#       Creating user name   scv26
#       Creation time:       Fri Mar 27 03:10:34 2020


#       File generated by GOLD software.
#

@<TRIPOS>MOLECULE
AV-unprocessed.smi:1049
    43    44     1
SMALL
NO_CHARGES


@<TRIPOS>ATOM
      1 ****        -3.5378   2.4594  -0.4395 C.3            1 S1                 0.0000
      2 ****        -2.3643   1.5441  -0.0648 C.3            1 S1                 0.0000
      3 ****        -2.8568   0.2011   0.5191 C.3            1 S1                 0.0000
      4 ****        -1.6946  -0.6718   1.0300 C.3            1 S1                 0.0000
      5 ****        -0.7765   0.1349   1.9646 C.3            1 S1                 0.0000
      6 ****        -0.2929   1.3210   1.2368 N.am           1 S1                 0.0000
      7 ****         0.9363   1.4649   0.6799 C.2            1 S1                 0.0000
      8 ****         1.2161   2.3547  -0.1247 O.2            1 S1                 0.0000
      9 ****         1.8427   0.5637   1.0903 N.am           1 S1                 0.0000
     10 ****         3.2000   0.4297   0.5734 C.3            1 S1                 0.0000
     11 ****         3.2506  -0.3747  -0.7408 C.3            1 S1                 0.0000
     12 ****         2.4745  -1.6600  -0.6910 C.2            1 S1                 0.0000
     13 ****         2.7642  -2.6528   0.1452 N.2            1 S1                 0.0000
     14 ****         1.8089  -3.6282  -0.1133 C.2            1 S1                 0.0000
     15 ****         0.9768  -3.1946  -1.1157 C.2            1 S1                 0.0000
     16 ****         1.4282  -1.9358  -1.4969 N.pl3          1 S1                 0.0000
     17 ****         0.8570  -1.1017  -2.5423 C.3            1 S1                 0.0000
     18 ****         0.0224  -1.8096  -3.3038 F              1 S1                 0.0000
     19 ****         0.2038  -0.0744  -2.0036 F              1 S1                 0.0000
     20 ****        -1.3978   2.2354   0.9214 C.3            1 S1                 0.0000
     21 ****        -4.1247   2.7309   0.4384 H              1 S1                 0.0000
     22 ****        -4.2056   1.9709  -1.1495 H              1 S1                 0.0000
     23 ****        -3.1836   3.3813  -0.9014 H              1 S1                 0.0000
     24 ****        -1.8125   1.3296  -0.9808 H              1 S1                 0.0000
     25 ****        -3.5380   0.3977   1.3481 H              1 S1                 0.0000
     26 ****        -3.4321  -0.3473  -0.2275 H              1 S1                 0.0000
     27 ****        -2.0861  -1.5464   1.5499 H              1 S1                 0.0000
     28 ****        -1.1167  -1.0480   0.1848 H              1 S1                 0.0000
     29 ****        -1.3339   0.4576   2.8452 H              1 S1                 0.0000
     30 ****         0.0168  -0.5069   2.3473 H              1 S1                 0.0000
     31 ****         1.5474  -0.1230   1.7690 H              1 S1                 0.0000
     32 ****         3.6679   1.4071   0.4464 H              1 S1                 0.0000
     33 ****         3.7806  -0.0908   1.3355 H              1 S1                 0.0000
     34 ****         2.8778   0.2514  -1.5502 H              1 S1                 0.0000
     35 ****         4.2864  -0.6045  -0.9917 H              1 S1                 0.0000
     36 ****         1.7930  -4.5568   0.4381 H              1 S1                 0.0000
     37 ****         0.1279  -3.6719  -1.5826 H              1 S1                 0.0000
     38 ****         1.6423  -0.7149  -3.1917 H              1 S1                 0.0000
     39 ****        -1.0450   3.1806   0.5056 H              1 S1                 0.0000
     40 ****        -1.9214   2.4984   1.8419 H              1 S1                 0.0000
     41 ****         0.5198   3.0182  -0.3985 LP             1 S1                 0.0000
     42 ****         2.1394   2.4135  -0.5040 LP             1 S1                 0.0000
     43 ****         3.5070  -2.6893   0.8137 LP             1 S1                 0.0000
@<TRIPOS>BOND
    1    1    2 1     
    2    1   21 1     
    3    1   22 1     
    4    1   23 1     
    5    2   20 1     
    6    2    3 1     
    7    2   24 1     
    8    3    4 1     
    9    3   25 1     
   10    3   26 1     
   11    4    5 1     
   12    4   27 1     
   13    4   28 1     
   14    5    6 1     
   15    5   29 1     
   16    5   30 1     
   17    6    7 am    
   18    6   20 1     
   19    7    8 2     
   20    7    9 am    
   21    9   10 1     
   22    9   31 1     
   23   10   11 1     
   24   10   32 1     
   25   10   33 1     
   26   11   12 1     
   27   11   34 1     
   28   11   35 1     
   29   12   16 1     
   30   12   13 2     
   31   13   14 1     
   32   14   15 2     
   33   14   36 1     
   34   15   16 1     
   35   15   37 1     
   36   16   17 1     
   37   17   18 1     
   38   17   19 1     
   39   17   38 1     
   40   20   39 1     
   41   20   40 1     
   42    8   41 1     
   43    8   42 1     
   44   13   43 1     
@<TRIPOS>SUBSTRUCTURE
      1 S1             1
@<TRIPOS>SET
LONE_PAIRS      STATIC     ATOMS    <user>   **** ""
3 41 42 43
DONOR_HYDROGENS      STATIC     ATOMS    <user>   **** ""
1 31
ATOM$BLUE        STATIC     ATOMS    COLORGROUP SYSTEM
3 41 42 43
ATOM$RED        STATIC     ATOMS    COLORGROUP SYSTEM
1 31
