#       Name:                AV-unprocessed.smi:3266
#       Creating user name   scv26
#       Creation time:       Fri Mar 27 18:40:45 2020


#       File generated by GOLD software.
#

@<TRIPOS>MOLECULE
AV-unprocessed.smi:3266
    43    44     1
SMALL
NO_CHARGES


@<TRIPOS>ATOM
      1 ****        -0.4057   1.2465   0.3661 O.2            1 S1                 0.0000
      2 ****         0.1176   0.5952  -0.5387 C.2            1 S1                 0.0000
      3 ****         1.6291   0.6632  -0.7756 C.3            1 S1                 0.0000
      4 ****         2.4354   0.8243   0.5264 C.3            1 S1                 0.0000
      5 ****         3.9515   0.8551   0.2837 C.3            1 S1                 0.0000
      6 ****         4.7793   0.9266   1.5669 C.3            1 S1                 0.0000
      7 ****         6.0459   1.5902   1.0784 C.3            1 S1                 0.0000
      8 ****         5.4941   2.6056   0.0835 C.3            1 S1                 0.0000
      9 ****         4.3193   2.0130  -0.4640 O.3            1 S1                 0.0000
     10 ****        -0.5793  -0.1989  -1.3661 N.am           1 S1                 0.0000
     11 ****        -2.0233  -0.3953  -1.3138 C.3            1 S1                 0.0000
     12 ****        -2.4247  -1.3648  -0.1891 C.3            1 S1                 0.0000
     13 ****        -3.9255  -1.5659  -0.1127 C.ar           1 S1                 0.0000
     14 ****        -4.5615  -2.7060  -0.6504 C.ar           1 S1                 0.0000
     15 ****        -5.9630  -2.8261  -0.5450 C.ar           1 S1                 0.0000
     16 ****        -6.6977  -1.8057   0.0941 C.ar           1 S1                 0.0000
     17 ****        -6.0114  -0.6882   0.6117 C.ar           1 S1                 0.0000
     18 ****        -4.6680  -0.6092   0.4907 N.pl3          1 S1                 1.0000
     19 ****         1.9540  -0.2390  -1.2966 H              1 S1                 0.0000
     20 ****         1.8306   1.5002  -1.4450 H              1 S1                 0.0000
     21 ****         2.1372   1.7385   1.0419 H              1 S1                 0.0000
     22 ****         2.2007  -0.0012   1.2002 H              1 S1                 0.0000
     23 ****         4.2599  -0.0219  -0.2876 H              1 S1                 0.0000
     24 ****         4.2911   1.5614   2.3079 H              1 S1                 0.0000
     25 ****         4.9538  -0.0513   2.0163 H              1 S1                 0.0000
     26 ****         6.6286   2.0479   1.8782 H              1 S1                 0.0000
     27 ****         6.6767   0.8631   0.5651 H              1 S1                 0.0000
     28 ****         5.2096   3.5248   0.5972 H              1 S1                 0.0000
     29 ****         6.2137   2.8611  -0.6945 H              1 S1                 0.0000
     30 ****        -0.0741  -0.6954  -2.0862 H              1 S1                 0.0000
     31 ****        -2.5216   0.5676  -1.1882 H              1 S1                 0.0000
     32 ****        -2.3479  -0.7896  -2.2772 H              1 S1                 0.0000
     33 ****        -1.9402  -2.3307  -0.3390 H              1 S1                 0.0000
     34 ****        -2.0771  -0.9939   0.7762 H              1 S1                 0.0000
     35 ****        -3.9851  -3.4793  -1.1373 H              1 S1                 0.0000
     36 ****        -6.4684  -3.6910  -0.9496 H              1 S1                 0.0000
     37 ****        -7.7716  -1.8790   0.1855 H              1 S1                 0.0000
     38 ****        -6.4922   0.1382   1.1146 H              1 S1                 0.0000
     39 ****        -4.1914   0.2089   0.8716 H              1 S1                 0.0000
     40 ****         0.1573   1.8269   0.9545 LP             1 S1                 0.0000
     41 ****        -1.3936   1.1950   0.5124 LP             1 S1                 0.0000
     42 ****         3.5713   2.6760  -0.4340 LP             1 S1                 0.0000
     43 ****         4.4943   1.7506  -1.4130 LP             1 S1                 0.0000
@<TRIPOS>BOND
    1    1    2 2     
    2    2    3 1     
    3    2   10 am    
    4    3    4 1     
    5    3   19 1     
    6    3   20 1     
    7    4    5 1     
    8    4   21 1     
    9    4   22 1     
   10    5    9 1     
   11    5    6 1     
   12    5   23 1     
   13    6    7 1     
   14    6   24 1     
   15    6   25 1     
   16    7    8 1     
   17    7   26 1     
   18    7   27 1     
   19    8    9 1     
   20    8   28 1     
   21    8   29 1     
   22   10   11 1     
   23   10   30 1     
   24   11   12 1     
   25   11   31 1     
   26   11   32 1     
   27   12   13 1     
   28   12   33 1     
   29   12   34 1     
   30   13   18 ar    
   31   13   14 ar    
   32   14   15 ar    
   33   14   35 1     
   34   15   16 ar    
   35   15   36 1     
   36   16   17 ar    
   37   16   37 1     
   38   17   18 ar    
   39   17   38 1     
   40   18   39 1     
   41    1   40 1     
   42    1   41 1     
   43    9   42 1     
   44    9   43 1     
@<TRIPOS>SUBSTRUCTURE
      1 S1             1
@<TRIPOS>SET
LONE_PAIRS      STATIC     ATOMS    <user>   **** ""
4 40 41 42 43
DONOR_HYDROGENS      STATIC     ATOMS    <user>   **** ""
2 30 39
ATOM$BLUE        STATIC     ATOMS    COLORGROUP SYSTEM
4 40 41 42 43
ATOM$RED        STATIC     ATOMS    COLORGROUP SYSTEM
2 30 39
