AV-unprocessed.smi:767|AV-procd|sdf|3667|dock5
  -GOLD-   22720 1 73D 1   1.00000     0.00000
 Structure written by MMmdl.
 48 50  0  0  0  0  0  0  0  0  2 V2000
  151.2689  145.2792  158.3855 C   0  0  0  0  0  0  0  0  0  0  0  0
  151.2950  143.7934  158.0963 C   0  0  0  0  0  0  0  0  0  0  0  0
  152.0988  142.8978  158.8332 C   0  0  0  0  0  0  0  0  0  0  0  0
  152.0718  141.5254  158.5114 C   0  0  0  0  0  0  0  0  0  0  0  0
  151.2392  141.0745  157.4635 C   0  0  0  0  0  0  0  0  0  0  0  0
  151.1690  139.5977  157.1131 C   0  0  0  0  0  0  0  0  0  0  0  0
  151.3883  138.6635  158.3214 C   0  0  0  0  0  0  0  0  0  0  0  0
  150.1448  138.2639  158.9745 N   0  0  0  0  0  0  0  0  0  0  0  0
  149.7294  137.0007  159.1391 C   0  0  0  0  0  0  0  0  0  0  0  0
  150.3491  136.0125  158.7465 O   0  0  0  0  0  0  0  0  0  0  0  0
  148.5693  136.9460  159.8049 N   0  0  0  0  0  0  0  0  0  0  0  0
  147.8720  135.7122  160.1714 C   0  0  2  0  0  0  0  0  0  0  0  0
  146.4367  135.6454  159.6008 C   0  0  2  0  0  0  0  0  0  0  0  0
  145.9196  136.6135  158.5646 C   0  0  0  0  0  0  0  0  0  0  0  0
  145.1826  137.6557  159.4116 C   0  0  0  0  0  0  0  0  0  0  0  0
  145.7298  137.5153  160.7213 O   0  0  0  0  0  0  0  0  0  0  0  0
  145.9426  136.1246  160.9559 C   0  0  2  0  0  0  0  0  0  0  0  0
  147.2841  135.7344  161.6096 C   0  0  0  0  0  0  0  0  0  0  0  0
  147.2674  134.3669  162.2991 C   0  0  0  0  0  0  0  0  0  0  0  0
  147.8516  136.7243  162.6353 C   0  0  0  0  0  0  0  0  0  0  0  0
  150.4628  142.0172  156.7567 C   0  0  0  0  0  0  0  0  0  0  0  0
  150.5181  143.3242  157.0940 N   0  3  0  0  0  0  0  0  0  0  0  0
  151.6522  145.4879  159.3848 H   0  0  0  0  0  0  0  0  0  0  0  0
  150.2511  145.6659  158.3262 H   0  0  0  0  0  0  0  0  0  0  0  0
  151.8847  145.8155  157.6632 H   0  0  0  0  0  0  0  0  0  0  0  0
  152.7258  143.2540  159.6377 H   0  0  0  0  0  0  0  0  0  0  0  0
  152.6765  140.8268  159.0713 H   0  0  0  0  0  0  0  0  0  0  0  0
  150.2001  139.3885  156.6588 H   0  0  0  0  0  0  0  0  0  0  0  0
  151.9115  139.3803  156.3441 H   0  0  0  0  0  0  0  0  0  0  0  0
  151.8785  137.7495  157.9852 H   0  0  0  0  0  0  0  0  0  0  0  0
  152.0627  139.1256  159.0439 H   0  0  0  0  0  0  0  0  0  0  0  0
  149.5611  139.0050  159.3340 H   0  0  0  0  0  0  0  0  0  0  0  0
  148.1398  137.8128  160.0942 H   0  0  0  0  0  0  0  0  0  0  0  0
  148.4422  134.8076  159.9530 H   0  0  0  0  0  0  0  0  0  0  0  0
  146.1398  134.6111  159.4203 H   0  0  0  0  0  0  0  0  0  0  0  0
  146.7245  137.0669  157.9866 H   0  0  0  0  0  0  0  0  0  0  0  0
  145.2428  136.1354  157.8561 H   0  0  0  0  0  0  0  0  0  0  0  0
  145.3060  138.6701  159.0322 H   0  0  0  0  0  0  0  0  0  0  0  0
  144.1153  137.4327  159.4487 H   0  0  0  0  0  0  0  0  0  0  0  0
  145.0568  135.6012  161.3192 H   0  0  0  0  0  0  0  0  0  0  0  0
  146.6447  134.3763  163.1943 H   0  0  0  0  0  0  0  0  0  0  0  0
  148.2698  134.0573  162.5968 H   0  0  0  0  0  0  0  0  0  0  0  0
  146.8731  133.5900  161.6437 H   0  0  0  0  0  0  0  0  0  0  0  0
  147.2722  136.7184  163.5590 H   0  0  0  0  0  0  0  0  0  0  0  0
  147.8420  137.7500  162.2668 H   0  0  0  0  0  0  0  0  0  0  0  0
  148.8826  136.4806  162.8931 H   0  0  0  0  0  0  0  0  0  0  0  0
  149.7979  141.7667  155.9429 H   0  0  0  0  0  0  0  0  0  0  0  0
  149.9453  143.9870  156.5710 H   0  0  0  0  0  0  0  0  0  0  0  0
  1  2  1  0  0  0  0
  1 23  1  0  0  0  0
  1 24  1  0  0  0  0
  1 25  1  0  0  0  0
  2 22  1  0  0  0  0
  2  3  2  0  0  0  0
  3  4  1  0  0  0  0
  3 26  1  0  0  0  0
  4  5  2  0  0  0  0
  4 27  1  0  0  0  0
  5  6  1  0  0  0  0
  5 21  1  0  0  0  0
  6  7  1  0  0  0  0
  6 28  1  0  0  0  0
  6 29  1  0  0  0  0
  7  8  1  0  0  0  0
  7 30  1  0  0  0  0
  7 31  1  0  0  0  0
  8  9  1  0  0  0  0
  8 32  1  0  0  0  0
  9 10  2  0  0  0  0
  9 11  1  0  0  0  0
 11 12  1  0  0  0  0
 11 33  1  0  0  0  0
 12 18  1  0  0  0  0
 12 13  1  0  0  0  0
 12 34  1  0  0  0  0
 13 17  1  0  0  0  0
 13 14  1  0  0  0  0
 13 35  1  0  0  0  0
 14 15  1  0  0  0  0
 14 36  1  0  0  0  0
 14 37  1  0  0  0  0
 15 16  1  0  0  0  0
 15 38  1  0  0  0  0
 15 39  1  0  0  0  0
 16 17  1  0  0  0  0
 17 18  1  0  0  0  0
 17 40  1  0  0  0  0
 18 19  1  0  0  0  0
 18 20  1  0  0  0  0
 19 41  1  0  0  0  0
 19 42  1  0  0  0  0
 19 43  1  0  0  0  0
 20 44  1  0  0  0  0
 20 45  1  0  0  0  0
 20 46  1  0  0  0  0
 21 22  2  0  0  0  0
 21 47  1  0  0  0  0
 22 48  1  0  0  0  0
M  CHG  1  22   1
M  END
> <s_m_source_file>
AV-unprocessed.smi

> <i_m_source_file_index>
767

> <i_lp_mmshare_version>
43012

> <i_f3d_flags>
0

> <s_epik_input>
W0NIM11jMVtjSF1bY0hdYyhbY0hdbjEpW0NIMl1bQ0gyXVtOSF1DKD1PKVtOSF1bQ0BIXTJDKFtDSDNdKShbQ0gzXSlbQ0BIXShbQ0BASF0yMylPW0NIMl1bQ0gyXTM=

> <s_epik_cmdline>
J2VwaWtfcHl0aG9uJywgJy1waCcsICc3LjAnLCAnLXRuJywgJzgnLCAnLW1hJywgJzIwMCcsICctbWV0YWxfYmluZGluZycsICctaW1hZScsICc8aW5maWxlLm1hZT4nLCAnLW9tYWUnLCAnPG91dGZpbGUubWFlPic=

> <r_epik_Ionization_Penalty>
1.41853

> <r_epik_Ionization_Penalty_Charging>
1.41848

> <r_epik_Ionization_Penalty_Neutral>
5.17407e-05

> <r_epik_State_Penalty>
1.50205

> <r_epik_Charging_Adjusted_Penalty>
2.92053

> <i_epik_Tot_Q>
1

> <i_epik_Tot_abs_Q>
1

> <r_epik_Metal_State_Penalty>
1.5544

> <b_epik_Metal_Only>
0

> <s_lp_Force_Field>
OPLS_2005

> <r_lp_Energy>
40.587

> <b_lp_Chiralities_Consistent>
1

> <s_lp_Variant>
AV-unprocessed.smi:767-11

> <Gold.Version>
5.8.1

> <Gold.Id.Protein>
6NUR|6NUR_protein|mol2

> <Gold.PLP.Fitness>
49.4624

> <Gold.PLP.PLP>
-38.7264

> <Gold.PLP.part.hbond>
-3.0000

> <Gold.PLP.part.metal>
0.0000

> <Gold.PLP.part.buried>
-4.2999

> <Gold.PLP.part.nonpolar>
-32.0237

> <Gold.PLP.part.repulsive>
0.4335

> <Gold.PLP.ligand.clash>
0.0000

> <Gold.PLP.ligand.torsion>
0.7160

> <Gold.PLP.Chemscore.Hbond>
3.9920

> <Gold.PLP.Chemscore.CHOScore>
0.0000

> <Gold.PLP.Chemscore.Metal>
0.0000

> <Gold.Chemscore.Hbonds>
donor molecule, donor type, donor heavy atom, donor atom, acceptor molecule, acceptor atom, score
      L1  H    22    48       P1  8028  2.00
      P1  H  6896  6908       L1    10  1.00
      P1  H  6934  6947       L1    16  0.86

> <Gold.PLP.Chemscore.Internal.Correction>
0.1920

> <Gold.Rescore>
     Score         DG    S(hbond)    S(metal)    S(lipo)     H(rot)  DE(clash)    DE(int)     intcor
     21.47     -21.99       2.64        0.00      98.95       1.52       0.03       0.49       ----

> <Gold.Chemscore.Fitness>
21.4738

> <Gold.Chemscore.DG>
-21.9877

> <Gold.Chemscore.ZeroCoef>
-5.4800

> <Gold.Chemscore.Hbond>
2.6437

> <Gold.Chemscore.Metal>
0.0000

> <Gold.Chemscore.Lipo>
98.9495

> <Gold.Chemscore.Internal_Hbond>
0.0000

> <Gold.Chemscore.DEClash>
0.0262

> <Gold.Chemscore.DEInternal>
0.4876

> <Gold.Chemscore.Rot>
1.5233

> <Gold.Chemscore.Internal.Correction>
   9.000000E+99

> <Gold.Chemscore.Hbonds>
donor molecule, donor type, donor heavy atom, donor atom, acceptor molecule, acceptor atom, score
      L1  H    22    48       P1  8028  0.97
      P1  H  6896  6908       L1    10  0.92
      P1  H  6934  6947       L1    16  0.46

> <Gold.Chemscore.Hbond.Weighted>
-8.8301

> <Gold.Chemscore.Metal.Weighted>
-0.0000

> <Gold.Chemscore.Lipo.Weighted>
-11.5771

> <Gold.Chemscore.Internal_Hbond.Weighted>
0.0000

> <Gold.Chemscore.DEClash.Weighted>
0.0262

> <Gold.Chemscore.DEInternal.Weighted>
0.4876

> <Gold.Chemscore.Rot.Weighted>
3.8995

> <Gold.Chemscore.Internal.Correction.Weighted>
   9.000000E+99

> <Gold.Protein.RotatedTorsions>
[ 6907 6896 6895 6894 ] final -172.09 input  -60.11 | X-H torsion
[ 7974 7965 7964 7962 ] final -175.26 input  175.53 | X-H torsion
[ 8008 7997 7996 7995 ] final  -88.64 input   59.86 | X-H torsion
[ 10167 10162 10161 10158 ] final  152.65 input  -65.29 | X-H torsion
[ 10718 10713 10712 10709 ] final   93.94 input   66.30 | X-H torsion
[ 10763 10752 10751 10750 ] final  -41.39 input  -60.55 | X-H torsion
[ 11005 11000 10999 10996 ] final  -10.96 input  -57.11 | X-H torsion

> <Gold.Protein.ActiveResidues>
 VAL166  LYS551  ARG553  GLY616  TRP617  ASP618  TYR619  PRO620  LYS621  CYS622 
 ASP623  PHE694  ASN695  SER759  ASP760  ASP761  ALA762  ILE779  LEU786  VAL792 
 PHE793  MET794  SER795  GLU796  ALA797  LYS798  CYS799  TRP800  GLU811  SER814 

> <Gold.Protein.RotatedAtoms>
  151.5343  133.3443  159.2923 H   0  0  0  0  0  0  0  0  0  0  0  0  # atno 6907 bound_to 6896
  150.8574  134.7919  159.7067 H   0  0  0  0  0  0  0  0  0  0  0  0  # atno 6908 bound_to 6896
  152.4604  134.5206  159.9833 H   0  0  0  0  0  0  0  0  0  0  0  0  # atno 6909 bound_to 6896
  144.7129  140.1347  143.6396 H   0  0  0  0  0  0  0  0  0  0  0  0  # atno 7974 bound_to 7965
  154.6772  140.0551  157.0228 H   0  0  0  0  0  0  0  0  0  0  0  0  # atno 8008 bound_to 7997
  155.1004  140.3228  155.4530 H   0  0  0  0  0  0  0  0  0  0  0  0  # atno 8009 bound_to 7997
  156.2680  140.2032  156.6130 H   0  0  0  0  0  0  0  0  0  0  0  0  # atno 8010 bound_to 7997
  139.4831  144.5339  151.7677 H   0  0  0  0  0  0  0  0  0  0  0  0  # atno 10167 bound_to 10162
  157.6951  131.0495  150.4110 H   0  0  0  0  0  0  0  0  0  0  0  0  # atno 10718 bound_to 10713
  153.9617  135.6739  153.4745 H   0  0  0  0  0  0  0  0  0  0  0  0  # atno 10763 bound_to 10752
  153.0835  135.4911  154.8547 H   0  0  0  0  0  0  0  0  0  0  0  0  # atno 10764 bound_to 10752
  154.7269  135.3129  154.8916 H   0  0  0  0  0  0  0  0  0  0  0  0  # atno 10765 bound_to 10752
  140.7502  133.8598  155.9039 H   0  0  0  0  0  0  0  0  0  0  0  0  # atno 11005 bound_to 11000
  145.9255  139.2573  143.1356 LP  0  0  0  0  0  0  0  0  0  0  0  0  # atno 17320 bound_to 7965
  145.9577  140.8860  143.0227 LP  0  0  0  0  0  0  0  0  0  0  0  0  # atno 17321 bound_to 7965
  140.4869  144.1367  150.5943 LP  0  0  0  0  0  0  0  0  0  0  0  0  # atno 17342 bound_to 10162
  140.4215  143.2609  151.9710 LP  0  0  0  0  0  0  0  0  0  0  0  0  # atno 17343 bound_to 10162
  156.4494  130.4008  149.6646 LP  0  0  0  0  0  0  0  0  0  0  0  0  # atno 17370 bound_to 10713
  156.3800  130.7574  151.2566 LP  0  0  0  0  0  0  0  0  0  0  0  0  # atno 17371 bound_to 10713
  140.9757  134.1472  157.4538 LP  0  0  0  0  0  0  0  0  0  0  0  0  # atno 17394 bound_to 11000
  139.8789  134.9994  156.5951 LP  0  0  0  0  0  0  0  0  0  0  0  0  # atno 17395 bound_to 11000

$$$$
