AV-unprocessed.smi:72|AV-procd|sdf|708|dock5
  -GOLD-   2262017 33D 1   1.00000     0.00000
 Structure written by MMmdl.
 30 31  0  0  0  0  0  0  0  0  2 V2000
  150.3934  144.4008  158.4246 N   0  0  0  0  0  0  0  0  0  0  0  0
  150.7752  143.1312  158.0444 C   0  0  0  0  0  0  0  0  0  0  0  0
  150.1460  142.5723  156.9473 N   0  3  0  0  0  0  0  0  0  0  0  0
  150.4050  141.3576  156.4442 C   0  0  0  0  0  0  0  0  0  0  0  0
  151.3437  140.6176  157.0040 N   0  0  0  0  0  0  0  0  0  0  0  0
  151.6796  139.2321  156.4997 C   0  0  1  0  0  0  0  0  0  0  0  0
  150.5021  138.4873  156.4624 O   0  0  0  0  0  0  0  0  0  0  0  0
  149.9303  138.5796  155.1619 C   0  0  2  0  0  0  0  0  0  0  0  0
  148.8406  137.5147  154.9512 C   0  0  0  0  0  0  0  0  0  0  0  0
  148.1642  137.7615  153.7368 O   0  0  0  0  0  0  0  0  0  0  0  0
  151.1715  138.4569  154.2726 C   0  0  2  0  0  0  0  0  0  0  0  0
  151.5443  137.0958  154.1255 O   0  0  0  0  0  0  0  0  0  0  0  0
  152.2075  139.2755  155.0468 C   0  0  2  0  0  0  0  0  0  0  0  0
  153.5187  138.7608  154.9126 O   0  0  0  0  0  0  0  0  0  0  0  0
  152.0109  141.0899  158.1646 C   0  0  0  0  0  0  0  0  0  0  0  0
  152.8440  140.3860  158.7331 O   0  0  0  0  0  0  0  0  0  0  0  0
  151.6730  142.3752  158.6125 N   0  0  0  0  0  0  0  0  0  0  0  0
  152.3735  138.8167  157.2328 H   0  0  0  0  0  0  0  0  0  0  0  0
  149.5081  139.5761  155.0167 H   0  0  0  0  0  0  0  0  0  0  0  0
  150.9955  138.8681  153.2778 H   0  0  0  0  0  0  0  0  0  0  0  0
  152.1948  140.3041  154.6833 H   0  0  0  0  0  0  0  0  0  0  0  0
  150.7937  144.8843  159.2162 H   0  0  0  0  0  0  0  0  0  0  0  0
  149.6839  144.9428  157.9527 H   0  0  0  0  0  0  0  0  0  0  0  0
  149.8267  141.0158  155.5960 H   0  0  0  0  0  0  0  0  0  0  0  0
  149.2913  136.5243  154.8801 H   0  0  0  0  0  0  0  0  0  0  0  0
  148.1335  137.4944  155.7811 H   0  0  0  0  0  0  0  0  0  0  0  0
  148.6145  137.3020  153.0441 H   0  0  0  0  0  0  0  0  0  0  0  0
  151.1150  136.7499  153.3575 H   0  0  0  0  0  0  0  0  0  0  0  0
  153.4641  137.8220  154.8159 H   0  0  0  0  0  0  0  0  0  0  0  0
  149.4301  143.1233  156.4958 H   0  0  0  0  0  0  0  0  0  0  0  0
  1  2  1  0  0  0  0
  1 22  1  0  0  0  0
  1 23  1  0  0  0  0
  2 17  2  0  0  0  0
  2  3  1  0  0  0  0
  3  4  2  0  0  0  0
  3 30  1  0  0  0  0
  4  5  1  0  0  0  0
  4 24  1  0  0  0  0
  5  6  1  0  0  0  0
  5 15  1  0  0  0  0
  6 18  1  0  0  0  0
  6 13  1  0  0  0  0
  6  7  1  0  0  0  0
  7  8  1  0  0  0  0
  8 19  1  0  0  0  0
  8  9  1  0  0  0  0
  8 11  1  0  0  0  0
  9 10  1  0  0  0  0
  9 25  1  0  0  0  0
  9 26  1  0  0  0  0
 10 27  1  0  0  0  0
 11 20  1  0  0  0  0
 11 12  1  0  0  0  0
 11 13  1  0  0  0  0
 12 28  1  0  0  0  0
 13 21  1  0  0  0  0
 13 14  1  0  0  0  0
 14 29  1  0  0  0  0
 15 16  2  0  0  0  0
 15 17  1  0  0  0  0
M  CHG  1   3   1
M  END
> <s_m_source_file>
AV-unprocessed.smi

> <i_m_source_file_index>
72

> <i_lp_mmshare_version>
43012

> <i_f3d_flags>
0

> <s_epik_input>
W05IMl1jMW5bY0hdbihjKD1PKW4xKVtDQEBIXTJPW0NASF0oW0NIMl1bT0hdKVtDQEBIXShbT0hdKVtDQEhdMltPSF0=

> <s_epik_cmdline>
J2VwaWtfcHl0aG9uJywgJy1waCcsICc3LjAnLCAnLXRuJywgJzgnLCAnLW1hJywgJzIwMCcsICctbWV0YWxfYmluZGluZycsICctaW1hZScsICc8aW5maWxlLm1hZT4nLCAnLW9tYWUnLCAnPG91dGZpbGUubWFlPic=

> <r_lp_tautomer_probability>
4.77166e-05

> <r_epik_Ionization_Penalty>
0.104979

> <r_epik_Ionization_Penalty_Charging>
0.0999619

> <r_epik_Ionization_Penalty_Neutral>
0.00501745

> <r_epik_State_Penalty>
2.51541

> <r_epik_Charging_Adjusted_Penalty>
2.61537

> <i_epik_Tot_Q>
1

> <i_epik_Tot_abs_Q>
1

> <r_epik_Metal_State_Penalty>
3.53763

> <b_epik_Metal_Only>
0

> <s_epik_Chemistry_Notes>
This compound contains an acetal/aminal-like group ( X-CH(R)-Y where X, Y are N, S, or O) that may be acid/base labile, releasing an aldehyde.

> <s_lp_Force_Field>
OPLS_2005

> <r_lp_Energy>
33.6404

> <b_lp_Chiralities_Consistent>
1

> <s_lp_Variant>
AV-unprocessed.smi:72-46

> <Gold.Version>
5.8.1

> <Gold.Id.Protein>
6NUR|6NUR_protein|mol2

> <Gold.PLP.Fitness>
45.2528

> <Gold.PLP.PLP>
-26.9345

> <Gold.PLP.part.hbond>
-7.2940

> <Gold.PLP.part.metal>
0.0000

> <Gold.PLP.part.buried>
-3.9694

> <Gold.PLP.part.nonpolar>
-15.5070

> <Gold.PLP.part.repulsive>
0.1547

> <Gold.PLP.ligand.clash>
0.0000

> <Gold.PLP.ligand.torsion>
0.0900

> <Gold.PLP.Chemscore.Hbond>
6.1545

> <Gold.PLP.Chemscore.CHOScore>
0.0000

> <Gold.PLP.Chemscore.Metal>
0.0000

> <Gold.Chemscore.Hbonds>
donor molecule, donor type, donor heavy atom, donor atom, acceptor molecule, acceptor atom, score
      L1  H     1    23       P1  8029  0.50
      L1  H     3    30       P1  8028  1.98
      L1  H    10    27       P1  7948  1.00
      L1  H    12    28       P1  7949  1.00
      P1  H  7997  8010       L1    14  0.71
      P1  H 10752 10763       L1    12  0.52

> <Gold.PLP.Chemscore.Internal.Correction>
0.0348

> <Gold.Rescore>
     Score         DG    S(hbond)    S(metal)    S(lipo)     H(rot)  DE(clash)    DE(int)     intcor
      9.47     -10.19       3.61        0.00      26.35       4.08       0.64       0.09       ----

> <Gold.Chemscore.Fitness>
9.4668

> <Gold.Chemscore.DG>
-10.1940

> <Gold.Chemscore.ZeroCoef>
-5.4800

> <Gold.Chemscore.Hbond>
3.6143

> <Gold.Chemscore.Metal>
0.0000

> <Gold.Chemscore.Lipo>
26.3481

> <Gold.Chemscore.Internal_Hbond>
0.0000

> <Gold.Chemscore.DEClash>
0.6363

> <Gold.Chemscore.DEInternal>
0.0909

> <Gold.Chemscore.Rot>
4.0783

> <Gold.Chemscore.Internal.Correction>
   9.000000E+99

> <Gold.Chemscore.Hbonds>
donor molecule, donor type, donor heavy atom, donor atom, acceptor molecule, acceptor atom, score
      L1  H     1    23       P1  8029  0.05
      L1  H     3    30       P1  8028  0.94
      L1  H    10    27       P1  7948  0.99
      L1  H    12    28       P1  7949  0.36
      P1  H  7997  8010       L1    14  0.37
      P1  H 10752 10763       L1    12  0.03

> <Gold.Chemscore.Hbond.Weighted>
-12.0717

> <Gold.Chemscore.Metal.Weighted>
-0.0000

> <Gold.Chemscore.Lipo.Weighted>
-3.0827

> <Gold.Chemscore.Internal_Hbond.Weighted>
0.0000

> <Gold.Chemscore.DEClash.Weighted>
0.6363

> <Gold.Chemscore.DEInternal.Weighted>
0.0909

> <Gold.Chemscore.Rot.Weighted>
10.4404

> <Gold.Chemscore.Internal.Correction.Weighted>
   9.000000E+99

> <Gold.Protein.RotatedTorsions>
[ 6907 6896 6895 6894 ] final  -97.54 input  -60.11 | X-H torsion
[ 7974 7965 7964 7962 ] final  -17.21 input  175.53 | X-H torsion
[ 8008 7997 7996 7995 ] final  133.54 input   59.86 | X-H torsion
[ 10167 10162 10161 10158 ] final  -26.05 input  -65.29 | X-H torsion
[ 10718 10713 10712 10709 ] final   38.82 input   66.30 | X-H torsion
[ 10763 10752 10751 10750 ] final   20.81 input  -60.55 | X-H torsion
[ 11005 11000 10999 10996 ] final  106.71 input  -57.11 | X-H torsion

> <Gold.Protein.ActiveResidues>
 VAL166  LYS551  ARG553  GLY616  TRP617  ASP618  TYR619  PRO620  LYS621  CYS622 
 ASP623  PHE694  ASN695  SER759  ASP760  ASP761  ALA762  ILE779  LEU786  VAL792 
 PHE793  MET794  SER795  GLU796  ALA797  LYS798  CYS799  TRP800  GLU811  SER814 

> <Gold.Protein.RotatedAtoms>
  150.7019  134.1333  159.4077 H   0  0  0  0  0  0  0  0  0  0  0  0  # atno 6907 bound_to 6896
  151.9319  135.0250  160.0539 H   0  0  0  0  0  0  0  0  0  0  0  0  # atno 6908 bound_to 6896
  152.2168  133.4918  159.5177 H   0  0  0  0  0  0  0  0  0  0  0  0  # atno 6909 bound_to 6896
  146.1952  140.3746  142.8443 H   0  0  0  0  0  0  0  0  0  0  0  0  # atno 7974 bound_to 7965
  156.2993  140.2518  156.3271 H   0  0  0  0  0  0  0  0  0  0  0  0  # atno 8008 bound_to 7997
  154.9180  140.0401  157.2002 H   0  0  0  0  0  0  0  0  0  0  0  0  # atno 8009 bound_to 7997
  154.8339  140.2880  155.5708 H   0  0  0  0  0  0  0  0  0  0  0  0  # atno 8010 bound_to 7997
  140.7284  143.4211  151.0949 H   0  0  0  0  0  0  0  0  0  0  0  0  # atno 10167 bound_to 10162
  157.3634  130.7662  149.7064 H   0  0  0  0  0  0  0  0  0  0  0  0  # atno 10718 bound_to 10713
  153.1046  135.6681  153.9610 H   0  0  0  0  0  0  0  0  0  0  0  0  # atno 10763 bound_to 10752
  153.9170  135.3018  155.3449 H   0  0  0  0  0  0  0  0  0  0  0  0  # atno 10764 bound_to 10752
  154.7467  135.5054  153.9293 H   0  0  0  0  0  0  0  0  0  0  0  0  # atno 10765 bound_to 10752
  139.8818  134.9378  156.5708 H   0  0  0  0  0  0  0  0  0  0  0  0  # atno 11005 bound_to 11000
  144.8565  140.7078  143.6134 LP  0  0  0  0  0  0  0  0  0  0  0  0  # atno 17320 bound_to 7965
  145.3667  139.1668  143.4354 LP  0  0  0  0  0  0  0  0  0  0  0  0  # atno 17321 bound_to 7965
  139.7857  143.8290  152.3144 LP  0  0  0  0  0  0  0  0  0  0  0  0  # atno 17342 bound_to 10162
  139.8257  144.7276  150.9515 LP  0  0  0  0  0  0  0  0  0  0  0  0  # atno 17343 bound_to 10162
  155.9741  130.4107  150.3946 LP  0  0  0  0  0  0  0  0  0  0  0  0  # atno 17370 bound_to 10713
  157.2026  131.0441  151.2642 LP  0  0  0  0  0  0  0  0  0  0  0  0  # atno 17371 bound_to 10713
  140.8100  133.8437  155.8801 LP  0  0  0  0  0  0  0  0  0  0  0  0  # atno 17394 bound_to 11000
  140.9515  134.1773  157.4724 LP  0  0  0  0  0  0  0  0  0  0  0  0  # atno 17395 bound_to 11000

$$$$
