AV-unprocessed.smi:3237|AV-procd|sdf|12363|dock3
  -GOLD-   2272018223D 1   1.00000     0.00000
 Structure written by MMmdl.
 37 39  0  0  0  0  0  0  0  0  2 V2000
  137.9202  136.9091  155.0151 C   0  0  0  0  0  0  0  0  0  0  0  0
  139.1719  137.5156  154.4804 C   0  0  0  0  0  0  0  0  0  0  0  0
  140.2498  136.9942  153.8223 C   0  0  0  0  0  0  0  0  0  0  0  0
  141.0770  138.1354  153.6105 C   0  0  0  0  0  0  0  0  0  0  0  0
  142.3374  138.1516  152.9589 N   0  0  0  0  0  0  0  0  0  0  0  0
  143.1810  137.1271  152.7484 C   0  0  0  0  0  0  0  0  0  0  0  0
  142.9915  135.9619  153.0966 O   0  0  0  0  0  0  0  0  0  0  0  0
  144.2842  137.5296  152.1015 N   0  0  0  0  0  0  0  0  0  0  0  0
  145.3923  136.6546  151.7335 C   0  0  2  0  0  0  0  0  0  0  0  0
  145.0041  135.4975  150.8086 C   0  0  0  0  0  0  0  0  0  0  0  0
  145.9927  134.3730  151.1613 C   0  0  0  0  0  0  0  0  0  0  0  0
  146.7411  134.8191  152.3596 N   0  3  2  0  0  0  0  0  0  0  0  0
  147.0628  133.7380  153.3144 C   0  0  0  0  0  0  0  0  0  0  0  0
  148.3955  133.9160  154.0010 C   0  0  0  0  0  0  0  0  0  0  0  0
  148.2429  132.8944  152.8949 C   0  0  0  0  0  0  0  0  0  0  0  0
  145.9741  135.9327  152.9448 C   0  0  0  0  0  0  0  0  0  0  0  0
  140.5475  139.2443  154.0931 N   0  0  0  0  0  0  0  0  0  0  0  0
  139.3260  138.8557  154.6552 O   0  0  0  0  0  0  0  0  0  0  0  0
  137.7630  135.9131  154.6009 H   0  0  0  0  0  0  0  0  0  0  0  0
  137.0536  137.5205  154.7622 H   0  0  0  0  0  0  0  0  0  0  0  0
  137.9680  136.8204  156.1003 H   0  0  0  0  0  0  0  0  0  0  0  0
  140.4032  135.9621  153.5463 H   0  0  0  0  0  0  0  0  0  0  0  0
  142.6329  139.0551  152.6198 H   0  0  0  0  0  0  0  0  0  0  0  0
  144.3626  138.5044  151.8496 H   0  0  0  0  0  0  0  0  0  0  0  0
  146.1849  137.2418  151.2646 H   0  0  0  0  0  0  0  0  0  0  0  0
  143.9858  135.1660  151.0184 H   0  0  0  0  0  0  0  0  0  0  0  0
  145.0496  135.7789  149.7560 H   0  0  0  0  0  0  0  0  0  0  0  0
  145.4516  133.4452  151.3544 H   0  0  0  0  0  0  0  0  0  0  0  0
  146.6941  134.1845  150.3481 H   0  0  0  0  0  0  0  0  0  0  0  0
  146.2232  133.2892  153.8427 H   0  0  0  0  0  0  0  0  0  0  0  0
  148.9738  134.8117  153.7810 H   0  0  0  0  0  0  0  0  0  0  0  0
  148.4909  133.5394  155.0175 H   0  0  0  0  0  0  0  0  0  0  0  0
  148.2373  131.8451  153.1830 H   0  0  0  0  0  0  0  0  0  0  0  0
  148.7186  133.1118  151.9400 H   0  0  0  0  0  0  0  0  0  0  0  0
  146.6065  136.5787  153.5549 H   0  0  0  0  0  0  0  0  0  0  0  0
  145.1758  135.5386  153.5771 H   0  0  0  0  0  0  0  0  0  0  0  0
  147.6109  135.2110  152.0278 H   0  0  0  0  0  0  0  0  0  0  0  0
  1  2  1  0  0  0  0
  1 19  1  0  0  0  0
  1 20  1  0  0  0  0
  1 21  1  0  0  0  0
  2 18  1  0  0  0  0
  2  3  2  0  0  0  0
  3  4  1  0  0  0  0
  3 22  1  0  0  0  0
  4  5  1  0  0  0  0
  4 17  2  0  0  0  0
  5  6  1  0  0  0  0
  5 23  1  0  0  0  0
  6  7  2  0  0  0  0
  6  8  1  0  0  0  0
  8  9  1  0  0  0  0
  8 24  1  0  0  0  0
  9 16  1  0  0  0  0
  9 10  1  0  0  0  0
  9 25  1  0  0  0  0
 10 11  1  0  0  0  0
 10 26  1  0  0  0  0
 10 27  1  0  0  0  0
 11 12  1  0  0  0  0
 11 28  1  0  0  0  0
 11 29  1  0  0  0  0
 12 13  1  0  0  0  0
 12 16  1  0  0  0  0
 12 37  1  0  0  0  0
 13 15  1  0  0  0  0
 13 14  1  0  0  0  0
 13 30  1  0  0  0  0
 14 15  1  0  0  0  0
 14 31  1  0  0  0  0
 14 32  1  0  0  0  0
 15 33  1  0  0  0  0
 15 34  1  0  0  0  0
 16 35  1  0  0  0  0
 16 36  1  0  0  0  0
 17 18  1  0  0  0  0
M  CHG  1  12   1
M  END
> <s_m_source_file>
AV-unprocessed.smi

> <i_m_source_file_index>
3237

> <i_lp_mmshare_version>
43012

> <i_f3d_flags>
0

> <s_epik_input>
W0NIM11jMVtjSF1jKG5vMSlbTkhdQyg9TylbTkhdW0NAQEhdMltDSDJdW0NIMl1OKFtDSDJdMilbQ0hdM1tDSDJdW0NIMl0z

> <s_epik_cmdline>
J2VwaWtfcHl0aG9uJywgJy1waCcsICc3LjAnLCAnLXRuJywgJzgnLCAnLW1hJywgJzIwMCcsICctbWV0YWxfYmluZGluZycsICctaW1hZScsICc8aW5maWxlLm1hZT4nLCAnLW9tYWUnLCAnPG91dGZpbGUubWFlPic=

> <r_epik_Ionization_Penalty>
0.000720579

> <r_epik_Ionization_Penalty_Charging>
0.000680516

> <r_epik_Ionization_Penalty_Neutral>
4.00628e-05

> <r_epik_State_Penalty>
0.000432256

> <r_epik_Charging_Adjusted_Penalty>
0.00111277

> <i_epik_Tot_Q>
1

> <i_epik_Tot_abs_Q>
1

> <r_epik_Metal_State_Penalty>
0.0255091

> <b_epik_Metal_Only>
0

> <s_lp_Force_Field>
OPLS_2005

> <r_lp_Energy>
35.4942

> <b_lp_Chiralities_Consistent>
1

> <s_lp_Variant>
AV-unprocessed.smi:3237-1

> <Gold.Version>
5.8.1

> <Gold.Id.Protein>
6NUR|6NUR_protein|mol2

> <Gold.PLP.Fitness>
42.1419

> <Gold.PLP.PLP>
-31.5169

> <Gold.PLP.part.hbond>
-4.0000

> <Gold.PLP.part.metal>
0.0000

> <Gold.PLP.part.buried>
-3.8051

> <Gold.PLP.part.nonpolar>
-24.5103

> <Gold.PLP.part.repulsive>
0.4524

> <Gold.PLP.ligand.clash>
0.0000

> <Gold.PLP.ligand.torsion>
0.7325

> <Gold.PLP.Chemscore.Hbond>
3.6084

> <Gold.PLP.Chemscore.CHOScore>
0.0000

> <Gold.PLP.Chemscore.Metal>
0.0000

> <Gold.Chemscore.Hbonds>
donor molecule, donor type, donor heavy atom, donor atom, acceptor molecule, acceptor atom, score
      L1  H     5    23       P1 10175  1.00
      L1  H     8    24       P1 10175  0.61
      L1  H    12    37       P1  7948  2.00

> <Gold.PLP.Chemscore.Internal.Correction>
1.2647

> <Gold.Rescore>
     Score         DG    S(hbond)    S(metal)    S(lipo)     H(rot)  DE(clash)    DE(int)     intcor
     16.82     -19.04       2.97        0.00      58.76       1.26       0.18       2.03       ----

> <Gold.Chemscore.Fitness>
16.8201

> <Gold.Chemscore.DG>
-19.0373

> <Gold.Chemscore.ZeroCoef>
-5.4800

> <Gold.Chemscore.Hbond>
2.9660

> <Gold.Chemscore.Metal>
0.0000

> <Gold.Chemscore.Lipo>
58.7576

> <Gold.Chemscore.Internal_Hbond>
0.0000

> <Gold.Chemscore.DEClash>
0.1836

> <Gold.Chemscore.DEInternal>
2.0336

> <Gold.Chemscore.Rot>
1.2593

> <Gold.Chemscore.Internal.Correction>
   9.000000E+99

> <Gold.Chemscore.Hbonds>
donor molecule, donor type, donor heavy atom, donor atom, acceptor molecule, acceptor atom, score
      L1  H     5    23       P1 10175  0.99
      L1  H     8    24       P1 10175  0.59
      L1  H    12    37       P1  7948  0.95

> <Gold.Chemscore.Hbond.Weighted>
-9.9064

> <Gold.Chemscore.Metal.Weighted>
-0.0000

> <Gold.Chemscore.Lipo.Weighted>
-6.8746

> <Gold.Chemscore.Internal_Hbond.Weighted>
0.0000

> <Gold.Chemscore.DEClash.Weighted>
0.1836

> <Gold.Chemscore.DEInternal.Weighted>
2.0336

> <Gold.Chemscore.Rot.Weighted>
3.2237

> <Gold.Chemscore.Internal.Correction.Weighted>
   9.000000E+99

> <Gold.Protein.RotatedTorsions>
[ 6907 6896 6895 6894 ] final  -75.51 input  -60.11 | X-H torsion
[ 7974 7965 7964 7962 ] final   87.83 input  175.53 | X-H torsion
[ 8008 7997 7996 7995 ] final -160.16 input   59.86 | X-H torsion
[ 10167 10162 10161 10158 ] final  -30.92 input  -65.29 | X-H torsion
[ 10718 10713 10712 10709 ] final   96.61 input   66.30 | X-H torsion
[ 10763 10752 10751 10750 ] final  161.92 input  -60.55 | X-H torsion
[ 11005 11000 10999 10996 ] final  -16.60 input  -57.11 | X-H torsion

> <Gold.Protein.ActiveResidues>
 VAL166  LYS551  ARG553  GLY616  TRP617  ASP618  TYR619  PRO620  LYS621  CYS622 
 ASP623  PHE694  ASN695  SER759  ASP760  ASP761  ALA762  ILE779  LEU786  VAL792 
 PHE793  MET794  SER795  GLU796  ALA797  LYS798  CYS799  TRP800  GLU811  SER814 

> <Gold.Protein.RotatedAtoms>
  150.7057  134.4711  159.5425 H   0  0  0  0  0  0  0  0  0  0  0  0  # atno 6907 bound_to 6896
  152.2367  134.8266  160.0475 H   0  0  0  0  0  0  0  0  0  0  0  0  # atno 6908 bound_to 6896
  151.9063  133.3515  159.3885 H   0  0  0  0  0  0  0  0  0  0  0  0  # atno 6909 bound_to 6896
  145.5537  139.2297  143.2498 H   0  0  0  0  0  0  0  0  0  0  0  0  # atno 7974 bound_to 7965
  155.7733  140.0855  157.2096 H   0  0  0  0  0  0  0  0  0  0  0  0  # atno 8008 bound_to 7997
  154.3995  140.1521  156.3025 H   0  0  0  0  0  0  0  0  0  0  0  0  # atno 8009 bound_to 7997
  155.8725  140.3425  155.5834 H   0  0  0  0  0  0  0  0  0  0  0  0  # atno 8010 bound_to 7997
  140.7243  143.3811  151.1599 H   0  0  0  0  0  0  0  0  0  0  0  0  # atno 10167 bound_to 10162
  157.6924  131.0583  150.4518 H   0  0  0  0  0  0  0  0  0  0  0  0  # atno 10718 bound_to 10713
  154.2704  135.2766  155.2740 H   0  0  0  0  0  0  0  0  0  0  0  0  # atno 10763 bound_to 10752
  154.5306  135.5730  153.6759 H   0  0  0  0  0  0  0  0  0  0  0  0  # atno 10764 bound_to 10752
  152.9946  135.6227  154.2858 H   0  0  0  0  0  0  0  0  0  0  0  0  # atno 10765 bound_to 10752
  140.8084  133.8159  155.9539 H   0  0  0  0  0  0  0  0  0  0  0  0  # atno 11005 bound_to 11000
  146.1899  140.6361  142.9150 LP  0  0  0  0  0  0  0  0  0  0  0  0  # atno 17320 bound_to 7965
  144.7516  140.5206  143.6797 LP  0  0  0  0  0  0  0  0  0  0  0  0  # atno 17321 bound_to 7965
  139.7400  143.8939  152.3047 LP  0  0  0  0  0  0  0  0  0  0  0  0  # atno 17342 bound_to 10162
  139.8757  144.7045  150.8936 LP  0  0  0  0  0  0  0  0  0  0  0  0  # atno 17343 bound_to 10162
  156.4868  130.4086  149.6429 LP  0  0  0  0  0  0  0  0  0  0  0  0  # atno 17370 bound_to 10713
  156.3454  130.7404  151.2356 LP  0  0  0  0  0  0  0  0  0  0  0  0  # atno 17371 bound_to 10713
  140.9223  134.2126  157.4918 LP  0  0  0  0  0  0  0  0  0  0  0  0  # atno 17394 bound_to 11000
  139.8716  134.9797  156.5048 LP  0  0  0  0  0  0  0  0  0  0  0  0  # atno 17395 bound_to 11000

$$$$
