AV-unprocessed.smi:716|AV-procd|sdf|3488|dock3
  -GOLD-   22720 0483D 1   1.00000     0.00000
 Structure written by MMmdl.
 48 50  0  0  0  0  0  0  0  0  1 V2000
  144.1587  144.8049  154.5186 C   0  0  0  0  0  0  0  0  0  0  0  0
  144.0759  143.4203  155.1646 C   0  0  0  0  0  0  0  0  0  0  0  0
  145.2309  142.6804  154.8082 O   0  0  0  0  0  0  0  0  0  0  0  0
  145.8251  142.0175  155.9131 C   0  0  2  0  0  0  0  0  0  0  0  0
  146.6642  142.9206  156.8226 C   0  0  0  0  0  0  0  0  0  0  0  0
  147.6171  141.7307  156.9450 C   0  0  2  0  0  0  0  0  0  0  0  0
  149.0153  142.1413  156.9977 N   0  0  0  0  0  0  0  0  0  0  0  0
  150.0193  141.3685  157.4354 C   0  0  0  0  0  0  0  0  0  0  0  0
  149.8590  140.2126  157.8294 O   0  0  0  0  0  0  0  0  0  0  0  0
  151.4196  141.9966  157.3955 C   0  0  0  0  0  0  0  0  0  0  0  0
  152.1299  141.9106  158.6795 N   0  0  0  0  0  0  0  0  0  0  0  0
  151.9086  142.9852  159.5251 N   0  0  0  0  0  0  0  0  0  0  0  0
  152.4736  143.0465  160.6863 C   0  0  0  0  0  0  0  0  0  0  0  0
  152.1825  144.2454  161.5391 C   0  0  0  0  0  0  0  0  0  0  0  0
  153.3515  141.9731  161.1119 C   0  0  0  0  0  0  0  0  0  0  0  0
  153.5612  140.9242  160.2881 C   0  0  0  0  0  0  0  0  0  0  0  0
  152.9263  140.8401  158.9748 C   0  0  0  0  0  0  0  0  0  0  0  0
  153.0902  139.8939  158.2049 O   0  0  0  0  0  0  0  0  0  0  0  0
  147.1258  141.2565  155.5530 C   0  0  0  0  0  0  0  0  0  0  0  0
  147.8762  141.7071  154.2924 C   0  0  0  0  0  0  0  0  0  0  0  0
  147.3574  140.8431  153.1405 C   0  0  0  0  0  0  0  0  0  0  0  0
  146.8192  139.5655  153.7938 C   0  0  0  0  0  0  0  0  0  0  0  0
  146.9991  139.7578  155.3034 C   0  0  0  0  0  0  0  0  0  0  0  0
  143.2832  145.4043  154.7685 H   0  0  0  0  0  0  0  0  0  0  0  0
  144.2127  144.7274  153.4326 H   0  0  0  0  0  0  0  0  0  0  0  0
  145.0425  145.3437  154.8611 H   0  0  0  0  0  0  0  0  0  0  0  0
  144.0075  143.5210  156.2485 H   0  0  0  0  0  0  0  0  0  0  0  0
  143.1786  142.9024  154.8229 H   0  0  0  0  0  0  0  0  0  0  0  0
  145.1213  141.3950  156.4706 H   0  0  0  0  0  0  0  0  0  0  0  0
  147.0919  143.7780  156.2995 H   0  0  0  0  0  0  0  0  0  0  0  0
  146.1755  143.2132  157.7522 H   0  0  0  0  0  0  0  0  0  0  0  0
  147.3165  141.0544  157.7492 H   0  0  0  0  0  0  0  0  0  0  0  0
  149.2326  143.0763  156.6847 H   0  0  0  0  0  0  0  0  0  0  0  0
  151.9894  141.4945  156.6115 H   0  0  0  0  0  0  0  0  0  0  0  0
  151.3488  143.0403  157.0828 H   0  0  0  0  0  0  0  0  0  0  0  0
  152.6526  144.1560  162.5188 H   0  0  0  0  0  0  0  0  0  0  0  0
  151.1096  144.3617  161.6938 H   0  0  0  0  0  0  0  0  0  0  0  0
  152.5581  145.1549  161.0697 H   0  0  0  0  0  0  0  0  0  0  0  0
  153.8284  142.0203  162.0799 H   0  0  0  0  0  0  0  0  0  0  0  0
  154.2152  140.1257  160.6058 H   0  0  0  0  0  0  0  0  0  0  0  0
  147.7548  142.7698  154.0805 H   0  0  0  0  0  0  0  0  0  0  0  0
  148.9465  141.5296  154.4015 H   0  0  0  0  0  0  0  0  0  0  0  0
  146.5500  141.3588  152.6192 H   0  0  0  0  0  0  0  0  0  0  0  0
  148.1394  140.6345  152.4098 H   0  0  0  0  0  0  0  0  0  0  0  0
  145.7630  139.4430  153.5507 H   0  0  0  0  0  0  0  0  0  0  0  0
  147.3420  138.6755  153.4427 H   0  0  0  0  0  0  0  0  0  0  0  0
  147.9097  139.2514  155.6266 H   0  0  0  0  0  0  0  0  0  0  0  0
  146.1769  139.3092  155.8616 H   0  0  0  0  0  0  0  0  0  0  0  0
  1  2  1  0  0  0  0
  1 24  1  0  0  0  0
  1 25  1  0  0  0  0
  1 26  1  0  0  0  0
  2  3  1  0  0  0  0
  2 27  1  0  0  0  0
  2 28  1  0  0  0  0
  3  4  1  0  0  0  0
  4 19  1  0  0  0  0
  4  5  1  0  0  0  0
  4 29  1  0  0  0  0
  5  6  1  0  0  0  0
  5 30  1  0  0  0  0
  5 31  1  0  0  0  0
  6  7  1  0  0  0  0
  6 19  1  0  0  0  0
  6 32  1  0  0  0  0
  7  8  1  0  0  0  0
  7 33  1  0  0  0  0
  8  9  2  0  0  0  0
  8 10  1  0  0  0  0
 10 11  1  0  0  0  0
 10 34  1  0  0  0  0
 10 35  1  0  0  0  0
 11 17  1  0  0  0  0
 11 12  1  0  0  0  0
 12 13  2  0  0  0  0
 13 14  1  0  0  0  0
 13 15  1  0  0  0  0
 14 36  1  0  0  0  0
 14 37  1  0  0  0  0
 14 38  1  0  0  0  0
 15 16  2  0  0  0  0
 15 39  1  0  0  0  0
 16 17  1  0  0  0  0
 16 40  1  0  0  0  0
 17 18  2  0  0  0  0
 19 23  1  0  0  0  0
 19 20  1  0  0  0  0
 20 21  1  0  0  0  0
 20 41  1  0  0  0  0
 20 42  1  0  0  0  0
 21 22  1  0  0  0  0
 21 43  1  0  0  0  0
 21 44  1  0  0  0  0
 22 23  1  0  0  0  0
 22 45  1  0  0  0  0
 22 46  1  0  0  0  0
 23 47  1  0  0  0  0
 23 48  1  0  0  0  0
M  END
> <s_m_source_file>
AV-unprocessed.smi

> <i_m_source_file_index>
716

> <i_lp_mmshare_version>
43012

> <i_f3d_flags>
0

> <s_epik_input>
W0NIMl0xW0NIMl1bQ0gyXVtDSDJdQzEyW0NASF0oT1tDSDJdW0NIM10pW0NIMl1bQ0BIXTJbTkhdQyg9TylbQ0gyXW4zbmMoW0NIM10pW2NIXVtjSF1jMz1P

> <s_epik_cmdline>
J2VwaWtfcHl0aG9uJywgJy1waCcsICc3LjAnLCAnLXRuJywgJzgnLCAnLW1hJywgJzIwMCcsICctbWV0YWxfYmluZGluZycsICctaW1hZScsICc8aW5maWxlLm1hZT4nLCAnLW9tYWUnLCAnPG91dGZpbGUubWFlPic=

> <r_lp_tautomer_probability>
1

> <r_epik_Ionization_Penalty>
4.75561e-08

> <r_epik_Ionization_Penalty_Charging>
2.86617e-08

> <r_epik_Ionization_Penalty_Neutral>
1.88944e-08

> <r_epik_State_Penalty>
-0

> <r_epik_Charging_Adjusted_Penalty>
2.86617e-08

> <i_epik_Tot_Q>
0

> <i_epik_Tot_abs_Q>
0

> <r_epik_Metal_State_Penalty>
-0

> <b_epik_Metal_Only>
0

> <s_lp_Force_Field>
OPLS_2005

> <r_lp_Energy>
50.3273

> <b_lp_Chiralities_Consistent>
1

> <s_lp_Variant>
AV-unprocessed.smi:716-3

> <Gold.Version>
5.8.1

> <Gold.Id.Protein>
6NUR|6NUR_protein|mol2

> <Gold.PLP.Fitness>
42.9952

> <Gold.PLP.PLP>
-38.8631

> <Gold.PLP.part.hbond>
-2.0000

> <Gold.PLP.part.metal>
0.0000

> <Gold.PLP.part.buried>
-5.3587

> <Gold.PLP.part.nonpolar>
-30.1752

> <Gold.PLP.part.repulsive>
0.2105

> <Gold.PLP.ligand.clash>
0.0000

> <Gold.PLP.ligand.torsion>
1.1057

> <Gold.PLP.Chemscore.Hbond>
2.0000

> <Gold.PLP.Chemscore.CHOScore>
0.0000

> <Gold.PLP.Chemscore.Metal>
0.0000

> <Gold.Chemscore.Hbonds>
donor molecule, donor type, donor heavy atom, donor atom, acceptor molecule, acceptor atom, score
      L1  H     7    33       P1  8028  1.00
      P1  H  7997  8009       L1    18  1.00

> <Gold.PLP.Chemscore.Internal.Correction>
0.3436

> <Gold.Rescore>
     Score         DG    S(hbond)    S(metal)    S(lipo)     H(rot)  DE(clash)    DE(int)     intcor
     17.10     -18.37       1.87        0.00      94.77       1.73       0.20       1.07       ----

> <Gold.Chemscore.Fitness>
17.1000

> <Gold.Chemscore.DG>
-18.3733

> <Gold.Chemscore.ZeroCoef>
-5.4800

> <Gold.Chemscore.Hbond>
1.8703

> <Gold.Chemscore.Metal>
0.0000

> <Gold.Chemscore.Lipo>
94.7662

> <Gold.Chemscore.Internal_Hbond>
0.0000

> <Gold.Chemscore.DEClash>
0.2016

> <Gold.Chemscore.DEInternal>
1.0718

> <Gold.Chemscore.Rot>
1.7348

> <Gold.Chemscore.Internal.Correction>
   9.000000E+99

> <Gold.Chemscore.Hbonds>
donor molecule, donor type, donor heavy atom, donor atom, acceptor molecule, acceptor atom, score
      L1  H     7    33       P1  8028  0.95
      P1  H  7997  8009       L1    18  0.86

> <Gold.Chemscore.Hbond.Weighted>
-6.2468

> <Gold.Chemscore.Metal.Weighted>
-0.0000

> <Gold.Chemscore.Lipo.Weighted>
-11.0877

> <Gold.Chemscore.Internal_Hbond.Weighted>
0.0000

> <Gold.Chemscore.DEClash.Weighted>
0.2016

> <Gold.Chemscore.DEInternal.Weighted>
1.0718

> <Gold.Chemscore.Rot.Weighted>
4.4411

> <Gold.Chemscore.Internal.Correction.Weighted>
   9.000000E+99

> <Gold.Protein.RotatedTorsions>
[ 6907 6896 6895 6894 ] final  -93.85 input  -60.11 | X-H torsion
[ 7974 7965 7964 7962 ] final  135.49 input  175.53 | X-H torsion
[ 8008 7997 7996 7995 ] final  150.29 input   59.86 | X-H torsion
[ 10167 10162 10161 10158 ] final  149.85 input  -65.29 | X-H torsion
[ 10718 10713 10712 10709 ] final -152.76 input   66.30 | X-H torsion
[ 10763 10752 10751 10750 ] final -120.99 input  -60.55 | X-H torsion
[ 11005 11000 10999 10996 ] final   98.46 input  -57.11 | X-H torsion

> <Gold.Protein.ActiveResidues>
 VAL166  LYS551  ARG553  GLY616  TRP617  ASP618  TYR619  PRO620  LYS621  CYS622 
 ASP623  PHE694  ASN695  SER759  ASP760  ASP761  ALA762  ILE779  LEU786  VAL792 
 PHE793  MET794  SER795  GLU796  ALA797  LYS798  CYS799  TRP800  GLU811  SER814 

> <Gold.Protein.RotatedAtoms>
  150.6930  134.1903  159.4282 H   0  0  0  0  0  0  0  0  0  0  0  0  # atno 6907 bound_to 6896
  151.9874  134.9994  160.0569 H   0  0  0  0  0  0  0  0  0  0  0  0  # atno 6908 bound_to 6896
  152.1699  133.4602  159.4940 H   0  0  0  0  0  0  0  0  0  0  0  0  # atno 6909 bound_to 6896
  144.9658  139.4659  143.5457 H   0  0  0  0  0  0  0  0  0  0  0  0  # atno 7974 bound_to 7965
  156.2722  140.2079  156.5993 H   0  0  0  0  0  0  0  0  0  0  0  0  # atno 8008 bound_to 7997
  154.6919  140.0529  157.0396 H   0  0  0  0  0  0  0  0  0  0  0  0  # atno 8009 bound_to 7997
  155.0854  140.3191  155.4592 H   0  0  0  0  0  0  0  0  0  0  0  0  # atno 8010 bound_to 7997
  139.4856  144.5569  151.7302 H   0  0  0  0  0  0  0  0  0  0  0  0  # atno 10167 bound_to 10162
  156.4768  130.8284  151.2512 H   0  0  0  0  0  0  0  0  0  0  0  0  # atno 10718 bound_to 10713
  154.8657  135.4183  154.2548 H   0  0  0  0  0  0  0  0  0  0  0  0  # atno 10763 bound_to 10752
  153.3487  135.6997  153.6812 H   0  0  0  0  0  0  0  0  0  0  0  0  # atno 10764 bound_to 10752
  153.5761  135.3582  155.2829 H   0  0  0  0  0  0  0  0  0  0  0  0  # atno 10765 bound_to 10752
  139.8772  134.9050  156.4460 H   0  0  0  0  0  0  0  0  0  0  0  0  # atno 11005 bound_to 11000
  146.3367  139.8838  142.8820 LP  0  0  0  0  0  0  0  0  0  0  0  0  # atno 17320 bound_to 7965
  145.2631  141.0084  143.3815 LP  0  0  0  0  0  0  0  0  0  0  0  0  # atno 17321 bound_to 7965
  140.5132  144.0994  150.6001 LP  0  0  0  0  0  0  0  0  0  0  0  0  # atno 17342 bound_to 10162
  140.3926  143.2744  152.0042 LP  0  0  0  0  0  0  0  0  0  0  0  0  # atno 17343 bound_to 10162
  157.7487  131.0058  150.3127 LP  0  0  0  0  0  0  0  0  0  0  0  0  # atno 17370 bound_to 10713
  156.3562  130.3839  149.7288 LP  0  0  0  0  0  0  0  0  0  0  0  0  # atno 17371 bound_to 10713
  140.8966  133.7810  155.9632 LP  0  0  0  0  0  0  0  0  0  0  0  0  # atno 17394 bound_to 11000
  140.8697  134.2742  157.5196 LP  0  0  0  0  0  0  0  0  0  0  0  0  # atno 17395 bound_to 11000

$$$$
