#       Name:                AV-unprocessed.smi:232
#       Creating user name   scv26
#       Creation time:       Thu Mar 26 20:31:38 2020


#       File generated by GOLD software.
#

@<TRIPOS>MOLECULE
AV-unprocessed.smi:232
    60    63     1
SMALL
NO_CHARGES


@<TRIPOS>ATOM
      1 ****        -4.3402  -1.6108  -3.7751 C.3            1 S1                 0.0000
      2 ****        -3.6678  -1.1490  -2.4761 C.3            1 S1                 0.0000
      3 ****        -3.5507   0.3874  -2.3681 C.3            1 S1                 0.0000
      4 ****        -4.9153   1.0903  -2.2290 C.3            1 S1                 0.0000
      5 ****        -4.7661   2.0570  -1.0486 C.3            1 S1                 0.0000
      6 ****        -3.2600   2.1345  -0.7941 C.3            1 S1                 0.0000
      7 ****        -2.6077   3.2885  -1.5837 C.3            1 S1                 0.0000
      8 ****        -2.7804   0.8181  -1.2011 N.3            1 S1                 0.0000
      9 ****        -1.4416   0.5942  -1.1165 C.ar           1 S1                 0.0000
     10 ****        -0.7430   0.2221  -2.2226 N.ar           1 S1                 0.0000
     11 ****         0.5752   0.0167  -2.1540 C.ar           1 S1                 0.0000
     12 ****         1.3827   0.1278  -1.0982 N.ar           1 S1                 0.0000
     13 ****         0.6895   0.4999   0.0156 C.ar           1 S1                 0.0000
     14 ****        -0.7096   0.7525   0.0945 C.ar           1 S1                 0.0000
     15 ****        -1.0522   1.1014   1.3961 N.2            1 S1                 0.0000
     16 ****         0.0780   1.0615   2.0470 C.2            1 S1                 0.0000
     17 ****         1.1737   0.7059   1.2951 N.pl3          1 S1                 0.0000
     18 ****         2.5413   0.5729   1.7650 C.3            1 S1                 0.0000
     19 ****         2.7908  -0.7731   2.4744 C.3            1 S1                 0.0000
     20 ****         2.4891  -1.8387   1.5925 O.3            1 S1                 0.0000
     21 ****         4.2427  -0.9006   2.9788 C.3            1 S1                 0.0000
     22 ****         5.3231  -1.1573   1.9118 C.3            1 S1                 0.0000
     23 ****         5.9435  -2.4748   2.3394 C.3            1 S1                 0.0000
     24 ****         5.6444  -2.5149   3.8322 C.3            1 S1                 0.0000
     25 ****         4.3360  -1.9735   3.9109 O.3            1 S1                 0.0000
     26 ****        -4.3917  -2.6988  -3.8176 H              1 S1                 0.0000
     27 ****        -3.7811  -1.2709  -4.6472 H              1 S1                 0.0000
     28 ****        -5.3576  -1.2291  -3.8592 H              1 S1                 0.0000
     29 ****        -4.2199  -1.5371  -1.6195 H              1 S1                 0.0000
     30 ****        -2.6812  -1.6089  -2.4272 H              1 S1                 0.0000
     31 ****        -3.0573   0.7711  -3.2625 H              1 S1                 0.0000
     32 ****        -5.1548   1.6282  -3.1469 H              1 S1                 0.0000
     33 ****        -5.7300   0.3901  -2.0397 H              1 S1                 0.0000
     34 ****        -5.2224   3.0296  -1.2356 H              1 S1                 0.0000
     35 ****        -5.2565   1.6305  -0.1726 H              1 S1                 0.0000
     36 ****        -3.0908   2.2908   0.2708 H              1 S1                 0.0000
     37 ****        -3.0316   4.2480  -1.2866 H              1 S1                 0.0000
     38 ****        -2.7563   3.1801  -2.6584 H              1 S1                 0.0000
     39 ****        -1.5342   3.3412  -1.4001 H              1 S1                 0.0000
     40 ****         1.0512  -0.2778  -3.0774 H              1 S1                 0.0000
     41 ****         0.1434   1.2859   3.1018 H              1 S1                 0.0000
     42 ****         3.2159   0.6918   0.9163 H              1 S1                 0.0000
     43 ****         2.7486   1.4006   2.4441 H              1 S1                 0.0000
     44 ****         2.1154  -0.8434   3.3281 H              1 S1                 0.0000
     45 ****         2.6295  -2.6531   2.0510 H              1 S1                 0.0000
     46 ****         4.5061   0.0042   3.5291 H              1 S1                 0.0000
     47 ****         4.9379  -1.2019   0.8927 H              1 S1                 0.0000
     48 ****         6.0685  -0.3618   1.9433 H              1 S1                 0.0000
     49 ****         5.4380  -3.3023   1.8399 H              1 S1                 0.0000
     50 ****         7.0082  -2.5398   2.1144 H              1 S1                 0.0000
     51 ****         5.6900  -3.5226   4.2458 H              1 S1                 0.0000
     52 ****         6.3379  -1.8803   4.3864 H              1 S1                 0.0000
     53 ****        -2.9794   0.1353  -0.4981 LP             1 S1                 0.0000
     54 ****        -1.2196   0.1014  -3.0934 LP             1 S1                 0.0000
     55 ****         2.3683  -0.0400  -1.1205 LP             1 S1                 0.0000
     56 ****        -1.9581   1.3306   1.7522 LP             1 S1                 0.0000
     57 ****         3.0866  -1.7943   0.7919 LP             1 S1                 0.0000
     58 ****         1.5349  -1.7756   1.3002 LP             1 S1                 0.0000
     59 ****         3.6636  -2.6783   3.6846 LP             1 S1                 0.0000
     60 ****         4.1648  -1.6344   4.8360 LP             1 S1                 0.0000
@<TRIPOS>BOND
    1    1    2 1     
    2    1   26 1     
    3    1   27 1     
    4    1   28 1     
    5    2    3 1     
    6    2   29 1     
    7    2   30 1     
    8    3    8 1     
    9    3    4 1     
   10    3   31 1     
   11    4    5 1     
   12    4   32 1     
   13    4   33 1     
   14    5    6 1     
   15    5   34 1     
   16    5   35 1     
   17    6    7 1     
   18    6    8 1     
   19    6   36 1     
   20    7   37 1     
   21    7   38 1     
   22    7   39 1     
   23    8    9 1     
   24    9   14 ar    
   25    9   10 ar    
   26   10   11 ar    
   27   11   12 ar    
   28   11   40 1     
   29   12   13 ar    
   30   13   17 1     
   31   13   14 ar    
   32   14   15 1     
   33   15   16 2     
   34   16   17 1     
   35   16   41 1     
   36   17   18 1     
   37   18   19 1     
   38   18   42 1     
   39   18   43 1     
   40   19   20 1     
   41   19   21 1     
   42   19   44 1     
   43   20   45 1     
   44   21   25 1     
   45   21   22 1     
   46   21   46 1     
   47   22   23 1     
   48   22   47 1     
   49   22   48 1     
   50   23   24 1     
   51   23   49 1     
   52   23   50 1     
   53   24   25 1     
   54   24   51 1     
   55   24   52 1     
   56    8   53 1     
   57   10   54 1     
   58   12   55 1     
   59   15   56 1     
   60   20   57 1     
   61   20   58 1     
   62   25   59 1     
   63   25   60 1     
@<TRIPOS>SUBSTRUCTURE
      1 S1             1
@<TRIPOS>SET
LONE_PAIRS      STATIC     ATOMS    <user>   **** ""
8 53 54 55 56 57 58 59 60
DONOR_HYDROGENS      STATIC     ATOMS    <user>   **** ""
1 45
ATOM$BLUE        STATIC     ATOMS    COLORGROUP SYSTEM
8 53 54 55 56 57 58 59 60
ATOM$RED        STATIC     ATOMS    COLORGROUP SYSTEM
1 45
