AV-unprocessed.smi:1815|AV-procd|sdf|7353|dock2
  -GOLD-   22720 9 13D 1   1.00000     0.00000
 Structure written by MMmdl.
 40 41  0  0  0  0  0  0  0  0  2 V2000
  151.5839  137.9852  154.6346 C   0  0  0  0  0  0  0  0  0  0  0  0
  150.4650  138.9614  155.0150 C   0  0  2  0  0  0  0  0  0  0  0  0
  149.2736  138.8785  154.0443 C   0  0  0  0  0  0  0  0  0  0  0  0
  148.2518  139.8949  154.3864 N   0  3  2  0  0  0  0  0  0  0  0  0
  147.0380  139.7787  153.5406 C   0  0  0  0  0  0  0  0  0  0  0  0
  146.2036  138.5258  153.8715 C   0  0  0  0  0  0  0  0  0  0  0  0
  146.5772  137.3963  153.0277 N   0  0  0  0  0  0  0  0  0  0  0  0
  145.7120  136.5066  152.5194 C   0  0  0  0  0  0  0  0  0  0  0  0
  144.4988  136.5518  152.7261 O   0  0  0  0  0  0  0  0  0  0  0  0
  146.3405  135.5807  151.7742 N   0  0  0  0  0  0  0  0  0  0  0  0
  145.7700  134.4841  151.0754 C   0  0  0  0  0  0  0  0  0  0  0  0
  144.4828  134.4046  150.7177 N   0  0  0  0  0  0  0  0  0  0  0  0
  144.1987  133.2155  150.0416 C   0  0  0  0  0  0  0  0  0  0  0  0
  145.2890  132.3950  149.8927 C   0  0  0  0  0  0  0  0  0  0  0  0
  146.7246  133.0875  150.5991 S   0  0  0  0  0  0  0  0  0  0  0  0
  148.8551  141.2506  154.3844 C   0  0  0  0  0  0  0  0  0  0  0  0
  150.0798  141.3150  155.3184 C   0  0  1  0  0  0  0  0  0  0  0  0
  149.7123  141.3169  156.8130 C   0  0  0  0  0  0  0  0  0  0  0  0
  151.0063  140.2795  154.9906 O   0  0  0  0  0  0  0  0  0  0  0  0
  151.2272  136.9550  154.6441 H   0  0  0  0  0  0  0  0  0  0  0  0
  152.4165  138.0543  155.3350 H   0  0  0  0  0  0  0  0  0  0  0  0
  151.9706  138.1961  153.6372 H   0  0  0  0  0  0  0  0  0  0  0  0
  150.1334  138.7175  156.0243 H   0  0  0  0  0  0  0  0  0  0  0  0
  149.6079  139.0306  153.0166 H   0  0  0  0  0  0  0  0  0  0  0  0
  148.8335  137.8816  154.0938 H   0  0  0  0  0  0  0  0  0  0  0  0
  146.4330  140.6821  153.6333 H   0  0  0  0  0  0  0  0  0  0  0  0
  147.3482  139.7215  152.4964 H   0  0  0  0  0  0  0  0  0  0  0  0
  146.3154  138.2572  154.9234 H   0  0  0  0  0  0  0  0  0  0  0  0
  145.1427  138.7120  153.7093 H   0  0  0  0  0  0  0  0  0  0  0  0
  147.5577  137.2905  152.8097 H   0  0  0  0  0  0  0  0  0  0  0  0
  147.3427  135.6700  151.6946 H   0  0  0  0  0  0  0  0  0  0  0  0
  143.1906  133.0339  149.6997 H   0  0  0  0  0  0  0  0  0  0  0  0
  145.3337  131.4291  149.4118 H   0  0  0  0  0  0  0  0  0  0  0  0
  149.1580  141.5028  153.3668 H   0  0  0  0  0  0  0  0  0  0  0  0
  148.1275  142.0019  154.6902 H   0  0  0  0  0  0  0  0  0  0  0  0
  150.5972  142.2544  155.1215 H   0  0  0  0  0  0  0  0  0  0  0  0
  149.1161  142.1949  157.0625 H   0  0  0  0  0  0  0  0  0  0  0  0
  150.6083  141.3413  157.4336 H   0  0  0  0  0  0  0  0  0  0  0  0
  149.1306  140.4409  157.0986 H   0  0  0  0  0  0  0  0  0  0  0  0
  147.9623  139.6983  155.3341 H   0  0  0  0  0  0  0  0  0  0  0  0
  1  2  1  0  0  0  0
  1 20  1  0  0  0  0
  1 21  1  0  0  0  0
  1 22  1  0  0  0  0
  2 19  1  0  0  0  0
  2  3  1  0  0  0  0
  2 23  1  0  0  0  0
  3  4  1  0  0  0  0
  3 24  1  0  0  0  0
  3 25  1  0  0  0  0
  4  5  1  0  0  0  0
  4 16  1  0  0  0  0
  4 40  1  0  0  0  0
  5  6  1  0  0  0  0
  5 26  1  0  0  0  0
  5 27  1  0  0  0  0
  6  7  1  0  0  0  0
  6 28  1  0  0  0  0
  6 29  1  0  0  0  0
  7  8  1  0  0  0  0
  7 30  1  0  0  0  0
  8  9  2  0  0  0  0
  8 10  1  0  0  0  0
 10 11  1  0  0  0  0
 10 31  1  0  0  0  0
 11 15  1  0  0  0  0
 11 12  2  0  0  0  0
 12 13  1  0  0  0  0
 13 14  2  0  0  0  0
 13 32  1  0  0  0  0
 14 15  1  0  0  0  0
 14 33  1  0  0  0  0
 16 17  1  0  0  0  0
 16 34  1  0  0  0  0
 16 35  1  0  0  0  0
 17 18  1  0  0  0  0
 17 19  1  0  0  0  0
 17 36  1  0  0  0  0
 18 37  1  0  0  0  0
 18 38  1  0  0  0  0
 18 39  1  0  0  0  0
M  CHG  1   4   1
M  END
> <s_m_source_file>
AV-unprocessed.smi

> <i_m_source_file_index>
1815

> <i_lp_mmshare_version>
43012

> <i_f3d_flags>
0

> <s_epik_input>
W0NIM11bQ0BASF0xW0NIMl1OKFtDSDJdW0NASF0oTzEpW0NIM10pW0NIMl1bQ0gyXVtOSF1DKD1PKVtOSF1jMm5bY0hdW2NIXXMy

> <s_epik_cmdline>
J2VwaWtfcHl0aG9uJywgJy1waCcsICc3LjAnLCAnLXRuJywgJzgnLCAnLW1hJywgJzIwMCcsICctbWV0YWxfYmluZGluZycsICctaW1hZScsICc8aW5maWxlLm1hZT4nLCAnLW9tYWUnLCAnPG91dGZpbGUubWFlPic=

> <r_lp_tautomer_probability>
0.999

> <r_epik_Ionization_Penalty>
0.695838

> <r_epik_Ionization_Penalty_Charging>
0.695697

> <r_epik_Ionization_Penalty_Neutral>
0.000141198

> <r_epik_State_Penalty>
0.717972

> <r_epik_Charging_Adjusted_Penalty>
1.41367

> <i_epik_Tot_Q>
1

> <i_epik_Tot_abs_Q>
1

> <r_epik_Metal_State_Penalty>
0.756405

> <b_epik_Metal_Only>
0

> <s_lp_Force_Field>
OPLS_2005

> <r_lp_Energy>
15.3222

> <b_lp_Chiralities_Consistent>
1

> <s_lp_Variant>
AV-unprocessed.smi:1815-4

> <Gold.Version>
5.8.1

> <Gold.Id.Protein>
6NUR|6NUR_protein|mol2

> <Gold.PLP.Fitness>
44.4405

> <Gold.PLP.PLP>
-33.6062

> <Gold.PLP.part.hbond>
-3.0000

> <Gold.PLP.part.metal>
0.0000

> <Gold.PLP.part.buried>
-5.2789

> <Gold.PLP.part.nonpolar>
-26.5720

> <Gold.PLP.part.repulsive>
0.5122

> <Gold.PLP.ligand.clash>
0.0000

> <Gold.PLP.ligand.torsion>
0.5571

> <Gold.PLP.Chemscore.Hbond>
2.9760

> <Gold.PLP.Chemscore.CHOScore>
1.0000

> <Gold.PLP.Chemscore.Metal>
0.0000

> <Gold.Chemscore.Hbonds>
donor molecule, donor type, donor heavy atom, donor atom, acceptor molecule, acceptor atom, score
      L1  H     7    30       P1  7948  0.94
      L1  H    10    31       P1  7948  1.00
      P1  H  7989  7998       L1    19  1.00
      L1  C    13    32       P1 10186  0.85

> <Gold.PLP.Chemscore.Internal.Correction>
0.0204

> <Gold.Rescore>
     Score         DG    S(hbond)    S(metal)    S(lipo)     H(rot)  DE(clash)    DE(int)     intcor
     17.35     -19.53       2.54        0.00      83.31       1.64       0.46       1.72       ----

> <Gold.Chemscore.Fitness>
17.3518

> <Gold.Chemscore.DG>
-19.5306

> <Gold.Chemscore.ZeroCoef>
-5.4800

> <Gold.Chemscore.Hbond>
2.5443

> <Gold.Chemscore.Metal>
0.0000

> <Gold.Chemscore.Lipo>
83.3086

> <Gold.Chemscore.Internal_Hbond>
0.0000

> <Gold.Chemscore.DEClash>
0.4591

> <Gold.Chemscore.DEInternal>
1.7198

> <Gold.Chemscore.Rot>
1.6385

> <Gold.Chemscore.Internal.Correction>
   9.000000E+99

> <Gold.Chemscore.Hbonds>
donor molecule, donor type, donor heavy atom, donor atom, acceptor molecule, acceptor atom, score
      L1  H     7    30       P1  7948  0.89
      L1  H    10    31       P1  7948  1.00
      P1  H  7989  7998       L1    19  0.28

> <Gold.Chemscore.Hbond.Weighted>
-8.4980

> <Gold.Chemscore.Metal.Weighted>
-0.0000

> <Gold.Chemscore.Lipo.Weighted>
-9.7471

> <Gold.Chemscore.Internal_Hbond.Weighted>
0.0000

> <Gold.Chemscore.DEClash.Weighted>
0.4591

> <Gold.Chemscore.DEInternal.Weighted>
1.7198

> <Gold.Chemscore.Rot.Weighted>
4.1945

> <Gold.Chemscore.Internal.Correction.Weighted>
   9.000000E+99

> <Gold.Protein.RotatedTorsions>
[ 6907 6896 6895 6894 ] final  158.24 input  -60.11 | X-H torsion
[ 7974 7965 7964 7962 ] final  139.56 input  175.53 | X-H torsion
[ 8008 7997 7996 7995 ] final   96.88 input   59.86 | X-H torsion
[ 10167 10162 10161 10158 ] final  -69.38 input  -65.29 | X-H torsion
[ 10718 10713 10712 10709 ] final -168.39 input   66.30 | X-H torsion
[ 10763 10752 10751 10750 ] final  176.26 input  -60.55 | X-H torsion
[ 11005 11000 10999 10996 ] final  -89.85 input  -57.11 | X-H torsion

> <Gold.Protein.ActiveResidues>
 VAL166  LYS551  ARG553  GLY616  TRP617  ASP618  TYR619  PRO620  LYS621  CYS622 
 ASP623  PHE694  ASN695  SER759  ASP760  ASP761  ALA762  ILE779  LEU786  VAL792 
 PHE793  MET794  SER795  GLU796  ALA797  LYS798  CYS799  TRP800  GLU811  SER814 

> <Gold.Protein.RotatedAtoms>
  152.0034  133.3834  159.4190 H   0  0  0  0  0  0  0  0  0  0  0  0  # atno 6907 bound_to 6896
  150.6907  134.3809  159.5043 H   0  0  0  0  0  0  0  0  0  0  0  0  # atno 6908 bound_to 6896
  152.1560  134.8950  160.0595 H   0  0  0  0  0  0  0  0  0  0  0  0  # atno 6909 bound_to 6896
  144.9268  139.5098  143.5637 H   0  0  0  0  0  0  0  0  0  0  0  0  # atno 7974 bound_to 7965
  156.0843  140.3266  155.7733 H   0  0  0  0  0  0  0  0  0  0  0  0  # atno 8008 bound_to 7997
  155.5102  140.0576  157.2942 H   0  0  0  0  0  0  0  0  0  0  0  0  # atno 8009 bound_to 7997
  154.4600  140.1962  156.0288 H   0  0  0  0  0  0  0  0  0  0  0  0  # atno 8010 bound_to 7997
  140.5435  143.2314  151.7045 H   0  0  0  0  0  0  0  0  0  0  0  0  # atno 10167 bound_to 10162
  156.6962  130.9178  151.3074 H   0  0  0  0  0  0  0  0  0  0  0  0  # atno 10718 bound_to 10713
  154.4788  135.2774  155.1587 H   0  0  0  0  0  0  0  0  0  0  0  0  # atno 10763 bound_to 10752
  154.3306  135.6191  153.5553 H   0  0  0  0  0  0  0  0  0  0  0  0  # atno 10764 bound_to 10752
  152.9872  135.5764  154.5184 H   0  0  0  0  0  0  0  0  0  0  0  0  # atno 10765 bound_to 10752
  141.1577  133.7655  156.9654 H   0  0  0  0  0  0  0  0  0  0  0  0  # atno 11005 bound_to 11000
  146.3229  139.8188  142.8931 LP  0  0  0  0  0  0  0  0  0  0  0  0  # atno 17320 bound_to 7965
  145.3207  141.0243  143.3502 LP  0  0  0  0  0  0  0  0  0  0  0  0  # atno 17321 bound_to 7965
  139.4998  144.3931  152.0259 LP  0  0  0  0  0  0  0  0  0  0  0  0  # atno 17342 bound_to 10162
  140.3042  144.3612  150.6051 LP  0  0  0  0  0  0  0  0  0  0  0  0  # atno 17343 bound_to 10162
  157.6990  130.9313  150.0730 LP  0  0  0  0  0  0  0  0  0  0  0  0  # atno 17370 bound_to 10713
  156.1762  130.3648  149.9097 LP  0  0  0  0  0  0  0  0  0  0  0  0  # atno 17371 bound_to 10713
  140.1165  134.9444  157.2142 LP  0  0  0  0  0  0  0  0  0  0  0  0  # atno 17394 bound_to 11000
  140.3126  134.3006  155.7263 LP  0  0  0  0  0  0  0  0  0  0  0  0  # atno 17395 bound_to 11000

$$$$
