AV-unprocessed.smi:155|AV-procd|sdf|1286|dock3
  -GOLD-   2262018563D 1   1.00000     0.00000
 Structure written by MMmdl.
 64 67  0  0  0  0  0  0  0  0  3 V2000
  145.7063  135.4592  151.6064 C   0  0  0  0  0  0  0  0  0  0  0  0
  146.6893  134.3516  151.6042 N   0  3  0  0  0  0  0  0  0  0  0  0
  146.6386  133.5824  150.3408 C   0  0  0  0  0  0  0  0  0  0  0  0
  146.5843  133.4746  152.7978 C   0  0  0  0  0  0  0  0  0  0  0  0
  146.6198  134.2672  154.1216 C   0  0  0  0  0  0  0  0  0  0  0  0
  147.7680  133.8849  154.9862 N   0  3  1  0  0  0  0  0  0  0  0  0
  147.5871  132.5641  155.6465 C   0  0  0  0  0  0  0  0  0  0  0  0
  148.0216  132.6342  157.1211 C   0  0  0  0  0  0  0  0  0  0  0  0
  149.5449  132.7195  157.3223 C   0  0  0  0  0  0  0  0  0  0  0  0
  150.1537  133.8251  156.5850 N   0  0  0  0  0  0  0  0  0  0  0  0
  150.1736  135.1015  157.0771 C   0  0  0  0  0  0  0  0  0  0  0  0
  149.6050  135.3164  158.2947 N   0  0  0  0  0  0  0  0  0  0  0  0
  149.5865  136.5316  158.8462 C   0  0  0  0  0  0  0  0  0  0  0  0
  150.0820  137.6693  158.3640 N   0  0  0  0  0  0  0  0  0  0  0  0
  150.6564  137.4773  157.1439 C   0  0  0  0  0  0  0  0  0  0  0  0
  150.7467  136.2437  156.4312 C   0  0  0  0  0  0  0  0  0  0  0  0
  151.4110  136.4656  155.2278 N   0  0  0  0  0  0  0  0  0  0  0  0
  151.6881  137.7398  155.2275 C   0  0  0  0  0  0  0  0  0  0  0  0
  151.2691  138.4241  156.3424 N   0  0  0  0  0  0  0  0  0  0  0  0
  151.4471  139.8424  156.6053 C   0  0  0  0  0  0  0  0  0  0  0  0
  151.8957  140.1239  158.0554 C   0  0  1  0  0  0  0  0  0  0  0  0
  153.1530  139.5070  158.2566 O   0  0  0  0  0  0  0  0  0  0  0  0
  152.0572  141.6272  158.3595 C   0  0  1  0  0  0  0  0  0  0  0  0
  150.7549  142.4294  158.3569 C   0  0  0  0  0  0  0  0  0  0  0  0
  151.0807  143.6337  159.2230 C   0  0  0  0  0  0  0  0  0  0  0  0
  152.2824  143.1730  160.0507 C   0  0  0  0  0  0  0  0  0  0  0  0
  152.4766  141.8081  159.7042 O   0  0  0  0  0  0  0  0  0  0  0  0
  150.3094  133.6069  155.1436 C   0  0  0  0  0  0  0  0  0  0  0  0
  149.0847  134.0382  154.3043 C   0  0  0  0  0  0  0  0  0  0  0  0
  144.6849  135.0767  151.5935 H   0  0  0  0  0  0  0  0  0  0  0  0
  145.8416  136.0929  150.7291 H   0  0  0  0  0  0  0  0  0  0  0  0
  145.8236  136.0934  152.4846 H   0  0  0  0  0  0  0  0  0  0  0  0
  145.6812  133.0712  150.2315 H   0  0  0  0  0  0  0  0  0  0  0  0
  147.4316  132.8347  150.3089 H   0  0  0  0  0  0  0  0  0  0  0  0
  146.7745  134.2406  149.4818 H   0  0  0  0  0  0  0  0  0  0  0  0
  145.6843  132.8628  152.7233 H   0  0  0  0  0  0  0  0  0  0  0  0
  147.4313  132.7860  152.7922 H   0  0  0  0  0  0  0  0  0  0  0  0
  146.7131  135.3237  153.8659 H   0  0  0  0  0  0  0  0  0  0  0  0
  145.6876  134.1587  154.6775 H   0  0  0  0  0  0  0  0  0  0  0  0
  146.5361  132.2739  155.6331 H   0  0  0  0  0  0  0  0  0  0  0  0
  148.1155  131.7765  155.1071 H   0  0  0  0  0  0  0  0  0  0  0  0
  147.5269  133.4768  157.6046 H   0  0  0  0  0  0  0  0  0  0  0  0
  147.6612  131.7439  157.6373 H   0  0  0  0  0  0  0  0  0  0  0  0
  149.8042  132.7618  158.3785 H   0  0  0  0  0  0  0  0  0  0  0  0
  149.9948  131.7897  156.9724 H   0  0  0  0  0  0  0  0  0  0  0  0
  149.1058  136.6024  159.8110 H   0  0  0  0  0  0  0  0  0  0  0  0
  152.2081  138.2184  154.4101 H   0  0  0  0  0  0  0  0  0  0  0  0
  152.1718  140.2456  155.8969 H   0  0  0  0  0  0  0  0  0  0  0  0
  150.4994  140.3377  156.3940 H   0  0  0  0  0  0  0  0  0  0  0  0
  151.1747  139.6853  158.7464 H   0  0  0  0  0  0  0  0  0  0  0  0
  153.0103  138.6321  158.5835 H   0  0  0  0  0  0  0  0  0  0  0  0
  152.7750  142.0917  157.6800 H   0  0  0  0  0  0  0  0  0  0  0  0
  150.4297  142.7084  157.3543 H   0  0  0  0  0  0  0  0  0  0  0  0
  149.9563  141.8505  158.8233 H   0  0  0  0  0  0  0  0  0  0  0  0
  151.3507  144.4953  158.6112 H   0  0  0  0  0  0  0  0  0  0  0  0
  150.2331  143.9164  159.8480 H   0  0  0  0  0  0  0  0  0  0  0  0
  153.1734  143.7447  159.7878 H   0  0  0  0  0  0  0  0  0  0  0  0
  152.1144  143.2773  161.1225 H   0  0  0  0  0  0  0  0  0  0  0  0
  151.2155  134.0872  154.7716 H   0  0  0  0  0  0  0  0  0  0  0  0
  150.4787  132.5418  154.9819 H   0  0  0  0  0  0  0  0  0  0  0  0
  149.0840  133.4914  153.3604 H   0  0  0  0  0  0  0  0  0  0  0  0
  149.2141  135.0893  154.0487 H   0  0  0  0  0  0  0  0  0  0  0  0
  147.6057  134.7755  151.6334 H   0  0  0  0  0  0  0  0  0  0  0  0
  147.7660  134.5513  155.7452 H   0  0  0  0  0  0  0  0  0  0  0  0
  1  2  1  0  0  0  0
  1 30  1  0  0  0  0
  1 31  1  0  0  0  0
  1 32  1  0  0  0  0
  2  3  1  0  0  0  0
  2  4  1  0  0  0  0
  2 63  1  0  0  0  0
  3 33  1  0  0  0  0
  3 34  1  0  0  0  0
  3 35  1  0  0  0  0
  4  5  1  0  0  0  0
  4 36  1  0  0  0  0
  4 37  1  0  0  0  0
  5  6  1  0  0  0  0
  5 38  1  0  0  0  0
  5 39  1  0  0  0  0
  6 29  1  0  0  0  0
  6  7  1  0  0  0  0
  6 64  1  0  0  0  0
  7  8  1  0  0  0  0
  7 40  1  0  0  0  0
  7 41  1  0  0  0  0
  8  9  1  0  0  0  0
  8 42  1  0  0  0  0
  8 43  1  0  0  0  0
  9 10  1  0  0  0  0
  9 44  1  0  0  0  0
  9 45  1  0  0  0  0
 10 11  1  0  0  0  0
 10 28  1  0  0  0  0
 11 16  1  0  0  0  0
 11 12  2  0  0  0  0
 12 13  1  0  0  0  0
 13 14  2  0  0  0  0
 13 46  1  0  0  0  0
 14 15  1  0  0  0  0
 15 19  1  0  0  0  0
 15 16  2  0  0  0  0
 16 17  1  0  0  0  0
 17 18  2  0  0  0  0
 18 19  1  0  0  0  0
 18 47  1  0  0  0  0
 19 20  1  0  0  0  0
 20 21  1  0  0  0  0
 20 48  1  0  0  0  0
 20 49  1  0  0  0  0
 21 22  1  0  0  0  0
 21 23  1  0  0  0  0
 21 50  1  0  0  0  0
 22 51  1  0  0  0  0
 23 27  1  0  0  0  0
 23 24  1  0  0  0  0
 23 52  1  0  0  0  0
 24 25  1  0  0  0  0
 24 53  1  0  0  0  0
 24 54  1  0  0  0  0
 25 26  1  0  0  0  0
 25 55  1  0  0  0  0
 25 56  1  0  0  0  0
 26 27  1  0  0  0  0
 26 57  1  0  0  0  0
 26 58  1  0  0  0  0
 28 29  1  0  0  0  0
 28 59  1  0  0  0  0
 28 60  1  0  0  0  0
 29 61  1  0  0  0  0
 29 62  1  0  0  0  0
M  CHG  1   2   1
M  CHG  1   6   1
M  END
> <s_m_source_file>
AV-unprocessed.smi

> <i_m_source_file_index>
155

> <i_lp_mmshare_version>
43012

> <i_f3d_flags>
0

> <s_epik_input>
W0NIM11OKFtDSDNdKVtDSDJdW0NIMl1OMVtDSDJdW0NIMl1bQ0gyXU4oW0NIMl1bQ0gyXTEpYyhuW2NIXW4yKWMoYzIzKW5bY0hdbjNbQ0gyXVtDQEhdKFtPSF0pW0NAQEhdNFtDSDJdW0NIMl1bQ0gyXU80

> <s_epik_cmdline>
J2VwaWtfcHl0aG9uJywgJy1waCcsICc3LjAnLCAnLXRuJywgJzgnLCAnLW1hJywgJzIwMCcsICctbWV0YWxfYmluZGluZycsICctaW1hZScsICc8aW5maWxlLm1hZT4nLCAnLW9tYWUnLCAnPG91dGZpbGUubWFlPic=

> <r_lp_tautomer_probability>
1

> <r_epik_Ionization_Penalty>
3.0333

> <r_epik_Ionization_Penalty_Charging>
3.03317

> <r_epik_Ionization_Penalty_Neutral>
0.000131872

> <r_epik_State_Penalty>
1.99939

> <r_epik_Charging_Adjusted_Penalty>
5.03256

> <i_epik_Tot_Q>
2

> <i_epik_Tot_abs_Q>
2

> <r_epik_Metal_State_Penalty>
2.00021

> <b_epik_Metal_Only>
0

> <s_lp_Force_Field>
OPLS_2005

> <r_lp_Energy>
62.6942

> <b_lp_Chiralities_Consistent>
1

> <s_lp_Variant>
AV-unprocessed.smi:155-20

> <Gold.Version>
5.8.1

> <Gold.Id.Protein>
6NUR|6NUR_protein|mol2

> <Gold.PLP.Fitness>
49.6708

> <Gold.PLP.PLP>
-35.7311

> <Gold.PLP.part.hbond>
-4.0000

> <Gold.PLP.part.metal>
0.0000

> <Gold.PLP.part.buried>
-5.6592

> <Gold.PLP.part.nonpolar>
-26.6765

> <Gold.PLP.part.repulsive>
0.1502

> <Gold.PLP.ligand.clash>
0.0000

> <Gold.PLP.ligand.torsion>
0.7884

> <Gold.PLP.Chemscore.Hbond>
5.0000

> <Gold.PLP.Chemscore.CHOScore>
0.0000

> <Gold.PLP.Chemscore.Metal>
0.0000

> <Gold.Chemscore.Hbonds>
donor molecule, donor type, donor heavy atom, donor atom, acceptor molecule, acceptor atom, score
      L1  H     2    63       P1  7948  2.00
      P1  H  6896  6908       L1    12  1.00
      P1  H  7997  8008       L1    22  0.99
      P1  H 10752 10764       L1    17  1.00

> <Gold.PLP.Chemscore.Internal.Correction>
0.5164

> <Gold.Rescore>
     Score         DG    S(hbond)    S(metal)    S(lipo)     H(rot)  DE(clash)    DE(int)     intcor
     16.83     -18.71       2.96        0.00      88.71       2.75       0.12       1.77       ----

> <Gold.Chemscore.Fitness>
16.8288

> <Gold.Chemscore.DG>
-18.7149

> <Gold.Chemscore.ZeroCoef>
-5.4800

> <Gold.Chemscore.Hbond>
2.9623

> <Gold.Chemscore.Metal>
0.0000

> <Gold.Chemscore.Lipo>
88.7112

> <Gold.Chemscore.Internal_Hbond>
0.0000

> <Gold.Chemscore.DEClash>
0.1152

> <Gold.Chemscore.DEInternal>
1.7709

> <Gold.Chemscore.Rot>
2.7493

> <Gold.Chemscore.Internal.Correction>
   9.000000E+99

> <Gold.Chemscore.Hbonds>
donor molecule, donor type, donor heavy atom, donor atom, acceptor molecule, acceptor atom, score
      L1  H     2    63       P1  7948  0.39
      P1  H  6896  6908       L1    12  0.19
      P1  H  7997  8008       L1    22  0.88
      P1  H 10752 10764       L1    17  0.60

> <Gold.Chemscore.Hbond.Weighted>
-9.8940

> <Gold.Chemscore.Metal.Weighted>
-0.0000

> <Gold.Chemscore.Lipo.Weighted>
-10.3792

> <Gold.Chemscore.Internal_Hbond.Weighted>
0.0000

> <Gold.Chemscore.DEClash.Weighted>
0.1152

> <Gold.Chemscore.DEInternal.Weighted>
1.7709

> <Gold.Chemscore.Rot.Weighted>
7.0383

> <Gold.Chemscore.Internal.Correction.Weighted>
   9.000000E+99

> <Gold.Protein.RotatedTorsions>
[ 6907 6896 6895 6894 ] final  151.59 input  -60.11 | X-H torsion
[ 7974 7965 7964 7962 ] final  -81.28 input  175.53 | X-H torsion
[ 8008 7997 7996 7995 ] final -103.68 input   59.86 | X-H torsion
[ 10167 10162 10161 10158 ] final  102.07 input  -65.29 | X-H torsion
[ 10718 10713 10712 10709 ] final  131.55 input   66.30 | X-H torsion
[ 10763 10752 10751 10750 ] final  -53.94 input  -60.55 | X-H torsion
[ 11005 11000 10999 10996 ] final  -65.84 input  -57.11 | X-H torsion

> <Gold.Protein.ActiveResidues>
 VAL166  LYS551  ARG553  GLY616  TRP617  ASP618  TYR619  PRO620  LYS621  CYS622 
 ASP623  PHE694  ASN695  SER759  ASP760  ASP761  ALA762  ILE779  LEU786  VAL792 
 PHE793  MET794  SER795  GLU796  ALA797  LYS798  CYS799  TRP800  GLU811  SER814 

> <Gold.Protein.RotatedAtoms>
  152.0985  133.4237  159.4575 H   0  0  0  0  0  0  0  0  0  0  0  0  # atno 6907 bound_to 6896
  150.6863  134.2788  159.4628 H   0  0  0  0  0  0  0  0  0  0  0  0  # atno 6908 bound_to 6896
  152.0646  134.9572  160.0625 H   0  0  0  0  0  0  0  0  0  0  0  0  # atno 6909 bound_to 6896
  145.5487  140.9500  143.1511 H   0  0  0  0  0  0  0  0  0  0  0  0  # atno 7974 bound_to 7965
  154.8744  140.0421  157.1744 H   0  0  0  0  0  0  0  0  0  0  0  0  # atno 8008 bound_to 7997
  154.8705  140.2957  155.5463 H   0  0  0  0  0  0  0  0  0  0  0  0  # atno 8009 bound_to 7997
  156.2999  140.2430  156.3693 H   0  0  0  0  0  0  0  0  0  0  0  0  # atno 8010 bound_to 7997
  139.7382  144.7018  151.0616 H   0  0  0  0  0  0  0  0  0  0  0  0  # atno 10167 bound_to 10162
  157.4956  131.1092  150.9497 H   0  0  0  0  0  0  0  0  0  0  0  0  # atno 10718 bound_to 10713
  154.1668  135.6465  153.4999 H   0  0  0  0  0  0  0  0  0  0  0  0  # atno 10763 bound_to 10752
  153.0095  135.5374  154.6654 H   0  0  0  0  0  0  0  0  0  0  0  0  # atno 10764 bound_to 10752
  154.5982  135.2941  155.0535 H   0  0  0  0  0  0  0  0  0  0  0  0  # atno 10765 bound_to 10752
  141.1465  133.6688  156.6047 H   0  0  0  0  0  0  0  0  0  0  0  0  # atno 11005 bound_to 11000
  144.7540  139.7121  143.7261 LP  0  0  0  0  0  0  0  0  0  0  0  0  # atno 17320 bound_to 7965
  146.1932  139.5183  142.9792 LP  0  0  0  0  0  0  0  0  0  0  0  0  # atno 17321 bound_to 7965
  140.7782  143.4957  150.9836 LP  0  0  0  0  0  0  0  0  0  0  0  0  # atno 17342 bound_to 10162
  139.8645  143.7271  152.3171 LP  0  0  0  0  0  0  0  0  0  0  0  0  # atno 17343 bound_to 10162
  157.0184  130.5664  149.5328 LP  0  0  0  0  0  0  0  0  0  0  0  0  # atno 17370 bound_to 10713
  156.0199  130.5293  150.8244 LP  0  0  0  0  0  0  0  0  0  0  0  0  # atno 17371 bound_to 10713
  140.3661  134.7646  157.4567 LP  0  0  0  0  0  0  0  0  0  0  0  0  # atno 17394 bound_to 11000
  140.0747  134.5814  155.8604 LP  0  0  0  0  0  0  0  0  0  0  0  0  # atno 17395 bound_to 11000

$$$$
