AV-unprocessed.smi:3308|AV-procd|sdf|12715|dock10
  -GOLD-   2272019 53D 1   1.00000     0.00000
 Structure written by MMmdl.
 40 41  0  0  0  0  0  0  0  0  1 V2000
  149.3151  138.7806  157.4949 C   0  0  0  0  0  0  0  0  0  0  0  0
  150.1822  140.0350  157.2902 C   0  0  1  0  0  0  0  0  0  0  0  0
  151.4121  139.8041  158.0522 N   0  0  0  0  0  0  0  0  0  0  0  0
  152.3794  140.9144  158.0149 C   0  0  0  0  0  0  0  0  0  0  0  0
  152.5616  141.6244  159.3699 C   0  0  0  0  0  0  0  0  0  0  0  0
  152.8951  140.9485  160.3442 O   0  0  0  0  0  0  0  0  0  0  0  0
  152.3468  142.9547  159.4639 N   0  0  0  0  0  0  0  0  0  0  0  0
  152.4580  143.6928  160.7210 C   0  0  0  0  0  0  0  0  0  0  0  0
  151.8659  145.0750  160.4467 C   0  0  0  0  0  0  0  0  0  0  0  0
  152.0572  145.2687  158.9498 C   0  0  0  0  0  0  0  0  0  0  0  0
  151.9676  143.8549  158.3753 C   0  0  0  0  0  0  0  0  0  0  0  0
  150.5263  140.3048  155.7983 C   0  0  1  0  0  0  0  0  0  0  0  0
  151.4440  139.2296  155.1826 C   0  0  0  0  0  0  0  0  0  0  0  0
  149.3222  140.4523  154.9874 N   0  0  0  0  0  0  0  0  0  0  0  0
  148.8039  141.6054  154.4345 C   0  0  0  0  0  0  0  0  0  0  0  0
  147.6513  141.2667  153.7855 C   0  0  0  0  0  0  0  0  0  0  0  0
  147.5411  139.8651  154.0018 C   0  0  0  0  0  0  0  0  0  0  0  0
  148.5394  139.3809  154.7219 N   0  0  0  0  0  0  0  0  0  0  0  0
  148.3274  138.8989  157.0500 H   0  0  0  0  0  0  0  0  0  0  0  0
  149.1585  138.5800  158.5556 H   0  0  0  0  0  0  0  0  0  0  0  0
  149.7779  137.8969  157.0538 H   0  0  0  0  0  0  0  0  0  0  0  0
  149.6239  140.8861  157.6822 H   0  0  0  0  0  0  0  0  0  0  0  0
  151.1734  139.5684  159.0051 H   0  0  0  0  0  0  0  0  0  0  0  0
  153.3490  140.5117  157.7222 H   0  0  0  0  0  0  0  0  0  0  0  0
  152.0927  141.5994  157.2209 H   0  0  0  0  0  0  0  0  0  0  0  0
  151.9346  143.1947  161.5387 H   0  0  0  0  0  0  0  0  0  0  0  0
  153.5117  143.7741  160.9922 H   0  0  0  0  0  0  0  0  0  0  0  0
  150.8004  145.0692  160.6801 H   0  0  0  0  0  0  0  0  0  0  0  0
  152.3340  145.8611  161.0397 H   0  0  0  0  0  0  0  0  0  0  0  0
  151.3253  145.9491  158.5136 H   0  0  0  0  0  0  0  0  0  0  0  0
  153.0500  145.6789  158.7596 H   0  0  0  0  0  0  0  0  0  0  0  0
  152.6159  143.7484  157.5045 H   0  0  0  0  0  0  0  0  0  0  0  0
  150.9433  143.6341  158.0727 H   0  0  0  0  0  0  0  0  0  0  0  0
  151.0647  141.2523  155.7399 H   0  0  0  0  0  0  0  0  0  0  0  0
  152.4296  139.2285  155.6471 H   0  0  0  0  0  0  0  0  0  0  0  0
  151.5963  139.4100  154.1179 H   0  0  0  0  0  0  0  0  0  0  0  0
  151.0218  138.2302  155.2931 H   0  0  0  0  0  0  0  0  0  0  0  0
  149.2913  142.5621  154.5520 H   0  0  0  0  0  0  0  0  0  0  0  0
  146.9863  141.9214  153.2421 H   0  0  0  0  0  0  0  0  0  0  0  0
  146.7695  139.1901  153.6623 H   0  0  0  0  0  0  0  0  0  0  0  0
  1  2  1  0  0  0  0
  1 19  1  0  0  0  0
  1 20  1  0  0  0  0
  1 21  1  0  0  0  0
  2  3  1  0  0  0  0
  2 12  1  0  0  0  0
  2 22  1  0  0  0  0
  3  4  1  0  0  0  0
  3 23  1  0  0  0  0
  4  5  1  0  0  0  0
  4 24  1  0  0  0  0
  4 25  1  0  0  0  0
  5  6  2  0  0  0  0
  5  7  1  0  0  0  0
  7 11  1  0  0  0  0
  7  8  1  0  0  0  0
  8  9  1  0  0  0  0
  8 26  1  0  0  0  0
  8 27  1  0  0  0  0
  9 10  1  0  0  0  0
  9 28  1  0  0  0  0
  9 29  1  0  0  0  0
 10 11  1  0  0  0  0
 10 30  1  0  0  0  0
 10 31  1  0  0  0  0
 11 32  1  0  0  0  0
 11 33  1  0  0  0  0
 12 13  1  0  0  0  0
 12 14  1  0  0  0  0
 12 34  1  0  0  0  0
 13 35  1  0  0  0  0
 13 36  1  0  0  0  0
 13 37  1  0  0  0  0
 14 18  1  0  0  0  0
 14 15  1  0  0  0  0
 15 16  2  0  0  0  0
 15 38  1  0  0  0  0
 16 17  1  0  0  0  0
 16 39  1  0  0  0  0
 17 18  2  0  0  0  0
 17 40  1  0  0  0  0
M  END
> <s_m_source_file>
AV-unprocessed.smi

> <i_m_source_file_index>
3308

> <i_lp_mmshare_version>
43012

> <i_f3d_flags>
0

> <s_epik_input>
bjFbY0hdW2NIXVtjSF1uMVtDQEBIXShbQ0gzXSlbQ0BIXShbQ0gzXSlbTkhdW0NIMl1DKD1PKU4yW0NIMl1bQ0gyXVtDSDJdW0NIMl0y

> <s_epik_cmdline>
J2VwaWtfcHl0aG9uJywgJy1waCcsICc3LjAnLCAnLXRuJywgJzgnLCAnLW1hJywgJzIwMCcsICctbWV0YWxfYmluZGluZycsICctaW1hZScsICc8aW5maWxlLm1hZT4nLCAnLW9tYWUnLCAnPG91dGZpbGUubWFlPic=

> <r_lp_tautomer_probability>
1

> <r_epik_Ionization_Penalty>
0.918676

> <r_epik_Ionization_Penalty_Charging>
0

> <r_epik_Ionization_Penalty_Neutral>
0.918676

> <r_epik_State_Penalty>
0.958258

> <r_epik_Charging_Adjusted_Penalty>
0.958258

> <i_epik_Tot_Q>
0

> <i_epik_Tot_abs_Q>
0

> <r_epik_Metal_State_Penalty>
0.956879

> <b_epik_Metal_Only>
0

> <s_lp_Force_Field>
OPLS_2005

> <r_lp_Energy>
35.595

> <b_lp_Chiralities_Consistent>
1

> <s_lp_Variant>
AV-unprocessed.smi:3308-8

> <Gold.Version>
5.8.1

> <Gold.Id.Protein>
6NUR|6NUR_protein|mol2

> <Gold.PLP.Fitness>
43.1840

> <Gold.PLP.PLP>
-41.2057

> <Gold.PLP.part.hbond>
0.0000

> <Gold.PLP.part.metal>
0.0000

> <Gold.PLP.part.buried>
-4.3114

> <Gold.PLP.part.nonpolar>
-36.3171

> <Gold.PLP.part.repulsive>
0.1005

> <Gold.PLP.ligand.clash>
0.0000

> <Gold.PLP.ligand.torsion>
0.5626

> <Gold.PLP.Chemscore.Hbond>
0.0000

> <Gold.PLP.Chemscore.CHOScore>
1.0000

> <Gold.PLP.Chemscore.Metal>
0.0000

> <Gold.Chemscore.Hbonds>
donor molecule, donor type, donor heavy atom, donor atom, acceptor molecule, acceptor atom, score
      L1  C    15    38       P1  8028  1.00

> <Gold.PLP.Chemscore.Internal.Correction>
0.1036

> <Gold.Rescore>
     Score         DG    S(hbond)    S(metal)    S(lipo)     H(rot)  DE(clash)    DE(int)     intcor
     11.36     -12.92       0.00        0.00     101.24       1.72       0.11       1.45       ----

> <Gold.Chemscore.Fitness>
11.3628

> <Gold.Chemscore.DG>
-12.9222

> <Gold.Chemscore.ZeroCoef>
-5.4800

> <Gold.Chemscore.Hbond>
0.0000

> <Gold.Chemscore.Metal>
0.0000

> <Gold.Chemscore.Lipo>
101.2416

> <Gold.Chemscore.Internal_Hbond>
0.0000

> <Gold.Chemscore.DEClash>
0.1059

> <Gold.Chemscore.DEInternal>
1.4535

> <Gold.Chemscore.Rot>
1.7200

> <Gold.Chemscore.Internal.Correction>
   9.000000E+99

> <Gold.Chemscore.Hbond.Weighted>
-0.0000

> <Gold.Chemscore.Metal.Weighted>
-0.0000

> <Gold.Chemscore.Lipo.Weighted>
-11.8453

> <Gold.Chemscore.Internal_Hbond.Weighted>
0.0000

> <Gold.Chemscore.DEClash.Weighted>
0.1059

> <Gold.Chemscore.DEInternal.Weighted>
1.4535

> <Gold.Chemscore.Rot.Weighted>
4.4031

> <Gold.Chemscore.Internal.Correction.Weighted>
   9.000000E+99

> <Gold.Protein.RotatedTorsions>
[ 6907 6896 6895 6894 ] final  122.16 input  -60.11 | X-H torsion
[ 7974 7965 7964 7962 ] final  -11.61 input  175.53 | X-H torsion
[ 8008 7997 7996 7995 ] final -105.77 input   59.86 | X-H torsion
[ 10167 10162 10161 10158 ] final   -2.15 input  -65.29 | X-H torsion
[ 10718 10713 10712 10709 ] final    4.55 input   66.30 | X-H torsion
[ 10763 10752 10751 10750 ] final -153.73 input  -60.55 | X-H torsion
[ 11005 11000 10999 10996 ] final  -70.39 input  -57.11 | X-H torsion

> <Gold.Protein.ActiveResidues>
 VAL166  LYS551  ARG553  GLY616  TRP617  ASP618  TYR619  PRO620  LYS621  CYS622 
 ASP623  PHE694  ASN695  SER759  ASP760  ASP761  ALA762  ILE779  LEU786  VAL792 
 PHE793  MET794  SER795  GLU796  ALA797  LYS798  CYS799  TRP800  GLU811  SER814 

> <Gold.Protein.RotatedAtoms>
  152.4265  133.7203  159.6529 H   0  0  0  0  0  0  0  0  0  0  0  0  # atno 6907 bound_to 6896
  150.8141  133.8357  159.3174 H   0  0  0  0  0  0  0  0  0  0  0  0  # atno 6908 bound_to 6896
  151.6059  135.1046  160.0122 H   0  0  0  0  0  0  0  0  0  0  0  0  # atno 6909 bound_to 6896
  146.2181  140.2936  142.8370 H   0  0  0  0  0  0  0  0  0  0  0  0  # atno 7974 bound_to 7965
  154.9047  140.0412  157.1913 H   0  0  0  0  0  0  0  0  0  0  0  0  # atno 8008 bound_to 7997
  154.8408  140.2914  155.5639 H   0  0  0  0  0  0  0  0  0  0  0  0  # atno 8009 bound_to 7997
  156.2992  140.2483  156.3350 H   0  0  0  0  0  0  0  0  0  0  0  0  # atno 8010 bound_to 7997
  140.6839  143.6691  150.8200 H   0  0  0  0  0  0  0  0  0  0  0  0  # atno 10167 bound_to 10162
  156.8943  130.5699  149.5649 H   0  0  0  0  0  0  0  0  0  0  0  0  # atno 10718 bound_to 10713
  154.7908  135.3206  154.7782 H   0  0  0  0  0  0  0  0  0  0  0  0  # atno 10763 bound_to 10752
  153.8472  135.6865  153.4800 H   0  0  0  0  0  0  0  0  0  0  0  0  # atno 10764 bound_to 10752
  153.1577  135.4673  154.9668 H   0  0  0  0  0  0  0  0  0  0  0  0  # atno 10765 bound_to 10752
  141.1573  133.6789  156.6746 H   0  0  0  0  0  0  0  0  0  0  0  0  # atno 11005 bound_to 11000
  144.9109  140.7755  143.5808 LP  0  0  0  0  0  0  0  0  0  0  0  0  # atno 17320 bound_to 7965
  145.2867  139.1898  143.4762 LP  0  0  0  0  0  0  0  0  0  0  0  0  # atno 17321 bound_to 7965
  140.0395  143.5360  152.2724 LP  0  0  0  0  0  0  0  0  0  0  0  0  # atno 17342 bound_to 10162
  139.6182  144.7624  151.2798 LP  0  0  0  0  0  0  0  0  0  0  0  0  # atno 17343 bound_to 10162
  156.0613  130.5665  150.9199 LP  0  0  0  0  0  0  0  0  0  0  0  0  # atno 17370 bound_to 10713
  157.6065  131.0938  150.8870 LP  0  0  0  0  0  0  0  0  0  0  0  0  # atno 17371 bound_to 10713
  140.3149  134.8056  157.4206 LP  0  0  0  0  0  0  0  0  0  0  0  0  # atno 17394 bound_to 11000
  140.1147  134.5299  155.8235 LP  0  0  0  0  0  0  0  0  0  0  0  0  # atno 17395 bound_to 11000

$$$$
