AV-unprocessed.smi:2983|AV-procd|sdf|11377|dock7
  -GOLD-   2272016293D 1   1.00000     0.00000
 Structure written by MMmdl.
 39 40  0  0  0  0  0  0  0  0  1 V2000
  151.9861  145.1004  158.9686 C   0  0  0  0  0  0  0  0  0  0  0  0
  152.4674  143.9173  159.8153 C   0  0  0  0  0  0  0  0  0  0  0  0
  152.6009  142.6252  158.9984 C   0  0  0  0  0  0  0  0  0  0  0  0
  151.2620  141.8832  158.8528 C   0  0  0  0  0  0  0  0  0  0  0  0
  151.2094  141.0611  157.6606 N   0  0  0  0  0  0  0  0  0  0  0  0
  150.2164  141.1774  156.6834 C   0  0  0  0  0  0  0  0  0  0  0  0
  149.2296  142.1331  156.8639 N   0  0  0  0  0  0  0  0  0  0  0  0
  150.2039  140.3872  155.5711 C   0  0  0  0  0  0  0  0  0  0  0  0
  149.2428  140.4764  154.5703 N   0  0  0  0  0  0  0  0  0  0  0  0
  148.8807  141.7250  153.9119 C   0  0  0  0  0  0  0  0  0  0  0  0
  147.3889  142.0396  154.1294 C   0  0  0  0  0  0  0  0  0  0  0  0
  146.5964  140.9319  153.7110 O   0  0  0  0  0  0  0  0  0  0  0  0
  146.9031  139.7453  154.4377 C   0  0  0  0  0  0  0  0  0  0  0  0
  148.3752  139.3663  154.2018 C   0  0  0  0  0  0  0  0  0  0  0  0
  151.2488  139.3794  155.3630 C   0  0  0  0  0  0  0  0  0  0  0  0
  151.3231  138.6098  154.4055 O   0  0  0  0  0  0  0  0  0  0  0  0
  152.2247  139.3312  156.3556 N   0  0  0  0  0  0  0  0  0  0  0  0
  152.2646  140.1332  157.4909 C   0  0  0  0  0  0  0  0  0  0  0  0
  153.1969  140.0090  158.2857 O   0  0  0  0  0  0  0  0  0  0  0  0
  152.9710  138.6617  156.2369 H   0  0  0  0  0  0  0  0  0  0  0  0
  151.9024  146.0037  159.5734 H   0  0  0  0  0  0  0  0  0  0  0  0
  151.0068  144.8994  158.5334 H   0  0  0  0  0  0  0  0  0  0  0  0
  152.6798  145.3086  158.1537 H   0  0  0  0  0  0  0  0  0  0  0  0
  153.4291  144.1652  160.2663 H   0  0  0  0  0  0  0  0  0  0  0  0
  151.7708  143.7589  160.6395 H   0  0  0  0  0  0  0  0  0  0  0  0
  152.9948  142.8608  158.0090 H   0  0  0  0  0  0  0  0  0  0  0  0
  153.3335  141.9715  159.4736 H   0  0  0  0  0  0  0  0  0  0  0  0
  151.0461  141.2492  159.7147 H   0  0  0  0  0  0  0  0  0  0  0  0
  150.4233  142.5766  158.7976 H   0  0  0  0  0  0  0  0  0  0  0  0
  149.2184  142.7344  157.6751 H   0  0  0  0  0  0  0  0  0  0  0  0
  148.5033  142.2868  156.1793 H   0  0  0  0  0  0  0  0  0  0  0  0
  149.4963  142.5427  154.2887 H   0  0  0  0  0  0  0  0  0  0  0  0
  149.0957  141.6342  152.8464 H   0  0  0  0  0  0  0  0  0  0  0  0
  147.1828  142.2698  155.1752 H   0  0  0  0  0  0  0  0  0  0  0  0
  147.1029  142.9183  153.5515 H   0  0  0  0  0  0  0  0  0  0  0  0
  146.7036  139.8942  155.5000 H   0  0  0  0  0  0  0  0  0  0  0  0
  146.2482  138.9423  154.0996 H   0  0  0  0  0  0  0  0  0  0  0  0
  148.5406  139.1177  153.1529 H   0  0  0  0  0  0  0  0  0  0  0  0
  148.6314  138.4781  154.7810 H   0  0  0  0  0  0  0  0  0  0  0  0
  1  2  1  0  0  0  0
  1 21  1  0  0  0  0
  1 22  1  0  0  0  0
  1 23  1  0  0  0  0
  2  3  1  0  0  0  0
  2 24  1  0  0  0  0
  2 25  1  0  0  0  0
  3  4  1  0  0  0  0
  3 26  1  0  0  0  0
  3 27  1  0  0  0  0
  4  5  1  0  0  0  0
  4 28  1  0  0  0  0
  4 29  1  0  0  0  0
  5 18  1  0  0  0  0
  5  6  1  0  0  0  0
  6  7  1  0  0  0  0
  6  8  2  0  0  0  0
  7 30  1  0  0  0  0
  7 31  1  0  0  0  0
  8  9  1  0  0  0  0
  8 15  1  0  0  0  0
  9 14  1  0  0  0  0
  9 10  1  0  0  0  0
 10 11  1  0  0  0  0
 10 32  1  0  0  0  0
 10 33  1  0  0  0  0
 11 12  1  0  0  0  0
 11 34  1  0  0  0  0
 11 35  1  0  0  0  0
 12 13  1  0  0  0  0
 13 14  1  0  0  0  0
 13 36  1  0  0  0  0
 13 37  1  0  0  0  0
 14 38  1  0  0  0  0
 14 39  1  0  0  0  0
 15 16  2  0  0  0  0
 15 17  1  0  0  0  0
 17 20  1  0  0  0  0
 17 18  1  0  0  0  0
 18 19  2  0  0  0  0
M  END
> <s_m_source_file>
AV-unprocessed.smi

> <i_m_source_file_index>
2983

> <i_lp_mmshare_version>
43012

> <i_f3d_flags>
0

> <s_epik_input>
W0NIM11bQ0gyXVtDSDJdW0NIMl1uMWMoW05IMl0pYyhjKD1PKVtuSF1jMT1PKU4yW0NIMl1bQ0gyXU9bQ0gyXVtDSDJdMg==

> <s_epik_cmdline>
J2VwaWtfcHl0aG9uJywgJy1waCcsICc3LjAnLCAnLXRuJywgJzgnLCAnLW1hJywgJzIwMCcsICctbWV0YWxfYmluZGluZycsICctaW1hZScsICc8aW5maWxlLm1hZT4nLCAnLW9tYWUnLCAnPG91dGZpbGUubWFlPic=

> <r_lp_tautomer_probability>
1

> <r_epik_Ionization_Penalty>
1.02563e-05

> <r_epik_Ionization_Penalty_Charging>
2.70122e-06

> <r_epik_Ionization_Penalty_Neutral>
7.55508e-06

> <r_epik_State_Penalty>
-0

> <r_epik_Charging_Adjusted_Penalty>
2.70122e-06

> <i_epik_Tot_Q>
0

> <i_epik_Tot_abs_Q>
0

> <r_epik_Metal_State_Penalty>
-0

> <b_epik_Metal_Only>
0

> <s_epik_Chemistry_Notes>
This compound has an imine and may undergo hydrolysis.

> <s_lp_Force_Field>
OPLS_2005

> <r_lp_Energy>
27.0785

> <b_lp_Chiralities_Consistent>
1

> <s_lp_Variant>
AV-unprocessed.smi:2983-1

> <Gold.Version>
5.8.1

> <Gold.Id.Protein>
6NUR|6NUR_protein|mol2

> <Gold.PLP.Fitness>
38.0577

> <Gold.PLP.PLP>
-36.0915

> <Gold.PLP.part.hbond>
-2.0000

> <Gold.PLP.part.metal>
0.0000

> <Gold.PLP.part.buried>
-0.8645

> <Gold.PLP.part.nonpolar>
-34.0396

> <Gold.PLP.part.repulsive>
0.4804

> <Gold.PLP.ligand.clash>
0.0000

> <Gold.PLP.ligand.torsion>
1.3262

> <Gold.PLP.Chemscore.Hbond>
1.0000

> <Gold.PLP.Chemscore.CHOScore>
0.0000

> <Gold.PLP.Chemscore.Metal>
0.0000

> <Gold.Chemscore.Hbonds>
donor molecule, donor type, donor heavy atom, donor atom, acceptor molecule, acceptor atom, score
      P1  H  7997  8008       L1    19  1.00

> <Gold.PLP.Chemscore.Internal.Correction>
1.6187

> <Gold.Rescore>
     Score         DG    S(hbond)    S(metal)    S(lipo)     H(rot)  DE(clash)    DE(int)     intcor
      8.88     -13.20       0.73        0.00      76.99       1.45       1.42       2.89       ----

> <Gold.Chemscore.Fitness>
8.8842

> <Gold.Chemscore.DG>
-13.1979

> <Gold.Chemscore.ZeroCoef>
-5.4800

> <Gold.Chemscore.Hbond>
0.7263

> <Gold.Chemscore.Metal>
0.0000

> <Gold.Chemscore.Lipo>
76.9899

> <Gold.Chemscore.Internal_Hbond>
0.0000

> <Gold.Chemscore.DEClash>
1.4233

> <Gold.Chemscore.DEInternal>
2.8904

> <Gold.Chemscore.Rot>
1.4515

> <Gold.Chemscore.Internal.Correction>
   9.000000E+99

> <Gold.Chemscore.Hbonds>
donor molecule, donor type, donor heavy atom, donor atom, acceptor molecule, acceptor atom, score
      P1  H  7997  8008       L1    19  0.33

> <Gold.Chemscore.Hbond.Weighted>
-2.4259

> <Gold.Chemscore.Metal.Weighted>
-0.0000

> <Gold.Chemscore.Lipo.Weighted>
-9.0078

> <Gold.Chemscore.Internal_Hbond.Weighted>
0.0000

> <Gold.Chemscore.DEClash.Weighted>
1.4233

> <Gold.Chemscore.DEInternal.Weighted>
2.8904

> <Gold.Chemscore.Rot.Weighted>
3.7159

> <Gold.Chemscore.Internal.Correction.Weighted>
   9.000000E+99

> <Gold.Protein.RotatedTorsions>
[ 6907 6896 6895 6894 ] final  103.94 input  -60.11 | X-H torsion
[ 7974 7965 7964 7962 ] final  148.79 input  175.53 | X-H torsion
[ 8008 7997 7996 7995 ] final  -94.81 input   59.86 | X-H torsion
[ 10167 10162 10161 10158 ] final  121.38 input  -65.29 | X-H torsion
[ 10718 10713 10712 10709 ] final -105.70 input   66.30 | X-H torsion
[ 10763 10752 10751 10750 ] final  -17.77 input  -60.55 | X-H torsion
[ 11005 11000 10999 10996 ] final  -16.89 input  -57.11 | X-H torsion

> <Gold.Protein.ActiveResidues>
 VAL166  LYS551  ARG553  GLY616  TRP617  ASP618  TYR619  PRO620  LYS621  CYS622 
 ASP623  PHE694  ASN695  SER759  ASP760  ASP761  ALA762  ILE779  LEU786  VAL792 
 PHE793  MET794  SER795  GLU796  ALA797  LYS798  CYS799  TRP800  GLU811  SER814 

> <Gold.Protein.RotatedAtoms>
  152.5280  133.9751  159.7780 H   0  0  0  0  0  0  0  0  0  0  0  0  # atno 6907 bound_to 6896
  151.0016  133.6043  159.2701 H   0  0  0  0  0  0  0  0  0  0  0  0  # atno 6908 bound_to 6896
  151.3150  135.0810  159.9339 H   0  0  0  0  0  0  0  0  0  0  0  0  # atno 6909 bound_to 6896
  144.8487  139.6198  143.5983 H   0  0  0  0  0  0  0  0  0  0  0  0  # atno 7974 bound_to 7965
  154.7532  140.0486  157.0911 H   0  0  0  0  0  0  0  0  0  0  0  0  # atno 8008 bound_to 7997
  155.0031  140.3127  155.4840 H   0  0  0  0  0  0  0  0  0  0  0  0  # atno 8009 bound_to 7997
  156.2889  140.2198  156.5142 H   0  0  0  0  0  0  0  0  0  0  0  0  # atno 8010 bound_to 7997
  139.5923  144.7029  151.3260 H   0  0  0  0  0  0  0  0  0  0  0  0  # atno 10167 bound_to 10162
  156.0357  130.5576  150.7576 H   0  0  0  0  0  0  0  0  0  0  0  0  # atno 10718 bound_to 10713
  153.5790  135.7005  153.5471 H   0  0  0  0  0  0  0  0  0  0  0  0  # atno 10763 bound_to 10752
  153.3277  135.4056  155.1470 H   0  0  0  0  0  0  0  0  0  0  0  0  # atno 10764 bound_to 10752
  154.8620  135.3711  154.5316 H   0  0  0  0  0  0  0  0  0  0  0  0  # atno 10765 bound_to 10752
  140.8114  133.8138  155.9567 H   0  0  0  0  0  0  0  0  0  0  0  0  # atno 11005 bound_to 11000
  146.2766  139.6769  142.9258 LP  0  0  0  0  0  0  0  0  0  0  0  0  # atno 17320 bound_to 7965
  145.4544  141.0430  143.2786 LP  0  0  0  0  0  0  0  0  0  0  0  0  # atno 17321 bound_to 7965
  140.7183  143.7205  150.7699 LP  0  0  0  0  0  0  0  0  0  0  0  0  # atno 17342 bound_to 10162
  140.0764  143.5011  152.2553 LP  0  0  0  0  0  0  0  0  0  0  0  0  # atno 17343 bound_to 10162
  157.5104  131.0925  151.0205 LP  0  0  0  0  0  0  0  0  0  0  0  0  # atno 17370 bound_to 10713
  157.0562  130.5807  149.5378 LP  0  0  0  0  0  0  0  0  0  0  0  0  # atno 17371 bound_to 10713
  140.9194  134.2161  157.4936 LP  0  0  0  0  0  0  0  0  0  0  0  0  # atno 17394 bound_to 11000
  139.8714  134.9785  156.5002 LP  0  0  0  0  0  0  0  0  0  0  0  0  # atno 17395 bound_to 11000

$$$$
