AV-unprocessed.smi:2332|AV-procd|sdf|9318|dock5
  -GOLD-   2272012543D 1   1.00000     0.00000
 Structure written by MMmdl.
 32 33  0  0  0  0  0  0  0  0  1 V2000
  146.8741  139.1034  152.2782 C   0  0  0  0  0  0  0  0  0  0  0  0
  148.0500  138.7705  153.0672 N   0  0  0  0  0  0  0  0  0  0  0  0
  148.5447  139.5372  154.0510 C   0  0  0  0  0  0  0  0  0  0  0  0
  148.0309  140.6056  154.3845 O   0  0  0  0  0  0  0  0  0  0  0  0
  149.7919  139.0159  154.7814 C   0  0  2  0  0  0  0  0  0  0  0  0
  150.2739  139.9934  155.8780 C   0  0  0  0  0  0  0  0  0  0  0  0
  151.5252  139.5294  156.4732 N   0  0  0  0  0  0  0  0  0  0  0  0
  151.9204  140.1952  157.6540 C   0  0  0  0  0  0  0  0  0  0  0  0
  151.1904  141.3163  158.1174 C   0  0  0  0  0  0  0  0  0  0  0  0
  151.6047  141.9685  159.2950 C   0  0  0  0  0  0  0  0  0  0  0  0
  152.7351  141.4822  159.9788 C   0  0  0  0  0  0  0  0  0  0  0  0
  153.2019  142.1203  161.1974 C   0  0  0  0  0  0  0  0  0  0  0  0
  153.5735  142.6283  162.1683 N   0  0  0  0  0  0  0  0  0  0  0  0
  153.3991  140.3578  159.4513 C   0  0  0  0  0  0  0  0  0  0  0  0
  153.0045  139.7288  158.3233 N   0  0  0  0  0  0  0  0  0  0  0  0
  152.5575  139.2159  155.4880 C   0  0  0  0  0  0  0  0  0  0  0  0
  152.0053  138.2531  154.4260 C   0  0  0  0  0  0  0  0  0  0  0  0
  150.8418  138.8178  153.8334 O   0  0  0  0  0  0  0  0  0  0  0  0
  146.7085  138.3403  151.5178 H   0  0  0  0  0  0  0  0  0  0  0  0
  147.0011  140.0633  151.7760 H   0  0  0  0  0  0  0  0  0  0  0  0
  145.9862  139.1550  152.9093 H   0  0  0  0  0  0  0  0  0  0  0  0
  148.5259  137.9064  152.8505 H   0  0  0  0  0  0  0  0  0  0  0  0
  149.5301  138.0562  155.2305 H   0  0  0  0  0  0  0  0  0  0  0  0
  150.4369  140.9856  155.4546 H   0  0  0  0  0  0  0  0  0  0  0  0
  149.4950  140.0962  156.6323 H   0  0  0  0  0  0  0  0  0  0  0  0
  150.3147  141.6725  157.5955 H   0  0  0  0  0  0  0  0  0  0  0  0
  151.0576  142.8243  159.6634 H   0  0  0  0  0  0  0  0  0  0  0  0
  154.2694  139.9466  159.9424 H   0  0  0  0  0  0  0  0  0  0  0  0
  152.8988  140.1378  155.0150 H   0  0  0  0  0  0  0  0  0  0  0  0
  153.4194  138.7589  155.9763 H   0  0  0  0  0  0  0  0  0  0  0  0
  152.7515  138.0821  153.6500 H   0  0  0  0  0  0  0  0  0  0  0  0
  151.7712  137.2812  154.8632 H   0  0  0  0  0  0  0  0  0  0  0  0
  1  2  1  0  0  0  0
  1 19  1  0  0  0  0
  1 20  1  0  0  0  0
  1 21  1  0  0  0  0
  2  3  1  0  0  0  0
  2 22  1  0  0  0  0
  3  4  2  0  0  0  0
  3  5  1  0  0  0  0
  5 18  1  0  0  0  0
  5  6  1  0  0  0  0
  5 23  1  0  0  0  0
  6  7  1  0  0  0  0
  6 24  1  0  0  0  0
  6 25  1  0  0  0  0
  7  8  1  0  0  0  0
  7 16  1  0  0  0  0
  8 15  1  0  0  0  0
  8  9  2  0  0  0  0
  9 10  1  0  0  0  0
  9 26  1  0  0  0  0
 10 11  2  0  0  0  0
 10 27  1  0  0  0  0
 11 12  1  0  0  0  0
 11 14  1  0  0  0  0
 12 13  3  0  0  0  0
 14 15  2  0  0  0  0
 14 28  1  0  0  0  0
 16 17  1  0  0  0  0
 16 29  1  0  0  0  0
 16 30  1  0  0  0  0
 17 18  1  0  0  0  0
 17 31  1  0  0  0  0
 17 32  1  0  0  0  0
M  END
> <s_m_source_file>
AV-unprocessed.smi

> <i_m_source_file_index>
2332

> <i_lp_mmshare_version>
43012

> <i_f3d_flags>
0

> <s_epik_input>
W0NIM11bTkhdQyg9TylbQ0BASF0xW0NIMl1OKFtDSDJdW0NIMl1PMSljMltjSF1bY0hdYyhDI04pW2NIXW4y

> <s_epik_cmdline>
J2VwaWtfcHl0aG9uJywgJy1waCcsICc3LjAnLCAnLXRuJywgJzgnLCAnLW1hJywgJzIwMCcsICctbWV0YWxfYmluZGluZycsICctaW1hZScsICc8aW5maWxlLm1hZT4nLCAnLW9tYWUnLCAnPG91dGZpbGUubWFlPic=

> <r_lp_tautomer_probability>
1

> <r_epik_Ionization_Penalty>
6.95229e-08

> <r_epik_Ionization_Penalty_Charging>
0

> <r_epik_Ionization_Penalty_Neutral>
6.95229e-08

> <r_epik_State_Penalty>
-0

> <r_epik_Charging_Adjusted_Penalty>
0

> <i_epik_Tot_Q>
0

> <i_epik_Tot_abs_Q>
0

> <r_epik_Metal_State_Penalty>
-0

> <b_epik_Metal_Only>
0

> <s_lp_Force_Field>
OPLS_2005

> <r_lp_Energy>
17.7289

> <b_lp_Chiralities_Consistent>
1

> <s_lp_Variant>
AV-unprocessed.smi:2332-1

> <Gold.Version>
5.8.1

> <Gold.Id.Protein>
6NUR|6NUR_protein|mol2

> <Gold.PLP.Fitness>
38.8446

> <Gold.PLP.PLP>
-31.2435

> <Gold.PLP.part.hbond>
-4.1100

> <Gold.PLP.part.metal>
0.0000

> <Gold.PLP.part.buried>
0.8588

> <Gold.PLP.part.nonpolar>
-27.2491

> <Gold.PLP.part.repulsive>
0.4498

> <Gold.PLP.ligand.clash>
0.0000

> <Gold.PLP.ligand.torsion>
0.1852

> <Gold.PLP.Chemscore.Hbond>
2.5456

> <Gold.PLP.Chemscore.CHOScore>
0.0000

> <Gold.PLP.Chemscore.Metal>
0.0000

> <Gold.Chemscore.Hbonds>
donor molecule, donor type, donor heavy atom, donor atom, acceptor molecule, acceptor atom, score
      L1  H     2    22       P1  7948  1.00
      P1  H  7989  7998       L1    18  0.50
      P1  H  7997  8008       L1    15  0.89

> <Gold.PLP.Chemscore.Internal.Correction>
0.3348

> <Gold.Rescore>
     Score         DG    S(hbond)    S(metal)    S(lipo)     H(rot)  DE(clash)    DE(int)     intcor
     13.26     -14.40       1.40        0.00      65.86       1.35       0.88       0.25       ----

> <Gold.Chemscore.Fitness>
13.2632

> <Gold.Chemscore.DG>
-14.3970

> <Gold.Chemscore.ZeroCoef>
-5.4800

> <Gold.Chemscore.Hbond>
1.3972

> <Gold.Chemscore.Metal>
0.0000

> <Gold.Chemscore.Lipo>
65.8628

> <Gold.Chemscore.Internal_Hbond>
0.0000

> <Gold.Chemscore.DEClash>
0.8809

> <Gold.Chemscore.DEInternal>
0.2528

> <Gold.Chemscore.Rot>
1.3498

> <Gold.Chemscore.Internal.Correction>
   9.000000E+99

> <Gold.Chemscore.Hbonds>
donor molecule, donor type, donor heavy atom, donor atom, acceptor molecule, acceptor atom, score
      L1  H     2    22       P1  7948  0.97
      P1  H  7989  7998       L1    18  0.05
      P1  H  7997  8008       L1    15  0.15

> <Gold.Chemscore.Hbond.Weighted>
-4.6666

> <Gold.Chemscore.Metal.Weighted>
-0.0000

> <Gold.Chemscore.Lipo.Weighted>
-7.7059

> <Gold.Chemscore.Internal_Hbond.Weighted>
0.0000

> <Gold.Chemscore.DEClash.Weighted>
0.8809

> <Gold.Chemscore.DEInternal.Weighted>
0.2528

> <Gold.Chemscore.Rot.Weighted>
3.4556

> <Gold.Chemscore.Internal.Correction.Weighted>
   9.000000E+99

> <Gold.Protein.RotatedTorsions>
[ 6907 6896 6895 6894 ] final  135.93 input  -60.11 | X-H torsion
[ 7974 7965 7964 7962 ] final  -46.11 input  175.53 | X-H torsion
[ 8008 7997 7996 7995 ] final  -84.99 input   59.86 | X-H torsion
[ 10167 10162 10161 10158 ] final  -69.57 input  -65.29 | X-H torsion
[ 10718 10713 10712 10709 ] final  120.41 input   66.30 | X-H torsion
[ 10763 10752 10751 10750 ] final -101.49 input  -60.55 | X-H torsion
[ 11005 11000 10999 10996 ] final  -77.21 input  -57.11 | X-H torsion

> <Gold.Protein.ActiveResidues>
 VAL166  LYS551  ARG553  GLY616  TRP617  ASP618  TYR619  PRO620  LYS621  CYS622 
 ASP623  PHE694  ASN695  SER759  ASP760  ASP761  ALA762  ILE779  LEU786  VAL792 
 PHE793  MET794  SER795  GLU796  ALA797  LYS798  CYS799  TRP800  GLU811  SER814 

> <Gold.Protein.RotatedAtoms>
  152.2950  133.5598  159.5581 H   0  0  0  0  0  0  0  0  0  0  0  0  # atno 6907 bound_to 6896
  150.7252  134.0374  159.3763 H   0  0  0  0  0  0  0  0  0  0  0  0  # atno 6908 bound_to 6896
  151.8278  135.0631  160.0484 H   0  0  0  0  0  0  0  0  0  0  0  0  # atno 6909 bound_to 6896
  145.9753  140.7341  142.9390 H   0  0  0  0  0  0  0  0  0  0  0  0  # atno 7974 bound_to 7965
  154.6358  140.0597  156.9787 H   0  0  0  0  0  0  0  0  0  0  0  0  # atno 8008 bound_to 7997
  155.1593  140.3281  155.4396 H   0  0  0  0  0  0  0  0  0  0  0  0  # atno 8009 bound_to 7997
  156.2506  140.1933  156.6701 H   0  0  0  0  0  0  0  0  0  0  0  0  # atno 8010 bound_to 7997
  140.5420  143.2314  151.7071 H   0  0  0  0  0  0  0  0  0  0  0  0  # atno 10167 bound_to 10162
  157.5892  131.1066  150.8032 H   0  0  0  0  0  0  0  0  0  0  0  0  # atno 10718 bound_to 10713
  154.7662  135.4896  153.9558 H   0  0  0  0  0  0  0  0  0  0  0  0  # atno 10763 bound_to 10752
  153.1310  135.6753  153.9186 H   0  0  0  0  0  0  0  0  0  0  0  0  # atno 10764 bound_to 10752
  153.8889  135.3123  155.3425 H   0  0  0  0  0  0  0  0  0  0  0  0  # atno 10765 bound_to 10752
  141.1659  133.7013  156.7786 H   0  0  0  0  0  0  0  0  0  0  0  0  # atno 11005 bound_to 11000
  144.6847  140.2817  143.7291 LP  0  0  0  0  0  0  0  0  0  0  0  0  # atno 17320 bound_to 7965
  145.7848  139.1904  143.2137 LP  0  0  0  0  0  0  0  0  0  0  0  0  # atno 17321 bound_to 7965
  139.4992  144.3953  152.0237 LP  0  0  0  0  0  0  0  0  0  0  0  0  # atno 17342 bound_to 10162
  140.3063  144.3589  150.6046 LP  0  0  0  0  0  0  0  0  0  0  0  0  # atno 17343 bound_to 10162
  156.8458  130.5063  149.5316 LP  0  0  0  0  0  0  0  0  0  0  0  0  # atno 17370 bound_to 10713
  156.0945  130.5921  150.9790 LP  0  0  0  0  0  0  0  0  0  0  0  0  # atno 17371 bound_to 10713
  140.2411  134.8612  157.3574 LP  0  0  0  0  0  0  0  0  0  0  0  0  # atno 17394 bound_to 11000
  140.1795  134.4508  155.7781 LP  0  0  0  0  0  0  0  0  0  0  0  0  # atno 17395 bound_to 11000

$$$$
