#       Name:                AV-unprocessed.smi:1803
#       Creating user name   scv26
#       Creation time:       Fri Mar 27 08:54:45 2020


#       File generated by GOLD software.
#

@<TRIPOS>MOLECULE
AV-unprocessed.smi:1803
    40    42     1
SMALL
NO_CHARGES


@<TRIPOS>ATOM
      1 ****        -2.4696  -2.8743  -0.7637 O.2            1 S1                 0.0000
      2 ****        -1.2485  -2.8893  -0.6152 C.2            1 S1                 0.0000
      3 ****        -0.5062  -4.0268  -0.6362 N.pl3          1 S1                -1.0000
      4 ****         0.8256  -4.0278  -0.4393 C.2            1 S1                 0.0000
      5 ****         1.7046  -3.9355  -1.4503 N.2            1 S1                 0.0000
      6 ****         3.0265  -3.9470  -1.0266 N.2            1 S1                 0.0000
      7 ****         3.1113  -4.0587   0.2988 C.2            1 S1                 0.0000
      8 ****         1.5840  -4.1541   1.1499 S.3            1 S1                 0.0000
      9 ****        -0.6033  -1.7237  -0.4232 N.am           1 S1                 0.0000
     10 ****        -1.2206  -0.4047  -0.3646 C.3            1 S1                 0.0000
     11 ****        -1.6486   0.1504  -1.7369 C.3            1 S1                 0.0000
     12 ****        -1.3239   1.6564  -1.6866 C.3            1 S1                 0.0000
     13 ****        -0.8437   1.9059  -0.3137 N.4            1 S1                 1.0000
     14 ****         0.0370   3.0760  -0.1072 C.3            1 S1                 0.0000
     15 ****         0.3654   3.2071   1.3942 C.3            1 S1                 0.0000
     16 ****         0.9359   1.8957   1.9733 C.3            1 S1                 0.0000
     17 ****         0.0208   0.6996   1.6475 C.3            1 S1                 0.0000
     18 ****        -0.2313   0.6461   0.1322 C.3            1 S1                 0.0000
     19 ****         4.0785  -4.0859   0.7780 H              1 S1                 0.0000
     20 ****         0.3991  -1.7642  -0.3101 H              1 S1                 0.0000
     21 ****        -2.0843  -0.4276   0.3033 H              1 S1                 0.0000
     22 ****        -1.0908  -0.3207  -2.5477 H              1 S1                 0.0000
     23 ****        -2.7081  -0.0324  -1.9199 H              1 S1                 0.0000
     24 ****        -0.5408   1.8936  -2.4084 H              1 S1                 0.0000
     25 ****        -2.1915   2.2770  -1.9115 H              1 S1                 0.0000
     26 ****         0.9522   2.9599  -0.6899 H              1 S1                 0.0000
     27 ****        -0.4619   3.9775  -0.4643 H              1 S1                 0.0000
     28 ****         1.0704   4.0237   1.5526 H              1 S1                 0.0000
     29 ****        -0.5412   3.4741   1.9387 H              1 S1                 0.0000
     30 ****         1.9279   1.7171   1.5562 H              1 S1                 0.0000
     31 ****         1.0660   1.9863   3.0521 H              1 S1                 0.0000
     32 ****         0.4797  -0.2294   1.9876 H              1 S1                 0.0000
     33 ****        -0.9242   0.7981   2.1836 H              1 S1                 0.0000
     34 ****         0.7200   0.5186  -0.3904 H              1 S1                 0.0000
     35 ****        -1.6656   2.0398   0.2577 H              1 S1                 0.0000
     36 ****        -2.9662  -3.7301  -0.9091 LP             1 S1                 0.0000
     37 ****        -2.9657  -2.0064  -0.7390 LP             1 S1                 0.0000
     38 ****        -0.9673  -4.8980  -0.8046 LP             1 S1                 0.0000
     39 ****         1.4344  -3.8656  -2.4106 LP             1 S1                 0.0000
     40 ****         3.8149  -3.8800  -1.6381 LP             1 S1                 0.0000
@<TRIPOS>BOND
    1    1    2 2     
    2    2    3 1     
    3    2    9 am    
    4    3    4 1     
    5    4    8 1     
    6    4    5 2     
    7    5    6 1     
    8    6    7 2     
    9    7    8 1     
   10    7   19 1     
   11    9   10 1     
   12    9   20 1     
   13   10   18 1     
   14   10   11 1     
   15   10   21 1     
   16   11   12 1     
   17   11   22 1     
   18   11   23 1     
   19   12   13 1     
   20   12   24 1     
   21   12   25 1     
   22   13   18 1     
   23   13   14 1     
   24   13   35 1     
   25   14   15 1     
   26   14   26 1     
   27   14   27 1     
   28   15   16 1     
   29   15   28 1     
   30   15   29 1     
   31   16   17 1     
   32   16   30 1     
   33   16   31 1     
   34   17   18 1     
   35   17   32 1     
   36   17   33 1     
   37   18   34 1     
   38    1   36 1     
   39    1   37 1     
   40    3   38 1     
   41    5   39 1     
   42    6   40 1     
@<TRIPOS>SUBSTRUCTURE
      1 S1             1
@<TRIPOS>SET
LONE_PAIRS      STATIC     ATOMS    <user>   **** ""
5 36 37 38 39 40
DONOR_HYDROGENS      STATIC     ATOMS    <user>   **** ""
2 20 35
ATOM$BLUE        STATIC     ATOMS    COLORGROUP SYSTEM
5 36 37 38 39 40
ATOM$RED        STATIC     ATOMS    COLORGROUP SYSTEM
2 20 35
