AV-unprocessed.smi:1499|AV-procd|sdf|6062|dock3
  -GOLD-   22720 6183D 1   1.00000     0.00000
 Structure written by MMmdl.
 40 41  0  0  0  0  0  0  0  0  1 V2000
  151.8492  145.0151  158.2183 C   0  0  0  0  0  0  0  0  0  0  0  0
  152.7279  143.7927  158.5247 C   0  0  0  0  0  0  0  0  0  0  0  0
  152.3774  143.1622  159.7965 N   0  0  0  0  0  0  0  0  0  0  0  0
  153.2331  141.9886  159.9990 C   0  0  0  0  0  0  0  0  0  0  0  0
  152.8821  141.2899  161.3272 C   0  0  0  0  0  0  0  0  0  0  0  0
  153.0727  142.2464  162.4276 N   0  0  0  0  0  0  0  0  0  0  0  0
  154.0664  142.2315  163.3511 C   0  0  0  0  0  0  0  0  0  0  0  0
  155.0511  141.4979  163.2562 O   0  0  0  0  0  0  0  0  0  0  0  0
  153.9130  143.1330  164.3399 N   0  0  0  0  0  0  0  0  0  0  0  0
  154.7607  143.3528  165.4553 C   0  0  0  0  0  0  0  0  0  0  0  0
  156.0282  142.7418  165.6402 C   0  0  0  0  0  0  0  0  0  0  0  0
  156.5920  143.1388  166.7709 N   0  0  0  0  0  0  0  0  0  0  0  0
  155.7036  144.0036  167.3222 N   0  0  0  0  0  0  0  0  0  0  0  0
  156.0115  144.6415  168.5894 C   0  0  0  0  0  0  0  0  0  0  0  0
  156.0442  143.6191  169.7266 C   0  0  0  0  0  0  0  0  0  0  0  0
  154.8820  143.0644  170.0810 N   0  0  0  0  0  0  0  0  0  0  0  0
  157.1055  143.3331  170.2768 O   0  0  0  0  0  0  0  0  0  0  0  0
  154.5734  144.1578  166.5432 C   0  0  0  0  0  0  0  0  0  0  0  0
  152.1828  143.3969  162.2458 C   0  0  0  0  0  0  0  0  0  0  0  0
  152.5339  144.0969  160.9183 C   0  0  0  0  0  0  0  0  0  0  0  0
  152.0461  145.3810  157.2106 H   0  0  0  0  0  0  0  0  0  0  0  0
  152.0405  145.8420  158.9017 H   0  0  0  0  0  0  0  0  0  0  0  0
  150.7893  144.7644  158.2759 H   0  0  0  0  0  0  0  0  0  0  0  0
  152.5802  143.0688  157.7221 H   0  0  0  0  0  0  0  0  0  0  0  0
  153.7847  144.0638  158.5105 H   0  0  0  0  0  0  0  0  0  0  0  0
  153.0928  141.2886  159.1743 H   0  0  0  0  0  0  0  0  0  0  0  0
  154.2839  142.2837  159.9948 H   0  0  0  0  0  0  0  0  0  0  0  0
  151.8427  140.9579  161.3147 H   0  0  0  0  0  0  0  0  0  0  0  0
  153.4769  140.3817  161.4227 H   0  0  0  0  0  0  0  0  0  0  0  0
  153.0882  143.7135  164.2937 H   0  0  0  0  0  0  0  0  0  0  0  0
  156.5473  142.0381  165.0061 H   0  0  0  0  0  0  0  0  0  0  0  0
  156.9818  145.1333  168.5064 H   0  0  0  0  0  0  0  0  0  0  0  0
  155.2752  145.4196  168.7981 H   0  0  0  0  0  0  0  0  0  0  0  0
  154.8544  142.3889  170.8314 H   0  0  0  0  0  0  0  0  0  0  0  0
  154.0338  143.3280  169.6010 H   0  0  0  0  0  0  0  0  0  0  0  0
  153.7651  144.8133  166.8321 H   0  0  0  0  0  0  0  0  0  0  0  0
  151.1462  143.0560  162.2320 H   0  0  0  0  0  0  0  0  0  0  0  0
  152.2466  144.1111  163.0678 H   0  0  0  0  0  0  0  0  0  0  0  0
  153.5563  144.4771  160.9521 H   0  0  0  0  0  0  0  0  0  0  0  0
  151.8756  144.9552  160.7896 H   0  0  0  0  0  0  0  0  0  0  0  0
  1  2  1  0  0  0  0
  1 21  1  0  0  0  0
  1 22  1  0  0  0  0
  1 23  1  0  0  0  0
  2  3  1  0  0  0  0
  2 24  1  0  0  0  0
  2 25  1  0  0  0  0
  3 20  1  0  0  0  0
  3  4  1  0  0  0  0
  4  5  1  0  0  0  0
  4 26  1  0  0  0  0
  4 27  1  0  0  0  0
  5  6  1  0  0  0  0
  5 28  1  0  0  0  0
  5 29  1  0  0  0  0
  6  7  1  0  0  0  0
  6 19  1  0  0  0  0
  7  8  2  0  0  0  0
  7  9  1  0  0  0  0
  9 10  1  0  0  0  0
  9 30  1  0  0  0  0
 10 18  2  0  0  0  0
 10 11  1  0  0  0  0
 11 12  2  0  0  0  0
 11 31  1  0  0  0  0
 12 13  1  0  0  0  0
 13 14  1  0  0  0  0
 13 18  1  0  0  0  0
 14 15  1  0  0  0  0
 14 32  1  0  0  0  0
 14 33  1  0  0  0  0
 15 16  1  0  0  0  0
 15 17  2  0  0  0  0
 16 34  1  0  0  0  0
 16 35  1  0  0  0  0
 18 36  1  0  0  0  0
 19 20  1  0  0  0  0
 19 37  1  0  0  0  0
 19 38  1  0  0  0  0
 20 39  1  0  0  0  0
 20 40  1  0  0  0  0
M  END
> <s_m_source_file>
AV-unprocessed.smi

> <i_m_source_file_index>
1499

> <i_lp_mmshare_version>
43012

> <i_f3d_flags>
0

> <s_epik_input>
W0NIM11bQ0gyXU4xW0NIMl1bQ0gyXU4oW0NIMl1bQ0gyXTEpQyg9TylbTkhdYzJbY0hdbm4oW2NIXTIpW0NIMl1DKD1PKVtOSDJd

> <s_epik_cmdline>
J2VwaWtfcHl0aG9uJywgJy1waCcsICc3LjAnLCAnLXRuJywgJzgnLCAnLW1hJywgJzIwMCcsICctbWV0YWxfYmluZGluZycsICctaW1hZScsICc8aW5maWxlLm1hZT4nLCAnLW9tYWUnLCAnPG91dGZpbGUubWFlPic=

> <r_lp_tautomer_probability>
1

> <r_epik_Ionization_Penalty>
0.431808

> <r_epik_Ionization_Penalty_Charging>
0

> <r_epik_Ionization_Penalty_Neutral>
0.431808

> <r_epik_State_Penalty>
0.433198

> <r_epik_Charging_Adjusted_Penalty>
0.433198

> <i_epik_Tot_Q>
0

> <i_epik_Tot_abs_Q>
0

> <r_epik_Metal_State_Penalty>
0.433196

> <b_epik_Metal_Only>
0

> <s_lp_Force_Field>
OPLS_2005

> <r_lp_Energy>
45.1289

> <b_lp_Chiralities_Consistent>
1

> <s_lp_Variant>
AV-unprocessed.smi:1499-2

> <Gold.Version>
5.8.1

> <Gold.Id.Protein>
6NUR|6NUR_protein|mol2

> <Gold.PLP.Fitness>
41.0713

> <Gold.PLP.PLP>
-42.2766

> <Gold.PLP.part.hbond>
-2.3954

> <Gold.PLP.part.metal>
0.0000

> <Gold.PLP.part.buried>
-1.7193

> <Gold.PLP.part.nonpolar>
-37.2314

> <Gold.PLP.part.repulsive>
0.2643

> <Gold.PLP.ligand.clash>
0.7527

> <Gold.PLP.ligand.torsion>
0.2571

> <Gold.PLP.Chemscore.Hbond>
0.0000

> <Gold.PLP.Chemscore.CHOScore>
0.0000

> <Gold.PLP.Chemscore.Metal>
0.0000

> <Gold.PLP.Chemscore.Internal.Correction>
0.0616

> <Gold.Rescore>
     Score         DG    S(hbond)    S(metal)    S(lipo)     H(rot)  DE(clash)    DE(int)     intcor
      7.80     -13.12       0.00        0.00     105.43       1.83       3.83       1.49       ----

> <Gold.Chemscore.Fitness>
7.7954

> <Gold.Chemscore.DG>
-13.1240

> <Gold.Chemscore.ZeroCoef>
-5.4800

> <Gold.Chemscore.Hbond>
0.0000

> <Gold.Chemscore.Metal>
0.0000

> <Gold.Chemscore.Lipo>
105.4293

> <Gold.Chemscore.Internal_Hbond>
0.0000

> <Gold.Chemscore.DEClash>
3.8347

> <Gold.Chemscore.DEInternal>
1.4939

> <Gold.Chemscore.Rot>
1.8325

> <Gold.Chemscore.Internal.Correction>
   9.000000E+99

> <Gold.Chemscore.Hbond.Weighted>
-0.0000

> <Gold.Chemscore.Metal.Weighted>
-0.0000

> <Gold.Chemscore.Lipo.Weighted>
-12.3352

> <Gold.Chemscore.Internal_Hbond.Weighted>
0.0000

> <Gold.Chemscore.DEClash.Weighted>
3.8347

> <Gold.Chemscore.DEInternal.Weighted>
1.4939

> <Gold.Chemscore.Rot.Weighted>
4.6912

> <Gold.Chemscore.Internal.Correction.Weighted>
   9.000000E+99

> <Gold.Protein.RotatedTorsions>
[ 6907 6896 6895 6894 ] final  -59.34 input  -60.11 | X-H torsion
[ 7974 7965 7964 7962 ] final  -23.67 input  175.53 | X-H torsion
[ 8008 7997 7996 7995 ] final -143.91 input   59.86 | X-H torsion
[ 10167 10162 10161 10158 ] final   61.03 input  -65.29 | X-H torsion
[ 10718 10713 10712 10709 ] final -115.04 input   66.30 | X-H torsion
[ 10763 10752 10751 10750 ] final  -57.01 input  -60.55 | X-H torsion
[ 11005 11000 10999 10996 ] final  131.04 input  -57.11 | X-H torsion

> <Gold.Protein.ActiveResidues>
 VAL166  LYS551  ARG553  GLY616  TRP617  ASP618  TYR619  PRO620  LYS621  CYS622 
 ASP623  PHE694  ASN695  SER759  ASP760  ASP761  ALA762  ILE779  LEU786  VAL792 
 PHE793  MET794  SER795  GLU796  ALA797  LYS798  CYS799  TRP800  GLU811  SER814 

> <Gold.Protein.RotatedAtoms>
  150.7938  134.6982  159.6534 H   0  0  0  0  0  0  0  0  0  0  0  0  # atno 6907 bound_to 6896
  152.4047  134.6223  160.0064 H   0  0  0  0  0  0  0  0  0  0  0  0  # atno 6908 bound_to 6896
  151.6484  133.3285  159.3182 H   0  0  0  0  0  0  0  0  0  0  0  0  # atno 6909 bound_to 6896
  146.1602  140.4648  142.8575 H   0  0  0  0  0  0  0  0  0  0  0  0  # atno 7974 bound_to 7965
  155.5183  140.0589  157.2911 H   0  0  0  0  0  0  0  0  0  0  0  0  # atno 8008 bound_to 7997
  154.4527  140.1957  156.0418 H   0  0  0  0  0  0  0  0  0  0  0  0  # atno 8009 bound_to 7997
  156.0737  140.3256  155.7611 H   0  0  0  0  0  0  0  0  0  0  0  0  # atno 8010 bound_to 7997
  140.1591  144.4388  150.6718 H   0  0  0  0  0  0  0  0  0  0  0  0  # atno 10167 bound_to 10162
  156.0869  130.6059  150.8854 H   0  0  0  0  0  0  0  0  0  0  0  0  # atno 10718 bound_to 10713
  154.2157  135.6386  153.5129 H   0  0  0  0  0  0  0  0  0  0  0  0  # atno 10763 bound_to 10752
  152.9980  135.5484  154.6168 H   0  0  0  0  0  0  0  0  0  0  0  0  # atno 10764 bound_to 10752
  154.5616  135.2909  155.0888 H   0  0  0  0  0  0  0  0  0  0  0  0  # atno 10765 bound_to 10752
  139.9707  134.9578  156.9380 H   0  0  0  0  0  0  0  0  0  0  0  0  # atno 11005 bound_to 11000
  144.8016  140.6224  143.6474 LP  0  0  0  0  0  0  0  0  0  0  0  0  # atno 17320 bound_to 7965
  145.4608  139.1513  143.3867 LP  0  0  0  0  0  0  0  0  0  0  0  0  # atno 17321 bound_to 7965
  140.6654  143.2266  151.5755 LP  0  0  0  0  0  0  0  0  0  0  0  0  # atno 17342 bound_to 10162
  139.5389  144.2702  152.1310 LP  0  0  0  0  0  0  0  0  0  0  0  0  # atno 17343 bound_to 10162
  157.6007  131.0941  150.8965 LP  0  0  0  0  0  0  0  0  0  0  0  0  # atno 17370 bound_to 10713
  156.9123  130.5285  149.5280 LP  0  0  0  0  0  0  0  0  0  0  0  0  # atno 17371 bound_to 10713
  140.5300  134.0823  155.7313 LP  0  0  0  0  0  0  0  0  0  0  0  0  # atno 17394 bound_to 11000
  141.1386  133.9177  157.2377 LP  0  0  0  0  0  0  0  0  0  0  0  0  # atno 17395 bound_to 11000

$$$$
