#       Name:                AV-unprocessed.smi:1053
#       Creating user name   scv26
#       Creation time:       Fri Mar 27 03:12:29 2020


#       File generated by GOLD software.
#

@<TRIPOS>MOLECULE
AV-unprocessed.smi:1053
    42    43     1
SMALL
NO_CHARGES


@<TRIPOS>ATOM
      1 ****        -4.9178  -1.9241  -2.1188 C.3            1 S1                 0.0000
      2 ****        -3.4107  -1.6307  -2.1291 C.3            1 S1                 0.0000
      3 ****        -2.9177  -0.8943  -0.9665 N.3            1 S1                 0.0000
      4 ****        -3.4318   0.4720  -0.9099 C.3            1 S1                 0.0000
      5 ****        -2.8752   1.2432   0.2983 C.3            1 S1                 0.0000
      6 ****        -1.4526   1.2298   0.2563 O.3            1 S1                 0.0000
      7 ****        -0.9083  -0.0880   0.2654 C.3            1 S1                 0.0000
      8 ****         0.6214   0.0207   0.2256 C.3            1 S1                 0.0000
      9 ****         1.1492   0.5933   1.4546 N.pl3          1 S1                 0.0000
     10 ****         2.4937   0.7919   1.7023 C.ar           1 S1                 0.0000
     11 ****         2.7822   1.4110   2.8493 N.ar           1 S1                 0.0000
     12 ****         4.0881   1.6211   3.1217 C.ar           1 S1                 0.0000
     13 ****         5.1069   1.2080   2.2407 C.ar           1 S1                 0.0000
     14 ****         4.6864   0.5620   1.0566 C.ar           1 S1                 0.0000
     15 ****         5.6730   0.0602   0.0134 C.3            1 S1                 0.0000
     16 ****         6.9327   0.3175   0.3675 F              1 S1                 0.0000
     17 ****         5.5374  -1.2576  -0.1373 F              1 S1                 0.0000
     18 ****         5.4332   0.6546  -1.1557 F              1 S1                 0.0000
     19 ****         3.3748   0.3575   0.7944 N.ar           1 S1                 0.0000
     20 ****        -1.4590  -0.8516  -0.9553 C.3            1 S1                 0.0000
     21 ****        -5.1893  -2.5604  -2.9610 H              1 S1                 0.0000
     22 ****        -5.5112  -1.0137  -2.1985 H              1 S1                 0.0000
     23 ****        -5.2115  -2.4419  -1.2053 H              1 S1                 0.0000
     24 ****        -2.8921  -2.5887  -2.1838 H              1 S1                 0.0000
     25 ****        -3.1505  -1.0972  -3.0443 H              1 S1                 0.0000
     26 ****        -3.1727   1.0037  -1.8268 H              1 S1                 0.0000
     27 ****        -4.5195   0.4660  -0.8477 H              1 S1                 0.0000
     28 ****        -3.2226   2.2764   0.2825 H              1 S1                 0.0000
     29 ****        -3.2230   0.8015   1.2335 H              1 S1                 0.0000
     30 ****        -1.2115  -0.6020   1.1797 H              1 S1                 0.0000
     31 ****         1.0557  -0.9709   0.0936 H              1 S1                 0.0000
     32 ****         0.9369   0.6263  -0.6250 H              1 S1                 0.0000
     33 ****         0.4941   0.9510   2.1346 H              1 S1                 0.0000
     34 ****         4.3219   2.1221   4.0493 H              1 S1                 0.0000
     35 ****         6.1485   1.3803   2.4674 H              1 S1                 0.0000
     36 ****        -1.0625  -1.8678  -0.9517 H              1 S1                 0.0000
     37 ****        -1.0974  -0.3804  -1.8709 H              1 S1                 0.0000
     38 ****        -3.2506  -1.3884  -0.1633 LP             1 S1                 0.0000
     39 ****        -1.1054   1.7237   1.0535 LP             1 S1                 0.0000
     40 ****        -1.1539   1.6924  -0.5784 LP             1 S1                 0.0000
     41 ****         2.0634   1.7060   3.4788 LP             1 S1                 0.0000
     42 ****         3.0765  -0.0995  -0.0435 LP             1 S1                 0.0000
@<TRIPOS>BOND
    1    1    2 1     
    2    1   21 1     
    3    1   22 1     
    4    1   23 1     
    5    2    3 1     
    6    2   24 1     
    7    2   25 1     
    8    3   20 1     
    9    3    4 1     
   10    4    5 1     
   11    4   26 1     
   12    4   27 1     
   13    5    6 1     
   14    5   28 1     
   15    5   29 1     
   16    6    7 1     
   17    7    8 1     
   18    7   20 1     
   19    7   30 1     
   20    8    9 1     
   21    8   31 1     
   22    8   32 1     
   23    9   10 1     
   24    9   33 1     
   25   10   19 ar    
   26   10   11 ar    
   27   11   12 ar    
   28   12   13 ar    
   29   12   34 1     
   30   13   14 ar    
   31   13   35 1     
   32   14   15 1     
   33   14   19 ar    
   34   15   16 1     
   35   15   17 1     
   36   15   18 1     
   37   20   36 1     
   38   20   37 1     
   39    3   38 1     
   40    6   39 1     
   41    6   40 1     
   42   11   41 1     
   43   19   42 1     
@<TRIPOS>SUBSTRUCTURE
      1 S1             1
@<TRIPOS>SET
LONE_PAIRS      STATIC     ATOMS    <user>   **** ""
5 38 39 40 41 42
DONOR_HYDROGENS      STATIC     ATOMS    <user>   **** ""
1 33
ATOM$BLUE        STATIC     ATOMS    COLORGROUP SYSTEM
5 38 39 40 41 42
ATOM$RED        STATIC     ATOMS    COLORGROUP SYSTEM
1 33
