AV-unprocessed.smi:3134|AV-procd|sdf|11942|dock5
  -GOLD-   2272017333D 1   1.00000     0.00000
 Structure written by MMmdl.
 37 37  0  0  0  0  0  0  0  0  2 V2000
  153.2132  138.7465  154.6753 C   0  0  0  0  0  0  0  0  0  0  0  0
  151.7479  138.6032  155.1173 C   0  0  0  0  0  0  0  0  0  0  0  0
  151.0531  137.4335  154.4082 C   0  0  0  0  0  0  0  0  0  0  0  0
  151.0130  139.8371  154.8539 N   0  0  0  0  0  0  0  0  0  0  0  0
  149.7214  140.0470  155.1514 C   0  0  0  0  0  0  0  0  0  0  0  0
  149.0009  139.1956  155.6742 O   0  0  0  0  0  0  0  0  0  0  0  0
  149.1523  141.4291  154.8018 C   0  0  1  0  0  0  0  0  0  0  0  0
  147.9574  141.2800  153.8480 C   0  0  0  0  0  0  0  0  0  0  0  0
  148.7340  142.1515  156.0230 N   0  3  0  0  0  0  0  0  0  0  0  0
  149.5613  141.8846  157.2202 C   0  0  0  0  0  0  0  0  0  0  0  0
  151.0439  142.1879  156.9502 C   0  0  0  0  0  0  0  0  0  0  0  0
  151.5873  143.1515  157.8925 N   0  0  0  0  0  0  0  0  0  0  0  0
  151.3223  144.5016  157.9882 C   0  0  0  0  0  0  0  0  0  0  0  0
  152.0643  144.9889  159.0257 C   0  0  0  0  0  0  0  0  0  0  0  0
  152.7703  143.8492  159.5022 C   0  0  0  0  0  0  0  0  0  0  0  0
  152.4878  142.7530  158.8172 N   0  0  0  0  0  0  0  0  0  0  0  0
  153.7715  137.8310  154.8723 H   0  0  0  0  0  0  0  0  0  0  0  0
  153.7130  139.5548  155.2106 H   0  0  0  0  0  0  0  0  0  0  0  0
  153.2879  138.9579  153.6081 H   0  0  0  0  0  0  0  0  0  0  0  0
  151.7276  138.3989  156.1893 H   0  0  0  0  0  0  0  0  0  0  0  0
  151.5636  136.4925  154.6145 H   0  0  0  0  0  0  0  0  0  0  0  0
  151.0401  137.5739  153.3268 H   0  0  0  0  0  0  0  0  0  0  0  0
  150.0208  137.3273  154.7438 H   0  0  0  0  0  0  0  0  0  0  0  0
  151.5299  140.5878  154.4189 H   0  0  0  0  0  0  0  0  0  0  0  0
  149.9193  142.0203  154.2979 H   0  0  0  0  0  0  0  0  0  0  0  0
  148.2465  140.7710  152.9273 H   0  0  0  0  0  0  0  0  0  0  0  0
  147.5565  142.2546  153.5680 H   0  0  0  0  0  0  0  0  0  0  0  0
  147.1479  140.7079  154.3040 H   0  0  0  0  0  0  0  0  0  0  0  0
  148.7571  143.1446  155.8416 H   0  0  0  0  0  0  0  0  0  0  0  0
  149.2146  142.4812  158.0652 H   0  0  0  0  0  0  0  0  0  0  0  0
  149.4350  140.8401  157.5070 H   0  0  0  0  0  0  0  0  0  0  0  0
  151.6327  141.2726  157.0223 H   0  0  0  0  0  0  0  0  0  0  0  0
  151.1772  142.5696  155.9370 H   0  0  0  0  0  0  0  0  0  0  0  0
  150.6322  144.9983  157.3220 H   0  0  0  0  0  0  0  0  0  0  0  0
  152.1002  146.0056  159.3879 H   0  0  0  0  0  0  0  0  0  0  0  0
  153.4752  143.7864  160.3180 H   0  0  0  0  0  0  0  0  0  0  0  0
  147.7811  141.8805  156.2221 H   0  0  0  0  0  0  0  0  0  0  0  0
  1  2  1  0  0  0  0
  1 17  1  0  0  0  0
  1 18  1  0  0  0  0
  1 19  1  0  0  0  0
  2  3  1  0  0  0  0
  2  4  1  0  0  0  0
  2 20  1  0  0  0  0
  3 21  1  0  0  0  0
  3 22  1  0  0  0  0
  3 23  1  0  0  0  0
  4  5  1  0  0  0  0
  4 24  1  0  0  0  0
  5  6  2  0  0  0  0
  5  7  1  0  0  0  0
  7  8  1  0  0  0  0
  7  9  1  0  0  0  0
  7 25  1  0  0  0  0
  8 26  1  0  0  0  0
  8 27  1  0  0  0  0
  8 28  1  0  0  0  0
  9 10  1  0  0  0  0
  9 29  1  0  0  0  0
  9 37  1  0  0  0  0
 10 11  1  0  0  0  0
 10 30  1  0  0  0  0
 10 31  1  0  0  0  0
 11 12  1  0  0  0  0
 11 32  1  0  0  0  0
 11 33  1  0  0  0  0
 12 16  1  0  0  0  0
 12 13  1  0  0  0  0
 13 14  2  0  0  0  0
 13 34  1  0  0  0  0
 14 15  1  0  0  0  0
 14 35  1  0  0  0  0
 15 16  2  0  0  0  0
 15 36  1  0  0  0  0
M  CHG  1   9   1
M  END
> <s_m_source_file>
AV-unprocessed.smi

> <i_m_source_file_index>
3134

> <i_lp_mmshare_version>
43012

> <i_f3d_flags>
0

> <s_epik_input>
W0NIM11bQ0hdKFtDSDNdKVtOSF1DKD1PKVtDQEhdKFtDSDNdKVtOSF1bQ0gyXVtDSDJdbjFbY0hdW2NIXVtjSF1uMQ==

> <s_epik_cmdline>
J2VwaWtfcHl0aG9uJywgJy1waCcsICc3LjAnLCAnLXRuJywgJzgnLCAnLW1hJywgJzIwMCcsICctbWV0YWxfYmluZGluZycsICctaW1hZScsICc8aW5maWxlLm1hZT4nLCAnLW9tYWUnLCAnPG91dGZpbGUubWFlPic=

> <r_lp_tautomer_probability>
1

> <r_epik_Ionization_Penalty>
0.20398

> <r_epik_Ionization_Penalty_Charging>
0.203977

> <r_epik_Ionization_Penalty_Neutral>
3.23345e-06

> <r_epik_State_Penalty>
0.193898

> <r_epik_Charging_Adjusted_Penalty>
0.397875

> <i_epik_Tot_Q>
1

> <i_epik_Tot_abs_Q>
1

> <r_epik_Metal_State_Penalty>
0.194184

> <b_epik_Metal_Only>
0

> <s_lp_Force_Field>
OPLS_2005

> <r_lp_Energy>
4.47428

> <b_lp_Chiralities_Consistent>
1

> <s_lp_Variant>
AV-unprocessed.smi:3134-2

> <Gold.Version>
5.8.1

> <Gold.Id.Protein>
6NUR|6NUR_protein|mol2

> <Gold.PLP.Fitness>
45.9033

> <Gold.PLP.PLP>
-38.3379

> <Gold.PLP.part.hbond>
-1.0000

> <Gold.PLP.part.metal>
0.0000

> <Gold.PLP.part.buried>
-5.6689

> <Gold.PLP.part.nonpolar>
-34.2421

> <Gold.PLP.part.repulsive>
2.0172

> <Gold.PLP.ligand.clash>
0.0000

> <Gold.PLP.ligand.torsion>
0.7816

> <Gold.PLP.Chemscore.Hbond>
2.0000

> <Gold.PLP.Chemscore.CHOScore>
1.0000

> <Gold.PLP.Chemscore.Metal>
0.0000

> <Gold.Chemscore.Hbonds>
donor molecule, donor type, donor heavy atom, donor atom, acceptor molecule, acceptor atom, score
      L1  H     9    29       P1  8028  2.00
      L1  C    13    34       P1  8028  1.00

> <Gold.PLP.Chemscore.Internal.Correction>
0.1286

> <Gold.Rescore>
     Score         DG    S(hbond)    S(metal)    S(lipo)     H(rot)  DE(clash)    DE(int)     intcor
     12.95     -13.73       1.00        0.00      88.74       2.13       0.08       0.69       ----

> <Gold.Chemscore.Fitness>
12.9483

> <Gold.Chemscore.DG>
-13.7270

> <Gold.Chemscore.ZeroCoef>
-5.4800

> <Gold.Chemscore.Hbond>
0.9958

> <Gold.Chemscore.Metal>
0.0000

> <Gold.Chemscore.Lipo>
88.7397

> <Gold.Chemscore.Internal_Hbond>
0.0000

> <Gold.Chemscore.DEClash>
0.0848

> <Gold.Chemscore.DEInternal>
0.6940

> <Gold.Chemscore.Rot>
2.1334

> <Gold.Chemscore.Internal.Correction>
   9.000000E+99

> <Gold.Chemscore.Hbonds>
donor molecule, donor type, donor heavy atom, donor atom, acceptor molecule, acceptor atom, score
      L1  H     9    29       P1  8028  0.98

> <Gold.Chemscore.Hbond.Weighted>
-3.3260

> <Gold.Chemscore.Metal.Weighted>
-0.0000

> <Gold.Chemscore.Lipo.Weighted>
-10.3825

> <Gold.Chemscore.Internal_Hbond.Weighted>
0.0000

> <Gold.Chemscore.DEClash.Weighted>
0.0848

> <Gold.Chemscore.DEInternal.Weighted>
0.6940

> <Gold.Chemscore.Rot.Weighted>
5.4615

> <Gold.Chemscore.Internal.Correction.Weighted>
   9.000000E+99

> <Gold.Protein.RotatedTorsions>
[ 6907 6896 6895 6894 ] final  159.41 input  -60.11 | X-H torsion
[ 7974 7965 7964 7962 ] final -146.52 input  175.53 | X-H torsion
[ 8008 7997 7996 7995 ] final  130.77 input   59.86 | X-H torsion
[ 10167 10162 10161 10158 ] final -140.28 input  -65.29 | X-H torsion
[ 10718 10713 10712 10709 ] final  104.62 input   66.30 | X-H torsion
[ 10763 10752 10751 10750 ] final  164.68 input  -60.55 | X-H torsion
[ 11005 11000 10999 10996 ] final -139.27 input  -57.11 | X-H torsion

> <Gold.Protein.ActiveResidues>
 VAL166  LYS551  ARG553  GLY616  TRP617  ASP618  TYR619  PRO620  LYS621  CYS622 
 ASP623  PHE694  ASN695  SER759  ASP760  ASP761  ALA762  ILE779  LEU786  VAL792 
 PHE793  MET794  SER795  GLU796  ALA797  LYS798  CYS799  TRP800  GLU811  SER814 

> <Gold.Protein.RotatedAtoms>
  151.9860  133.3774  159.4125 H   0  0  0  0  0  0  0  0  0  0  0  0  # atno 6907 bound_to 6896
  150.6928  134.3987  159.5118 H   0  0  0  0  0  0  0  0  0  0  0  0  # atno 6908 bound_to 6896
  152.1714  134.8831  160.0585 H   0  0  0  0  0  0  0  0  0  0  0  0  # atno 6909 bound_to 6896
  144.8154  140.5445  143.5614 H   0  0  0  0  0  0  0  0  0  0  0  0  # atno 7974 bound_to 7965
  156.2960  140.2588  156.2816 H   0  0  0  0  0  0  0  0  0  0  0  0  # atno 8008 bound_to 7997
  154.9596  140.0393  157.2202 H   0  0  0  0  0  0  0  0  0  0  0  0  # atno 8009 bound_to 7997
  154.7959  140.2820  155.5962 H   0  0  0  0  0  0  0  0  0  0  0  0  # atno 8010 bound_to 7997
  139.8297  143.7464  152.2666 H   0  0  0  0  0  0  0  0  0  0  0  0  # atno 10167 bound_to 10162
  157.6734  131.0808  150.5733 H   0  0  0  0  0  0  0  0  0  0  0  0  # atno 10718 bound_to 10713
  154.3125  135.2757  155.2559 H   0  0  0  0  0  0  0  0  0  0  0  0  # atno 10763 bound_to 10752
  154.4948  135.5824  153.6489 H   0  0  0  0  0  0  0  0  0  0  0  0  # atno 10764 bound_to 10752
  152.9886  135.6143  154.3304 H   0  0  0  0  0  0  0  0  0  0  0  0  # atno 10765 bound_to 10752
  140.8535  134.2256  157.4747 H   0  0  0  0  0  0  0  0  0  0  0  0  # atno 11005 bound_to 11000
  145.5227  139.1476  143.3543 LP  0  0  0  0  0  0  0  0  0  0  0  0  # atno 17320 bound_to 7965
  146.2456  140.5368  142.8915 LP  0  0  0  0  0  0  0  0  0  0  0  0  # atno 17321 bound_to 7965
  139.7667  144.7489  151.0284 LP  0  0  0  0  0  0  0  0  0  0  0  0  # atno 17342 bound_to 10162
  140.7807  143.4690  151.0173 LP  0  0  0  0  0  0  0  0  0  0  0  0  # atno 17343 bound_to 10162
  156.6034  130.4360  149.5888 LP  0  0  0  0  0  0  0  0  0  0  0  0  # atno 17370 bound_to 10713
  156.2488  130.6894  151.1625 LP  0  0  0  0  0  0  0  0  0  0  0  0  # atno 17371 bound_to 10713
  139.8704  134.9695  156.4668 LP  0  0  0  0  0  0  0  0  0  0  0  0  # atno 17394 bound_to 11000
  140.8763  133.7951  155.9418 LP  0  0  0  0  0  0  0  0  0  0  0  0  # atno 17395 bound_to 11000

$$$$
