AV-unprocessed.smi:3036|AV-procd|sdf|11583|dock5
  -GOLD-   2272016553D 1   1.00000     0.00000
 Structure written by MMmdl.
 42 43  0  0  0  0  0  0  0  0  2 V2000
  146.5888  138.6659  151.6193 C   0  0  0  0  0  0  0  0  0  0  0  0
  145.9292  137.3573  152.0746 C   0  0  1  0  0  0  0  0  0  0  0  0
  145.8627  136.3388  150.9207 C   0  0  0  0  0  0  0  0  0  0  0  0
  145.0812  135.1654  151.2659 N   0  0  0  0  0  0  0  0  0  0  0  0
  144.7438  134.0929  150.4674 C   0  0  0  0  0  0  0  0  0  0  0  0
  143.9880  133.2453  151.2251 C   0  0  0  0  0  0  0  0  0  0  0  0
  143.9227  133.8905  152.4917 C   0  0  0  0  0  0  0  0  0  0  0  0
  144.5802  135.0388  152.5126 N   0  0  0  0  0  0  0  0  0  0  0  0
  146.6724  136.8013  153.2286 N   0  3  0  0  0  0  0  0  0  0  0  0
  146.8523  137.7396  154.3583 C   0  0  0  0  0  0  0  0  0  0  0  0
  147.8228  137.1928  155.4253 C   0  0  0  0  0  0  0  0  0  0  0  0
  149.2766  137.0059  154.9509 C   0  0  0  0  0  0  0  0  0  0  0  0
  149.7802  135.8838  155.0021 O   0  0  0  0  0  0  0  0  0  0  0  0
  149.9623  138.0811  154.4937 N   0  0  0  0  0  0  0  0  0  0  0  0
  149.4038  139.4366  154.4662 C   0  0  0  0  0  0  0  0  0  0  0  0
  150.2261  140.3224  155.4192 C   0  0  0  0  0  0  0  0  0  0  0  0
  151.5965  140.3049  155.0276 O   0  0  0  0  0  0  0  0  0  0  0  0
  152.1600  138.9956  155.0207 C   0  0  0  0  0  0  0  0  0  0  0  0
  151.3634  138.0937  154.0608 C   0  0  0  0  0  0  0  0  0  0  0  0
  146.0432  139.1111  150.7867 H   0  0  0  0  0  0  0  0  0  0  0  0
  147.6162  138.5012  151.2924 H   0  0  0  0  0  0  0  0  0  0  0  0
  146.6087  139.3984  152.4272 H   0  0  0  0  0  0  0  0  0  0  0  0
  144.9082  137.5946  152.3794 H   0  0  0  0  0  0  0  0  0  0  0  0
  145.4055  136.7966  150.0426 H   0  0  0  0  0  0  0  0  0  0  0  0
  146.8656  136.0286  150.6219 H   0  0  0  0  0  0  0  0  0  0  0  0
  145.0619  134.0250  149.4374 H   0  0  0  0  0  0  0  0  0  0  0  0
  143.5496  132.3059  150.9217 H   0  0  0  0  0  0  0  0  0  0  0  0
  143.4201  133.5621  153.3896 H   0  0  0  0  0  0  0  0  0  0  0  0
  146.1746  135.9887  153.5663 H   0  0  0  0  0  0  0  0  0  0  0  0
  147.2478  138.6790  153.9697 H   0  0  0  0  0  0  0  0  0  0  0  0
  145.8818  137.9679  154.8019 H   0  0  0  0  0  0  0  0  0  0  0  0
  147.8094  137.8555  156.2916 H   0  0  0  0  0  0  0  0  0  0  0  0
  147.4522  136.2231  155.7599 H   0  0  0  0  0  0  0  0  0  0  0  0
  149.4560  139.8282  153.4493 H   0  0  0  0  0  0  0  0  0  0  0  0
  148.3511  139.4716  154.7496 H   0  0  0  0  0  0  0  0  0  0  0  0
  149.8635  141.3500  155.3875 H   0  0  0  0  0  0  0  0  0  0  0  0
  150.1283  139.9800  156.4506 H   0  0  0  0  0  0  0  0  0  0  0  0
  153.2001  139.0618  154.7016 H   0  0  0  0  0  0  0  0  0  0  0  0
  152.1609  138.5842  156.0312 H   0  0  0  0  0  0  0  0  0  0  0  0
  151.8232  137.1077  154.0202 H   0  0  0  0  0  0  0  0  0  0  0  0
  151.4195  138.4882  153.0453 H   0  0  0  0  0  0  0  0  0  0  0  0
  147.5842  136.5087  152.9075 H   0  0  0  0  0  0  0  0  0  0  0  0
  1  2  1  0  0  0  0
  1 20  1  0  0  0  0
  1 21  1  0  0  0  0
  1 22  1  0  0  0  0
  2  3  1  0  0  0  0
  2  9  1  0  0  0  0
  2 23  1  0  0  0  0
  3  4  1  0  0  0  0
  3 24  1  0  0  0  0
  3 25  1  0  0  0  0
  4  8  1  0  0  0  0
  4  5  1  0  0  0  0
  5  6  2  0  0  0  0
  5 26  1  0  0  0  0
  6  7  1  0  0  0  0
  6 27  1  0  0  0  0
  7  8  2  0  0  0  0
  7 28  1  0  0  0  0
  9 10  1  0  0  0  0
  9 29  1  0  0  0  0
  9 42  1  0  0  0  0
 10 11  1  0  0  0  0
 10 30  1  0  0  0  0
 10 31  1  0  0  0  0
 11 12  1  0  0  0  0
 11 32  1  0  0  0  0
 11 33  1  0  0  0  0
 12 13  2  0  0  0  0
 12 14  1  0  0  0  0
 14 19  1  0  0  0  0
 14 15  1  0  0  0  0
 15 16  1  0  0  0  0
 15 34  1  0  0  0  0
 15 35  1  0  0  0  0
 16 17  1  0  0  0  0
 16 36  1  0  0  0  0
 16 37  1  0  0  0  0
 17 18  1  0  0  0  0
 18 19  1  0  0  0  0
 18 38  1  0  0  0  0
 18 39  1  0  0  0  0
 19 40  1  0  0  0  0
 19 41  1  0  0  0  0
M  CHG  1   9   1
M  END
> <s_m_source_file>
AV-unprocessed.smi

> <i_m_source_file_index>
3036

> <i_lp_mmshare_version>
43012

> <i_f3d_flags>
0

> <s_epik_input>
bjFbY0hdW2NIXVtjSF1uMVtDSDJdW0NAQEhdKFtDSDNdKVtOSF1bQ0gyXVtDSDJdQyg9TylOMltDSDJdW0NIMl1PW0NIMl1bQ0gyXTI=

> <s_epik_cmdline>
J2VwaWtfcHl0aG9uJywgJy1waCcsICc3LjAnLCAnLXRuJywgJzgnLCAnLW1hJywgJzIwMCcsICctbWV0YWxfYmluZGluZycsICctaW1hZScsICc8aW5maWxlLm1hZT4nLCAnLW9tYWUnLCAnPG91dGZpbGUubWFlPic=

> <r_lp_tautomer_probability>
1

> <r_epik_Ionization_Penalty>
0.00797109

> <r_epik_Ionization_Penalty_Charging>
0.0079672

> <r_epik_Ionization_Penalty_Neutral>
3.88864e-06

> <r_epik_State_Penalty>
0.00597998

> <r_epik_Charging_Adjusted_Penalty>
0.0139472

> <i_epik_Tot_Q>
1

> <i_epik_Tot_abs_Q>
1

> <r_epik_Metal_State_Penalty>
0.00598029

> <b_epik_Metal_Only>
0

> <s_lp_Force_Field>
OPLS_2005

> <r_lp_Energy>
23.754

> <b_lp_Chiralities_Consistent>
1

> <s_lp_Variant>
AV-unprocessed.smi:3036-2

> <Gold.Version>
5.8.1

> <Gold.Id.Protein>
6NUR|6NUR_protein|mol2

> <Gold.PLP.Fitness>
48.6508

> <Gold.PLP.PLP>
-33.7911

> <Gold.PLP.part.hbond>
-2.0000

> <Gold.PLP.part.metal>
0.0000

> <Gold.PLP.part.buried>
-0.6303

> <Gold.PLP.part.nonpolar>
-32.3510

> <Gold.PLP.part.repulsive>
0.2980

> <Gold.PLP.ligand.clash>
0.0000

> <Gold.PLP.ligand.torsion>
0.0835

> <Gold.PLP.Chemscore.Hbond>
2.9760

> <Gold.PLP.Chemscore.CHOScore>
2.0000

> <Gold.PLP.Chemscore.Metal>
0.0000

> <Gold.Chemscore.Hbonds>
donor molecule, donor type, donor heavy atom, donor atom, acceptor molecule, acceptor atom, score
      L1  H     9    42       P1  7948  2.00
      P1  H  7989  7998       L1    17  0.94
      L1  C     5    26       P1  7921  1.00
      L1  C     7    28       P1 10957  1.00

> <Gold.PLP.Chemscore.Internal.Correction>
0.0986

> <Gold.Rescore>
     Score         DG    S(hbond)    S(metal)    S(lipo)     H(rot)  DE(clash)    DE(int)     intcor
     13.37     -14.37       1.51        0.00      78.12       2.07       0.12       0.88       ----

> <Gold.Chemscore.Fitness>
13.3690

> <Gold.Chemscore.DG>
-14.3718

> <Gold.Chemscore.ZeroCoef>
-5.4800

> <Gold.Chemscore.Hbond>
1.5106

> <Gold.Chemscore.Metal>
0.0000

> <Gold.Chemscore.Lipo>
78.1233

> <Gold.Chemscore.Internal_Hbond>
0.0000

> <Gold.Chemscore.DEClash>
0.1235

> <Gold.Chemscore.DEInternal>
0.8794

> <Gold.Chemscore.Rot>
2.0680

> <Gold.Chemscore.Internal.Correction>
   9.000000E+99

> <Gold.Chemscore.Hbonds>
donor molecule, donor type, donor heavy atom, donor atom, acceptor molecule, acceptor atom, score
      L1  H     9    42       P1  7948  1.00
      P1  H  7989  7998       L1    17  0.36

> <Gold.Chemscore.Hbond.Weighted>
-5.0455

> <Gold.Chemscore.Metal.Weighted>
-0.0000

> <Gold.Chemscore.Lipo.Weighted>
-9.1404

> <Gold.Chemscore.Internal_Hbond.Weighted>
0.0000

> <Gold.Chemscore.DEClash.Weighted>
0.1235

> <Gold.Chemscore.DEInternal.Weighted>
0.8794

> <Gold.Chemscore.Rot.Weighted>
5.2941

> <Gold.Chemscore.Internal.Correction.Weighted>
   9.000000E+99

> <Gold.Protein.RotatedTorsions>
[ 6907 6896 6895 6894 ] final   84.19 input  -60.11 | X-H torsion
[ 7974 7965 7964 7962 ] final   -3.71 input  175.53 | X-H torsion
[ 8008 7997 7996 7995 ] final -164.21 input   59.86 | X-H torsion
[ 10167 10162 10161 10158 ] final   25.00 input  -65.29 | X-H torsion
[ 10718 10713 10712 10709 ] final   -5.58 input   66.30 | X-H torsion
[ 10763 10752 10751 10750 ] final   23.14 input  -60.55 | X-H torsion
[ 11005 11000 10999 10996 ] final  173.92 input  -57.11 | X-H torsion

> <Gold.Protein.ActiveResidues>
 VAL166  LYS551  ARG553  GLY616  TRP617  ASP618  TYR619  PRO620  LYS621  CYS622 
 ASP623  PHE694  ASN695  SER759  ASP760  ASP761  ALA762  ILE779  LEU786  VAL792 
 PHE793  MET794  SER795  GLU796  ALA797  LYS798  CYS799  TRP800  GLU811  SER814 

> <Gold.Protein.RotatedAtoms>
  152.5346  134.2779  159.8996 H   0  0  0  0  0  0  0  0  0  0  0  0  # atno 6907 bound_to 6896
  151.2734  133.4237  159.2630 H   0  0  0  0  0  0  0  0  0  0  0  0  # atno 6908 bound_to 6896
  151.0347  134.9580  159.8186 H   0  0  0  0  0  0  0  0  0  0  0  0  # atno 6909 bound_to 6896
  146.2385  140.1762  142.8332 H   0  0  0  0  0  0  0  0  0  0  0  0  # atno 7974 bound_to 7965
  155.8324  140.0936  157.1784 H   0  0  0  0  0  0  0  0  0  0  0  0  # atno 8008 bound_to 7997
  154.3980  140.1416  156.3691 H   0  0  0  0  0  0  0  0  0  0  0  0  # atno 8009 bound_to 7997
  155.8152  140.3448  155.5483 H   0  0  0  0  0  0  0  0  0  0  0  0  # atno 8010 bound_to 7997
  140.5142  144.0110  150.6386 H   0  0  0  0  0  0  0  0  0  0  0  0  # atno 10167 bound_to 10162
  156.7444  130.5220  149.5817 H   0  0  0  0  0  0  0  0  0  0  0  0  # atno 10718 bound_to 10713
  153.0861  135.6633  153.9946 H   0  0  0  0  0  0  0  0  0  0  0  0  # atno 10763 bound_to 10752
  153.9555  135.2979  155.3438 H   0  0  0  0  0  0  0  0  0  0  0  0  # atno 10764 bound_to 10752
  154.7270  135.5140  153.8974 H   0  0  0  0  0  0  0  0  0  0  0  0  # atno 10765 bound_to 10752
  140.3457  134.7238  157.4233 H   0  0  0  0  0  0  0  0  0  0  0  0  # atno 11005 bound_to 11000
  144.9971  140.8599  143.5304 LP  0  0  0  0  0  0  0  0  0  0  0  0  # atno 17320 bound_to 7965
  145.1776  139.2369  143.5309 LP  0  0  0  0  0  0  0  0  0  0  0  0  # atno 17321 bound_to 7965
  140.3441  143.3002  152.0557 LP  0  0  0  0  0  0  0  0  0  0  0  0  # atno 17342 bound_to 10162
  139.4904  144.6421  151.6855 LP  0  0  0  0  0  0  0  0  0  0  0  0  # atno 17343 bound_to 10162
  156.1443  130.6266  151.0509 LP  0  0  0  0  0  0  0  0  0  0  0  0  # atno 17370 bound_to 10713
  157.6804  131.0839  150.7384 LP  0  0  0  0  0  0  0  0  0  0  0  0  # atno 17371 bound_to 10713
  140.0744  134.5818  155.8607 LP  0  0  0  0  0  0  0  0  0  0  0  0  # atno 17394 bound_to 11000
  141.2026  133.6626  156.6016 LP  0  0  0  0  0  0  0  0  0  0  0  0  # atno 17395 bound_to 11000

$$$$
