AV-unprocessed.smi:148|AV-procd|sdf|1231|dock5
  -GOLD-   2262018433D 1   1.00000     0.00000
 Structure written by MMmdl.
 63 67  0  0  0  0  0  0  0  0  1 V2000
  148.5233  131.3679  153.0102 O   0  0  0  0  0  0  0  0  0  0  0  0
  147.1825  131.2941  153.4505 C   0  0  0  0  0  0  0  0  0  0  0  0
  146.3536  132.5078  152.9521 C   0  0  1  0  0  0  0  0  0  0  0  0
  146.8370  133.8374  153.5932 C   0  0  0  0  0  0  0  0  0  0  0  0
  146.7009  133.8711  155.0387 N   0  0  0  0  0  0  0  0  0  0  0  0
  145.5675  133.5931  155.7681 C   0  0  0  0  0  0  0  0  0  0  0  0
  145.7021  133.6956  157.0619 N   0  0  0  0  0  0  0  0  0  0  0  0
  147.0286  134.0724  157.2379 C   0  0  0  0  0  0  0  0  0  0  0  0
  147.8414  134.3680  158.3700 C   0  0  0  0  0  0  0  0  0  0  0  0
  147.4266  134.3360  159.6583 N   0  0  0  0  0  0  0  0  0  0  0  0
  147.4298  135.6961  160.2001 C   0  0  0  0  0  0  0  0  0  0  0  0
  146.7373  135.7646  161.5675 C   0  0  0  0  0  0  0  0  0  0  0  0
  147.3668  134.7571  162.5342 C   0  0  0  0  0  0  0  0  0  0  0  0
  147.3050  133.3514  161.9242 C   0  0  0  0  0  0  0  0  0  0  0  0
  147.9998  133.2989  160.5381 C   0  0  1  0  0  0  0  0  0  0  0  0
  148.0011  131.8674  159.9082 C   0  0  1  0  0  0  0  0  0  0  0  0
  149.0645  131.6531  158.8142 C   0  0  0  0  0  0  0  0  0  0  0  0
  149.4331  130.1609  158.8469 C   0  0  0  0  0  0  0  0  0  0  0  0
  148.5456  129.5231  159.9194 C   0  0  0  0  0  0  0  0  0  0  0  0
  148.1949  130.6748  160.8607 C   0  0  2  0  0  0  0  0  0  0  0  0
  147.0342  130.3767  161.6072 O   0  0  0  0  0  0  0  0  0  0  0  0
  149.1416  134.6858  158.1517 N   0  0  0  0  0  0  0  0  0  0  0  0
  149.6176  134.7395  156.9041 C   0  0  0  0  0  0  0  0  0  0  0  0
  148.9778  134.5086  155.7557 N   0  0  0  0  0  0  0  0  0  0  0  0
  147.6741  134.1734  155.9738 C   0  0  0  0  0  0  0  0  0  0  0  0
  146.2892  132.6010  151.3958 C   0  0  1  0  0  0  0  0  0  0  0  0
  145.5908  131.4291  150.7129 C   0  0  0  0  0  0  0  0  0  0  0  0
  144.1098  131.8001  150.7903 C   0  0  0  0  0  0  0  0  0  0  0  0
  144.0704  133.2177  150.9159 O   0  0  0  0  0  0  0  0  0  0  0  0
  145.3948  133.7310  150.8659 C   0  0  0  0  0  0  0  0  0  0  0  0
  148.5275  131.3898  152.0652 H   0  0  0  0  0  0  0  0  0  0  0  0
  146.7559  130.3502  153.1180 H   0  0  0  0  0  0  0  0  0  0  0  0
  147.1780  131.2331  154.5388 H   0  0  0  0  0  0  0  0  0  0  0  0
  145.3361  132.3432  153.3089 H   0  0  0  0  0  0  0  0  0  0  0  0
  147.8838  134.0139  153.3427 H   0  0  0  0  0  0  0  0  0  0  0  0
  146.2785  134.6877  153.2059 H   0  0  0  0  0  0  0  0  0  0  0  0
  144.6302  133.3171  155.3071 H   0  0  0  0  0  0  0  0  0  0  0  0
  148.4609  136.0411  160.2927 H   0  0  0  0  0  0  0  0  0  0  0  0
  146.9293  136.3783  159.5107 H   0  0  0  0  0  0  0  0  0  0  0  0
  146.8109  136.7734  161.9742 H   0  0  0  0  0  0  0  0  0  0  0  0
  145.6738  135.5509  161.4521 H   0  0  0  0  0  0  0  0  0  0  0  0
  148.4033  135.0302  162.7356 H   0  0  0  0  0  0  0  0  0  0  0  0
  146.8437  134.7768  163.4906 H   0  0  0  0  0  0  0  0  0  0  0  0
  147.7564  132.6458  162.6195 H   0  0  0  0  0  0  0  0  0  0  0  0
  146.2562  133.0693  161.8348 H   0  0  0  0  0  0  0  0  0  0  0  0
  149.0412  133.5742  160.7047 H   0  0  0  0  0  0  0  0  0  0  0  0
  147.0555  131.7013  159.3916 H   0  0  0  0  0  0  0  0  0  0  0  0
  148.6773  131.9468  157.8377 H   0  0  0  0  0  0  0  0  0  0  0  0
  149.9601  132.2482  158.9860 H   0  0  0  0  0  0  0  0  0  0  0  0
  149.2963  129.6824  157.8767 H   0  0  0  0  0  0  0  0  0  0  0  0
  150.4832  130.0495  159.1199 H   0  0  0  0  0  0  0  0  0  0  0  0
  147.6399  129.1339  159.4510 H   0  0  0  0  0  0  0  0  0  0  0  0
  149.0348  128.6943  160.4321 H   0  0  0  0  0  0  0  0  0  0  0  0
  149.0313  130.8367  161.5390 H   0  0  0  0  0  0  0  0  0  0  0  0
  146.2787  130.6584  161.1133 H   0  0  0  0  0  0  0  0  0  0  0  0
  150.6597  135.0078  156.8127 H   0  0  0  0  0  0  0  0  0  0  0  0
  147.3025  132.7157  151.0085 H   0  0  0  0  0  0  0  0  0  0  0  0
  145.8952  131.3961  149.6656 H   0  0  0  0  0  0  0  0  0  0  0  0
  145.8031  130.4463  151.1279 H   0  0  0  0  0  0  0  0  0  0  0  0
  143.5594  131.4659  149.9103 H   0  0  0  0  0  0  0  0  0  0  0  0
  143.6424  131.3583  151.6710 H   0  0  0  0  0  0  0  0  0  0  0  0
  145.4771  134.6767  151.3970 H   0  0  0  0  0  0  0  0  0  0  0  0
  145.6387  133.9360  149.8221 H   0  0  0  0  0  0  0  0  0  0  0  0
  1  2  1  0  0  0  0
  1 31  1  0  0  0  0
  2  3  1  0  0  0  0
  2 32  1  0  0  0  0
  2 33  1  0  0  0  0
  3  4  1  0  0  0  0
  3 26  1  0  0  0  0
  3 34  1  0  0  0  0
  4  5  1  0  0  0  0
  4 35  1  0  0  0  0
  4 36  1  0  0  0  0
  5 25  1  0  0  0  0
  5  6  1  0  0  0  0
  6  7  2  0  0  0  0
  6 37  1  0  0  0  0
  7  8  1  0  0  0  0
  8 25  2  0  0  0  0
  8  9  1  0  0  0  0
  9 10  1  0  0  0  0
  9 22  2  0  0  0  0
 10 15  1  0  0  0  0
 10 11  1  0  0  0  0
 11 12  1  0  0  0  0
 11 38  1  0  0  0  0
 11 39  1  0  0  0  0
 12 13  1  0  0  0  0
 12 40  1  0  0  0  0
 12 41  1  0  0  0  0
 13 14  1  0  0  0  0
 13 42  1  0  0  0  0
 13 43  1  0  0  0  0
 14 15  1  0  0  0  0
 14 44  1  0  0  0  0
 14 45  1  0  0  0  0
 15 16  1  0  0  0  0
 15 46  1  0  0  0  0
 16 20  1  0  0  0  0
 16 17  1  0  0  0  0
 16 47  1  0  0  0  0
 17 18  1  0  0  0  0
 17 48  1  0  0  0  0
 17 49  1  0  0  0  0
 18 19  1  0  0  0  0
 18 50  1  0  0  0  0
 18 51  1  0  0  0  0
 19 20  1  0  0  0  0
 19 52  1  0  0  0  0
 19 53  1  0  0  0  0
 20 21  1  0  0  0  0
 20 54  1  0  0  0  0
 21 55  1  0  0  0  0
 22 23  1  0  0  0  0
 23 24  2  0  0  0  0
 23 56  1  0  0  0  0
 24 25  1  0  0  0  0
 26 30  1  0  0  0  0
 26 27  1  0  0  0  0
 26 57  1  0  0  0  0
 27 28  1  0  0  0  0
 27 58  1  0  0  0  0
 27 59  1  0  0  0  0
 28 29  1  0  0  0  0
 28 60  1  0  0  0  0
 28 61  1  0  0  0  0
 29 30  1  0  0  0  0
 30 62  1  0  0  0  0
 30 63  1  0  0  0  0
M  END
> <s_m_source_file>
AV-unprocessed.smi

> <i_m_source_file_index>
148

> <i_lp_mmshare_version>
43012

> <i_f3d_flags>
0

> <s_epik_input>
W0NIMl0xT1tDSDJdW0NIMl1bQ0BIXTFbQ0BIXShbQ0gyXVtPSF0pW0NIMl1uKFtjSF1uMiljKGMyMyluW2NIXW5jM040W0NIMl1bQ0gyXVtDSDJdW0NIMl1bQ0BIXTRbQ0BASF01W0NIMl1bQ0gyXVtDSDJdW0NASF01W09IXQ==

> <s_epik_cmdline>
J2VwaWtfcHl0aG9uJywgJy1waCcsICc3LjAnLCAnLXRuJywgJzgnLCAnLW1hJywgJzIwMCcsICctbWV0YWxfYmluZGluZycsICctaW1hZScsICc8aW5maWxlLm1hZT4nLCAnLW9tYWUnLCAnPG91dGZpbGUubWFlPic=

> <r_lp_tautomer_probability>
1

> <r_epik_Ionization_Penalty>
0.00556303

> <r_epik_Ionization_Penalty_Charging>
0

> <r_epik_Ionization_Penalty_Neutral>
0.00556303

> <r_epik_State_Penalty>
0.00401767

> <r_epik_Charging_Adjusted_Penalty>
0.00401767

> <i_epik_Tot_Q>
0

> <i_epik_Tot_abs_Q>
0

> <r_epik_Metal_State_Penalty>
-0

> <b_epik_Metal_Only>
0

> <s_lp_Force_Field>
OPLS_2005

> <r_lp_Energy>
69.9352

> <b_lp_Chiralities_Consistent>
1

> <s_lp_Variant>
AV-unprocessed.smi:148-30

> <Gold.Version>
5.8.1

> <Gold.Id.Protein>
6NUR|6NUR_protein|mol2

> <Gold.PLP.Fitness>
43.6350

> <Gold.PLP.PLP>
-35.3033

> <Gold.PLP.part.hbond>
-2.0000

> <Gold.PLP.part.metal>
0.0000

> <Gold.PLP.part.buried>
-7.2661

> <Gold.PLP.part.nonpolar>
-27.0414

> <Gold.PLP.part.repulsive>
0.2536

> <Gold.PLP.ligand.clash>
0.0000

> <Gold.PLP.ligand.torsion>
0.5632

> <Gold.PLP.Chemscore.Hbond>
2.0000

> <Gold.PLP.Chemscore.CHOScore>
0.9963

> <Gold.PLP.Chemscore.Metal>
0.0000

> <Gold.Chemscore.Hbonds>
donor molecule, donor type, donor heavy atom, donor atom, acceptor molecule, acceptor atom, score
      L1  H     1    31       P1 10747  1.00
      P1  H  6896  6908       L1    22  1.00
      L1  C     6    37       P1 10957  0.96

> <Gold.PLP.Chemscore.Internal.Correction>
0.4693

> <Gold.Rescore>
     Score         DG    S(hbond)    S(metal)    S(lipo)     H(rot)  DE(clash)    DE(int)     intcor
     12.87     -14.68       1.89        0.00      97.43       3.32       0.01       1.81       ----

> <Gold.Chemscore.Fitness>
12.8687

> <Gold.Chemscore.DG>
-14.6831

> <Gold.Chemscore.ZeroCoef>
-5.4800

> <Gold.Chemscore.Hbond>
1.8872

> <Gold.Chemscore.Metal>
0.0000

> <Gold.Chemscore.Lipo>
97.4341

> <Gold.Chemscore.Internal_Hbond>
0.0000

> <Gold.Chemscore.DEClash>
0.0076

> <Gold.Chemscore.DEInternal>
1.8069

> <Gold.Chemscore.Rot>
3.3203

> <Gold.Chemscore.Internal.Correction>
   9.000000E+99

> <Gold.Chemscore.Hbonds>
donor molecule, donor type, donor heavy atom, donor atom, acceptor molecule, acceptor atom, score
      L1  H     1    31       P1 10747  0.98
      P1  H  6896  6908       L1    22  0.71

> <Gold.Chemscore.Hbond.Weighted>
-6.3033

> <Gold.Chemscore.Metal.Weighted>
-0.0000

> <Gold.Chemscore.Lipo.Weighted>
-11.3998

> <Gold.Chemscore.Internal_Hbond.Weighted>
0.0000

> <Gold.Chemscore.DEClash.Weighted>
0.0076

> <Gold.Chemscore.DEInternal.Weighted>
1.8069

> <Gold.Chemscore.Rot.Weighted>
8.5000

> <Gold.Chemscore.Internal.Correction.Weighted>
   9.000000E+99

> <Gold.Protein.RotatedTorsions>
[ 6907 6896 6895 6894 ] final  152.00 input  -60.11 | X-H torsion
[ 7974 7965 7964 7962 ] final -135.26 input  175.53 | X-H torsion
[ 8008 7997 7996 7995 ] final -128.30 input   59.86 | X-H torsion
[ 10167 10162 10161 10158 ] final  151.81 input  -65.29 | X-H torsion
[ 10718 10713 10712 10709 ] final -172.30 input   66.30 | X-H torsion
[ 10763 10752 10751 10750 ] final  -90.63 input  -60.55 | X-H torsion
[ 11005 11000 10999 10996 ] final   90.08 input  -57.11 | X-H torsion

> <Gold.Protein.ActiveResidues>
 VAL166  LYS551  ARG553  GLY616  TRP617  ASP618  TYR619  PRO620  LYS621  CYS622 
 ASP623  PHE694  ASN695  SER759  ASP760  ASP761  ALA762  ILE779  LEU786  VAL792 
 PHE793  MET794  SER795  GLU796  ALA797  LYS798  CYS799  TRP800  GLU811  SER814 

> <Gold.Protein.RotatedAtoms>
  152.0929  133.4209  159.4551 H   0  0  0  0  0  0  0  0  0  0  0  0  # atno 6907 bound_to 6896
  150.6862  134.2851  159.4652 H   0  0  0  0  0  0  0  0  0  0  0  0  # atno 6908 bound_to 6896
  152.0704  134.9537  160.0625 H   0  0  0  0  0  0  0  0  0  0  0  0  # atno 6909 bound_to 6896
  144.9029  140.6795  143.5073 H   0  0  0  0  0  0  0  0  0  0  0  0  # atno 7974 bound_to 7965
  155.2603  140.0436  157.2996 H   0  0  0  0  0  0  0  0  0  0  0  0  # atno 8008 bound_to 7997
  154.5714  140.2375  155.8155 H   0  0  0  0  0  0  0  0  0  0  0  0  # atno 8009 bound_to 7997
  156.2126  140.2994  155.9774 H   0  0  0  0  0  0  0  0  0  0  0  0  # atno 8010 bound_to 7997
  139.4837  144.5410  151.7565 H   0  0  0  0  0  0  0  0  0  0  0  0  # atno 10167 bound_to 10162
  156.7536  130.9387  151.3115 H   0  0  0  0  0  0  0  0  0  0  0  0  # atno 10718 bound_to 10713
  154.6678  135.5297  153.8099 H   0  0  0  0  0  0  0  0  0  0  0  0  # atno 10763 bound_to 10752
  153.0482  135.6521  154.0772 H   0  0  0  0  0  0  0  0  0  0  0  0  # atno 10764 bound_to 10752
  154.0674  135.2957  155.3294 H   0  0  0  0  0  0  0  0  0  0  0  0  # atno 10765 bound_to 10752
  139.8863  134.8591  156.3233 H   0  0  0  0  0  0  0  0  0  0  0  0  # atno 11005 bound_to 11000
  145.3585  139.1688  143.4396 LP  0  0  0  0  0  0  0  0  0  0  0  0  # atno 17320 bound_to 7965
  146.3118  140.3644  142.8668 LP  0  0  0  0  0  0  0  0  0  0  0  0  # atno 17321 bound_to 7965
  140.4949  144.1255  150.5958 LP  0  0  0  0  0  0  0  0  0  0  0  0  # atno 17342 bound_to 10162
  140.4129  143.2648  151.9811 LP  0  0  0  0  0  0  0  0  0  0  0  0  # atno 17343 bound_to 10162
  157.6766  130.9100  150.0165 LP  0  0  0  0  0  0  0  0  0  0  0  0  # atno 17370 bound_to 10713
  156.1385  130.3642  149.9619 LP  0  0  0  0  0  0  0  0  0  0  0  0  # atno 17371 bound_to 10713
  140.9772  133.7290  156.0619 LP  0  0  0  0  0  0  0  0  0  0  0  0  # atno 17394 bound_to 11000
  140.7796  134.3741  157.5490 LP  0  0  0  0  0  0  0  0  0  0  0  0  # atno 17395 bound_to 11000

$$$$
