AV-unprocessed.smi:3222|AV-procd|sdf|12305|dock8
  -GOLD-   2272018153D 1   1.00000     0.00000
 Structure written by MMmdl.
 41 42  0  0  0  0  0  0  0  0  2 V2000
  148.9608  141.5188  154.4443 C   0  0  0  0  0  0  0  0  0  0  0  0
  149.2041  141.4144  155.9613 C   0  0  2  0  0  0  0  0  0  0  0  0
  150.3232  142.3130  156.3250 N   0  3  0  0  0  0  0  0  0  0  0  0
  150.5164  142.5108  157.7758 C   0  0  0  0  0  0  0  0  0  0  0  0
  151.9971  142.7567  158.1038 C   0  0  0  0  0  0  0  0  0  0  0  0
  152.1832  143.1354  159.5019 N   0  0  0  0  0  0  0  0  0  0  0  0
  152.9103  142.2711  160.4163 C   0  0  0  0  0  0  0  0  0  0  0  0
  152.7413  142.9184  161.7985 C   0  0  0  0  0  0  0  0  0  0  0  0
  152.1851  144.3226  161.5383 C   0  0  0  0  0  0  0  0  0  0  0  0
  151.7866  144.2786  160.0731 C   0  0  0  0  0  0  0  0  0  0  0  0
  151.1804  145.1929  159.5169 O   0  0  0  0  0  0  0  0  0  0  0  0
  149.4942  139.9627  156.4317 C   0  0  1  0  0  0  0  0  0  0  0  0
  148.2723  139.0323  156.3084 C   0  0  0  0  0  0  0  0  0  0  0  0
  150.6339  139.3787  155.7357 N   0  0  0  0  0  0  0  0  0  0  0  0
  151.9453  139.8081  155.7332 C   0  0  0  0  0  0  0  0  0  0  0  0
  152.6552  138.9481  154.9453 C   0  0  0  0  0  0  0  0  0  0  0  0
  151.6809  138.0096  154.5049 C   0  0  0  0  0  0  0  0  0  0  0  0
  150.4733  138.2689  154.9795 N   0  0  0  0  0  0  0  0  0  0  0  0
  148.0795  140.9576  154.1338 H   0  0  0  0  0  0  0  0  0  0  0  0
  149.8129  141.1404  153.8788 H   0  0  0  0  0  0  0  0  0  0  0  0
  148.7980  142.5549  154.1459 H   0  0  0  0  0  0  0  0  0  0  0  0
  148.2941  141.7643  156.4523 H   0  0  0  0  0  0  0  0  0  0  0  0
  151.1745  141.9428  155.9271 H   0  0  0  0  0  0  0  0  0  0  0  0
  149.9092  143.3580  158.0970 H   0  0  0  0  0  0  0  0  0  0  0  0
  150.1574  141.6344  158.3166 H   0  0  0  0  0  0  0  0  0  0  0  0
  152.5787  141.8579  157.8935 H   0  0  0  0  0  0  0  0  0  0  0  0
  152.4015  143.5421  157.4631 H   0  0  0  0  0  0  0  0  0  0  0  0
  152.5188  141.2532  160.3966 H   0  0  0  0  0  0  0  0  0  0  0  0
  153.9613  142.2403  160.1255 H   0  0  0  0  0  0  0  0  0  0  0  0
  152.0336  142.3445  162.3983 H   0  0  0  0  0  0  0  0  0  0  0  0
  153.6839  142.9499  162.3459 H   0  0  0  0  0  0  0  0  0  0  0  0
  151.3309  144.5520  162.1762 H   0  0  0  0  0  0  0  0  0  0  0  0
  152.9483  145.0875  161.6850 H   0  0  0  0  0  0  0  0  0  0  0  0
  149.7662  140.0035  157.4877 H   0  0  0  0  0  0  0  0  0  0  0  0
  147.4528  139.3596  156.9480 H   0  0  0  0  0  0  0  0  0  0  0  0
  148.5251  138.0149  156.6087 H   0  0  0  0  0  0  0  0  0  0  0  0
  147.9004  138.9926  155.2840 H   0  0  0  0  0  0  0  0  0  0  0  0
  152.2621  140.6806  156.2856 H   0  0  0  0  0  0  0  0  0  0  0  0
  153.7106  138.9831  154.7191 H   0  0  0  0  0  0  0  0  0  0  0  0
  151.8143  137.1539  153.8596 H   0  0  0  0  0  0  0  0  0  0  0  0
  150.1445  143.2177  155.9133 H   0  0  0  0  0  0  0  0  0  0  0  0
  1  2  1  0  0  0  0
  1 19  1  0  0  0  0
  1 20  1  0  0  0  0
  1 21  1  0  0  0  0
  2  3  1  0  0  0  0
  2 12  1  0  0  0  0
  2 22  1  0  0  0  0
  3  4  1  0  0  0  0
  3 23  1  0  0  0  0
  3 41  1  0  0  0  0
  4  5  1  0  0  0  0
  4 24  1  0  0  0  0
  4 25  1  0  0  0  0
  5  6  1  0  0  0  0
  5 26  1  0  0  0  0
  5 27  1  0  0  0  0
  6 10  1  0  0  0  0
  6  7  1  0  0  0  0
  7  8  1  0  0  0  0
  7 28  1  0  0  0  0
  7 29  1  0  0  0  0
  8  9  1  0  0  0  0
  8 30  1  0  0  0  0
  8 31  1  0  0  0  0
  9 10  1  0  0  0  0
  9 32  1  0  0  0  0
  9 33  1  0  0  0  0
 10 11  2  0  0  0  0
 12 13  1  0  0  0  0
 12 14  1  0  0  0  0
 12 34  1  0  0  0  0
 13 35  1  0  0  0  0
 13 36  1  0  0  0  0
 13 37  1  0  0  0  0
 14 18  1  0  0  0  0
 14 15  1  0  0  0  0
 15 16  2  0  0  0  0
 15 38  1  0  0  0  0
 16 17  1  0  0  0  0
 16 39  1  0  0  0  0
 17 18  2  0  0  0  0
 17 40  1  0  0  0  0
M  CHG  1   3   1
M  END
> <s_m_source_file>
AV-unprocessed.smi

> <i_m_source_file_index>
3222

> <i_lp_mmshare_version>
43012

> <i_f3d_flags>
0

> <s_epik_input>
bjFbY0hdW2NIXVtjSF1uMVtDQEBIXShbQ0gzXSlbQ0BIXShbQ0gzXSlbTkhdW0NIMl1bQ0gyXU4yW0NIMl1bQ0gyXVtDSDJdQzI9Tw==

> <s_epik_cmdline>
J2VwaWtfcHl0aG9uJywgJy1waCcsICc3LjAnLCAnLXRuJywgJzgnLCAnLW1hJywgJzIwMCcsICctbWV0YWxfYmluZGluZycsICctaW1hZScsICc8aW5maWxlLm1hZT4nLCAnLW9tYWUnLCAnPG91dGZpbGUubWFlPic=

> <r_lp_tautomer_probability>
1

> <r_epik_Ionization_Penalty>
0.0064019

> <r_epik_Ionization_Penalty_Charging>
0.00639164

> <r_epik_Ionization_Penalty_Neutral>
1.02567e-05

> <r_epik_State_Penalty>
0.00472531

> <r_epik_Charging_Adjusted_Penalty>
0.011117

> <i_epik_Tot_Q>
1

> <i_epik_Tot_abs_Q>
1

> <r_epik_Metal_State_Penalty>
-0

> <b_epik_Metal_Only>
0

> <s_lp_Force_Field>
OPLS_2005

> <r_lp_Energy>
25.0095

> <b_lp_Chiralities_Consistent>
1

> <s_lp_Variant>
AV-unprocessed.smi:3222-3

> <Gold.Version>
5.8.1

> <Gold.Id.Protein>
6NUR|6NUR_protein|mol2

> <Gold.PLP.Fitness>
50.2941

> <Gold.PLP.PLP>
-42.0279

> <Gold.PLP.part.hbond>
-1.0000

> <Gold.PLP.part.metal>
0.0000

> <Gold.PLP.part.buried>
-5.0636

> <Gold.PLP.part.nonpolar>
-36.0896

> <Gold.PLP.part.repulsive>
0.3674

> <Gold.PLP.ligand.clash>
0.0000

> <Gold.PLP.ligand.torsion>
0.4117

> <Gold.PLP.Chemscore.Hbond>
1.9840

> <Gold.PLP.Chemscore.CHOScore>
0.9980

> <Gold.PLP.Chemscore.Metal>
0.0000

> <Gold.Chemscore.Hbonds>
donor molecule, donor type, donor heavy atom, donor atom, acceptor molecule, acceptor atom, score
      L1  H     3    41       P1  8028  1.95
      L1  C    17    40       P1  7949  0.54

> <Gold.PLP.Chemscore.Internal.Correction>
0.1435

> <Gold.Rescore>
     Score         DG    S(hbond)    S(metal)    S(lipo)     H(rot)  DE(clash)    DE(int)     intcor
     14.31     -14.80       0.99        0.00      94.92       1.99       0.01       0.48       ----

> <Gold.Chemscore.Fitness>
14.3087

> <Gold.Chemscore.DG>
-14.7972

> <Gold.Chemscore.ZeroCoef>
-5.4800

> <Gold.Chemscore.Hbond>
0.9915

> <Gold.Chemscore.Metal>
0.0000

> <Gold.Chemscore.Lipo>
94.9215

> <Gold.Chemscore.Internal_Hbond>
0.0000

> <Gold.Chemscore.DEClash>
0.0096

> <Gold.Chemscore.DEInternal>
0.4788

> <Gold.Chemscore.Rot>
1.9922

> <Gold.Chemscore.Internal.Correction>
   9.000000E+99

> <Gold.Chemscore.Hbonds>
donor molecule, donor type, donor heavy atom, donor atom, acceptor molecule, acceptor atom, score
      L1  H     3    41       P1  8028  0.90

> <Gold.Chemscore.Hbond.Weighted>
-3.3115

> <Gold.Chemscore.Metal.Weighted>
-0.0000

> <Gold.Chemscore.Lipo.Weighted>
-11.1058

> <Gold.Chemscore.Internal_Hbond.Weighted>
0.0000

> <Gold.Chemscore.DEClash.Weighted>
0.0096

> <Gold.Chemscore.DEInternal.Weighted>
0.4788

> <Gold.Chemscore.Rot.Weighted>
5.1002

> <Gold.Chemscore.Internal.Correction.Weighted>
   9.000000E+99

> <Gold.Protein.RotatedTorsions>
[ 6907 6896 6895 6894 ] final  -53.93 input  -60.11 | X-H torsion
[ 7974 7965 7964 7962 ] final -109.00 input  175.53 | X-H torsion
[ 8008 7997 7996 7995 ] final  137.67 input   59.86 | X-H torsion
[ 10167 10162 10161 10158 ] final  174.48 input  -65.29 | X-H torsion
[ 10718 10713 10712 10709 ] final   23.05 input   66.30 | X-H torsion
[ 10763 10752 10751 10750 ] final    5.64 input  -60.55 | X-H torsion
[ 11005 11000 10999 10996 ] final -176.54 input  -57.11 | X-H torsion

> <Gold.Protein.ActiveResidues>
 VAL166  LYS551  ARG553  GLY616  TRP617  ASP618  TYR619  PRO620  LYS621  CYS622 
 ASP623  PHE694  ASN695  SER759  ASP760  ASP761  ALA762  ILE779  LEU786  VAL792 
 PHE793  MET794  SER795  GLU796  ALA797  LYS798  CYS799  TRP800  GLU811  SER814 

> <Gold.Protein.RotatedAtoms>
  150.8383  134.7665  159.6910 H   0  0  0  0  0  0  0  0  0  0  0  0  # atno 6907 bound_to 6896
  152.4475  134.5460  159.9863 H   0  0  0  0  0  0  0  0  0  0  0  0  # atno 6908 bound_to 6896
  151.5606  133.3366  159.3006 H   0  0  0  0  0  0  0  0  0  0  0  0  # atno 6909 bound_to 6896
  145.1859  140.8992  143.3453 H   0  0  0  0  0  0  0  0  0  0  0  0  # atno 7974 bound_to 7965
  156.3001  140.2413  156.3948 H   0  0  0  0  0  0  0  0  0  0  0  0  # atno 8008 bound_to 7997
  154.8581  140.0421  157.1667 H   0  0  0  0  0  0  0  0  0  0  0  0  # atno 8009 bound_to 7997
  154.8926  140.2965  155.5366 H   0  0  0  0  0  0  0  0  0  0  0  0  # atno 8010 bound_to 7997
  139.5143  144.3141  152.0264 H   0  0  0  0  0  0  0  0  0  0  0  0  # atno 10167 bound_to 10162
  157.1608  130.6716  149.6043 H   0  0  0  0  0  0  0  0  0  0  0  0  # atno 10718 bound_to 10713
  153.2570  135.6919  153.7618 H   0  0  0  0  0  0  0  0  0  0  0  0  # atno 10763 bound_to 10752
  153.6692  135.3347  155.3149 H   0  0  0  0  0  0  0  0  0  0  0  0  # atno 10764 bound_to 10752
  154.8416  135.4495  154.1547 H   0  0  0  0  0  0  0  0  0  0  0  0  # atno 10765 bound_to 10752
  140.4509  134.6344  157.4801 H   0  0  0  0  0  0  0  0  0  0  0  0  # atno 11005 bound_to 11000
  145.0089  139.3528  143.6130 LP  0  0  0  0  0  0  0  0  0  0  0  0  # atno 17320 bound_to 7965
  146.3445  139.9344  142.8749 LP  0  0  0  0  0  0  0  0  0  0  0  0  # atno 17321 bound_to 7965
  140.2585  144.4093  150.6194 LP  0  0  0  0  0  0  0  0  0  0  0  0  # atno 17342 bound_to 10162
  140.6174  143.2173  151.6763 LP  0  0  0  0  0  0  0  0  0  0  0  0  # atno 17343 bound_to 10162
  155.9754  130.4712  150.6457 LP  0  0  0  0  0  0  0  0  0  0  0  0  # atno 17370 bound_to 10713
  157.4134  131.0827  151.1199 LP  0  0  0  0  0  0  0  0  0  0  0  0  # atno 17371 bound_to 10713
  140.0007  134.6840  155.9534 LP  0  0  0  0  0  0  0  0  0  0  0  0  # atno 17394 bound_to 11000
  141.1664  133.6537  156.4496 LP  0  0  0  0  0  0  0  0  0  0  0  0  # atno 17395 bound_to 11000

$$$$
