AV-unprocessed.smi:1971|AV-procd|sdf|7966|dock9
  -GOLD-   2272010143D 1   1.00000     0.00000
 Structure written by MMmdl.
 43 44  0  0  0  0  0  0  0  0  1 V2000
  152.4855  144.1224  158.3191 C   0  0  0  0  0  0  0  0  0  0  0  0
  152.2588  142.6893  158.8213 C   0  0  0  0  0  0  0  0  0  0  0  0
  151.8985  141.7245  157.7843 N   0  0  0  0  0  0  0  0  0  0  0  0
  150.7323  142.1773  157.0304 C   0  0  0  0  0  0  0  0  0  0  0  0
  150.3527  141.1833  155.9177 C   0  0  0  0  0  0  0  0  0  0  0  0
  150.0476  139.8465  156.4467 N   0  0  0  0  0  0  0  0  0  0  0  0
  149.6779  138.8884  155.3821 C   0  0  2  0  0  0  0  0  0  0  0  0
  150.7832  138.6915  154.3200 C   0  0  0  0  0  0  0  0  0  0  0  0
  148.3521  139.2329  154.6541 C   0  0  0  0  0  0  0  0  0  0  0  0
  147.9366  138.1844  153.7239 N   0  0  0  0  0  0  0  0  0  0  0  0
  146.7423  137.5755  153.7145 C   0  0  0  0  0  0  0  0  0  0  0  0
  145.8365  137.8406  154.5048 O   0  0  0  0  0  0  0  0  0  0  0  0
  146.6769  136.6516  152.7422 N   0  0  0  0  0  0  0  0  0  0  0  0
  145.5786  135.8212  152.4071 C   0  0  0  0  0  0  0  0  0  0  0  0
  144.8721  135.2582  153.3893 N   0  0  0  0  0  0  0  0  0  0  0  0
  143.8279  134.4686  152.8988 C   0  0  0  0  0  0  0  0  0  0  0  0
  143.7530  134.4410  151.5284 C   0  0  0  0  0  0  0  0  0  0  0  0
  144.9979  135.4128  150.7905 S   0  0  0  0  0  0  0  0  0  0  0  0
  151.2155  139.4036  157.2211 C   0  0  0  0  0  0  0  0  0  0  0  0
  151.5940  140.4021  158.3303 C   0  0  0  0  0  0  0  0  0  0  0  0
  152.6399  144.8018  159.1575 H   0  0  0  0  0  0  0  0  0  0  0  0
  151.6241  144.4828  157.7564 H   0  0  0  0  0  0  0  0  0  0  0  0
  153.3635  144.1966  157.6779 H   0  0  0  0  0  0  0  0  0  0  0  0
  153.1453  142.3465  159.3570 H   0  0  0  0  0  0  0  0  0  0  0  0
  151.4576  142.7261  159.5606 H   0  0  0  0  0  0  0  0  0  0  0  0
  149.8829  142.3176  157.7013 H   0  0  0  0  0  0  0  0  0  0  0  0
  150.9384  143.1501  156.5826 H   0  0  0  0  0  0  0  0  0  0  0  0
  149.4885  141.5932  155.3973 H   0  0  0  0  0  0  0  0  0  0  0  0
  151.1611  141.1218  155.1873 H   0  0  0  0  0  0  0  0  0  0  0  0
  149.5246  137.9141  155.8485 H   0  0  0  0  0  0  0  0  0  0  0  0
  150.4294  138.0793  153.4900 H   0  0  0  0  0  0  0  0  0  0  0  0
  151.6543  138.1781  154.7256 H   0  0  0  0  0  0  0  0  0  0  0  0
  151.1163  139.6441  153.9070 H   0  0  0  0  0  0  0  0  0  0  0  0
  147.5675  139.4360  155.3848 H   0  0  0  0  0  0  0  0  0  0  0  0
  148.4453  140.1637  154.0962 H   0  0  0  0  0  0  0  0  0  0  0  0
  148.6221  137.8918  153.0429 H   0  0  0  0  0  0  0  0  0  0  0  0
  147.5010  136.5348  152.1714 H   0  0  0  0  0  0  0  0  0  0  0  0
  143.1831  133.9581  153.5991 H   0  0  0  0  0  0  0  0  0  0  0  0
  143.0439  133.9103  150.9107 H   0  0  0  0  0  0  0  0  0  0  0  0
  151.0141  138.4482  157.7024 H   0  0  0  0  0  0  0  0  0  0  0  0
  152.0682  139.2490  156.5579 H   0  0  0  0  0  0  0  0  0  0  0  0
  152.4561  140.0091  158.8678 H   0  0  0  0  0  0  0  0  0  0  0  0
  150.7799  140.4726  159.0537 H   0  0  0  0  0  0  0  0  0  0  0  0
  1  2  1  0  0  0  0
  1 21  1  0  0  0  0
  1 22  1  0  0  0  0
  1 23  1  0  0  0  0
  2  3  1  0  0  0  0
  2 24  1  0  0  0  0
  2 25  1  0  0  0  0
  3 20  1  0  0  0  0
  3  4  1  0  0  0  0
  4  5  1  0  0  0  0
  4 26  1  0  0  0  0
  4 27  1  0  0  0  0
  5  6  1  0  0  0  0
  5 28  1  0  0  0  0
  5 29  1  0  0  0  0
  6  7  1  0  0  0  0
  6 19  1  0  0  0  0
  7  8  1  0  0  0  0
  7  9  1  0  0  0  0
  7 30  1  0  0  0  0
  8 31  1  0  0  0  0
  8 32  1  0  0  0  0
  8 33  1  0  0  0  0
  9 10  1  0  0  0  0
  9 34  1  0  0  0  0
  9 35  1  0  0  0  0
 10 11  1  0  0  0  0
 10 36  1  0  0  0  0
 11 12  2  0  0  0  0
 11 13  1  0  0  0  0
 13 14  1  0  0  0  0
 13 37  1  0  0  0  0
 14 18  1  0  0  0  0
 14 15  2  0  0  0  0
 15 16  1  0  0  0  0
 16 17  2  0  0  0  0
 16 38  1  0  0  0  0
 17 18  1  0  0  0  0
 17 39  1  0  0  0  0
 19 20  1  0  0  0  0
 19 40  1  0  0  0  0
 19 41  1  0  0  0  0
 20 42  1  0  0  0  0
 20 43  1  0  0  0  0
M  END
> <s_m_source_file>
AV-unprocessed.smi

> <i_m_source_file_index>
1971

> <i_lp_mmshare_version>
43012

> <i_f3d_flags>
0

> <s_epik_input>
W0NIM11bQ0gyXU4xW0NIMl1bQ0gyXU4oW0NIMl1bQ0gyXTEpW0NASF0oW0NIM10pW0NIMl1bTkhdQyg9TylbTkhdYzJuW2NIXVtjSF1zMg==

> <s_epik_cmdline>
J2VwaWtfcHl0aG9uJywgJy1waCcsICc3LjAnLCAnLXRuJywgJzgnLCAnLW1hJywgJzIwMCcsICctbWV0YWxfYmluZGluZycsICctaW1hZScsICc8aW5maWxlLm1hZT4nLCAnLW9tYWUnLCAnPG91dGZpbGUubWFlPic=

> <r_lp_tautomer_probability>
0.999

> <r_epik_Ionization_Penalty>
2.43994

> <r_epik_Ionization_Penalty_Charging>
0

> <r_epik_Ionization_Penalty_Neutral>
2.43994

> <r_epik_State_Penalty>
1.7682

> <r_epik_Charging_Adjusted_Penalty>
1.7682

> <i_epik_Tot_Q>
0

> <i_epik_Tot_abs_Q>
0

> <r_epik_Metal_State_Penalty>
1.80147

> <b_epik_Metal_Only>
0

> <s_lp_Force_Field>
OPLS_2005

> <r_lp_Energy>
42.0055

> <b_lp_Chiralities_Consistent>
1

> <s_lp_Variant>
AV-unprocessed.smi:1971-5

> <Gold.Version>
5.8.1

> <Gold.Id.Protein>
6NUR|6NUR_protein|mol2

> <Gold.PLP.Fitness>
40.9730

> <Gold.PLP.PLP>
-30.4989

> <Gold.PLP.part.hbond>
-1.8807

> <Gold.PLP.part.metal>
0.0000

> <Gold.PLP.part.buried>
-3.9728

> <Gold.PLP.part.nonpolar>
-25.9418

> <Gold.PLP.part.repulsive>
0.1903

> <Gold.PLP.ligand.clash>
0.0000

> <Gold.PLP.ligand.torsion>
0.4005

> <Gold.PLP.Chemscore.Hbond>
1.7429

> <Gold.PLP.Chemscore.CHOScore>
1.9987

> <Gold.PLP.Chemscore.Metal>
0.0000

> <Gold.Chemscore.Hbonds>
donor molecule, donor type, donor heavy atom, donor atom, acceptor molecule, acceptor atom, score
      L1  H    10    36       P1  7948  0.74
      L1  H    13    37       P1  7948  0.93
      L1  C    16    38       P1 10957  0.97
      L1  C    17    39       P1 10186  1.00

> <Gold.PLP.Chemscore.Internal.Correction>
0.0502

> <Gold.Rescore>
     Score         DG    S(hbond)    S(metal)    S(lipo)     H(rot)  DE(clash)    DE(int)     intcor
     15.48     -17.12       1.96        0.00      81.76       1.75       0.11       1.53       ----

> <Gold.Chemscore.Fitness>
15.4848

> <Gold.Chemscore.DG>
-17.1202

> <Gold.Chemscore.ZeroCoef>
-5.4800

> <Gold.Chemscore.Hbond>
1.9603

> <Gold.Chemscore.Metal>
0.0000

> <Gold.Chemscore.Lipo>
81.7603

> <Gold.Chemscore.Internal_Hbond>
0.0000

> <Gold.Chemscore.DEClash>
0.1081

> <Gold.Chemscore.DEInternal>
1.5272

> <Gold.Chemscore.Rot>
1.7473

> <Gold.Chemscore.Internal.Correction>
   9.000000E+99

> <Gold.Chemscore.Hbonds>
donor molecule, donor type, donor heavy atom, donor atom, acceptor molecule, acceptor atom, score
      L1  H    10    36       P1  7948  0.69
      L1  H    13    37       P1  7948  0.88

> <Gold.Chemscore.Hbond.Weighted>
-6.5473

> <Gold.Chemscore.Metal.Weighted>
-0.0000

> <Gold.Chemscore.Lipo.Weighted>
-9.5660

> <Gold.Chemscore.Internal_Hbond.Weighted>
0.0000

> <Gold.Chemscore.DEClash.Weighted>
0.1081

> <Gold.Chemscore.DEInternal.Weighted>
1.5272

> <Gold.Chemscore.Rot.Weighted>
4.4731

> <Gold.Chemscore.Internal.Correction.Weighted>
   9.000000E+99

> <Gold.Protein.RotatedTorsions>
[ 6907 6896 6895 6894 ] final -127.31 input  -60.11 | X-H torsion
[ 7974 7965 7964 7962 ] final -103.15 input  175.53 | X-H torsion
[ 8008 7997 7996 7995 ] final    8.03 input   59.86 | X-H torsion
[ 10167 10162 10161 10158 ] final  -89.94 input  -65.29 | X-H torsion
[ 10718 10713 10712 10709 ] final -141.12 input   66.30 | X-H torsion
[ 10763 10752 10751 10750 ] final   22.97 input  -60.55 | X-H torsion
[ 11005 11000 10999 10996 ] final  171.43 input  -57.11 | X-H torsion

> <Gold.Protein.ActiveResidues>
 VAL166  LYS551  ARG553  GLY616  TRP617  ASP618  TYR619  PRO620  LYS621  CYS622 
 ASP623  PHE694  ASN695  SER759  ASP760  ASP761  ALA762  ILE779  LEU786  VAL792 
 PHE793  MET794  SER795  GLU796  ALA797  LYS798  CYS799  TRP800  GLU811  SER814 

> <Gold.Protein.RotatedAtoms>
  150.9060  133.7057  159.2866 H   0  0  0  0  0  0  0  0  0  0  0  0  # atno 6907 bound_to 6896
  151.4560  135.1033  159.9721 H   0  0  0  0  0  0  0  0  0  0  0  0  # atno 6908 bound_to 6896
  152.4904  133.8435  159.7220 H   0  0  0  0  0  0  0  0  0  0  0  0  # atno 6909 bound_to 6896
  145.2596  140.9265  143.3048 H   0  0  0  0  0  0  0  0  0  0  0  0  # atno 7974 bound_to 7965
  154.7615  140.2785  155.6210 H   0  0  0  0  0  0  0  0  0  0  0  0  # atno 8008 bound_to 7997
  156.2916  140.2659  156.2322 H   0  0  0  0  0  0  0  0  0  0  0  0  # atno 8009 bound_to 7997
  155.0011  140.0373  157.2350 H   0  0  0  0  0  0  0  0  0  0  0  0  # atno 8010 bound_to 7997
  140.3599  143.2847  151.9627 H   0  0  0  0  0  0  0  0  0  0  0  0  # atno 10167 bound_to 10162
  156.3303  130.7582  151.1699 H   0  0  0  0  0  0  0  0  0  0  0  0  # atno 10718 bound_to 10713
  153.0874  135.6637  153.9921 H   0  0  0  0  0  0  0  0  0  0  0  0  # atno 10763 bound_to 10752
  153.9527  135.2982  155.3439 H   0  0  0  0  0  0  0  0  0  0  0  0  # atno 10764 bound_to 10752
  154.7284  135.5134  153.8997 H   0  0  0  0  0  0  0  0  0  0  0  0  # atno 10765 bound_to 10752
  140.3190  134.7453  157.4049 H   0  0  0  0  0  0  0  0  0  0  0  0  # atno 11005 bound_to 11000
  144.9430  139.4168  143.6440 LP  0  0  0  0  0  0  0  0  0  0  0  0  # atno 17320 bound_to 7965
  146.3279  139.8399  142.8892 LP  0  0  0  0  0  0  0  0  0  0  0  0  # atno 17321 bound_to 7965
  139.4815  144.6002  151.7619 LP  0  0  0  0  0  0  0  0  0  0  0  0  # atno 17342 bound_to 10162
  140.5137  144.0985  150.6002 LP  0  0  0  0  0  0  0  0  0  0  0  0  # atno 17343 bound_to 10162
  157.7429  131.0483  150.4988 LP  0  0  0  0  0  0  0  0  0  0  0  0  # atno 17370 bound_to 10713
  156.5153  130.4149  149.6279 LP  0  0  0  0  0  0  0  0  0  0  0  0  # atno 17371 bound_to 10713
  140.0958  134.5539  155.8399 LP  0  0  0  0  0  0  0  0  0  0  0  0  # atno 17394 bound_to 11000
  141.2091  133.6680  156.6416 LP  0  0  0  0  0  0  0  0  0  0  0  0  # atno 17395 bound_to 11000

$$$$
