#       Name:                AV-unprocessed.smi:1487
#       Creating user name   scv26
#       Creation time:       Fri Mar 27 06:10:34 2020


#       File generated by GOLD software.
#

@<TRIPOS>MOLECULE
AV-unprocessed.smi:1487
    53    55     1
SMALL
NO_CHARGES


@<TRIPOS>ATOM
      1 ****        -4.6134   4.1749   2.8470 C.3            1 S1                 0.0000
      2 ****        -3.8673   3.2485   1.9034 C.ar           1 S1                 0.0000
      3 ****        -3.4961   3.7237   0.6255 C.ar           1 S1                 0.0000
      4 ****        -2.8037   2.8936  -0.2828 C.ar           1 S1                 0.0000
      5 ****        -2.3482   3.1476  -1.5653 N.2            1 S1                 0.0000
      6 ****        -1.7880   1.9852  -1.8865 C.2            1 S1                 0.0000
      7 ****        -1.8218   1.0076  -0.9603 N.pl3          1 S1                 0.0000
      8 ****        -1.2795  -0.3339  -1.0846 C.3            1 S1                 0.0000
      9 ****         0.2349  -0.3896  -0.8049 C.3            1 S1                 0.0000
     10 ****         0.4901   0.0918   0.5009 O.3            1 S1                 0.0000
     11 ****         0.7789  -1.8280  -0.9098 C.3            1 S1                 0.0000
     12 ****         2.2566  -1.8897  -0.7690 N.4            1 S1                 1.0000
     13 ****         2.7201  -3.1964  -0.2332 C.3            1 S1                 0.0000
     14 ****         4.2344  -3.1834   0.0370 C.3            1 S1                 0.0000
     15 ****         5.0173  -2.8046  -1.2266 C.3            1 S1                 0.0000
     16 ****         4.5009  -1.4672  -1.7766 C.3            1 S1                 0.0000
     17 ****         5.1623  -1.1693  -2.9878 O.3            1 S1                 0.0000
     18 ****         2.9806  -1.5200  -2.0150 C.3            1 S1                 0.0000
     19 ****        -2.4898   1.5642   0.1255 C.ar           1 S1                 0.0000
     20 ****        -2.8527   1.0803   1.3950 C.ar           1 S1                 0.0000
     21 ****        -3.5451   1.9226   2.2897 C.ar           1 S1                 0.0000
     22 ****        -3.9355   1.3896   3.6569 C.3            1 S1                 0.0000
     23 ****        -4.7253   5.1719   2.4200 H              1 S1                 0.0000
     24 ****        -4.0772   4.2757   3.7908 H              1 S1                 0.0000
     25 ****        -5.6101   3.7843   3.0538 H              1 S1                 0.0000
     26 ****        -3.7424   4.7332   0.3308 H              1 S1                 0.0000
     27 ****        -1.3249   1.8356  -2.8509 H              1 S1                 0.0000
     28 ****        -1.8194  -0.9924  -0.4028 H              1 S1                 0.0000
     29 ****        -1.4893  -0.6935  -2.0928 H              1 S1                 0.0000
     30 ****         0.7424   0.2648  -1.5133 H              1 S1                 0.0000
     31 ****         0.1333   0.9645   0.5748 H              1 S1                 0.0000
     32 ****         0.3060  -2.4305  -0.1321 H              1 S1                 0.0000
     33 ****         0.4886  -2.2814  -1.8589 H              1 S1                 0.0000
     34 ****         2.1962  -3.4200   0.6972 H              1 S1                 0.0000
     35 ****         2.4689  -3.9907  -0.9380 H              1 S1                 0.0000
     36 ****         4.4582  -2.4724   0.8335 H              1 S1                 0.0000
     37 ****         4.5579  -4.1610   0.3958 H              1 S1                 0.0000
     38 ****         6.0828  -2.7388  -1.0023 H              1 S1                 0.0000
     39 ****         4.9024  -3.5891  -1.9761 H              1 S1                 0.0000
     40 ****         4.7277  -0.6700  -1.0671 H              1 S1                 0.0000
     41 ****         5.0133  -1.8750  -3.5987 H              1 S1                 0.0000
     42 ****         2.7455  -2.2444  -2.7969 H              1 S1                 0.0000
     43 ****         2.6414  -0.5487  -2.3742 H              1 S1                 0.0000
     44 ****        -2.6010   0.0690   1.6785 H              1 S1                 0.0000
     45 ****        -3.6380   0.3475   3.7784 H              1 S1                 0.0000
     46 ****        -5.0155   1.4469   3.7958 H              1 S1                 0.0000
     47 ****        -3.4533   1.9693   4.4443 H              1 S1                 0.0000
     48 ****         2.4982  -1.2010  -0.0701 H              1 S1                 0.0000
     49 ****        -2.4213   3.9847  -2.1073 LP             1 S1                 0.0000
     50 ****         1.4763   0.1158   0.6647 LP             1 S1                 0.0000
     51 ****         0.0552  -0.5082   1.1724 LP             1 S1                 0.0000
     52 ****         6.1432  -1.0721  -2.8197 LP             1 S1                 0.0000
     53 ****         4.8027  -0.3162  -3.3658 LP             1 S1                 0.0000
@<TRIPOS>BOND
    1    1    2 1     
    2    1   23 1     
    3    1   24 1     
    4    1   25 1     
    5    2   21 ar    
    6    2    3 ar    
    7    3    4 ar    
    8    3   26 1     
    9    4   19 ar    
   10    4    5 1     
   11    5    6 2     
   12    6    7 1     
   13    6   27 1     
   14    7    8 1     
   15    7   19 1     
   16    8    9 1     
   17    8   28 1     
   18    8   29 1     
   19    9   10 1     
   20    9   11 1     
   21    9   30 1     
   22   10   31 1     
   23   11   12 1     
   24   11   32 1     
   25   11   33 1     
   26   12   18 1     
   27   12   13 1     
   28   12   48 1     
   29   13   14 1     
   30   13   34 1     
   31   13   35 1     
   32   14   15 1     
   33   14   36 1     
   34   14   37 1     
   35   15   16 1     
   36   15   38 1     
   37   15   39 1     
   38   16   17 1     
   39   16   18 1     
   40   16   40 1     
   41   17   41 1     
   42   18   42 1     
   43   18   43 1     
   44   19   20 ar    
   45   20   21 ar    
   46   20   44 1     
   47   21   22 1     
   48   22   45 1     
   49   22   46 1     
   50   22   47 1     
   51    5   49 1     
   52   10   50 1     
   53   10   51 1     
   54   17   52 1     
   55   17   53 1     
@<TRIPOS>SUBSTRUCTURE
      1 S1             1
@<TRIPOS>SET
LONE_PAIRS      STATIC     ATOMS    <user>   **** ""
5 49 50 51 52 53
DONOR_HYDROGENS      STATIC     ATOMS    <user>   **** ""
3 31 48 41
ATOM$BLUE        STATIC     ATOMS    COLORGROUP SYSTEM
5 49 50 51 52 53
ATOM$RED        STATIC     ATOMS    COLORGROUP SYSTEM
3 31 48 41
