AV-unprocessed.smi:1220|AV-procd|sdf|5116|dock9
  -GOLD-   22720 4173D 1   1.00000     0.00000
 Structure written by MMmdl.
 35 36  0  0  0  0  0  0  0  0  1 V2000
  146.4233  133.3949  153.9413 C   0  0  0  0  0  0  0  0  0  0  0  0
  147.4886  133.8879  152.9529 C   0  0  2  0  0  0  0  0  0  0  0  0
  147.5620  132.9804  151.7056 C   0  0  0  0  0  0  0  0  0  0  0  0
  146.2993  132.9075  150.9902 N   0  0  0  0  0  0  0  0  0  0  0  0
  145.9481  132.0667  149.9551 C   0  0  0  0  0  0  0  0  0  0  0  0
  144.6520  132.3449  149.6275 C   0  0  0  0  0  0  0  0  0  0  0  0
  144.2931  133.3891  150.5249 C   0  0  0  0  0  0  0  0  0  0  0  0
  145.2823  133.7271  151.3359 N   0  0  0  0  0  0  0  0  0  0  0  0
  148.7819  133.9426  153.6340 N   0  0  0  0  0  0  0  0  0  0  0  0
  149.4498  132.8879  154.1289 C   0  0  0  0  0  0  0  0  0  0  0  0
  149.0614  131.7256  154.0070 O   0  0  0  0  0  0  0  0  0  0  0  0
  150.7451  133.1979  154.8950 C   0  0  1  0  0  0  0  0  0  0  0  0
  150.4796  134.1601  156.0760 C   0  0  0  0  0  0  0  0  0  0  0  0
  149.9942  133.3626  157.2905 C   0  0  0  0  0  0  0  0  0  0  0  0
  150.8922  131.7709  157.2107 S   0  0  0  0  0  0  0  0  0  0  0  0
  152.0954  131.8520  158.0529 O   0  0  0  0  0  0  0  0  0  0  0  0
  149.9343  130.6658  157.3656 O   0  0  0  0  0  0  0  0  0  0  0  0
  151.3967  131.9136  155.4504 C   0  0  0  0  0  0  0  0  0  0  0  0
  145.4379  133.3708  153.4751 H   0  0  0  0  0  0  0  0  0  0  0  0
  146.3594  134.0511  154.8100 H   0  0  0  0  0  0  0  0  0  0  0  0
  146.6466  132.3891  154.2989 H   0  0  0  0  0  0  0  0  0  0  0  0
  147.1936  134.8901  152.6370 H   0  0  0  0  0  0  0  0  0  0  0  0
  148.3410  133.3276  151.0246 H   0  0  0  0  0  0  0  0  0  0  0  0
  147.8363  131.9662  151.9987 H   0  0  0  0  0  0  0  0  0  0  0  0
  146.6391  131.3421  149.5503 H   0  0  0  0  0  0  0  0  0  0  0  0
  144.0508  131.8726  148.8650 H   0  0  0  0  0  0  0  0  0  0  0  0
  143.3497  133.9078  150.6109 H   0  0  0  0  0  0  0  0  0  0  0  0
  149.1772  134.8602  153.7800 H   0  0  0  0  0  0  0  0  0  0  0  0
  151.4375  133.6714  154.1969 H   0  0  0  0  0  0  0  0  0  0  0  0
  151.4147  134.6586  156.3342 H   0  0  0  0  0  0  0  0  0  0  0  0
  149.7727  134.9493  155.8168 H   0  0  0  0  0  0  0  0  0  0  0  0
  150.1890  133.8615  158.2399 H   0  0  0  0  0  0  0  0  0  0  0  0
  148.9262  133.1551  157.2177 H   0  0  0  0  0  0  0  0  0  0  0  0
  151.1087  131.0077  154.9151 H   0  0  0  0  0  0  0  0  0  0  0  0
  152.4836  131.9882  155.4172 H   0  0  0  0  0  0  0  0  0  0  0  0
  1  2  1  0  0  0  0
  1 19  1  0  0  0  0
  1 20  1  0  0  0  0
  1 21  1  0  0  0  0
  2  3  1  0  0  0  0
  2  9  1  0  0  0  0
  2 22  1  0  0  0  0
  3  4  1  0  0  0  0
  3 23  1  0  0  0  0
  3 24  1  0  0  0  0
  4  8  1  0  0  0  0
  4  5  1  0  0  0  0
  5  6  2  0  0  0  0
  5 25  1  0  0  0  0
  6  7  1  0  0  0  0
  6 26  1  0  0  0  0
  7  8  2  0  0  0  0
  7 27  1  0  0  0  0
  9 10  1  0  0  0  0
  9 28  1  0  0  0  0
 10 11  2  0  0  0  0
 10 12  1  0  0  0  0
 12 18  1  0  0  0  0
 12 13  1  0  0  0  0
 12 29  1  0  0  0  0
 13 14  1  0  0  0  0
 13 30  1  0  0  0  0
 13 31  1  0  0  0  0
 14 15  1  0  0  0  0
 14 32  1  0  0  0  0
 14 33  1  0  0  0  0
 15 16  2  0  0  0  0
 15 17  2  0  0  0  0
 15 18  1  0  0  0  0
 18 34  1  0  0  0  0
 18 35  1  0  0  0  0
M  END
> <s_m_source_file>
AV-unprocessed.smi

> <i_m_source_file_index>
1220

> <i_lp_mmshare_version>
43012

> <i_f3d_flags>
0

> <s_epik_input>
bjFbY0hdW2NIXVtjSF1uMVtDSDJdW0NAQEhdKFtDSDNdKVtOSF1DKD1PKVtDQEBIXShbQ0gyXTIpW0NIMl1bQ0gyXVMyKD1PKT1P

> <s_epik_cmdline>
J2VwaWtfcHl0aG9uJywgJy1waCcsICc3LjAnLCAnLXRuJywgJzgnLCAnLW1hJywgJzIwMCcsICctbWV0YWxfYmluZGluZycsICctaW1hZScsICc8aW5maWxlLm1hZT4nLCAnLW9tYWUnLCAnPG91dGZpbGUubWFlPic=

> <r_lp_tautomer_probability>
1

> <r_epik_Ionization_Penalty>
0.000293905

> <r_epik_Ionization_Penalty_Charging>
0

> <r_epik_Ionization_Penalty_Neutral>
0.000293905

> <r_epik_State_Penalty>
-0

> <r_epik_Charging_Adjusted_Penalty>
0

> <i_epik_Tot_Q>
0

> <i_epik_Tot_abs_Q>
0

> <r_epik_Metal_State_Penalty>
-0

> <b_epik_Metal_Only>
0

> <s_lp_Force_Field>
OPLS_2005

> <r_lp_Energy>
1.9569

> <b_lp_Chiralities_Consistent>
1

> <s_lp_Variant>
AV-unprocessed.smi:1220-3

> <Gold.Version>
5.8.1

> <Gold.Id.Protein>
6NUR|6NUR_protein|mol2

> <Gold.PLP.Fitness>
36.7853

> <Gold.PLP.PLP>
-27.9698

> <Gold.PLP.part.hbond>
-2.0000

> <Gold.PLP.part.metal>
0.0000

> <Gold.PLP.part.buried>
-3.6687

> <Gold.PLP.part.nonpolar>
-22.1885

> <Gold.PLP.part.repulsive>
0.1762

> <Gold.PLP.ligand.clash>
0.0000

> <Gold.PLP.ligand.torsion>
0.0990

> <Gold.PLP.Chemscore.Hbond>
1.0000

> <Gold.PLP.Chemscore.CHOScore>
1.9990

> <Gold.PLP.Chemscore.Metal>
0.0000

> <Gold.Chemscore.Hbonds>
donor molecule, donor type, donor heavy atom, donor atom, acceptor molecule, acceptor atom, score
      L1  H     9    28       P1  7948  0.06
      P1  H  6896  6907       L1    16  1.00
      L1  C     5    25       P1 10747  0.99
      L1  C     7    27       P1 10186  0.78

> <Gold.PLP.Chemscore.Internal.Correction>
0.0166

> <Gold.Rescore>
     Score         DG    S(hbond)    S(metal)    S(lipo)     H(rot)  DE(clash)    DE(int)     intcor
     11.38     -12.87       1.24        0.00      66.03       1.75       0.23       1.27       ----

> <Gold.Chemscore.Fitness>
11.3761

> <Gold.Chemscore.DG>
-12.8689

> <Gold.Chemscore.ZeroCoef>
-5.4800

> <Gold.Chemscore.Hbond>
1.2374

> <Gold.Chemscore.Metal>
0.0000

> <Gold.Chemscore.Lipo>
66.0309

> <Gold.Chemscore.Internal_Hbond>
0.0000

> <Gold.Chemscore.DEClash>
0.2277

> <Gold.Chemscore.DEInternal>
1.2651

> <Gold.Chemscore.Rot>
1.7460

> <Gold.Chemscore.Internal.Correction>
   9.000000E+99

> <Gold.Chemscore.Hbonds>
donor molecule, donor type, donor heavy atom, donor atom, acceptor molecule, acceptor atom, score
      L1  H     9    28       P1  7948  0.01
      P1  H  6896  6907       L1    16  0.50

> <Gold.Chemscore.Hbond.Weighted>
-4.1330

> <Gold.Chemscore.Metal.Weighted>
-0.0000

> <Gold.Chemscore.Lipo.Weighted>
-7.7256

> <Gold.Chemscore.Internal_Hbond.Weighted>
0.0000

> <Gold.Chemscore.DEClash.Weighted>
0.2277

> <Gold.Chemscore.DEInternal.Weighted>
1.2651

> <Gold.Chemscore.Rot.Weighted>
4.4697

> <Gold.Chemscore.Internal.Correction.Weighted>
   9.000000E+99

> <Gold.Protein.RotatedTorsions>
[ 6907 6896 6895 6894 ] final  175.67 input  -60.11 | X-H torsion
[ 7974 7965 7964 7962 ] final   77.79 input  175.53 | X-H torsion
[ 8008 7997 7996 7995 ] final  167.67 input   59.86 | X-H torsion
[ 10167 10162 10161 10158 ] final  -68.63 input  -65.29 | X-H torsion
[ 10718 10713 10712 10709 ] final -166.69 input   66.30 | X-H torsion
[ 10763 10752 10751 10750 ] final   38.34 input  -60.55 | X-H torsion
[ 11005 11000 10999 10996 ] final   88.44 input  -57.11 | X-H torsion

> <Gold.Protein.ActiveResidues>
 VAL166  LYS551  ARG553  GLY616  TRP617  ASP618  TYR619  PRO620  LYS621  CYS622 
 ASP623  PHE694  ASN695  SER759  ASP760  ASP761  ALA762  ILE779  LEU786  VAL792 
 PHE793  MET794  SER795  GLU796  ALA797  LYS798  CYS799  TRP800  GLU811  SER814 

> <Gold.Protein.RotatedAtoms>
  151.7324  133.3318  159.3343 H   0  0  0  0  0  0  0  0  0  0  0  0  # atno 6907 bound_to 6896
  150.7607  134.6351  159.6216 H   0  0  0  0  0  0  0  0  0  0  0  0  # atno 6908 bound_to 6896
  152.3583  134.6911  160.0267 H   0  0  0  0  0  0  0  0  0  0  0  0  # atno 6909 bound_to 6896
  145.6855  139.2536  143.1789 H   0  0  0  0  0  0  0  0  0  0  0  0  # atno 7974 bound_to 7965
  156.1613  140.1610  156.8607 H   0  0  0  0  0  0  0  0  0  0  0  0  # atno 8008 bound_to 7997
  154.5164  140.0788  156.8124 H   0  0  0  0  0  0  0  0  0  0  0  0  # atno 8009 bound_to 7997
  155.3701  140.3400  155.4245 H   0  0  0  0  0  0  0  0  0  0  0  0  # atno 8010 bound_to 7997
  140.5492  143.2312  151.6943 H   0  0  0  0  0  0  0  0  0  0  0  0  # atno 10167 bound_to 10162
  156.6716  130.9086  151.3044 H   0  0  0  0  0  0  0  0  0  0  0  0  # atno 10718 bound_to 10713
  153.0004  135.6252  154.2290 H   0  0  0  0  0  0  0  0  0  0  0  0  # atno 10763 bound_to 10752
  154.2032  135.2803  155.2985 H   0  0  0  0  0  0  0  0  0  0  0  0  # atno 10764 bound_to 10752
  154.5667  135.5689  153.7116 H   0  0  0  0  0  0  0  0  0  0  0  0  # atno 10765 bound_to 10752
  139.8896  134.8488  156.3001 H   0  0  0  0  0  0  0  0  0  0  0  0  # atno 11005 bound_to 11000
  146.0927  140.7637  142.9587 LP  0  0  0  0  0  0  0  0  0  0  0  0  # atno 17320 bound_to 7965
  144.7012  140.3662  143.7154 LP  0  0  0  0  0  0  0  0  0  0  0  0  # atno 17321 bound_to 7965
  139.5020  144.3845  152.0342 LP  0  0  0  0  0  0  0  0  0  0  0  0  # atno 17342 bound_to 10162
  140.2960  144.3700  150.6074 LP  0  0  0  0  0  0  0  0  0  0  0  0  # atno 17343 bound_to 10162
  157.7075  130.9402  150.0979 LP  0  0  0  0  0  0  0  0  0  0  0  0  # atno 17370 bound_to 10713
  156.1934  130.3656  149.8880 LP  0  0  0  0  0  0  0  0  0  0  0  0  # atno 17371 bound_to 10713
  140.9919  133.7203  156.0827 LP  0  0  0  0  0  0  0  0  0  0  0  0  # atno 17394 bound_to 11000
  140.7613  134.3935  157.5525 LP  0  0  0  0  0  0  0  0  0  0  0  0  # atno 17395 bound_to 11000

$$$$
