#       Name:                AV-unprocessed.smi:287
#       Creating user name   scv26
#       Creation time:       Thu Mar 26 22:00:26 2020


#       File generated by GOLD software.
#

@<TRIPOS>MOLECULE
AV-unprocessed.smi:287
    70    73     1
SMALL
NO_CHARGES


@<TRIPOS>ATOM
      1 ****         0.6548   5.3410   3.4342 C.3            1 S1                 0.0000
      2 ****         0.0872   5.0690   2.0834 C.2            1 S1                 0.0000
      3 ****        -0.6177   4.0311   1.5474 C.2            1 S1                 0.0000
      4 ****        -0.8765   4.3515   0.1812 C.2            1 S1                 0.0000
      5 ****        -1.6320   3.4776  -0.8114 C.3            1 S1                 0.0000
      6 ****        -3.1252   3.4397  -0.4454 C.3            1 S1                 0.0000
      7 ****        -1.5853   3.9774  -2.1338 O.3            1 S1                 0.0000
      8 ****        -1.0644   2.0417  -0.8771 C.3            1 S1                 0.0000
      9 ****         0.3918   2.0102  -0.9238 N.pl3          1 S1                 0.0000
     10 ****         1.0653   0.8426  -0.8615 C.ar           1 S1                 0.0000
     11 ****         2.4150   0.9509  -0.8286 N.ar           1 S1                 0.0000
     12 ****         3.1764  -0.1446  -0.7634 C.ar           1 S1                 0.0000
     13 ****         2.7966  -1.4229  -0.7237 N.ar           1 S1                 0.0000
     14 ****         1.4375  -1.5406  -0.7589 C.ar           1 S1                 0.0000
     15 ****         0.5027  -0.4682  -0.8262 C.ar           1 S1                 0.0000
     16 ****        -0.7870  -0.9888  -0.8426 N.2            1 S1                 0.0000
     17 ****        -0.6176  -2.2819  -0.7857 C.2            1 S1                 0.0000
     18 ****         0.6942  -2.7008  -0.7286 N.pl3          1 S1                 0.0000
     19 ****         1.2510  -4.0936  -0.6570 C.3            1 S1                 0.0000
     20 ****         0.3315  -4.9493  -1.2609 O.3            1 S1                 0.0000
     21 ****        -0.4429  -5.6650  -0.2929 C.3            1 S1                 0.0000
     22 ****        -0.1542  -7.1623  -0.5314 C.3            1 S1                 0.0000
     23 ****        -0.8578  -7.6086  -1.6710 O.3            1 S1                 0.0000
     24 ****         0.0107  -5.1107   1.0758 C.3            1 S1                 0.0000
     25 ****         0.0391  -6.0802   2.1055 O.3            1 S1                 0.0000
     26 ****         1.4026  -4.5724   0.7937 C.3            1 S1                 0.0000
     27 ****         1.7512  -3.5481   1.7075 O.3            1 S1                 0.0000
     28 ****        -0.3044   5.5876  -0.0032 C.2            1 S1                 0.0000
     29 ****        -0.1945   6.5184  -1.1658 C.3            1 S1                 0.0000
     30 ****         0.2827   6.0283   1.1445 O.3            1 S1                 0.0000
     31 ****         2.1861  -4.0497  -1.2163 H              1 S1                 0.0000
     32 ****        -1.5066  -5.4665  -0.4314 H              1 S1                 0.0000
     33 ****        -0.6536  -4.2968   1.3710 H              1 S1                 0.0000
     34 ****         2.1443  -5.3724   0.8106 H              1 S1                 0.0000
     35 ****         0.7089   4.4259   4.0240 H              1 S1                 0.0000
     36 ****         0.0358   6.0568   3.9752 H              1 S1                 0.0000
     37 ****         1.6616   5.7524   3.3574 H              1 S1                 0.0000
     38 ****        -0.9113   3.1357   2.0752 H              1 S1                 0.0000
     39 ****        -3.2780   3.0318   0.5545 H              1 S1                 0.0000
     40 ****        -3.6917   2.8186  -1.1406 H              1 S1                 0.0000
     41 ****        -3.5630   4.4388  -0.4622 H              1 S1                 0.0000
     42 ****        -2.0748   3.3932  -2.6922 H              1 S1                 0.0000
     43 ****        -1.3676   1.5099   0.0258 H              1 S1                 0.0000
     44 ****        -1.4853   1.4970  -1.7234 H              1 S1                 0.0000
     45 ****         0.8467   2.9117  -0.9501 H              1 S1                 0.0000
     46 ****         4.2421   0.0285  -0.7387 H              1 S1                 0.0000
     47 ****        -1.4547  -2.9640  -0.7850 H              1 S1                 0.0000
     48 ****         0.9137  -7.3513  -0.6455 H              1 S1                 0.0000
     49 ****        -0.5057  -7.7707   0.3017 H              1 S1                 0.0000
     50 ****        -0.6804  -8.5289  -1.7922 H              1 S1                 0.0000
     51 ****         0.3490  -5.6640   2.8957 H              1 S1                 0.0000
     52 ****         2.5549  -3.1460   1.4139 H              1 S1                 0.0000
     53 ****        -1.1817   6.7754  -1.5499 H              1 S1                 0.0000
     54 ****         0.3757   6.0601  -1.9739 H              1 S1                 0.0000
     55 ****         0.3075   7.4447  -0.8849 H              1 S1                 0.0000
     56 ****        -0.6357   4.0236  -2.4437 LP             1 S1                 0.0000
     57 ****        -1.9905   4.8912  -2.1636 LP             1 S1                 0.0000
     58 ****         2.8430   1.8543  -0.8532 LP             1 S1                 0.0000
     59 ****         3.4279  -2.1968  -0.6744 LP             1 S1                 0.0000
     60 ****        -1.6500  -0.4856  -0.8878 LP             1 S1                 0.0000
     61 ****         0.8259  -5.6063  -1.8300 LP             1 S1                 0.0000
     62 ****        -0.2852  -4.4096  -1.8340 LP             1 S1                 0.0000
     63 ****        -0.5550  -7.0980  -2.4757 LP             1 S1                 0.0000
     64 ****        -1.8390  -7.4690  -1.5375 LP             1 S1                 0.0000
     65 ****         0.6555  -6.8255   1.8516 LP             1 S1                 0.0000
     66 ****        -0.8807  -6.4440   2.2531 LP             1 S1                 0.0000
     67 ****         1.8824  -3.9389   2.6186 LP             1 S1                 0.0000
     68 ****         1.0234  -2.8630   1.7404 LP             1 S1                 0.0000
     69 ****         1.2615   6.1702   0.9970 LP             1 S1                 0.0000
     70 ****        -0.1381   6.8868   1.4378 LP             1 S1                 0.0000
@<TRIPOS>BOND
    1    1    2 1     
    2    1   35 1     
    3    1   36 1     
    4    1   37 1     
    5    2   30 1     
    6    2    3 2     
    7    3    4 1     
    8    3   38 1     
    9    4    5 1     
   10    4   28 2     
   11    5    6 1     
   12    5    7 1     
   13    5    8 1     
   14    6   39 1     
   15    6   40 1     
   16    6   41 1     
   17    7   42 1     
   18    8    9 1     
   19    8   43 1     
   20    8   44 1     
   21    9   10 1     
   22    9   45 1     
   23   10   15 ar    
   24   10   11 ar    
   25   11   12 ar    
   26   12   13 ar    
   27   12   46 1     
   28   13   14 ar    
   29   14   18 1     
   30   14   15 ar    
   31   15   16 1     
   32   16   17 2     
   33   17   18 1     
   34   17   47 1     
   35   18   19 1     
   36   19   31 1     
   37   19   26 1     
   38   19   20 1     
   39   20   21 1     
   40   21   32 1     
   41   21   22 1     
   42   21   24 1     
   43   22   23 1     
   44   22   48 1     
   45   22   49 1     
   46   23   50 1     
   47   24   33 1     
   48   24   25 1     
   49   24   26 1     
   50   25   51 1     
   51   26   34 1     
   52   26   27 1     
   53   27   52 1     
   54   28   29 1     
   55   28   30 1     
   56   29   53 1     
   57   29   54 1     
   58   29   55 1     
   59    7   56 1     
   60    7   57 1     
   61   11   58 1     
   62   13   59 1     
   63   16   60 1     
   64   20   61 1     
   65   20   62 1     
   66   23   63 1     
   67   23   64 1     
   68   25   65 1     
   69   25   66 1     
   70   27   67 1     
   71   27   68 1     
   72   30   69 1     
   73   30   70 1     
@<TRIPOS>SUBSTRUCTURE
      1 S1             1
@<TRIPOS>SET
LONE_PAIRS      STATIC     ATOMS    <user>   **** ""
15 56 57 58 59 60 61 62 63 64 65 66 67 68 69 70
DONOR_HYDROGENS      STATIC     ATOMS    <user>   **** ""
5 42 45 50 51 52
ATOM$BLUE        STATIC     ATOMS    COLORGROUP SYSTEM
15 56 57 58 59 60 61 62 63 64 65 66 67 68 69 70
ATOM$RED        STATIC     ATOMS    COLORGROUP SYSTEM
5 42 45 50 51 52
