AV-unprocessed.smi:2563|AV-procd|sdf|10056|dock6
  -GOLD-   2272014 93D 1   1.00000     0.00000
 Structure written by MMmdl.
 35 36  0  0  0  0  0  0  0  0  2 V2000
  151.4615  143.9541  157.4532 C   0  0  0  0  0  0  0  0  0  0  0  0
  150.7243  142.6324  157.2013 C   0  0  0  0  0  0  0  0  0  0  0  0
  151.6258  141.4828  157.2360 N   0  0  0  0  0  0  0  0  0  0  0  0
  151.7508  140.6501  156.0389 C   0  0  0  0  0  0  0  0  0  0  0  0
  150.3841  140.2343  155.4658 C   0  0  2  0  0  0  0  0  0  0  0  0
  150.5257  139.1317  154.3985 C   0  0  0  0  0  0  0  0  0  0  0  0
  149.2048  138.8086  153.8237 N   0  3  0  0  0  0  0  0  0  0  0  0
  148.5357  140.0107  153.2895 C   0  0  0  0  0  0  0  0  0  0  0  0
  148.4674  141.1011  154.3719 C   0  0  0  0  0  0  0  0  0  0  0  0
  149.7787  141.3722  154.8554 O   0  0  0  0  0  0  0  0  0  0  0  0
  152.3634  141.1710  158.4043 C   0  0  0  0  0  0  0  0  0  0  0  0
  152.3275  141.9949  159.5560 C   0  0  0  0  0  0  0  0  0  0  0  0
  153.0850  141.6053  160.6740 C   0  0  0  0  0  0  0  0  0  0  0  0
  153.8300  140.4186  160.5696 C   0  0  0  0  0  0  0  0  0  0  0  0
  153.8369  139.6642  159.4498 N   0  0  0  0  0  0  0  0  0  0  0  0
  153.1159  140.0392  158.3884 N   0  0  0  0  0  0  0  0  0  0  0  0
  150.7704  144.7957  157.4058 H   0  0  0  0  0  0  0  0  0  0  0  0
  152.2386  144.1215  156.7070 H   0  0  0  0  0  0  0  0  0  0  0  0
  151.9331  143.9680  158.4359 H   0  0  0  0  0  0  0  0  0  0  0  0
  149.9014  142.5052  157.9042 H   0  0  0  0  0  0  0  0  0  0  0  0
  150.2554  142.6761  156.2180 H   0  0  0  0  0  0  0  0  0  0  0  0
  152.3160  141.1930  155.2804 H   0  0  0  0  0  0  0  0  0  0  0  0
  152.3494  139.7677  156.2684 H   0  0  0  0  0  0  0  0  0  0  0  0
  149.7454  139.8699  156.2722 H   0  0  0  0  0  0  0  0  0  0  0  0
  151.1958  139.4556  153.6007 H   0  0  0  0  0  0  0  0  0  0  0  0
  150.9550  138.2286  154.8334 H   0  0  0  0  0  0  0  0  0  0  0  0
  149.3159  138.1280  153.0855 H   0  0  0  0  0  0  0  0  0  0  0  0
  149.0903  140.3741  152.4235 H   0  0  0  0  0  0  0  0  0  0  0  0
  147.5356  139.7470  152.9447 H   0  0  0  0  0  0  0  0  0  0  0  0
  148.0468  142.0171  153.9570 H   0  0  0  0  0  0  0  0  0  0  0  0
  147.8191  140.7965  155.1949 H   0  0  0  0  0  0  0  0  0  0  0  0
  151.7512  142.9059  159.6032 H   0  0  0  0  0  0  0  0  0  0  0  0
  153.0957  142.1955  161.5781 H   0  0  0  0  0  0  0  0  0  0  0  0
  154.4311  140.0684  161.3956 H   0  0  0  0  0  0  0  0  0  0  0  0
  148.6257  138.4136  154.5512 H   0  0  0  0  0  0  0  0  0  0  0  0
  1  2  1  0  0  0  0
  1 17  1  0  0  0  0
  1 18  1  0  0  0  0
  1 19  1  0  0  0  0
  2  3  1  0  0  0  0
  2 20  1  0  0  0  0
  2 21  1  0  0  0  0
  3  4  1  0  0  0  0
  3 11  1  0  0  0  0
  4  5  1  0  0  0  0
  4 22  1  0  0  0  0
  4 23  1  0  0  0  0
  5 10  1  0  0  0  0
  5  6  1  0  0  0  0
  5 24  1  0  0  0  0
  6  7  1  0  0  0  0
  6 25  1  0  0  0  0
  6 26  1  0  0  0  0
  7  8  1  0  0  0  0
  7 27  1  0  0  0  0
  7 35  1  0  0  0  0
  8  9  1  0  0  0  0
  8 28  1  0  0  0  0
  8 29  1  0  0  0  0
  9 10  1  0  0  0  0
  9 30  1  0  0  0  0
  9 31  1  0  0  0  0
 11 16  1  0  0  0  0
 11 12  2  0  0  0  0
 12 13  1  0  0  0  0
 12 32  1  0  0  0  0
 13 14  2  0  0  0  0
 13 33  1  0  0  0  0
 14 15  1  0  0  0  0
 14 34  1  0  0  0  0
 15 16  2  0  0  0  0
M  CHG  1   7   1
M  END
> <s_m_source_file>
AV-unprocessed.smi

> <i_m_source_file_index>
2563

> <i_lp_mmshare_version>
43012

> <i_f3d_flags>
0

> <s_epik_input>
bjFuW2NIXVtjSF1bY0hdYzFOKFtDSDJdW0NIM10pW0NIMl1bQ0BASF0yW0NIMl1bTkhdW0NIMl1bQ0gyXU8y

> <s_epik_cmdline>
J2VwaWtfcHl0aG9uJywgJy1waCcsICc3LjAnLCAnLXRuJywgJzgnLCAnLW1hJywgJzIwMCcsICctbWV0YWxfYmluZGluZycsICctaW1hZScsICc8aW5maWxlLm1hZT4nLCAnLW9tYWUnLCAnPG91dGZpbGUubWFlPic=

> <r_lp_tautomer_probability>
1

> <r_epik_Ionization_Penalty>
0.0472862

> <r_epik_Ionization_Penalty_Charging>
0.0127794

> <r_epik_Ionization_Penalty_Neutral>
0.0345068

> <r_epik_State_Penalty>
0.0614045

> <r_epik_Charging_Adjusted_Penalty>
0.0741839

> <i_epik_Tot_Q>
1

> <i_epik_Tot_abs_Q>
1

> <r_epik_Metal_State_Penalty>
0.0547208

> <b_epik_Metal_Only>
0

> <s_lp_Force_Field>
OPLS_2005

> <r_lp_Energy>
24.8207

> <b_lp_Chiralities_Consistent>
1

> <s_lp_Variant>
AV-unprocessed.smi:2563-1

> <Gold.Version>
5.8.1

> <Gold.Id.Protein>
6NUR|6NUR_protein|mol2

> <Gold.PLP.Fitness>
39.4585

> <Gold.PLP.PLP>
-30.6953

> <Gold.PLP.part.hbond>
-3.7189

> <Gold.PLP.part.metal>
0.0000

> <Gold.PLP.part.buried>
1.0266

> <Gold.PLP.part.nonpolar>
-27.9228

> <Gold.PLP.part.repulsive>
0.1692

> <Gold.PLP.ligand.clash>
0.0000

> <Gold.PLP.ligand.torsion>
0.1841

> <Gold.PLP.Chemscore.Hbond>
3.0374

> <Gold.PLP.Chemscore.CHOScore>
0.0000

> <Gold.PLP.Chemscore.Metal>
0.0000

> <Gold.Chemscore.Hbonds>
donor molecule, donor type, donor heavy atom, donor atom, acceptor molecule, acceptor atom, score
      L1  H     7    27       P1  7948  0.91
      P1  H  7997  8009       L1    16  1.00

> <Gold.PLP.Chemscore.Internal.Correction>
0.0191

> <Gold.Rescore>
     Score         DG    S(hbond)    S(metal)    S(lipo)     H(rot)  DE(clash)    DE(int)     intcor
     13.29     -16.25       1.48        0.00      80.61       1.40       1.65       1.32       ----

> <Gold.Chemscore.Fitness>
13.2884

> <Gold.Chemscore.DG>
-16.2531

> <Gold.Chemscore.ZeroCoef>
-5.4800

> <Gold.Chemscore.Hbond>
1.4772

> <Gold.Chemscore.Metal>
0.0000

> <Gold.Chemscore.Lipo>
80.6132

> <Gold.Chemscore.Internal_Hbond>
0.0000

> <Gold.Chemscore.DEClash>
1.6485

> <Gold.Chemscore.DEInternal>
1.3162

> <Gold.Chemscore.Rot>
1.4033

> <Gold.Chemscore.Internal.Correction>
   9.000000E+99

> <Gold.Chemscore.Hbonds>
donor molecule, donor type, donor heavy atom, donor atom, acceptor molecule, acceptor atom, score
      L1  H     7    27       P1  7948  0.44
      P1  H  7997  8009       L1    16  0.20

> <Gold.Chemscore.Hbond.Weighted>
-4.9338

> <Gold.Chemscore.Metal.Weighted>
-0.0000

> <Gold.Chemscore.Lipo.Weighted>
-9.4317

> <Gold.Chemscore.Internal_Hbond.Weighted>
0.0000

> <Gold.Chemscore.DEClash.Weighted>
1.6485

> <Gold.Chemscore.DEInternal.Weighted>
1.3162

> <Gold.Chemscore.Rot.Weighted>
3.5924

> <Gold.Chemscore.Internal.Correction.Weighted>
   9.000000E+99

> <Gold.Protein.RotatedTorsions>
[ 6907 6896 6895 6894 ] final  -58.09 input  -60.11 | X-H torsion
[ 7974 7965 7964 7962 ] final  108.17 input  175.53 | X-H torsion
[ 8008 7997 7996 7995 ] final  159.77 input   59.86 | X-H torsion
[ 10167 10162 10161 10158 ] final  118.21 input  -65.29 | X-H torsion
[ 10718 10713 10712 10709 ] final   85.96 input   66.30 | X-H torsion
[ 10763 10752 10751 10750 ] final  165.37 input  -60.55 | X-H torsion
[ 11005 11000 10999 10996 ] final   54.86 input  -57.11 | X-H torsion

> <Gold.Protein.ActiveResidues>
 VAL166  LYS551  ARG553  GLY616  TRP617  ASP618  TYR619  PRO620  LYS621  CYS622 
 ASP623  PHE694  ASN695  SER759  ASP760  ASP761  ALA762  ILE779  LEU786  VAL792 
 PHE793  MET794  SER795  GLU796  ALA797  LYS798  CYS799  TRP800  GLU811  SER814 

> <Gold.Protein.RotatedAtoms>
  150.8034  134.7143  159.6621 H   0  0  0  0  0  0  0  0  0  0  0  0  # atno 6907 bound_to 6896
  152.4152  134.6051  160.0020 H   0  0  0  0  0  0  0  0  0  0  0  0  # atno 6908 bound_to 6896
  151.6282  133.3297  159.3139 H   0  0  0  0  0  0  0  0  0  0  0  0  # atno 6909 bound_to 6896
  145.2841  139.2622  143.3900 H   0  0  0  0  0  0  0  0  0  0  0  0  # atno 7974 bound_to 7965
  156.2217  140.1822  156.7461 H   0  0  0  0  0  0  0  0  0  0  0  0  # atno 8008 bound_to 7997
  154.5876  140.0656  156.9221 H   0  0  0  0  0  0  0  0  0  0  0  0  # atno 8009 bound_to 7997
  155.2393  140.3320  155.4296 H   0  0  0  0  0  0  0  0  0  0  0  0  # atno 8010 bound_to 7997
  139.6126  144.7085  151.2809 H   0  0  0  0  0  0  0  0  0  0  0  0  # atno 10167 bound_to 10162
  157.6922  131.0196  150.2900 H   0  0  0  0  0  0  0  0  0  0  0  0  # atno 10718 bound_to 10713
  154.3230  135.2755  155.2510 H   0  0  0  0  0  0  0  0  0  0  0  0  # atno 10763 bound_to 10752
  154.4855  135.5847  153.6424 H   0  0  0  0  0  0  0  0  0  0  0  0  # atno 10764 bound_to 10752
  152.9874  135.6122  154.3416 H   0  0  0  0  0  0  0  0  0  0  0  0  # atno 10765 bound_to 10752
  140.0653  134.5545  155.9106 H   0  0  0  0  0  0  0  0  0  0  0  0  # atno 11005 bound_to 11000
  146.3207  140.3316  142.8641 LP  0  0  0  0  0  0  0  0  0  0  0  0  # atno 17320 bound_to 7965
  144.9228  140.7887  143.5737 LP  0  0  0  0  0  0  0  0  0  0  0  0  # atno 17321 bound_to 7965
  140.7330  143.6808  150.8002 LP  0  0  0  0  0  0  0  0  0  0  0  0  # atno 17342 bound_to 10162
  140.0406  143.5350  152.2719 LP  0  0  0  0  0  0  0  0  0  0  0  0  # atno 17343 bound_to 10162
  156.3433  130.3819  149.7391 LP  0  0  0  0  0  0  0  0  0  0  0  0  # atno 17370 bound_to 10713
  156.4892  130.8077  151.3088 LP  0  0  0  0  0  0  0  0  0  0  0  0  # atno 17371 bound_to 10713
  141.1990  133.6604  156.5821 LP  0  0  0  0  0  0  0  0  0  0  0  0  # atno 17394 bound_to 11000
  140.3709  134.7607  157.4597 LP  0  0  0  0  0  0  0  0  0  0  0  0  # atno 17395 bound_to 11000

$$$$
