AV-unprocessed.smi:2339|AV-procd|sdf|9341|dock5
  -GOLD-   2272012563D 1   1.00000     0.00000
 Structure written by MMmdl.
 49 52  0  0  0  0  0  0  0  0  1 V2000
  148.8496  131.1932  160.5189 C   0  0  0  0  0  0  0  0  0  0  0  0
  147.4716  131.8121  160.7777 C   0  0  0  0  0  0  0  0  0  0  0  0
  147.5629  133.2410  161.0413 N   0  0  0  0  0  0  0  0  0  0  0  0
  147.1597  133.7790  162.2590 C   0  0  0  0  0  0  0  0  0  0  0  0
  147.1795  135.0949  162.5465 C   0  0  0  0  0  0  0  0  0  0  0  0
  147.6488  136.0517  161.5242 C   0  0  0  0  0  0  0  0  0  0  0  0
  147.6916  137.2601  161.7561 O   0  0  0  0  0  0  0  0  0  0  0  0
  148.0640  135.4779  160.2172 C   0  0  0  0  0  0  0  0  0  0  0  0
  148.5116  136.3968  159.2555 N   0  0  0  0  0  0  0  0  0  0  0  0
  149.6893  137.0473  159.1646 C   0  0  0  0  0  0  0  0  0  0  0  0
  150.6463  136.9008  159.9215 O   0  0  0  0  0  0  0  0  0  0  0  0
  149.7449  137.9128  158.1374 N   0  0  0  0  0  0  0  0  0  0  0  0
  150.8761  138.7757  157.7582 C   0  0  1  0  0  0  0  0  0  0  0  0
  151.3365  138.6109  156.3044 C   0  0  1  0  0  0  0  0  0  0  0  0
  151.2066  137.5611  155.2594 C   0  0  0  0  0  0  0  0  0  0  0  0
  150.9008  138.5050  154.0674 C   0  0  0  0  0  0  0  0  0  0  0  0
  150.6774  139.8164  154.6448 O   0  0  0  0  0  0  0  0  0  0  0  0
  150.1997  139.5455  155.9489 C   0  0  2  0  0  0  0  0  0  0  0  0
  150.4640  140.2313  157.3107 C   0  0  0  0  0  0  0  0  0  0  0  0
  151.5456  141.3311  157.3367 C   0  0  0  0  0  0  0  0  0  0  0  0
  150.9881  142.5414  158.0880 C   0  0  0  0  0  0  0  0  0  0  0  0
  149.4776  142.3911  157.9852 C   0  0  0  0  0  0  0  0  0  0  0  0
  149.2632  140.8808  158.0091 C   0  0  0  0  0  0  0  0  0  0  0  0
  147.9974  134.1312  160.0613 C   0  0  0  0  0  0  0  0  0  0  0  0
  148.7630  130.1250  160.3199 H   0  0  0  0  0  0  0  0  0  0  0  0
  149.5063  131.3197  161.3800 H   0  0  0  0  0  0  0  0  0  0  0  0
  149.3332  131.6543  159.6571 H   0  0  0  0  0  0  0  0  0  0  0  0
  146.8212  131.6418  159.9189 H   0  0  0  0  0  0  0  0  0  0  0  0
  146.9955  131.3153  161.6239 H   0  0  0  0  0  0  0  0  0  0  0  0
  146.8256  133.0472  162.9804 H   0  0  0  0  0  0  0  0  0  0  0  0
  146.8594  135.4674  163.5084 H   0  0  0  0  0  0  0  0  0  0  0  0
  147.8364  136.6043  158.5337 H   0  0  0  0  0  0  0  0  0  0  0  0
  148.9213  137.9830  157.5573 H   0  0  0  0  0  0  0  0  0  0  0  0
  151.6937  138.7685  158.4809 H   0  0  0  0  0  0  0  0  0  0  0  0
  152.3150  139.0916  156.2029 H   0  0  0  0  0  0  0  0  0  0  0  0
  152.1222  136.9862  155.1189 H   0  0  0  0  0  0  0  0  0  0  0  0
  150.3803  136.8775  155.4578 H   0  0  0  0  0  0  0  0  0  0  0  0
  151.7302  138.5519  153.3612 H   0  0  0  0  0  0  0  0  0  0  0  0
  150.0140  138.1716  153.5272 H   0  0  0  0  0  0  0  0  0  0  0  0
  149.2177  139.0638  155.9026 H   0  0  0  0  0  0  0  0  0  0  0  0
  152.4716  140.9890  157.8001 H   0  0  0  0  0  0  0  0  0  0  0  0
  151.8009  141.6320  156.3198 H   0  0  0  0  0  0  0  0  0  0  0  0
  151.2885  142.4915  159.1355 H   0  0  0  0  0  0  0  0  0  0  0  0
  151.3453  143.4893  157.6843 H   0  0  0  0  0  0  0  0  0  0  0  0
  148.9458  142.9071  158.7852 H   0  0  0  0  0  0  0  0  0  0  0  0
  149.1308  142.7967  157.0340 H   0  0  0  0  0  0  0  0  0  0  0  0
  148.3140  140.6119  157.5442 H   0  0  0  0  0  0  0  0  0  0  0  0
  149.2109  140.5473  159.0464 H   0  0  0  0  0  0  0  0  0  0  0  0
  148.2951  133.6283  159.1553 H   0  0  0  0  0  0  0  0  0  0  0  0
  1  2  1  0  0  0  0
  1 25  1  0  0  0  0
  1 26  1  0  0  0  0
  1 27  1  0  0  0  0
  2  3  1  0  0  0  0
  2 28  1  0  0  0  0
  2 29  1  0  0  0  0
  3 24  1  0  0  0  0
  3  4  1  0  0  0  0
  4  5  2  0  0  0  0
  4 30  1  0  0  0  0
  5  6  1  0  0  0  0
  5 31  1  0  0  0  0
  6  7  2  0  0  0  0
  6  8  1  0  0  0  0
  8  9  1  0  0  0  0
  8 24  2  0  0  0  0
  9 10  1  0  0  0  0
  9 32  1  0  0  0  0
 10 11  2  0  0  0  0
 10 12  1  0  0  0  0
 12 13  1  0  0  0  0
 12 33  1  0  0  0  0
 13 19  1  0  0  0  0
 13 14  1  0  0  0  0
 13 34  1  0  0  0  0
 14 18  1  0  0  0  0
 14 15  1  0  0  0  0
 14 35  1  0  0  0  0
 15 16  1  0  0  0  0
 15 36  1  0  0  0  0
 15 37  1  0  0  0  0
 16 17  1  0  0  0  0
 16 38  1  0  0  0  0
 16 39  1  0  0  0  0
 17 18  1  0  0  0  0
 18 19  1  0  0  0  0
 18 40  1  0  0  0  0
 19 23  1  0  0  0  0
 19 20  1  0  0  0  0
 20 21  1  0  0  0  0
 20 41  1  0  0  0  0
 20 42  1  0  0  0  0
 21 22  1  0  0  0  0
 21 43  1  0  0  0  0
 21 44  1  0  0  0  0
 22 23  1  0  0  0  0
 22 45  1  0  0  0  0
 22 46  1  0  0  0  0
 23 47  1  0  0  0  0
 23 48  1  0  0  0  0
 24 49  1  0  0  0  0
M  END
> <s_m_source_file>
AV-unprocessed.smi

> <i_m_source_file_index>
2339

> <i_lp_mmshare_version>
43012

> <i_f3d_flags>
0

> <s_epik_input>
W0NIM11bQ0gyXW4xW2NIXVtjSF1jKD1PKWMoW2NIXTEpW05IXUMoPU8pW05IXVtDQEBIXTJbQ0BASF0oW0NIMl1bQ0gyXU8zKVtDQEBIXTNDMjRbQ0gyXVtDSDJdW0NIMl1bQ0gyXTQ=

> <s_epik_cmdline>
J2VwaWtfcHl0aG9uJywgJy1waCcsICc3LjAnLCAnLXRuJywgJzgnLCAnLW1hJywgJzIwMCcsICctbWV0YWxfYmluZGluZycsICctaW1hZScsICc8aW5maWxlLm1hZT4nLCAnLW9tYWUnLCAnPG91dGZpbGUubWFlPic=

> <r_lp_tautomer_probability>
1

> <r_epik_Ionization_Penalty>
0.00145966

> <r_epik_Ionization_Penalty_Charging>
0.00143969

> <r_epik_Ionization_Penalty_Neutral>
1.99697e-05

> <r_epik_State_Penalty>
0.000961843

> <r_epik_Charging_Adjusted_Penalty>
0.00240153

> <i_epik_Tot_Q>
0

> <i_epik_Tot_abs_Q>
0

> <r_epik_Metal_State_Penalty>
-0

> <b_epik_Metal_Only>
0

> <s_lp_Force_Field>
OPLS_2005

> <r_lp_Energy>
82.1358

> <b_lp_Chiralities_Consistent>
1

> <s_lp_Variant>
AV-unprocessed.smi:2339-6

> <Gold.Version>
5.8.1

> <Gold.Id.Protein>
6NUR|6NUR_protein|mol2

> <Gold.PLP.Fitness>
48.9182

> <Gold.PLP.PLP>
-39.3509

> <Gold.PLP.part.hbond>
-4.1433

> <Gold.PLP.part.metal>
0.0000

> <Gold.PLP.part.buried>
-6.0053

> <Gold.PLP.part.nonpolar>
-29.5738

> <Gold.PLP.part.repulsive>
0.3531

> <Gold.PLP.ligand.clash>
0.0000

> <Gold.PLP.ligand.torsion>
0.8749

> <Gold.PLP.Chemscore.Hbond>
3.6800

> <Gold.PLP.Chemscore.CHOScore>
0.0000

> <Gold.PLP.Chemscore.Metal>
0.0000

> <Gold.Chemscore.Hbonds>
donor molecule, donor type, donor heavy atom, donor atom, acceptor molecule, acceptor atom, score
      P1  H  6896  6909       L1    11  1.00
      P1  H  6931  6943       L1     7  0.99
      P1  H  6934  6947       L1     7  0.69
      P1  H  7989  7998       L1    17  1.00

> <Gold.PLP.Chemscore.Internal.Correction>
0.2770

> <Gold.Rescore>
     Score         DG    S(hbond)    S(metal)    S(lipo)     H(rot)  DE(clash)    DE(int)     intcor
     23.95     -24.91       3.68        0.00      86.44       1.17       0.04       0.92       ----

> <Gold.Chemscore.Fitness>
23.9484

> <Gold.Chemscore.DG>
-24.9076

> <Gold.Chemscore.ZeroCoef>
-5.4800

> <Gold.Chemscore.Hbond>
3.6832

> <Gold.Chemscore.Metal>
0.0000

> <Gold.Chemscore.Lipo>
86.4386

> <Gold.Chemscore.Internal_Hbond>
0.0000

> <Gold.Chemscore.DEClash>
0.0391

> <Gold.Chemscore.DEInternal>
0.9202

> <Gold.Chemscore.Rot>
1.1670

> <Gold.Chemscore.Internal.Correction>
   9.000000E+99

> <Gold.Chemscore.Hbonds>
donor molecule, donor type, donor heavy atom, donor atom, acceptor molecule, acceptor atom, score
      P1  H  6896  6909       L1    11  0.33
      P1  H  6931  6943       L1     7  0.93
      P1  H  6934  6947       L1     7  0.65
      P1  H  7989  7998       L1    17  0.30

> <Gold.Chemscore.Hbond.Weighted>
-12.3017

> <Gold.Chemscore.Metal.Weighted>
-0.0000

> <Gold.Chemscore.Lipo.Weighted>
-10.1133

> <Gold.Chemscore.Internal_Hbond.Weighted>
0.0000

> <Gold.Chemscore.DEClash.Weighted>
0.0391

> <Gold.Chemscore.DEInternal.Weighted>
0.9202

> <Gold.Chemscore.Rot.Weighted>
2.9874

> <Gold.Chemscore.Internal.Correction.Weighted>
   9.000000E+99

> <Gold.Protein.RotatedTorsions>
[ 6907 6896 6895 6894 ] final   80.98 input  -60.11 | X-H torsion
[ 7974 7965 7964 7962 ] final   56.77 input  175.53 | X-H torsion
[ 8008 7997 7996 7995 ] final -112.56 input   59.86 | X-H torsion
[ 10167 10162 10161 10158 ] final -149.40 input  -65.29 | X-H torsion
[ 10718 10713 10712 10709 ] final   95.37 input   66.30 | X-H torsion
[ 10763 10752 10751 10750 ] final  158.87 input  -60.55 | X-H torsion
[ 11005 11000 10999 10996 ] final -126.37 input  -57.11 | X-H torsion

> <Gold.Protein.ActiveResidues>
 VAL166  LYS551  ARG553  GLY616  TRP617  ASP618  TYR619  PRO620  LYS621  CYS622 
 ASP623  PHE694  ASN695  SER759  ASP760  ASP761  ALA762  ILE779  LEU786  VAL792 
 PHE793  MET794  SER795  GLU796  ALA797  LYS798  CYS799  TRP800  GLU811  SER814 

> <Gold.Protein.RotatedAtoms>
  152.5253  134.3275  159.9170 H   0  0  0  0  0  0  0  0  0  0  0  0  # atno 6907 bound_to 6896
  151.3224  133.4028  159.2663 H   0  0  0  0  0  0  0  0  0  0  0  0  # atno 6908 bound_to 6896
  150.9948  134.9291  159.7978 H   0  0  0  0  0  0  0  0  0  0  0  0  # atno 6909 bound_to 6896
  145.9363  139.3850  143.0391 H   0  0  0  0  0  0  0  0  0  0  0  0  # atno 7974 bound_to 7965
  155.0072  140.0394  157.2384 H   0  0  0  0  0  0  0  0  0  0  0  0  # atno 8008 bound_to 7997
  154.7492  140.2763  155.6284 H   0  0  0  0  0  0  0  0  0  0  0  0  # atno 8009 bound_to 7997
  156.2881  140.2650  156.2241 H   0  0  0  0  0  0  0  0  0  0  0  0  # atno 8010 bound_to 7997
  139.7446  143.8610  152.2571 H   0  0  0  0  0  0  0  0  0  0  0  0  # atno 10167 bound_to 10162
  157.6939  131.0543  150.4329 H   0  0  0  0  0  0  0  0  0  0  0  0  # atno 10718 bound_to 10713
  154.2228  135.2781  155.2918 H   0  0  0  0  0  0  0  0  0  0  0  0  # atno 10763 bound_to 10752
  154.5688  135.5625  153.7079 H   0  0  0  0  0  0  0  0  0  0  0  0  # atno 10764 bound_to 10752
  153.0038  135.6316  154.2368 H   0  0  0  0  0  0  0  0  0  0  0  0  # atno 10765 bound_to 10752
  140.9687  134.0836  157.3892 H   0  0  0  0  0  0  0  0  0  0  0  0  # atno 11005 bound_to 11000
  145.8360  140.9606  143.0824 LP  0  0  0  0  0  0  0  0  0  0  0  0  # atno 17320 bound_to 7965
  144.6772  140.0223  143.7483 LP  0  0  0  0  0  0  0  0  0  0  0  0  # atno 17321 bound_to 7965
  139.8571  144.7136  150.9144 LP  0  0  0  0  0  0  0  0  0  0  0  0  # atno 17342 bound_to 10162
  140.7790  143.3849  151.1411 LP  0  0  0  0  0  0  0  0  0  0  0  0  # atno 17343 bound_to 10162
  156.4694  130.4049  149.6527 LP  0  0  0  0  0  0  0  0  0  0  0  0  # atno 17370 bound_to 10713
  156.3613  130.7483  151.2455 LP  0  0  0  0  0  0  0  0  0  0  0  0  # atno 17371 bound_to 10713
  139.8904  135.0112  156.6734 LP  0  0  0  0  0  0  0  0  0  0  0  0  # atno 17394 bound_to 11000
  140.7361  133.9018  155.8245 LP  0  0  0  0  0  0  0  0  0  0  0  0  # atno 17395 bound_to 11000

$$$$
