AV-unprocessed.smi:77|AV-procd|sdf|773|dock2
  -GOLD-   2262017123D 1   1.00000     0.00000
 Structure written by MMmdl.
 57 61  0  0  0  0  0  0  0  0  1 V2000
  147.7470  132.2907  154.8864 O   0  0  0  0  0  0  0  0  0  0  0  0
  147.9576  132.2815  153.6723 C   0  0  0  0  0  0  0  0  0  0  0  0
  147.7545  133.5441  152.8242 C   0  0  0  0  0  0  0  0  0  0  0  0
  146.4515  134.1849  153.0445 N   0  0  0  0  0  0  0  0  0  0  0  0
  146.4419  135.5089  153.3720 C   0  0  0  0  0  0  0  0  0  0  0  0
  145.6774  136.3645  152.6396 N   0  0  0  0  0  0  0  0  0  0  0  0
  145.6424  137.6684  152.9255 C   0  0  0  0  0  0  0  0  0  0  0  0
  146.2846  138.3268  153.8901 N   0  0  0  0  0  0  0  0  0  0  0  0
  147.0513  137.4817  154.6358 C   0  0  0  0  0  0  0  0  0  0  0  0
  147.1876  136.0750  154.4503 C   0  0  0  0  0  0  0  0  0  0  0  0
  148.0473  135.5636  155.4172 N   0  0  0  0  0  0  0  0  0  0  0  0
  148.3986  136.6008  156.1256 C   0  0  0  0  0  0  0  0  0  0  0  0
  147.8429  137.7936  155.7273 N   0  0  0  0  0  0  0  0  0  0  0  0
  148.0603  139.0957  156.3340 C   0  0  0  0  0  0  0  0  0  0  0  0
  149.0046  140.0104  155.5130 C   0  0  2  0  0  0  0  0  0  0  0  0
  148.4141  140.3141  154.1114 C   0  0  0  0  0  0  0  0  0  0  0  0
  149.2353  141.1947  153.3737 O   0  0  0  0  0  0  0  0  0  0  0  0
  150.4215  139.3768  155.4336 C   0  0  1  0  0  0  0  0  0  0  0  0
  150.7698  138.6873  154.1253 C   0  0  0  0  0  0  0  0  0  0  0  0
  152.2894  138.6051  154.1974 C   0  0  0  0  0  0  0  0  0  0  0  0
  152.6980  139.7820  154.8823 O   0  0  0  0  0  0  0  0  0  0  0  0
  151.5781  140.3813  155.5269 C   0  0  0  0  0  0  0  0  0  0  0  0
  145.3165  133.6498  152.2923 C   0  0  0  0  0  0  0  0  0  0  0  0
  145.5364  132.4835  151.3535 C   0  0  0  0  0  0  0  0  0  0  0  0
  145.2607  133.8590  150.7959 C   0  0  0  0  0  0  0  0  0  0  0  0
  148.3771  131.1962  153.0063 N   0  0  0  0  0  0  0  0  0  0  0  0
  148.6400  129.9186  153.5852 C   0  0  0  0  0  0  0  0  0  0  0  0
  150.0682  129.4190  153.5621 C   0  0  0  0  0  0  0  0  0  0  0  0
  149.0433  128.7942  152.6563 C   0  0  0  0  0  0  0  0  0  0  0  0
  148.5768  134.2378  153.0061 H   0  0  0  0  0  0  0  0  0  0  0  0
  147.8377  133.2635  151.7729 H   0  0  0  0  0  0  0  0  0  0  0  0
  145.0077  138.2689  152.2907 H   0  0  0  0  0  0  0  0  0  0  0  0
  149.0735  136.5233  156.9657 H   0  0  0  0  0  0  0  0  0  0  0  0
  147.0807  139.5582  156.4538 H   0  0  0  0  0  0  0  0  0  0  0  0
  148.4567  138.9529  157.3401 H   0  0  0  0  0  0  0  0  0  0  0  0
  149.0827  140.9555  156.0534 H   0  0  0  0  0  0  0  0  0  0  0  0
  148.2606  139.3940  153.5470 H   0  0  0  0  0  0  0  0  0  0  0  0
  147.4439  140.8032  154.1811 H   0  0  0  0  0  0  0  0  0  0  0  0
  149.1824  140.9594  152.4599 H   0  0  0  0  0  0  0  0  0  0  0  0
  150.5337  138.6498  156.2400 H   0  0  0  0  0  0  0  0  0  0  0  0
  150.3111  137.7041  154.0189 H   0  0  0  0  0  0  0  0  0  0  0  0
  150.4680  139.3024  153.2761 H   0  0  0  0  0  0  0  0  0  0  0  0
  152.5951  137.7375  154.7837 H   0  0  0  0  0  0  0  0  0  0  0  0
  152.7531  138.5310  153.2135 H   0  0  0  0  0  0  0  0  0  0  0  0
  151.3351  141.3026  154.9959 H   0  0  0  0  0  0  0  0  0  0  0  0
  151.8206  140.6414  156.5576 H   0  0  0  0  0  0  0  0  0  0  0  0
  144.3589  133.6722  152.8095 H   0  0  0  0  0  0  0  0  0  0  0  0
  146.5484  132.0961  151.2522 H   0  0  0  0  0  0  0  0  0  0  0  0
  144.7438  131.7417  151.2826 H   0  0  0  0  0  0  0  0  0  0  0  0
  144.2833  134.0356  150.3520 H   0  0  0  0  0  0  0  0  0  0  0  0
  146.0891  134.3750  150.3154 H   0  0  0  0  0  0  0  0  0  0  0  0
  148.5248  131.2823  152.0111 H   0  0  0  0  0  0  0  0  0  0  0  0
  148.0514  129.6333  154.4562 H   0  0  0  0  0  0  0  0  0  0  0  0
  150.8231  130.0545  153.1028 H   0  0  0  0  0  0  0  0  0  0  0  0
  150.4083  128.8339  154.4142 H   0  0  0  0  0  0  0  0  0  0  0  0
  148.6978  127.7924  152.9034 H   0  0  0  0  0  0  0  0  0  0  0  0
  149.1130  129.0127  151.5922 H   0  0  0  0  0  0  0  0  0  0  0  0
  1  2  2  0  0  0  0
  2  3  1  0  0  0  0
  2 26  1  0  0  0  0
  3  4  1  0  0  0  0
  3 30  1  0  0  0  0
  3 31  1  0  0  0  0
  4  5  1  0  0  0  0
  4 23  1  0  0  0  0
  5 10  1  0  0  0  0
  5  6  2  0  0  0  0
  6  7  1  0  0  0  0
  7  8  2  0  0  0  0
  7 32  1  0  0  0  0
  8  9  1  0  0  0  0
  9 13  1  0  0  0  0
  9 10  2  0  0  0  0
 10 11  1  0  0  0  0
 11 12  2  0  0  0  0
 12 13  1  0  0  0  0
 12 33  1  0  0  0  0
 13 14  1  0  0  0  0
 14 15  1  0  0  0  0
 14 34  1  0  0  0  0
 14 35  1  0  0  0  0
 15 16  1  0  0  0  0
 15 18  1  0  0  0  0
 15 36  1  0  0  0  0
 16 17  1  0  0  0  0
 16 37  1  0  0  0  0
 16 38  1  0  0  0  0
 17 39  1  0  0  0  0
 18 22  1  0  0  0  0
 18 19  1  0  0  0  0
 18 40  1  0  0  0  0
 19 20  1  0  0  0  0
 19 41  1  0  0  0  0
 19 42  1  0  0  0  0
 20 21  1  0  0  0  0
 20 43  1  0  0  0  0
 20 44  1  0  0  0  0
 21 22  1  0  0  0  0
 22 45  1  0  0  0  0
 22 46  1  0  0  0  0
 23 25  1  0  0  0  0
 23 24  1  0  0  0  0
 23 47  1  0  0  0  0
 24 25  1  0  0  0  0
 24 48  1  0  0  0  0
 24 49  1  0  0  0  0
 25 50  1  0  0  0  0
 25 51  1  0  0  0  0
 26 27  1  0  0  0  0
 26 52  1  0  0  0  0
 27 29  1  0  0  0  0
 27 28  1  0  0  0  0
 27 53  1  0  0  0  0
 28 29  1  0  0  0  0
 28 54  1  0  0  0  0
 28 55  1  0  0  0  0
 29 56  1  0  0  0  0
 29 57  1  0  0  0  0
M  END
> <s_m_source_file>
AV-unprocessed.smi

> <i_m_source_file_index>
77

> <i_lp_mmshare_version>
43012

> <i_f3d_flags>
0

> <s_epik_input>
W0NIMl0xW0NIMl1bQ0hdMVtOSF1DKD1PKVtDSDJdTihbQ0hdMltDSDJdW0NIMl0yKWMobltjSF1uMyljKGMzNCluW2NIXW40W0NIMl1bQ0BIXShbQ0gyXVtPSF0pW0NAQEhdNVtDSDJdW0NIMl1PW0NIMl01

> <s_epik_cmdline>
J2VwaWtfcHl0aG9uJywgJy1waCcsICc3LjAnLCAnLXRuJywgJzgnLCAnLW1hJywgJzIwMCcsICctbWV0YWxfYmluZGluZycsICctaW1hZScsICc8aW5maWxlLm1hZT4nLCAnLW9tYWUnLCAnPG91dGZpbGUubWFlPic=

> <r_lp_tautomer_probability>
1

> <r_epik_Ionization_Penalty>
0.000703847

> <r_epik_Ionization_Penalty_Charging>
0

> <r_epik_Ionization_Penalty_Neutral>
0.000703847

> <r_epik_State_Penalty>
0.00034025

> <r_epik_Charging_Adjusted_Penalty>
0.00034025

> <i_epik_Tot_Q>
0

> <i_epik_Tot_abs_Q>
0

> <r_epik_Metal_State_Penalty>
-0

> <b_epik_Metal_Only>
0

> <s_lp_Force_Field>
OPLS_2005

> <r_lp_Energy>
53.8068

> <b_lp_Chiralities_Consistent>
1

> <s_lp_Variant>
AV-unprocessed.smi:77-3

> <Gold.Version>
5.8.1

> <Gold.Id.Protein>
6NUR|6NUR_protein|mol2

> <Gold.PLP.Fitness>
49.3651

> <Gold.PLP.PLP>
-37.3878

> <Gold.PLP.part.hbond>
-5.7064

> <Gold.PLP.part.metal>
0.0000

> <Gold.PLP.part.buried>
-2.0324

> <Gold.PLP.part.nonpolar>
-29.2646

> <Gold.PLP.part.repulsive>
0.4328

> <Gold.PLP.ligand.clash>
0.0000

> <Gold.PLP.ligand.torsion>
2.5177

> <Gold.PLP.Chemscore.Hbond>
3.0386

> <Gold.PLP.Chemscore.CHOScore>
1.9827

> <Gold.PLP.Chemscore.Metal>
0.0000

> <Gold.Chemscore.Hbonds>
donor molecule, donor type, donor heavy atom, donor atom, acceptor molecule, acceptor atom, score
      L1  H    17    39       P1  7957  1.00
      L1  H    26    52       P1 10747  1.00
      P1  H  7989  7998       L1    17  0.01
      P1  H  7997  8008       L1    21  0.89
      L1  C     7    32       P1 10171  0.48
      L1  C     7    32       P1 10175  0.92

> <Gold.PLP.Chemscore.Internal.Correction>
1.9488

> <Gold.Rescore>
     Score         DG    S(hbond)    S(metal)    S(lipo)     H(rot)  DE(clash)    DE(int)     intcor
     11.95     -15.49       2.96        0.00      76.99       3.47       0.02       3.52       ----

> <Gold.Chemscore.Fitness>
11.9458

> <Gold.Chemscore.DG>
-15.4870

> <Gold.Chemscore.ZeroCoef>
-5.4800

> <Gold.Chemscore.Hbond>
2.9584

> <Gold.Chemscore.Metal>
0.0000

> <Gold.Chemscore.Lipo>
76.9913

> <Gold.Chemscore.Internal_Hbond>
0.0000

> <Gold.Chemscore.DEClash>
0.0214

> <Gold.Chemscore.DEInternal>
3.5199

> <Gold.Chemscore.Rot>
3.4695

> <Gold.Chemscore.Internal.Correction>
   9.000000E+99

> <Gold.Chemscore.Hbonds>
donor molecule, donor type, donor heavy atom, donor atom, acceptor molecule, acceptor atom, score
      L1  H    17    39       P1  7957  0.97
      L1  H    26    52       P1 10747  0.98
      P1  H  7997  8008       L1    21  0.56

> <Gold.Chemscore.Hbond.Weighted>
-9.8810

> <Gold.Chemscore.Metal.Weighted>
-0.0000

> <Gold.Chemscore.Lipo.Weighted>
-9.0080

> <Gold.Chemscore.Internal_Hbond.Weighted>
0.0000

> <Gold.Chemscore.DEClash.Weighted>
0.0214

> <Gold.Chemscore.DEInternal.Weighted>
3.5199

> <Gold.Chemscore.Rot.Weighted>
8.8820

> <Gold.Chemscore.Internal.Correction.Weighted>
   9.000000E+99

> <Gold.Protein.RotatedTorsions>
[ 6907 6896 6895 6894 ] final  146.52 input  -60.11 | X-H torsion
[ 7974 7965 7964 7962 ] final  134.41 input  175.53 | X-H torsion
[ 8008 7997 7996 7995 ] final  -24.31 input   59.86 | X-H torsion
[ 10167 10162 10161 10158 ] final  122.67 input  -65.29 | X-H torsion
[ 10718 10713 10712 10709 ] final  120.11 input   66.30 | X-H torsion
[ 10763 10752 10751 10750 ] final  100.47 input  -60.55 | X-H torsion
[ 11005 11000 10999 10996 ] final  -66.57 input  -57.11 | X-H torsion

> <Gold.Protein.ActiveResidues>
 VAL166  LYS551  ARG553  GLY616  TRP617  ASP618  TYR619  PRO620  LYS621  CYS622 
 ASP623  PHE694  ASN695  SER759  ASP760  ASP761  ALA762  ILE779  LEU786  VAL792 
 PHE793  MET794  SER795  GLU796  ALA797  LYS798  CYS799  TRP800  GLU811  SER814 

> <Gold.Protein.RotatedAtoms>
  152.1668  133.4617  159.4888 H   0  0  0  0  0  0  0  0  0  0  0  0  # atno 6907 bound_to 6896
  150.6914  134.2003  159.4328 H   0  0  0  0  0  0  0  0  0  0  0  0  # atno 6908 bound_to 6896
  151.9908  134.9980  160.0612 H   0  0  0  0  0  0  0  0  0  0  0  0  # atno 6909 bound_to 6896
  144.9766  139.4548  143.5406 H   0  0  0  0  0  0  0  0  0  0  0  0  # atno 7974 bound_to 7965
  154.4536  140.1957  156.0444 H   0  0  0  0  0  0  0  0  0  0  0  0  # atno 8008 bound_to 7997
  156.0701  140.3285  155.7537 H   0  0  0  0  0  0  0  0  0  0  0  0  # atno 8009 bound_to 7997
  155.5277  140.0575  157.2885 H   0  0  0  0  0  0  0  0  0  0  0  0  # atno 8010 bound_to 7997
  139.5845  144.7000  151.3444 H   0  0  0  0  0  0  0  0  0  0  0  0  # atno 10167 bound_to 10162
  157.5914  131.1064  150.7990 H   0  0  0  0  0  0  0  0  0  0  0  0  # atno 10718 bound_to 10713
  153.3143  135.4078  155.1363 H   0  0  0  0  0  0  0  0  0  0  0  0  # atno 10763 bound_to 10752
  154.8584  135.3572  154.5681 H   0  0  0  0  0  0  0  0  0  0  0  0  # atno 10764 bound_to 10752
  153.6111  135.7068  153.5405 H   0  0  0  0  0  0  0  0  0  0  0  0  # atno 10765 bound_to 10752
  141.1485  133.6702  156.6159 H   0  0  0  0  0  0  0  0  0  0  0  0  # atno 11005 bound_to 11000
  146.3397  139.9013  142.8794 LP  0  0  0  0  0  0  0  0  0  0  0  0  # atno 17320 bound_to 7965
  145.2481  141.0034  143.3897 LP  0  0  0  0  0  0  0  0  0  0  0  0  # atno 17321 bound_to 7965
  140.7119  143.7369  150.7582 LP  0  0  0  0  0  0  0  0  0  0  0  0  # atno 17342 bound_to 10162
  140.0910  143.4878  152.2479 LP  0  0  0  0  0  0  0  0  0  0  0  0  # atno 17343 bound_to 10162
  156.8411  130.5048  149.5321 LP  0  0  0  0  0  0  0  0  0  0  0  0  # atno 17370 bound_to 10713
  156.0969  130.5939  150.9829 LP  0  0  0  0  0  0  0  0  0  0  0  0  # atno 17371 bound_to 10713
  140.3578  134.7713  157.4512 LP  0  0  0  0  0  0  0  0  0  0  0  0  # atno 17394 bound_to 11000
  140.0809  134.5732  155.8542 LP  0  0  0  0  0  0  0  0  0  0  0  0  # atno 17395 bound_to 11000

$$$$
