#       Name:                AV-unprocessed.smi:2305
#       Creating user name   scv26
#       Creation time:       Fri Mar 27 12:46:42 2020


#       File generated by GOLD software.
#

@<TRIPOS>MOLECULE
AV-unprocessed.smi:2305
    45    46     1
SMALL
NO_CHARGES


@<TRIPOS>ATOM
      1 ****        -3.5832   3.9438  -0.5673 C.3            1 S1                 0.0000
      2 ****        -3.1630   2.5538  -0.1238 C.2            1 S1                 0.0000
      3 ****        -3.4074   1.5277  -1.0406 N.2            1 S1                 0.0000
      4 ****        -3.0736   0.3124  -0.7530 C.2            1 S1                 0.0000
      5 ****        -2.4635  -0.0168   0.4699 N.am           1 S1                 0.0000
      6 ****        -2.1263  -1.4371   0.6790 C.3            1 S1                 0.0000
      7 ****        -0.6103  -1.7255   0.5780 C.3            1 S1                 0.0000
      8 ****        -0.4108  -3.0864   0.9012 O.3            1 S1                 0.0000
      9 ****        -0.0136  -1.4516  -0.8177 C.3            1 S1                 0.0000
     10 ****         1.5046  -1.4497  -0.8154 C.ar           1 S1                 0.0000
     11 ****         2.2088  -0.3277  -0.3326 C.ar           1 S1                 0.0000
     12 ****         3.6171  -0.3227  -0.3269 C.ar           1 S1                 0.0000
     13 ****         4.3360  -1.4392  -0.8080 C.ar           1 S1                 0.0000
     14 ****         5.8575  -1.4546  -0.8067 C.3            1 S1                 0.0000
     15 ****         6.2882  -2.2922   0.1360 F              1 S1                 0.0000
     16 ****         6.3089  -1.8709  -1.9901 F              1 S1                 0.0000
     17 ****         6.3651  -0.2450  -0.5667 F              1 S1                 0.0000
     18 ****         3.6272  -2.5616  -1.2871 C.ar           1 S1                 0.0000
     19 ****         2.2189  -2.5676  -1.2926 C.ar           1 S1                 0.0000
     20 ****        -2.2096   0.9208   1.4285 C.2            1 S1                 0.0000
     21 ****        -1.6977   0.6199   2.5084 O.2            1 S1                 0.0000
     22 ****        -2.5839   2.3013   1.0816 C.2            1 S1                 0.0000
     23 ****        -2.2878   3.3787   2.1173 C.3            1 S1                 0.0000
     24 ****        -4.3049   4.3670   0.1317 H              1 S1                 0.0000
     25 ****        -4.0482   3.9225  -1.5535 H              1 S1                 0.0000
     26 ****        -2.7182   4.6053  -0.6199 H              1 S1                 0.0000
     27 ****        -3.2387  -0.5207  -1.4382 H              1 S1                 0.0000
     28 ****        -2.4875  -1.7366   1.6651 H              1 S1                 0.0000
     29 ****        -2.6639  -2.0845  -0.0170 H              1 S1                 0.0000
     30 ****        -0.0833  -1.1282   1.3224 H              1 S1                 0.0000
     31 ****         0.5186  -3.2590   0.9071 H              1 S1                 0.0000
     32 ****        -0.3917  -2.1703  -1.5463 H              1 S1                 0.0000
     33 ****        -0.3255  -0.4706  -1.1750 H              1 S1                 0.0000
     34 ****         1.6694   0.5322   0.0377 H              1 S1                 0.0000
     35 ****         4.1379   0.5446   0.0507 H              1 S1                 0.0000
     36 ****         4.1656  -3.4239  -1.6520 H              1 S1                 0.0000
     37 ****         1.6898  -3.4341  -1.6617 H              1 S1                 0.0000
     38 ****        -1.2199   3.4061   2.3363 H              1 S1                 0.0000
     39 ****        -2.8180   3.1644   3.0458 H              1 S1                 0.0000
     40 ****        -2.5812   4.3762   1.7949 H              1 S1                 0.0000
     41 ****        -3.8402   1.7334  -1.9183 LP             1 S1                 0.0000
     42 ****        -0.8573  -3.6646   0.2183 LP             1 S1                 0.0000
     43 ****        -0.7957  -3.2790   1.8039 LP             1 S1                 0.0000
     44 ****        -1.4575  -0.3317   2.7000 LP             1 S1                 0.0000
     45 ****        -1.5227   1.3273   3.1931 LP             1 S1                 0.0000
@<TRIPOS>BOND
    1    1    2 1     
    2    1   24 1     
    3    1   25 1     
    4    1   26 1     
    5    2   22 2     
    6    2    3 1     
    7    3    4 2     
    8    4    5 1     
    9    4   27 1     
   10    5    6 1     
   11    5   20 am    
   12    6    7 1     
   13    6   28 1     
   14    6   29 1     
   15    7    8 1     
   16    7    9 1     
   17    7   30 1     
   18    8   31 1     
   19    9   10 1     
   20    9   32 1     
   21    9   33 1     
   22   10   19 ar    
   23   10   11 ar    
   24   11   12 ar    
   25   11   34 1     
   26   12   13 ar    
   27   12   35 1     
   28   13   14 1     
   29   13   18 ar    
   30   14   15 1     
   31   14   16 1     
   32   14   17 1     
   33   18   19 ar    
   34   18   36 1     
   35   19   37 1     
   36   20   21 2     
   37   20   22 1     
   38   22   23 1     
   39   23   38 1     
   40   23   39 1     
   41   23   40 1     
   42    3   41 1     
   43    8   42 1     
   44    8   43 1     
   45   21   44 1     
   46   21   45 1     
@<TRIPOS>SUBSTRUCTURE
      1 S1             1
@<TRIPOS>SET
LONE_PAIRS      STATIC     ATOMS    <user>   **** ""
5 41 42 43 44 45
DONOR_HYDROGENS      STATIC     ATOMS    <user>   **** ""
1 31
ATOM$BLUE        STATIC     ATOMS    COLORGROUP SYSTEM
5 41 42 43 44 45
ATOM$RED        STATIC     ATOMS    COLORGROUP SYSTEM
1 31
