#       Name:                AV-unprocessed.smi:172
#       Creating user name   scv26
#       Creation time:       Thu Mar 26 19:19:08 2020


#       File generated by GOLD software.
#

@<TRIPOS>MOLECULE
AV-unprocessed.smi:172
    64    68     1
SMALL
NO_CHARGES


@<TRIPOS>ATOM
      1 ****        -2.8308   2.8554   0.8814 O.3            1 S1                 0.0000
      2 ****        -4.1626   2.4166   1.0669 C.3            1 S1                 0.0000
      3 ****        -4.6173   1.4193  -0.0179 C.3            1 S1                 0.0000
      4 ****        -4.0871   0.0006   0.2831 C.3            1 S1                 0.0000
      5 ****        -2.6445  -0.0926   0.4404 N.pl3          1 S1                 0.0000
      6 ****        -1.9526  -0.1673   1.6296 C.2            1 S1                 0.0000
      7 ****        -0.6541  -0.2318   1.5175 N.2            1 S1                 0.0000
      8 ****        -0.4374  -0.2123   0.1465 C.ar           1 S1                 0.0000
      9 ****         0.7255  -0.2448  -0.6663 C.ar           1 S1                 0.0000
     10 ****         1.9704  -0.2900  -0.1333 N.3            1 S1                 0.0000
     11 ****         2.6642   0.9973  -0.2760 C.3            1 S1                 0.0000
     12 ****         1.8721   2.1990   0.2242 C.3            1 S1                 0.0000
     13 ****         2.5917   3.4420   0.6919 C.3            1 S1                 0.0000
     14 ****         1.8696   2.5681   1.6886 C.3            1 S1                 0.0000
     15 ****         2.7107  -1.5213  -0.4720 C.3            1 S1                 0.0000
     16 ****         1.8843  -2.8052  -0.1755 C.3            1 S1                 0.0000
     17 ****         2.6556  -4.0915  -0.5072 C.3            1 S1                 0.0000
     18 ****         3.9868  -4.1513   0.2498 C.3            1 S1                 0.0000
     19 ****         4.8309  -2.9077  -0.0510 C.3            1 S1                 0.0000
     20 ****         4.0661  -1.6147   0.2754 C.3            1 S1                 0.0000
     21 ****         0.5640  -0.2122  -2.0155 N.ar           1 S1                 0.0000
     22 ****        -0.6657  -0.1531  -2.5356 C.ar           1 S1                 0.0000
     23 ****        -1.8401  -0.1118  -1.9015 N.ar           1 S1                 0.0000
     24 ****        -1.6764  -0.1383  -0.5476 C.ar           1 S1                 0.0000
     25 ****        -6.1226   1.4753  -0.3191 C.3            1 S1                 0.0000
     26 ****        -5.9130   2.2560  -1.5137 O.3            1 S1                 0.0000
     27 ****        -4.5115   1.9165  -1.4692 C.3            1 S1                 0.0000
     28 ****        -2.6227   3.4816   1.5580 H              1 S1                 0.0000
     29 ****        -4.2553   1.9824   2.0628 H              1 S1                 0.0000
     30 ****        -4.7947   3.3052   1.0611 H              1 S1                 0.0000
     31 ****        -4.5508  -0.3871   1.1910 H              1 S1                 0.0000
     32 ****        -4.3763  -0.6908  -0.5096 H              1 S1                 0.0000
     33 ****        -2.4452  -0.1578   2.5910 H              1 S1                 0.0000
     34 ****         3.5978   0.9780   0.2828 H              1 S1                 0.0000
     35 ****         2.9275   1.1573  -1.3225 H              1 S1                 0.0000
     36 ****         0.9501   2.3899  -0.3223 H              1 S1                 0.0000
     37 ****         3.6797   3.4254   0.7065 H              1 S1                 0.0000
     38 ****         2.1431   4.4031   0.4487 H              1 S1                 0.0000
     39 ****         0.9360   2.9393   2.1062 H              1 S1                 0.0000
     40 ****         2.4746   1.9643   2.3621 H              1 S1                 0.0000
     41 ****         2.9238  -1.4933  -1.5419 H              1 S1                 0.0000
     42 ****         1.5942  -2.8181   0.8761 H              1 S1                 0.0000
     43 ****         0.9570  -2.8195  -0.7486 H              1 S1                 0.0000
     44 ****         2.0486  -4.9623  -0.2583 H              1 S1                 0.0000
     45 ****         2.8410  -4.1401  -1.5809 H              1 S1                 0.0000
     46 ****         3.7988  -4.2195   1.3221 H              1 S1                 0.0000
     47 ****         4.5352  -5.0517  -0.0286 H              1 S1                 0.0000
     48 ****         5.7592  -2.9432   0.5199 H              1 S1                 0.0000
     49 ****         5.1164  -2.9056  -1.1037 H              1 S1                 0.0000
     50 ****         4.7160  -0.7824   0.0090 H              1 S1                 0.0000
     51 ****         3.8993  -1.5508   1.3516 H              1 S1                 0.0000
     52 ****        -0.7161  -0.1322  -3.6141 H              1 S1                 0.0000
     53 ****        -6.5669   0.5045  -0.5458 H              1 S1                 0.0000
     54 ****        -6.7121   2.0032   0.4313 H              1 S1                 0.0000
     55 ****        -3.8655   2.7843  -1.6056 H              1 S1                 0.0000
     56 ****        -4.2694   1.1360  -2.1914 H              1 S1                 0.0000
     57 ****        -2.7401   3.2867  -0.0163 LP             1 S1                 0.0000
     58 ****        -2.2077   2.0755   0.9409 LP             1 S1                 0.0000
     59 ****         0.0262  -0.2833   2.2486 LP             1 S1                 0.0000
     60 ****         1.8947  -0.3938   0.8584 LP             1 S1                 0.0000
     61 ****         1.3626  -0.2324  -2.6170 LP             1 S1                 0.0000
     62 ****        -2.7272  -0.0671  -2.3610 LP             1 S1                 0.0000
     63 ****        -6.1028   3.2318  -1.4051 LP             1 S1                 0.0000
     64 ****        -6.3938   1.9106  -2.3196 LP             1 S1                 0.0000
@<TRIPOS>BOND
    1    1    2 1     
    2    1   28 1     
    3    2    3 1     
    4    2   29 1     
    5    2   30 1     
    6    3   27 1     
    7    3    4 1     
    8    3   25 1     
    9    4    5 1     
   10    4   31 1     
   11    4   32 1     
   12    5   24 1     
   13    5    6 1     
   14    6    7 2     
   15    6   33 1     
   16    7    8 1     
   17    8   24 ar    
   18    8    9 ar    
   19    9   10 1     
   20    9   21 ar    
   21   10   11 1     
   22   10   15 1     
   23   11   12 1     
   24   11   34 1     
   25   11   35 1     
   26   12   14 1     
   27   12   13 1     
   28   12   36 1     
   29   13   14 1     
   30   13   37 1     
   31   13   38 1     
   32   14   39 1     
   33   14   40 1     
   34   15   20 1     
   35   15   16 1     
   36   15   41 1     
   37   16   17 1     
   38   16   42 1     
   39   16   43 1     
   40   17   18 1     
   41   17   44 1     
   42   17   45 1     
   43   18   19 1     
   44   18   46 1     
   45   18   47 1     
   46   19   20 1     
   47   19   48 1     
   48   19   49 1     
   49   20   50 1     
   50   20   51 1     
   51   21   22 ar    
   52   22   23 ar    
   53   22   52 1     
   54   23   24 ar    
   55   25   26 1     
   56   25   53 1     
   57   25   54 1     
   58   26   27 1     
   59   27   55 1     
   60   27   56 1     
   61    1   57 1     
   62    1   58 1     
   63    7   59 1     
   64   10   60 1     
   65   21   61 1     
   66   23   62 1     
   67   26   63 1     
   68   26   64 1     
@<TRIPOS>SUBSTRUCTURE
      1 S1             1
@<TRIPOS>SET
LONE_PAIRS      STATIC     ATOMS    <user>   **** ""
8 57 58 59 60 61 62 63 64
DONOR_HYDROGENS      STATIC     ATOMS    <user>   **** ""
1 28
ATOM$BLUE        STATIC     ATOMS    COLORGROUP SYSTEM
8 57 58 59 60 61 62 63 64
ATOM$RED        STATIC     ATOMS    COLORGROUP SYSTEM
1 28
