AV-unprocessed.smi:170|AV-procd|sdf|1412|dock8
  -GOLD-   2262019173D 1   1.00000     0.00000
 Structure written by MMmdl.
 57 61  0  0  0  0  0  0  0  0  1 V2000
  142.6588  133.6916  152.6194 O   0  0  0  0  0  0  0  0  0  0  0  0
  143.8458  134.4522  152.4903 C   0  0  2  0  0  0  0  0  0  0  0  0
  143.5402  135.9619  152.5438 C   0  0  0  0  0  0  0  0  0  0  0  0
  144.6943  136.7426  152.9529 N   0  0  0  0  0  0  0  0  0  0  0  0
  145.4545  137.5675  152.1549 C   0  0  0  0  0  0  0  0  0  0  0  0
  146.4540  138.1555  152.7545 N   0  0  0  0  0  0  0  0  0  0  0  0
  146.3746  137.6991  154.0644 C   0  0  0  0  0  0  0  0  0  0  0  0
  147.1457  137.9241  155.2351 C   0  0  0  0  0  0  0  0  0  0  0  0
  148.2171  138.7525  155.2349 N   0  0  0  0  0  0  0  0  0  0  0  0
  149.3606  138.0844  154.6227 C   0  0  0  0  0  0  0  0  0  0  0  0
  150.6253  138.9389  154.7720 C   0  0  0  0  0  0  0  0  0  0  0  0
  150.3863  140.2147  154.1952 O   0  0  0  0  0  0  0  0  0  0  0  0
  149.3428  140.9102  154.8666 C   0  0  0  0  0  0  0  0  0  0  0  0
  148.0095  140.1304  154.7662 C   0  0  2  0  0  0  0  0  0  0  0  0
  146.8807  140.8516  155.5504 C   0  0  0  0  0  0  0  0  0  0  0  0
  146.6023  142.2781  155.0794 C   0  0  0  0  0  0  0  0  0  0  0  0
  145.2334  142.9175  155.3561 C   0  0  0  0  0  0  0  0  0  0  0  0
  145.3545  143.6453  154.0141 C   0  0  0  0  0  0  0  0  0  0  0  0
  146.3467  142.5588  153.5906 C   0  0  0  0  0  0  0  0  0  0  0  0
  146.7567  137.3024  156.3805 N   0  0  0  0  0  0  0  0  0  0  0  0
  145.6920  136.4943  156.3736 C   0  0  0  0  0  0  0  0  0  0  0  0
  144.8880  136.1803  155.3548 N   0  0  0  0  0  0  0  0  0  0  0  0
  145.2702  136.8143  154.2089 C   0  0  0  0  0  0  0  0  0  0  0  0
  144.6097  134.0361  151.2166 C   0  0  1  0  0  0  0  0  0  0  0  0
  146.0170  133.4587  151.4455 C   0  0  0  0  0  0  0  0  0  0  0  0
  145.9038  132.0345  150.9358 C   0  0  0  0  0  0  0  0  0  0  0  0
  144.7990  132.1501  149.8945 C   0  0  0  0  0  0  0  0  0  0  0  0
  143.8784  133.0455  150.4971 O   0  0  0  0  0  0  0  0  0  0  0  0
  142.6397  133.3152  153.4864 H   0  0  0  0  0  0  0  0  0  0  0  0
  144.4677  134.1985  153.3498 H   0  0  0  0  0  0  0  0  0  0  0  0
  143.2177  136.3161  151.5640 H   0  0  0  0  0  0  0  0  0  0  0  0
  142.7203  136.1657  153.2337 H   0  0  0  0  0  0  0  0  0  0  0  0
  145.2457  137.7155  151.1052 H   0  0  0  0  0  0  0  0  0  0  0  0
  149.5220  137.1097  155.0859 H   0  0  0  0  0  0  0  0  0  0  0  0
  149.1555  137.9083  153.5654 H   0  0  0  0  0  0  0  0  0  0  0  0
  150.9090  139.0417  155.8206 H   0  0  0  0  0  0  0  0  0  0  0  0
  151.4619  138.4658  154.2577 H   0  0  0  0  0  0  0  0  0  0  0  0
  149.6203  141.0768  155.9091 H   0  0  0  0  0  0  0  0  0  0  0  0
  149.2522  141.8916  154.4022 H   0  0  0  0  0  0  0  0  0  0  0  0
  147.7300  140.0853  153.7125 H   0  0  0  0  0  0  0  0  0  0  0  0
  145.9542  140.2827  155.4794 H   0  0  0  0  0  0  0  0  0  0  0  0
  147.1319  140.8618  156.6116 H   0  0  0  0  0  0  0  0  0  0  0  0
  147.3727  142.9641  155.4366 H   0  0  0  0  0  0  0  0  0  0  0  0
  144.4183  142.1918  155.3674 H   0  0  0  0  0  0  0  0  0  0  0  0
  145.2021  143.5702  156.2290 H   0  0  0  0  0  0  0  0  0  0  0  0
  144.4359  143.6803  153.4278 H   0  0  0  0  0  0  0  0  0  0  0  0
  145.8171  144.6293  154.1057 H   0  0  0  0  0  0  0  0  0  0  0  0
  147.2154  142.9201  153.0392 H   0  0  0  0  0  0  0  0  0  0  0  0
  145.8644  141.7241  153.0789 H   0  0  0  0  0  0  0  0  0  0  0  0
  145.4489  136.0342  157.3201 H   0  0  0  0  0  0  0  0  0  0  0  0
  144.6987  134.9062  150.5642 H   0  0  0  0  0  0  0  0  0  0  0  0
  146.7432  134.0107  150.8473 H   0  0  0  0  0  0  0  0  0  0  0  0
  146.3475  133.5027  152.4837 H   0  0  0  0  0  0  0  0  0  0  0  0
  146.8385  131.6499  150.5272 H   0  0  0  0  0  0  0  0  0  0  0  0
  145.5848  131.3737  151.7430 H   0  0  0  0  0  0  0  0  0  0  0  0
  145.1799  132.5850  148.9688 H   0  0  0  0  0  0  0  0  0  0  0  0
  144.3346  131.1916  149.6616 H   0  0  0  0  0  0  0  0  0  0  0  0
  1  2  1  0  0  0  0
  1 29  1  0  0  0  0
  2  3  1  0  0  0  0
  2 24  1  0  0  0  0
  2 30  1  0  0  0  0
  3  4  1  0  0  0  0
  3 31  1  0  0  0  0
  3 32  1  0  0  0  0
  4 23  1  0  0  0  0
  4  5  1  0  0  0  0
  5  6  2  0  0  0  0
  5 33  1  0  0  0  0
  6  7  1  0  0  0  0
  7 23  2  0  0  0  0
  7  8  1  0  0  0  0
  8  9  1  0  0  0  0
  8 20  2  0  0  0  0
  9 14  1  0  0  0  0
  9 10  1  0  0  0  0
 10 11  1  0  0  0  0
 10 34  1  0  0  0  0
 10 35  1  0  0  0  0
 11 12  1  0  0  0  0
 11 36  1  0  0  0  0
 11 37  1  0  0  0  0
 12 13  1  0  0  0  0
 13 14  1  0  0  0  0
 13 38  1  0  0  0  0
 13 39  1  0  0  0  0
 14 15  1  0  0  0  0
 14 40  1  0  0  0  0
 15 16  1  0  0  0  0
 15 41  1  0  0  0  0
 15 42  1  0  0  0  0
 16 19  1  0  0  0  0
 16 17  1  0  0  0  0
 16 43  1  0  0  0  0
 17 18  1  0  0  0  0
 17 44  1  0  0  0  0
 17 45  1  0  0  0  0
 18 19  1  0  0  0  0
 18 46  1  0  0  0  0
 18 47  1  0  0  0  0
 19 48  1  0  0  0  0
 19 49  1  0  0  0  0
 20 21  1  0  0  0  0
 21 22  2  0  0  0  0
 21 50  1  0  0  0  0
 22 23  1  0  0  0  0
 24 28  1  0  0  0  0
 24 25  1  0  0  0  0
 24 51  1  0  0  0  0
 25 26  1  0  0  0  0
 25 52  1  0  0  0  0
 25 53  1  0  0  0  0
 26 27  1  0  0  0  0
 26 54  1  0  0  0  0
 26 55  1  0  0  0  0
 27 28  1  0  0  0  0
 27 56  1  0  0  0  0
 27 57  1  0  0  0  0
M  END
> <s_m_source_file>
AV-unprocessed.smi

> <i_m_source_file_index>
170

> <i_lp_mmshare_version>
43012

> <i_f3d_flags>
0

> <s_epik_input>
TzFbQ0gyXVtDSDJdW0NIMl1bQ0BIXTFbQ0BIXShbT0hdKVtDSDJdbihbY0hdbjIpYyhjMjMpbltjSF1uYzNONFtDSDJdW0NIMl1PW0NIMl1bQ0BIXTRbQ0gyXVtDSF01W0NIMl1bQ0gyXVtDSDJdNQ==

> <s_epik_cmdline>
J2VwaWtfcHl0aG9uJywgJy1waCcsICc3LjAnLCAnLXRuJywgJzgnLCAnLW1hJywgJzIwMCcsICctbWV0YWxfYmluZGluZycsICctaW1hZScsICc8aW5maWxlLm1hZT4nLCAnLW9tYWUnLCAnPG91dGZpbGUubWFlPic=

> <r_lp_tautomer_probability>
1

> <r_epik_Ionization_Penalty>
4.98275e-05

> <r_epik_Ionization_Penalty_Charging>
0

> <r_epik_Ionization_Penalty_Neutral>
4.98275e-05

> <r_epik_State_Penalty>
-0

> <r_epik_Charging_Adjusted_Penalty>
0

> <i_epik_Tot_Q>
0

> <i_epik_Tot_abs_Q>
0

> <r_epik_Metal_State_Penalty>
-0

> <b_epik_Metal_Only>
0

> <s_lp_Force_Field>
OPLS_2005

> <r_lp_Energy>
52.9545

> <b_lp_Chiralities_Consistent>
1

> <s_lp_Variant>
AV-unprocessed.smi:170-7

> <Gold.Version>
5.8.1

> <Gold.Id.Protein>
6NUR|6NUR_protein|mol2

> <Gold.PLP.Fitness>
43.2906

> <Gold.PLP.PLP>
-38.3846

> <Gold.PLP.part.hbond>
-1.8414

> <Gold.PLP.part.metal>
0.0000

> <Gold.PLP.part.buried>
-8.2878

> <Gold.PLP.part.nonpolar>
-30.7914

> <Gold.PLP.part.repulsive>
0.8105

> <Gold.PLP.ligand.clash>
0.0000

> <Gold.PLP.ligand.torsion>
2.2039

> <Gold.PLP.Chemscore.Hbond>
2.0000

> <Gold.PLP.Chemscore.CHOScore>
1.0000

> <Gold.PLP.Chemscore.Metal>
0.0000

> <Gold.Chemscore.Hbonds>
donor molecule, donor type, donor heavy atom, donor atom, acceptor molecule, acceptor atom, score
      L1  H     1    29       P1 10957  1.00
      P1  H  7989  7998       L1    12  1.00
      L1  C     5    33       P1 10171  1.00

> <Gold.PLP.Chemscore.Internal.Correction>
0.3138

> <Gold.Rescore>
     Score         DG    S(hbond)    S(metal)    S(lipo)     H(rot)  DE(clash)    DE(int)     intcor
     12.99     -15.26       1.92        0.00      85.99       2.61       0.03       2.24       ----

> <Gold.Chemscore.Fitness>
12.9937

> <Gold.Chemscore.DG>
-15.2613

> <Gold.Chemscore.ZeroCoef>
-5.4800

> <Gold.Chemscore.Hbond>
1.9201

> <Gold.Chemscore.Metal>
0.0000

> <Gold.Chemscore.Lipo>
85.9935

> <Gold.Chemscore.Internal_Hbond>
0.0000

> <Gold.Chemscore.DEClash>
0.0279

> <Gold.Chemscore.DEInternal>
2.2397

> <Gold.Chemscore.Rot>
2.6144

> <Gold.Chemscore.Internal.Correction>
   9.000000E+99

> <Gold.Chemscore.Hbonds>
donor molecule, donor type, donor heavy atom, donor atom, acceptor molecule, acceptor atom, score
      L1  H     1    29       P1 10957  0.90
      P1  H  7989  7998       L1    12  0.86

> <Gold.Chemscore.Hbond.Weighted>
-6.4130

> <Gold.Chemscore.Metal.Weighted>
-0.0000

> <Gold.Chemscore.Lipo.Weighted>
-10.0612

> <Gold.Chemscore.Internal_Hbond.Weighted>
0.0000

> <Gold.Chemscore.DEClash.Weighted>
0.0279

> <Gold.Chemscore.DEInternal.Weighted>
2.2397

> <Gold.Chemscore.Rot.Weighted>
6.6929

> <Gold.Chemscore.Internal.Correction.Weighted>
   9.000000E+99

> <Gold.Protein.RotatedTorsions>
[ 6907 6896 6895 6894 ] final  155.23 input  -60.11 | X-H torsion
[ 7974 7965 7964 7962 ] final  -51.00 input  175.53 | X-H torsion
[ 8008 7997 7996 7995 ] final  155.43 input   59.86 | X-H torsion
[ 10167 10162 10161 10158 ] final  -31.50 input  -65.29 | X-H torsion
[ 10718 10713 10712 10709 ] final  -23.97 input   66.30 | X-H torsion
[ 10763 10752 10751 10750 ] final    1.37 input  -60.55 | X-H torsion
[ 11005 11000 10999 10996 ] final   97.94 input  -57.11 | X-H torsion

> <Gold.Protein.ActiveResidues>
 VAL166  LYS551  ARG553  GLY616  TRP617  ASP618  TYR619  PRO620  LYS621  CYS622 
 ASP623  PHE694  ASN695  SER759  ASP760  ASP761  ALA762  ILE779  LEU786  VAL792 
 PHE793  MET794  SER795  GLU796  ALA797  LYS798  CYS799  TRP800  GLU811  SER814 

> <Gold.Protein.RotatedAtoms>
  152.0472  133.4003  159.4361 H   0  0  0  0  0  0  0  0  0  0  0  0  # atno 6907 bound_to 6896
  150.6872  134.3349  159.4852 H   0  0  0  0  0  0  0  0  0  0  0  0  # atno 6908 bound_to 6896
  152.1154  134.9243  160.0616 H   0  0  0  0  0  0  0  0  0  0  0  0  # atno 6909 bound_to 6896
  145.9237  140.7811  142.9634 H   0  0  0  0  0  0  0  0  0  0  0  0  # atno 7974 bound_to 7965
  156.2478  140.1939  156.6801 H   0  0  0  0  0  0  0  0  0  0  0  0  # atno 8008 bound_to 7997
  154.6328  140.0593  156.9779 H   0  0  0  0  0  0  0  0  0  0  0  0  # atno 8009 bound_to 7997
  155.1683  140.3266  155.4400 H   0  0  0  0  0  0  0  0  0  0  0  0  # atno 8010 bound_to 7997
  140.7235  143.3766  151.1679 H   0  0  0  0  0  0  0  0  0  0  0  0  # atno 10167 bound_to 10162
  156.4840  130.4551  149.6795 H   0  0  0  0  0  0  0  0  0  0  0  0  # atno 10718 bound_to 10713
  153.3088  135.6961  153.7134 H   0  0  0  0  0  0  0  0  0  0  0  0  # atno 10763 bound_to 10752
  153.6020  135.3460  155.2949 H   0  0  0  0  0  0  0  0  0  0  0  0  # atno 10764 bound_to 10752
  154.8570  135.4343  154.2221 H   0  0  0  0  0  0  0  0  0  0  0  0  # atno 10765 bound_to 10752
  139.8774  134.9025  156.4382 H   0  0  0  0  0  0  0  0  0  0  0  0  # atno 11005 bound_to 11000
  144.6756  140.2016  143.7386 LP  0  0  0  0  0  0  0  0  0  0  0  0  # atno 17320 bound_to 7965
  145.8517  139.2178  143.1768 LP  0  0  0  0  0  0  0  0  0  0  0  0  # atno 17321 bound_to 7965
  139.7347  143.9017  152.3031 LP  0  0  0  0  0  0  0  0  0  0  0  0  # atno 17342 bound_to 10162
  139.8818  144.7013  150.8869 LP  0  0  0  0  0  0  0  0  0  0  0  0  # atno 17343 bound_to 10162
  156.3493  130.7424  151.2381 LP  0  0  0  0  0  0  0  0  0  0  0  0  # atno 17370 bound_to 10713
  157.7480  131.0381  150.4489 LP  0  0  0  0  0  0  0  0  0  0  0  0  # atno 17371 bound_to 10713
  140.9018  133.7774  155.9689 LP  0  0  0  0  0  0  0  0  0  0  0  0  # atno 17394 bound_to 11000
  140.8642  134.2804  157.5220 LP  0  0  0  0  0  0  0  0  0  0  0  0  # atno 17395 bound_to 11000

$$$$
