#       Name:                AV-unprocessed.smi:162
#       Creating user name   scv26
#       Creation time:       Thu Mar 26 19:10:20 2020


#       File generated by GOLD software.
#

@<TRIPOS>MOLECULE
AV-unprocessed.smi:162
    66    69     1
SMALL
NO_CHARGES


@<TRIPOS>ATOM
      1 ****        -1.5187  -4.7677   1.2451 C.3            1 S1                 0.0000
      2 ****        -1.7052  -3.3902   0.9753 O.3            1 S1                 0.0000
      3 ****        -2.9474  -3.1195   0.3464 C.3            1 S1                 0.0000
      4 ****        -3.0626  -1.6092   0.0831 C.3            1 S1                 0.0000
      5 ****        -4.4809  -1.1465  -0.2383 C.3            1 S1                 0.0000
      6 ****        -4.2308   0.2296  -0.8615 C.3            1 S1                 0.0000
      7 ****        -5.2414   0.6249  -1.7778 O.3            1 S1                 0.0000
      8 ****        -6.4661   0.9782  -1.1557 C.3            1 S1                 0.0000
      9 ****        -2.8822   0.0637  -1.5784 C.3            1 S1                 0.0000
     10 ****        -2.2922  -1.1715  -1.0750 N.3            1 S1                 0.0000
     11 ****        -0.9487  -1.1461  -0.9454 C.ar           1 S1                 0.0000
     12 ****        -0.2344  -1.8815  -1.8317 N.ar           1 S1                 0.0000
     13 ****         1.0994  -1.9099  -1.7534 C.ar           1 S1                 0.0000
     14 ****         1.8990  -1.2869  -0.8847 N.ar           1 S1                 0.0000
     15 ****         1.1811  -0.5402   0.0030 C.ar           1 S1                 0.0000
     16 ****        -0.2355  -0.4102   0.0427 C.ar           1 S1                 0.0000
     17 ****        -0.6042   0.4406   1.0781 N.2            1 S1                 0.0000
     18 ****         0.5294   0.7845   1.6259 C.2            1 S1                 0.0000
     19 ****         1.6526   0.2451   1.0402 N.pl3          1 S1                 0.0000
     20 ****         3.0347   0.4568   1.4427 C.3            1 S1                 0.0000
     21 ****         3.6579   1.7612   0.8877 C.3            1 S1                 0.0000
     22 ****         2.9723   2.8504   1.4818 O.3            1 S1                 0.0000
     23 ****         5.1473   1.8540   1.2763 C.3            1 S1                 0.0000
     24 ****         5.8467   3.0522   0.6097 C.3            1 S1                 0.0000
     25 ****         5.6855   2.9849  -0.8019 O.3            1 S1                 0.0000
     26 ****         4.3242   3.0722  -1.2049 C.3            1 S1                 0.0000
     27 ****         3.5274   1.8792  -0.6470 C.3            1 S1                 0.0000
     28 ****        -2.7355  -1.0722   0.9735 H              1 S1                 0.0000
     29 ****        -4.1140   0.9751  -0.0726 H              1 S1                 0.0000
     30 ****        -0.5503  -4.9188   1.7218 H              1 S1                 0.0000
     31 ****        -1.5373  -5.3546   0.3260 H              1 S1                 0.0000
     32 ****        -2.2889  -5.1451   1.9190 H              1 S1                 0.0000
     33 ****        -3.0488  -3.6825  -0.5830 H              1 S1                 0.0000
     34 ****        -3.7527  -3.4370   1.0108 H              1 S1                 0.0000
     35 ****        -4.9397  -1.8139  -0.9697 H              1 S1                 0.0000
     36 ****        -5.1241  -1.1077   0.6411 H              1 S1                 0.0000
     37 ****        -7.1810   1.2940  -1.9153 H              1 S1                 0.0000
     38 ****        -6.3309   1.8056  -0.4580 H              1 S1                 0.0000
     39 ****        -6.9019   0.1350  -0.6194 H              1 S1                 0.0000
     40 ****        -3.0304  -0.0487  -2.6529 H              1 S1                 0.0000
     41 ****        -2.2417   0.9334  -1.4232 H              1 S1                 0.0000
     42 ****         1.5970  -2.5195  -2.4931 H              1 S1                 0.0000
     43 ****         0.5790   1.4500   2.4757 H              1 S1                 0.0000
     44 ****         3.0785   0.4477   2.5328 H              1 S1                 0.0000
     45 ****         3.6167  -0.4038   1.1106 H              1 S1                 0.0000
     46 ****         3.3537   3.6542   1.1630 H              1 S1                 0.0000
     47 ****         5.2586   1.9100   2.3599 H              1 S1                 0.0000
     48 ****         5.6582   0.9419   0.9644 H              1 S1                 0.0000
     49 ****         5.4561   3.9982   0.9877 H              1 S1                 0.0000
     50 ****         6.9119   3.0371   0.8410 H              1 S1                 0.0000
     51 ****         3.8955   4.0197  -0.8749 H              1 S1                 0.0000
     52 ****         4.2812   3.0710  -2.2941 H              1 S1                 0.0000
     53 ****         3.9016   0.9652  -1.1099 H              1 S1                 0.0000
     54 ****         2.4818   1.9667  -0.9449 H              1 S1                 0.0000
     55 ****        -0.9682  -3.0789   0.3754 LP             1 S1                 0.0000
     56 ****        -1.6672  -2.8870   1.8386 LP             1 S1                 0.0000
     57 ****        -5.4133  -0.1343  -2.4056 LP             1 S1                 0.0000
     58 ****        -4.9093   1.4149  -2.2931 LP             1 S1                 0.0000
     59 ****        -2.3713  -1.8892  -1.7667 LP             1 S1                 0.0000
     60 ****        -0.7050  -2.4025  -2.5437 LP             1 S1                 0.0000
     61 ****         2.8964  -1.3584  -0.8847 LP             1 S1                 0.0000
     62 ****        -1.5260   0.7241   1.3425 LP             1 S1                 0.0000
     63 ****         3.0640   2.8047   2.4766 LP             1 S1                 0.0000
     64 ****         2.0040   2.8150   1.2344 LP             1 S1                 0.0000
     65 ****         6.0596   2.1157  -1.1253 LP             1 S1                 0.0000
     66 ****         6.1912   3.7408  -1.2178 LP             1 S1                 0.0000
@<TRIPOS>BOND
    1    1    2 1     
    2    1   30 1     
    3    1   31 1     
    4    1   32 1     
    5    2    3 1     
    6    3    4 1     
    7    3   33 1     
    8    3   34 1     
    9    4   28 1     
   10    4   10 1     
   11    4    5 1     
   12    5    6 1     
   13    5   35 1     
   14    5   36 1     
   15    6   29 1     
   16    6    7 1     
   17    6    9 1     
   18    7    8 1     
   19    8   37 1     
   20    8   38 1     
   21    8   39 1     
   22    9   10 1     
   23    9   40 1     
   24    9   41 1     
   25   10   11 1     
   26   11   16 ar    
   27   11   12 ar    
   28   12   13 ar    
   29   13   14 ar    
   30   13   42 1     
   31   14   15 ar    
   32   15   19 1     
   33   15   16 ar    
   34   16   17 1     
   35   17   18 2     
   36   18   19 1     
   37   18   43 1     
   38   19   20 1     
   39   20   21 1     
   40   20   44 1     
   41   20   45 1     
   42   21   27 1     
   43   21   22 1     
   44   21   23 1     
   45   22   46 1     
   46   23   24 1     
   47   23   47 1     
   48   23   48 1     
   49   24   25 1     
   50   24   49 1     
   51   24   50 1     
   52   25   26 1     
   53   26   27 1     
   54   26   51 1     
   55   26   52 1     
   56   27   53 1     
   57   27   54 1     
   58    2   55 1     
   59    2   56 1     
   60    7   57 1     
   61    7   58 1     
   62   10   59 1     
   63   12   60 1     
   64   14   61 1     
   65   17   62 1     
   66   22   63 1     
   67   22   64 1     
   68   25   65 1     
   69   25   66 1     
@<TRIPOS>SUBSTRUCTURE
      1 S1             1
@<TRIPOS>SET
LONE_PAIRS      STATIC     ATOMS    <user>   **** ""
12 55 56 57 58 59 60 61 62 63 64 65 66
DONOR_HYDROGENS      STATIC     ATOMS    <user>   **** ""
1 46
ATOM$BLUE        STATIC     ATOMS    COLORGROUP SYSTEM
12 55 56 57 58 59 60 61 62 63 64 65 66
ATOM$RED        STATIC     ATOMS    COLORGROUP SYSTEM
1 46
