AV-unprocessed.smi:3349|AV-procd|sdf|12937|dock3
  -GOLD-   2272019373D 1   1.00000     0.00000
 Structure written by MMmdl.
 41 42  0  0  0  0  0  0  0  0  2 V2000
  146.2882  133.5222  154.9349 C   0  0  0  0  0  0  0  0  0  0  0  0
  147.1507  134.5852  154.2117 C   0  0  2  0  0  0  0  0  0  0  0  0
  147.0797  135.9413  154.9722 C   0  0  0  0  0  0  0  0  0  0  0  0
  147.9432  136.9714  154.4007 N   0  0  0  0  0  0  0  0  0  0  0  0
  147.9806  138.2532  154.7996 C   0  0  0  0  0  0  0  0  0  0  0  0
  147.2701  138.6939  155.7037 O   0  0  0  0  0  0  0  0  0  0  0  0
  148.9691  139.1685  154.0611 C   0  0  1  0  0  0  0  0  0  0  0  0
  148.7292  140.6623  154.3601 C   0  0  0  0  0  0  0  0  0  0  0  0
  150.3398  138.7607  154.3433 N   0  0  0  0  0  0  0  0  0  0  0  0
  150.9058  137.5536  154.2761 C   0  0  0  0  0  0  0  0  0  0  0  0
  152.1767  137.5320  154.6522 N   0  0  0  0  0  0  0  0  0  0  0  0
  152.3420  138.8497  154.9717 C   0  0  0  0  0  0  0  0  0  0  0  0
  151.2704  139.6269  154.8166 N   0  0  0  0  0  0  0  0  0  0  0  0
  146.7626  134.7044  152.7658 N   0  3  0  0  0  0  0  0  0  0  0  0
  146.5481  133.4014  152.0747 C   0  0  0  0  0  0  0  0  0  0  0  0
  146.1441  133.5989  150.6036 C   0  0  0  0  0  0  0  0  0  0  0  0
  144.9810  134.4068  150.5271 O   0  0  0  0  0  0  0  0  0  0  0  0
  145.2194  135.6990  151.0607 C   0  0  0  0  0  0  0  0  0  0  0  0
  145.5784  135.5837  152.5511 C   0  0  0  0  0  0  0  0  0  0  0  0
  146.5100  133.4679  156.0003 H   0  0  0  0  0  0  0  0  0  0  0  0
  146.4636  132.5163  154.5573 H   0  0  0  0  0  0  0  0  0  0  0  0
  145.2249  133.7413  154.8338 H   0  0  0  0  0  0  0  0  0  0  0  0
  148.1881  134.2480  154.2373 H   0  0  0  0  0  0  0  0  0  0  0  0
  146.0700  136.3514  154.9757 H   0  0  0  0  0  0  0  0  0  0  0  0
  147.3655  135.8009  156.0151 H   0  0  0  0  0  0  0  0  0  0  0  0
  148.5597  136.6886  153.6524 H   0  0  0  0  0  0  0  0  0  0  0  0
  148.8085  139.0278  152.9908 H   0  0  0  0  0  0  0  0  0  0  0  0
  147.7143  140.9577  154.0920 H   0  0  0  0  0  0  0  0  0  0  0  0
  149.4128  141.2874  153.7851 H   0  0  0  0  0  0  0  0  0  0  0  0
  148.8737  140.9000  155.4146 H   0  0  0  0  0  0  0  0  0  0  0  0
  150.3760  136.6710  153.9494 H   0  0  0  0  0  0  0  0  0  0  0  0
  153.2781  139.2468  155.3359 H   0  0  0  0  0  0  0  0  0  0  0  0
  147.4595  132.8060  152.0727 H   0  0  0  0  0  0  0  0  0  0  0  0
  145.7819  132.8294  152.6007 H   0  0  0  0  0  0  0  0  0  0  0  0
  146.9569  134.0519  150.0332 H   0  0  0  0  0  0  0  0  0  0  0  0
  145.9327  132.6344  150.1413 H   0  0  0  0  0  0  0  0  0  0  0  0
  146.0132  136.2002  150.5040 H   0  0  0  0  0  0  0  0  0  0  0  0
  144.3186  136.3008  150.9393 H   0  0  0  0  0  0  0  0  0  0  0  0
  144.7262  135.1897  153.1071 H   0  0  0  0  0  0  0  0  0  0  0  0
  145.7639  136.5908  152.9184 H   0  0  0  0  0  0  0  0  0  0  0  0
  147.5398  135.1457  152.2950 H   0  0  0  0  0  0  0  0  0  0  0  0
  1  2  1  0  0  0  0
  1 20  1  0  0  0  0
  1 21  1  0  0  0  0
  1 22  1  0  0  0  0
  2  3  1  0  0  0  0
  2 14  1  0  0  0  0
  2 23  1  0  0  0  0
  3  4  1  0  0  0  0
  3 24  1  0  0  0  0
  3 25  1  0  0  0  0
  4  5  1  0  0  0  0
  4 26  1  0  0  0  0
  5  6  2  0  0  0  0
  5  7  1  0  0  0  0
  7  8  1  0  0  0  0
  7  9  1  0  0  0  0
  7 27  1  0  0  0  0
  8 28  1  0  0  0  0
  8 29  1  0  0  0  0
  8 30  1  0  0  0  0
  9 13  1  0  0  0  0
  9 10  1  0  0  0  0
 10 11  2  0  0  0  0
 10 31  1  0  0  0  0
 11 12  1  0  0  0  0
 12 13  2  0  0  0  0
 12 32  1  0  0  0  0
 14 19  1  0  0  0  0
 14 15  1  0  0  0  0
 14 41  1  0  0  0  0
 15 16  1  0  0  0  0
 15 33  1  0  0  0  0
 15 34  1  0  0  0  0
 16 17  1  0  0  0  0
 16 35  1  0  0  0  0
 16 36  1  0  0  0  0
 17 18  1  0  0  0  0
 18 19  1  0  0  0  0
 18 37  1  0  0  0  0
 18 38  1  0  0  0  0
 19 39  1  0  0  0  0
 19 40  1  0  0  0  0
M  CHG  1  14   1
M  END
> <s_m_source_file>
AV-unprocessed.smi

> <i_m_source_file_index>
3349

> <i_lp_mmshare_version>
43012

> <i_f3d_flags>
0

> <s_epik_input>
W0NIMl0xW0NIMl1PW0NIMl1bQ0gyXU4xW0NASF0oW0NIM10pW0NIMl1bTkhdQyg9TylbQ0BIXShbQ0gzXSluMltjSF1uW2NIXW4y

> <s_epik_cmdline>
J2VwaWtfcHl0aG9uJywgJy1waCcsICc3LjAnLCAnLXRuJywgJzgnLCAnLW1hJywgJzIwMCcsICctbWV0YWxfYmluZGluZycsICctaW1hZScsICc8aW5maWxlLm1hZT4nLCAnLW9tYWUnLCAnPG91dGZpbGUubWFlPic=

> <r_lp_tautomer_probability>
1

> <r_epik_Ionization_Penalty>
0.71326

> <r_epik_Ionization_Penalty_Charging>
0.713252

> <r_epik_Ionization_Penalty_Neutral>
8.10337e-06

> <r_epik_State_Penalty>
0.737017

> <r_epik_Charging_Adjusted_Penalty>
1.45027

> <i_epik_Tot_Q>
1

> <i_epik_Tot_abs_Q>
1

> <r_epik_Metal_State_Penalty>
0.73702

> <b_epik_Metal_Only>
0

> <s_lp_Force_Field>
OPLS_2005

> <r_lp_Energy>
26.6465

> <b_lp_Chiralities_Consistent>
1

> <s_lp_Variant>
AV-unprocessed.smi:3349-7

> <Gold.Version>
5.8.1

> <Gold.Id.Protein>
6NUR|6NUR_protein|mol2

> <Gold.PLP.Fitness>
45.7322

> <Gold.PLP.PLP>
-29.8946

> <Gold.PLP.part.hbond>
-4.0000

> <Gold.PLP.part.metal>
0.0000

> <Gold.PLP.part.buried>
-3.8374

> <Gold.PLP.part.nonpolar>
-23.1962

> <Gold.PLP.part.repulsive>
0.6207

> <Gold.PLP.ligand.clash>
0.0000

> <Gold.PLP.ligand.torsion>
0.5700

> <Gold.PLP.Chemscore.Hbond>
4.7520

> <Gold.PLP.Chemscore.CHOScore>
0.8484

> <Gold.PLP.Chemscore.Metal>
0.0000

> <Gold.Chemscore.Hbonds>
donor molecule, donor type, donor heavy atom, donor atom, acceptor molecule, acceptor atom, score
      L1  H     4    26       P1  7948  1.00
      L1  H    14    41       P1  7948  2.00
      P1  H  7989  7998       L1    13  1.00
      P1  H 10752 10765       L1    11  0.75
      L1  C    10    31       P1  7948  0.73
      L1  C    10    31       P1  7949  0.15

> <Gold.PLP.Chemscore.Internal.Correction>
0.1764

> <Gold.Rescore>
     Score         DG    S(hbond)    S(metal)    S(lipo)     H(rot)  DE(clash)    DE(int)     intcor
     14.06     -16.05       3.79        0.00      39.75       2.63       0.02       1.97       ----

> <Gold.Chemscore.Fitness>
14.0554

> <Gold.Chemscore.DG>
-16.0471

> <Gold.Chemscore.ZeroCoef>
-5.4800

> <Gold.Chemscore.Hbond>
3.7893

> <Gold.Chemscore.Metal>
0.0000

> <Gold.Chemscore.Lipo>
39.7517

> <Gold.Chemscore.Internal_Hbond>
0.0000

> <Gold.Chemscore.DEClash>
0.0228

> <Gold.Chemscore.DEInternal>
1.9689

> <Gold.Chemscore.Rot>
2.6329

> <Gold.Chemscore.Internal.Correction>
   9.000000E+99

> <Gold.Chemscore.Hbonds>
donor molecule, donor type, donor heavy atom, donor atom, acceptor molecule, acceptor atom, score
      L1  H     4    26       P1  7948  0.98
      L1  H    14    41       P1  7948  0.99
      P1  H  7989  7998       L1    13  0.46
      P1  H 10752 10765       L1    11  0.52

> <Gold.Chemscore.Hbond.Weighted>
-12.6564

> <Gold.Chemscore.Metal.Weighted>
-0.0000

> <Gold.Chemscore.Lipo.Weighted>
-4.6509

> <Gold.Chemscore.Internal_Hbond.Weighted>
0.0000

> <Gold.Chemscore.DEClash.Weighted>
0.0228

> <Gold.Chemscore.DEInternal.Weighted>
1.9689

> <Gold.Chemscore.Rot.Weighted>
6.7403

> <Gold.Chemscore.Internal.Correction.Weighted>
   9.000000E+99

> <Gold.Protein.RotatedTorsions>
[ 6907 6896 6895 6894 ] final   95.44 input  -60.11 | X-H torsion
[ 7974 7965 7964 7962 ] final   -3.51 input  175.53 | X-H torsion
[ 8008 7997 7996 7995 ] final  106.48 input   59.86 | X-H torsion
[ 10167 10162 10161 10158 ] final  124.92 input  -65.29 | X-H torsion
[ 10718 10713 10712 10709 ] final   45.53 input   66.30 | X-H torsion
[ 10763 10752 10751 10750 ] final  166.90 input  -60.55 | X-H torsion
[ 11005 11000 10999 10996 ] final -138.56 input  -57.11 | X-H torsion

> <Gold.Protein.ActiveResidues>
 VAL166  LYS551  ARG553  GLY616  TRP617  ASP618  TYR619  PRO620  LYS621  CYS622 
 ASP623  PHE694  ASN695  SER759  ASP760  ASP761  ALA762  ILE779  LEU786  VAL792 
 PHE793  MET794  SER795  GLU796  ALA797  LYS798  CYS799  TRP800  GLU811  SER814 

> <Gold.Protein.RotatedAtoms>
  152.5443  134.1039  159.8329 H   0  0  0  0  0  0  0  0  0  0  0  0  # atno 6907 bound_to 6896
  151.1113  133.5163  159.2613 H   0  0  0  0  0  0  0  0  0  0  0  0  # atno 6908 bound_to 6896
  151.1881  135.0400  159.8875 H   0  0  0  0  0  0  0  0  0  0  0  0  # atno 6909 bound_to 6896
  146.2388  140.1732  142.8332 H   0  0  0  0  0  0  0  0  0  0  0  0  # atno 7974 bound_to 7965
  156.1746  140.3112  155.9037 H   0  0  0  0  0  0  0  0  0  0  0  0  # atno 8008 bound_to 7997
  155.3513  140.0471  157.3063 H   0  0  0  0  0  0  0  0  0  0  0  0  # atno 8009 bound_to 7997
  154.5277  140.2220  155.8870 H   0  0  0  0  0  0  0  0  0  0  0  0  # atno 8010 bound_to 7997
  139.5714  144.6941  151.3768 H   0  0  0  0  0  0  0  0  0  0  0  0  # atno 10167 bound_to 10162
  157.4386  130.8067  149.7672 H   0  0  0  0  0  0  0  0  0  0  0  0  # atno 10718 bound_to 10713
  154.3458  135.2753  155.2398 H   0  0  0  0  0  0  0  0  0  0  0  0  # atno 10763 bound_to 10752
  154.4649  135.5898  153.6284 H   0  0  0  0  0  0  0  0  0  0  0  0  # atno 10764 bound_to 10752
  152.9854  135.6074  154.3664 H   0  0  0  0  0  0  0  0  0  0  0  0  # atno 10765 bound_to 10752
  140.8604  134.2176  157.4710 H   0  0  0  0  0  0  0  0  0  0  0  0  # atno 11005 bound_to 11000
  144.9995  140.8619  143.5290 LP  0  0  0  0  0  0  0  0  0  0  0  0  # atno 17320 bound_to 7965
  145.1749  139.2384  143.5323 LP  0  0  0  0  0  0  0  0  0  0  0  0  # atno 17321 bound_to 7965
  140.6998  143.7659  150.7385 LP  0  0  0  0  0  0  0  0  0  0  0  0  # atno 17342 bound_to 10162
  140.1166  143.4650  152.2338 LP  0  0  0  0  0  0  0  0  0  0  0  0  # atno 17343 bound_to 10162
  155.9940  130.3921  150.2878 LP  0  0  0  0  0  0  0  0  0  0  0  0  # atno 17370 bound_to 10713
  157.1041  131.0203  151.3074 LP  0  0  0  0  0  0  0  0  0  0  0  0  # atno 17371 bound_to 10713
  139.8707  134.9727  156.4781 LP  0  0  0  0  0  0  0  0  0  0  0  0  # atno 17394 bound_to 11000
  140.8689  133.8003  155.9343 LP  0  0  0  0  0  0  0  0  0  0  0  0  # atno 17395 bound_to 11000

$$$$
