AV-unprocessed.smi:1215|AV-procd|sdf|5097|dock10
  -GOLD-   22720 4153D 1   1.00000     0.00000
 Structure written by MMmdl.
 46 47  0  0  0  0  0  0  0  0  2 V2000
  145.3226  132.5065  150.9080 C   0  0  0  0  0  0  0  0  0  0  0  0
  144.6294  133.8595  150.7084 C   0  0  0  0  0  0  0  0  0  0  0  0
  145.0482  134.8296  151.7010 N   0  0  0  0  0  0  0  0  0  0  0  0
  144.6684  136.1519  151.8171 C   0  0  0  0  0  0  0  0  0  0  0  0
  145.3326  136.6356  152.9039 C   0  0  0  0  0  0  0  0  0  0  0  0
  145.2357  137.9645  153.3879 N   0  0  0  0  0  0  0  0  0  0  0  0
  145.7964  138.4636  154.5010 C   0  0  0  0  0  0  0  0  0  0  0  0
  146.4897  137.8250  155.2926 O   0  0  0  0  0  0  0  0  0  0  0  0
  145.5025  139.7621  154.6612 N   0  0  0  0  0  0  0  0  0  0  0  0
  145.9620  140.5849  155.7751 C   0  0  0  0  0  0  0  0  0  0  0  0
  146.6774  141.8588  155.2781 C   0  0  0  0  0  0  0  0  0  0  0  0
  147.8205  142.2668  156.1454 N   0  3  1  0  0  0  0  0  0  0  0  0
  147.3938  142.4574  157.5627 C   0  0  0  0  0  0  0  0  0  0  0  0
  148.5293  142.9989  158.4419 C   0  0  0  0  0  0  0  0  0  0  0  0
  149.7365  142.0635  158.3919 C   0  0  0  0  0  0  0  0  0  0  0  0
  150.1707  141.8814  156.9363 C   0  0  0  0  0  0  0  0  0  0  0  0
  149.0183  141.3674  156.0440 C   0  0  2  0  0  0  0  0  0  0  0  0
  149.5511  141.2177  154.6029 C   0  0  0  0  0  0  0  0  0  0  0  0
  146.1055  135.5483  153.4019 C   0  0  0  0  0  0  0  0  0  0  0  0
  145.9250  134.4611  152.6676 N   0  0  0  0  0  0  0  0  0  0  0  0
  145.0071  131.7932  150.1467 H   0  0  0  0  0  0  0  0  0  0  0  0
  145.0830  132.0800  151.8823 H   0  0  0  0  0  0  0  0  0  0  0  0
  146.4062  132.6062  150.8422 H   0  0  0  0  0  0  0  0  0  0  0  0
  144.8547  134.2550  149.7174 H   0  0  0  0  0  0  0  0  0  0  0  0
  143.5460  133.7434  150.7649 H   0  0  0  0  0  0  0  0  0  0  0  0
  143.9761  136.6196  151.1323 H   0  0  0  0  0  0  0  0  0  0  0  0
  144.6805  138.5972  152.8306 H   0  0  0  0  0  0  0  0  0  0  0  0
  144.9274  140.2122  153.9638 H   0  0  0  0  0  0  0  0  0  0  0  0
  145.1189  140.8445  156.4180 H   0  0  0  0  0  0  0  0  0  0  0  0
  146.6281  139.9617  156.3697 H   0  0  0  0  0  0  0  0  0  0  0  0
  147.0231  141.7301  154.2513 H   0  0  0  0  0  0  0  0  0  0  0  0
  145.9262  142.6430  155.2481 H   0  0  0  0  0  0  0  0  0  0  0  0
  146.5644  143.1592  157.6262 H   0  0  0  0  0  0  0  0  0  0  0  0
  147.0328  141.5090  157.9638 H   0  0  0  0  0  0  0  0  0  0  0  0
  148.8170  143.9952  158.1033 H   0  0  0  0  0  0  0  0  0  0  0  0
  148.1854  143.1075  159.4711 H   0  0  0  0  0  0  0  0  0  0  0  0
  150.5569  142.4709  158.9836 H   0  0  0  0  0  0  0  0  0  0  0  0
  149.4807  141.0975  158.8291 H   0  0  0  0  0  0  0  0  0  0  0  0
  150.5417  142.8314  156.5483 H   0  0  0  0  0  0  0  0  0  0  0  0
  151.0113  141.1872  156.8994 H   0  0  0  0  0  0  0  0  0  0  0  0
  148.7261  140.3785  156.4013 H   0  0  0  0  0  0  0  0  0  0  0  0
  150.5186  140.7144  154.5965 H   0  0  0  0  0  0  0  0  0  0  0  0
  149.6847  142.1882  154.1236 H   0  0  0  0  0  0  0  0  0  0  0  0
  148.8989  140.6117  153.9754 H   0  0  0  0  0  0  0  0  0  0  0  0
  146.7767  135.5016  154.2464 H   0  0  0  0  0  0  0  0  0  0  0  0
  148.1232  143.1695  155.8081 H   0  0  0  0  0  0  0  0  0  0  0  0
  1  2  1  0  0  0  0
  1 21  1  0  0  0  0
  1 22  1  0  0  0  0
  1 23  1  0  0  0  0
  2  3  1  0  0  0  0
  2 24  1  0  0  0  0
  2 25  1  0  0  0  0
  3 20  1  0  0  0  0
  3  4  1  0  0  0  0
  4  5  2  0  0  0  0
  4 26  1  0  0  0  0
  5  6  1  0  0  0  0
  5 19  1  0  0  0  0
  6  7  1  0  0  0  0
  6 27  1  0  0  0  0
  7  8  2  0  0  0  0
  7  9  1  0  0  0  0
  9 10  1  0  0  0  0
  9 28  1  0  0  0  0
 10 11  1  0  0  0  0
 10 29  1  0  0  0  0
 10 30  1  0  0  0  0
 11 12  1  0  0  0  0
 11 31  1  0  0  0  0
 11 32  1  0  0  0  0
 12 17  1  0  0  0  0
 12 13  1  0  0  0  0
 12 46  1  0  0  0  0
 13 14  1  0  0  0  0
 13 33  1  0  0  0  0
 13 34  1  0  0  0  0
 14 15  1  0  0  0  0
 14 35  1  0  0  0  0
 14 36  1  0  0  0  0
 15 16  1  0  0  0  0
 15 37  1  0  0  0  0
 15 38  1  0  0  0  0
 16 17  1  0  0  0  0
 16 39  1  0  0  0  0
 16 40  1  0  0  0  0
 17 18  1  0  0  0  0
 17 41  1  0  0  0  0
 18 42  1  0  0  0  0
 18 43  1  0  0  0  0
 18 44  1  0  0  0  0
 19 20  2  0  0  0  0
 19 45  1  0  0  0  0
M  CHG  1  12   1
M  END
> <s_m_source_file>
AV-unprocessed.smi

> <i_m_source_file_index>
1215

> <i_lp_mmshare_version>
43012

> <i_f3d_flags>
0

> <s_epik_input>
W0NIM11bQ0gyXW4xW2NIXWMoW2NIXW4xKVtOSF1DKD1PKVtOSF1bQ0gyXVtDSDJdTjJbQ0gyXVtDSDJdW0NIMl1bQ0gyXVtDQEhdMltDSDNd

> <s_epik_cmdline>
J2VwaWtfcHl0aG9uJywgJy1waCcsICc3LjAnLCAnLXRuJywgJzgnLCAnLW1hJywgJzIwMCcsICctbWV0YWxfYmluZGluZycsICctaW1hZScsICc8aW5maWxlLm1hZT4nLCAnLW9tYWUnLCAnPG91dGZpbGUubWFlPic=

> <r_lp_tautomer_probability>
1

> <r_epik_Ionization_Penalty>
0.00247187

> <r_epik_Ionization_Penalty_Charging>
0.00232067

> <r_epik_Ionization_Penalty_Neutral>
0.000151201

> <r_epik_State_Penalty>
0.00160128

> <r_epik_Charging_Adjusted_Penalty>
0.00392194

> <i_epik_Tot_Q>
1

> <i_epik_Tot_abs_Q>
1

> <r_epik_Metal_State_Penalty>
-0

> <b_epik_Metal_Only>
0

> <s_lp_Force_Field>
OPLS_2005

> <r_lp_Energy>
23.8268

> <b_lp_Chiralities_Consistent>
1

> <s_lp_Variant>
AV-unprocessed.smi:1215-4

> <Gold.Version>
5.8.1

> <Gold.Id.Protein>
6NUR|6NUR_protein|mol2

> <Gold.PLP.Fitness>
40.7345

> <Gold.PLP.PLP>
-26.3881

> <Gold.PLP.part.hbond>
-3.0000

> <Gold.PLP.part.metal>
0.0000

> <Gold.PLP.part.buried>
-1.4362

> <Gold.PLP.part.nonpolar>
-21.6929

> <Gold.PLP.part.repulsive>
0.1817

> <Gold.PLP.ligand.clash>
0.0000

> <Gold.PLP.ligand.torsion>
0.3069

> <Gold.PLP.Chemscore.Hbond>
3.9760

> <Gold.PLP.Chemscore.CHOScore>
1.0000

> <Gold.PLP.Chemscore.Metal>
0.0000

> <Gold.Chemscore.Hbonds>
donor molecule, donor type, donor heavy atom, donor atom, acceptor molecule, acceptor atom, score
      L1  H     6    27       P1 10175  0.71
      L1  H     9    28       P1 10175  1.00
      L1  H    12    46       P1  8028  2.00
      L1  C     4    26       P1 10171  1.00

> <Gold.PLP.Chemscore.Internal.Correction>
0.0323

> <Gold.Rescore>
     Score         DG    S(hbond)    S(metal)    S(lipo)     H(rot)  DE(clash)    DE(int)     intcor
     16.73     -18.24       2.93        0.00      60.30       1.59       0.19       1.32       ----

> <Gold.Chemscore.Fitness>
16.7260

> <Gold.Chemscore.DG>
-18.2408

> <Gold.Chemscore.ZeroCoef>
-5.4800

> <Gold.Chemscore.Hbond>
2.9276

> <Gold.Chemscore.Metal>
0.0000

> <Gold.Chemscore.Lipo>
60.3025

> <Gold.Chemscore.Internal_Hbond>
0.0000

> <Gold.Chemscore.DEClash>
0.1907

> <Gold.Chemscore.DEInternal>
1.3241

> <Gold.Chemscore.Rot>
1.5909

> <Gold.Chemscore.Internal.Correction>
   9.000000E+99

> <Gold.Chemscore.Hbonds>
donor molecule, donor type, donor heavy atom, donor atom, acceptor molecule, acceptor atom, score
      L1  H     6    27       P1 10175  0.71
      L1  H     9    28       P1 10175  0.99
      L1  H    12    46       P1  8028  0.74

> <Gold.Chemscore.Hbond.Weighted>
-9.7782

> <Gold.Chemscore.Metal.Weighted>
-0.0000

> <Gold.Chemscore.Lipo.Weighted>
-7.0554

> <Gold.Chemscore.Internal_Hbond.Weighted>
0.0000

> <Gold.Chemscore.DEClash.Weighted>
0.1907

> <Gold.Chemscore.DEInternal.Weighted>
1.3241

> <Gold.Chemscore.Rot.Weighted>
4.0728

> <Gold.Chemscore.Internal.Correction.Weighted>
   9.000000E+99

> <Gold.Protein.RotatedTorsions>
[ 6907 6896 6895 6894 ] final -120.65 input  -60.11 | X-H torsion
[ 7974 7965 7964 7962 ] final   24.38 input  175.53 | X-H torsion
[ 8008 7997 7996 7995 ] final  -59.59 input   59.86 | X-H torsion
[ 10167 10162 10161 10158 ] final -119.26 input  -65.29 | X-H torsion
[ 10718 10713 10712 10709 ] final   84.63 input   66.30 | X-H torsion
[ 10763 10752 10751 10750 ] final  -37.48 input  -60.55 | X-H torsion
[ 11005 11000 10999 10996 ] final   60.32 input  -57.11 | X-H torsion

> <Gold.Protein.ActiveResidues>
 VAL166  LYS551  ARG553  GLY616  TRP617  ASP618  TYR619  PRO620  LYS621  CYS622 
 ASP623  PHE694  ASN695  SER759  ASP760  ASP761  ALA762  ILE779  LEU786  VAL792 
 PHE793  MET794  SER795  GLU796  ALA797  LYS798  CYS799  TRP800  GLU811  SER814 

> <Gold.Protein.RotatedAtoms>
  150.8412  133.7933  159.3059 H   0  0  0  0  0  0  0  0  0  0  0  0  # atno 6907 bound_to 6896
  151.5634  135.1063  159.9987 H   0  0  0  0  0  0  0  0  0  0  0  0  # atno 6908 bound_to 6896
  152.4475  133.7523  159.6757 H   0  0  0  0  0  0  0  0  0  0  0  0  # atno 6909 bound_to 6896
  146.1940  139.7613  142.8811 H   0  0  0  0  0  0  0  0  0  0  0  0  # atno 7974 bound_to 7965
  154.4359  140.1058  156.6139 H   0  0  0  0  0  0  0  0  0  0  0  0  # atno 8008 bound_to 7997
  155.5780  140.3490  155.4514 H   0  0  0  0  0  0  0  0  0  0  0  0  # atno 8009 bound_to 7997
  156.0340  140.1267  157.0217 H   0  0  0  0  0  0  0  0  0  0  0  0  # atno 8010 bound_to 7997
  140.0486  143.5082  152.2094 H   0  0  0  0  0  0  0  0  0  0  0  0  # atno 10167 bound_to 10162
  157.6901  131.0141  150.2701 H   0  0  0  0  0  0  0  0  0  0  0  0  # atno 10718 bound_to 10713
  153.8970  135.6806  153.4757 H   0  0  0  0  0  0  0  0  0  0  0  0  # atno 10763 bound_to 10752
  153.1150  135.4766  154.9097 H   0  0  0  0  0  0  0  0  0  0  0  0  # atno 10764 bound_to 10752
  154.7594  135.3206  154.8361 H   0  0  0  0  0  0  0  0  0  0  0  0  # atno 10765 bound_to 10752
  140.0240  134.6110  155.9599 H   0  0  0  0  0  0  0  0  0  0  0  0  # atno 11005 bound_to 11000
  145.3702  141.0341  143.3235 LP  0  0  0  0  0  0  0  0  0  0  0  0  # atno 17320 bound_to 7965
  144.8543  139.5274  143.6842 LP  0  0  0  0  0  0  0  0  0  0  0  0  # atno 17321 bound_to 7965
  139.5968  144.7569  151.3268 LP  0  0  0  0  0  0  0  0  0  0  0  0  # atno 17342 bound_to 10162
  140.7227  143.7090  150.7784 LP  0  0  0  0  0  0  0  0  0  0  0  0  # atno 17343 bound_to 10162
  156.3265  130.3794  149.7528 LP  0  0  0  0  0  0  0  0  0  0  0  0  # atno 17370 bound_to 10713
  156.5082  130.8160  151.3158 LP  0  0  0  0  0  0  0  0  0  0  0  0  # atno 17371 bound_to 10713
  141.1791  133.6544  156.4948 LP  0  0  0  0  0  0  0  0  0  0  0  0  # atno 17394 bound_to 11000
  140.4338  134.7077  157.4956 LP  0  0  0  0  0  0  0  0  0  0  0  0  # atno 17395 bound_to 11000

$$$$
