AV-unprocessed.smi:1722|AV-procd|sdf|6943|dock3
  -GOLD-   22720 8153D 1   1.00000     0.00000
 Structure written by MMmdl.
 39 40  0  0  0  0  0  0  0  0  1 V2000
  150.7228  138.7307  157.1957 O   0  0  0  0  0  0  0  0  0  0  0  0
  151.1038  139.9004  157.2169 C   0  0  0  0  0  0  0  0  0  0  0  0
  152.3462  140.2642  158.0277 C   0  0  0  0  0  0  0  0  0  0  0  0
  151.9383  140.8687  159.2480 O   0  0  0  0  0  0  0  0  0  0  0  0
  152.1169  142.2779  159.2984 C   0  0  0  0  0  0  0  0  0  0  0  0
  152.3388  142.6562  160.7735 C   0  0  0  0  0  0  0  0  0  0  0  0
  152.4700  144.1775  160.9517 C   0  0  0  0  0  0  0  0  0  0  0  0
  151.2450  144.9099  160.3822 C   0  0  0  0  0  0  0  0  0  0  0  0
  151.0107  144.5367  158.9100 C   0  0  0  0  0  0  0  0  0  0  0  0
  150.8851  143.0149  158.7307 C   0  0  0  0  0  0  0  0  0  0  0  0
  150.4926  140.9310  156.5991 N   0  0  0  0  0  0  0  0  0  0  0  0
  149.3600  140.9309  155.7679 C   0  0  0  0  0  0  0  0  0  0  0  0
  148.1672  141.5021  156.0795 C   0  0  0  0  0  0  0  0  0  0  0  0
  147.0298  141.4559  155.1757 C   0  0  0  0  0  0  0  0  0  0  0  0
  145.6836  142.0496  155.5608 C   0  0  0  0  0  0  0  0  0  0  0  0
  145.3012  142.9362  154.6428 F   0  0  0  0  0  0  0  0  0  0  0  0
  144.7435  141.1071  155.6455 F   0  0  0  0  0  0  0  0  0  0  0  0
  145.7561  142.6747  156.7362 F   0  0  0  0  0  0  0  0  0  0  0  0
  147.2081  140.7896  154.0202 C   0  0  0  0  0  0  0  0  0  0  0  0
  148.4310  140.1998  153.6919 N   0  0  0  0  0  0  0  0  0  0  0  0
  149.5229  140.2202  154.4886 C   0  0  0  0  0  0  0  0  0  0  0  0
  150.5634  139.6698  154.1297 O   0  0  0  0  0  0  0  0  0  0  0  0
  148.4877  139.7260  152.8019 H   0  0  0  0  0  0  0  0  0  0  0  0
  152.9195  139.3567  158.2218 H   0  0  0  0  0  0  0  0  0  0  0  0
  152.9748  140.9392  157.4466 H   0  0  0  0  0  0  0  0  0  0  0  0
  153.0086  142.5588  158.7349 H   0  0  0  0  0  0  0  0  0  0  0  0
  151.5057  142.2911  161.3757 H   0  0  0  0  0  0  0  0  0  0  0  0
  153.2334  142.1615  161.1532 H   0  0  0  0  0  0  0  0  0  0  0  0
  152.5892  144.4192  162.0082 H   0  0  0  0  0  0  0  0  0  0  0  0
  153.3728  144.5282  160.4500 H   0  0  0  0  0  0  0  0  0  0  0  0
  150.3612  144.6550  160.9686 H   0  0  0  0  0  0  0  0  0  0  0  0
  151.3784  145.9879  160.4766 H   0  0  0  0  0  0  0  0  0  0  0  0
  150.1108  145.0295  158.5409 H   0  0  0  0  0  0  0  0  0  0  0  0
  151.8377  144.9079  158.3034 H   0  0  0  0  0  0  0  0  0  0  0  0
  150.7551  142.7913  157.6722 H   0  0  0  0  0  0  0  0  0  0  0  0
  149.9839  142.6626  159.2340 H   0  0  0  0  0  0  0  0  0  0  0  0
  150.8852  141.8455  156.7729 H   0  0  0  0  0  0  0  0  0  0  0  0
  148.0200  142.0013  157.0231 H   0  0  0  0  0  0  0  0  0  0  0  0
  146.4416  140.6532  153.2716 H   0  0  0  0  0  0  0  0  0  0  0  0
  1  2  2  0  0  0  0
  2  3  1  0  0  0  0
  2 11  1  0  0  0  0
  3  4  1  0  0  0  0
  3 24  1  0  0  0  0
  3 25  1  0  0  0  0
  4  5  1  0  0  0  0
  5 10  1  0  0  0  0
  5  6  1  0  0  0  0
  5 26  1  0  0  0  0
  6  7  1  0  0  0  0
  6 27  1  0  0  0  0
  6 28  1  0  0  0  0
  7  8  1  0  0  0  0
  7 29  1  0  0  0  0
  7 30  1  0  0  0  0
  8  9  1  0  0  0  0
  8 31  1  0  0  0  0
  8 32  1  0  0  0  0
  9 10  1  0  0  0  0
  9 33  1  0  0  0  0
  9 34  1  0  0  0  0
 10 35  1  0  0  0  0
 10 36  1  0  0  0  0
 11 12  1  0  0  0  0
 11 37  1  0  0  0  0
 12 21  1  0  0  0  0
 12 13  2  0  0  0  0
 13 14  1  0  0  0  0
 13 38  1  0  0  0  0
 14 15  1  0  0  0  0
 14 19  2  0  0  0  0
 15 16  1  0  0  0  0
 15 17  1  0  0  0  0
 15 18  1  0  0  0  0
 19 20  1  0  0  0  0
 19 39  1  0  0  0  0
 20 23  1  0  0  0  0
 20 21  1  0  0  0  0
 21 22  2  0  0  0  0
M  END
> <s_m_source_file>
AV-unprocessed.smi

> <i_m_source_file_index>
1722

> <i_lp_mmshare_version>
43012

> <i_f3d_flags>
0

> <s_epik_input>
Tz1jMVtuSF1bY0hdYyhDKEYpKEYpRilbY0hdYzFbTkhdQyg9TylbQ0gyXU9bQ0hdMltDSDJdW0NIMl1bQ0gyXVtDSDJdW0NIMl0y

> <s_epik_cmdline>
J2VwaWtfcHl0aG9uJywgJy1waCcsICc3LjAnLCAnLXRuJywgJzgnLCAnLW1hJywgJzIwMCcsICctbWV0YWxfYmluZGluZycsICctaW1hZScsICc8aW5maWxlLm1hZT4nLCAnLW9tYWUnLCAnPG91dGZpbGUubWFlPic=

> <r_lp_tautomer_probability>
0.999

> <r_epik_Ionization_Penalty>
0.008897

> <r_epik_Ionization_Penalty_Charging>
0.00889691

> <r_epik_Ionization_Penalty_Neutral>
9.17026e-08

> <r_epik_State_Penalty>
0.00672877

> <r_epik_Charging_Adjusted_Penalty>
0.0156257

> <i_epik_Tot_Q>
0

> <i_epik_Tot_abs_Q>
0

> <r_epik_Metal_State_Penalty>
0.320955

> <b_epik_Metal_Only>
0

> <s_lp_Force_Field>
OPLS_2005

> <r_lp_Energy>
24.9811

> <b_lp_Chiralities_Consistent>
1

> <s_lp_Variant>
AV-unprocessed.smi:1722-1

> <Gold.Version>
5.8.1

> <Gold.Id.Protein>
6NUR|6NUR_protein|mol2

> <Gold.PLP.Fitness>
42.2049

> <Gold.PLP.PLP>
-39.9360

> <Gold.PLP.part.hbond>
-2.0000

> <Gold.PLP.part.metal>
0.0000

> <Gold.PLP.part.buried>
-4.4624

> <Gold.PLP.part.nonpolar>
-33.1700

> <Gold.PLP.part.repulsive>
0.5350

> <Gold.PLP.ligand.clash>
0.0000

> <Gold.PLP.ligand.torsion>
1.5463

> <Gold.PLP.Chemscore.Hbond>
1.7680

> <Gold.PLP.Chemscore.CHOScore>
0.0000

> <Gold.PLP.Chemscore.Metal>
0.0000

> <Gold.Chemscore.Hbonds>
donor molecule, donor type, donor heavy atom, donor atom, acceptor molecule, acceptor atom, score
      L1  H    20    23       P1  7957  0.67
      P1  H  7989  7998       L1    22  1.00
      L1  C    19    39       P1 10175  0.15

> <Gold.PLP.Chemscore.Internal.Correction>
0.0575

> <Gold.Rescore>
     Score         DG    S(hbond)    S(metal)    S(lipo)     H(rot)  DE(clash)    DE(int)     intcor
     15.13     -17.88       1.75        0.00      90.81       1.59       0.02       2.73       ----

> <Gold.Chemscore.Fitness>
15.1329

> <Gold.Chemscore.DG>
-17.8838

> <Gold.Chemscore.ZeroCoef>
-5.4800

> <Gold.Chemscore.Hbond>
1.7548

> <Gold.Chemscore.Metal>
0.0000

> <Gold.Chemscore.Lipo>
90.8090

> <Gold.Chemscore.Internal_Hbond>
0.0000

> <Gold.Chemscore.DEClash>
0.0179

> <Gold.Chemscore.DEInternal>
2.7330

> <Gold.Chemscore.Rot>
1.5945

> <Gold.Chemscore.Internal.Correction>
   9.000000E+99

> <Gold.Chemscore.Hbonds>
donor molecule, donor type, donor heavy atom, donor atom, acceptor molecule, acceptor atom, score
      L1  H    20    23       P1  7957  0.63
      P1  H  7989  7998       L1    22  0.70

> <Gold.Chemscore.Hbond.Weighted>
-5.8611

> <Gold.Chemscore.Metal.Weighted>
-0.0000

> <Gold.Chemscore.Lipo.Weighted>
-10.6247

> <Gold.Chemscore.Internal_Hbond.Weighted>
0.0000

> <Gold.Chemscore.DEClash.Weighted>
0.0179

> <Gold.Chemscore.DEInternal.Weighted>
2.7330

> <Gold.Chemscore.Rot.Weighted>
4.0820

> <Gold.Chemscore.Internal.Correction.Weighted>
   9.000000E+99

> <Gold.Protein.RotatedTorsions>
[ 6907 6896 6895 6894 ] final -154.32 input  -60.11 | X-H torsion
[ 7974 7965 7964 7962 ] final   22.31 input  175.53 | X-H torsion
[ 8008 7997 7996 7995 ] final  173.64 input   59.86 | X-H torsion
[ 10167 10162 10161 10158 ] final  125.58 input  -65.29 | X-H torsion
[ 10718 10713 10712 10709 ] final -168.07 input   66.30 | X-H torsion
[ 10763 10752 10751 10750 ] final  -29.75 input  -60.55 | X-H torsion
[ 11005 11000 10999 10996 ] final -171.03 input  -57.11 | X-H torsion

> <Gold.Protein.ActiveResidues>
 VAL166  LYS551  ARG553  GLY616  TRP617  ASP618  TYR619  PRO620  LYS621  CYS622 
 ASP623  PHE694  ASN695  SER759  ASP760  ASP761  ALA762  ILE779  LEU786  VAL792 
 PHE793  MET794  SER795  GLU796  ALA797  LYS798  CYS799  TRP800  GLU811  SER814 

> <Gold.Protein.RotatedAtoms>
  151.2558  133.4327  159.2613 H   0  0  0  0  0  0  0  0  0  0  0  0  # atno 6907 bound_to 6896
  151.0576  134.9715  159.8254 H   0  0  0  0  0  0  0  0  0  0  0  0  # atno 6908 bound_to 6896
  152.5393  134.2510  159.8951 H   0  0  0  0  0  0  0  0  0  0  0  0  # atno 6909 bound_to 6896
  146.2034  139.7903  142.8744 H   0  0  0  0  0  0  0  0  0  0  0  0  # atno 7974 bound_to 7965
  156.1055  140.1455  156.9410 H   0  0  0  0  0  0  0  0  0  0  0  0  # atno 8008 bound_to 7997
  154.4731  140.0903  156.7238 H   0  0  0  0  0  0  0  0  0  0  0  0  # atno 8009 bound_to 7997
  155.4687  140.3441  155.4325 H   0  0  0  0  0  0  0  0  0  0  0  0  # atno 8010 bound_to 7997
  139.5678  144.6921  151.3863 H   0  0  0  0  0  0  0  0  0  0  0  0  # atno 10167 bound_to 10162
  156.6916  130.9161  151.3069 H   0  0  0  0  0  0  0  0  0  0  0  0  # atno 10718 bound_to 10713
  153.7698  135.6913  153.4908 H   0  0  0  0  0  0  0  0  0  0  0  0  # atno 10763 bound_to 10752
  153.1882  135.4481  155.0114 H   0  0  0  0  0  0  0  0  0  0  0  0  # atno 10764 bound_to 10752
  154.8122  135.3382  154.7208 H   0  0  0  0  0  0  0  0  0  0  0  0  # atno 10765 bound_to 10752
  140.5129  134.5784  157.5024 H   0  0  0  0  0  0  0  0  0  0  0  0  # atno 11005 bound_to 11000
  145.3404  141.0286  143.3395 LP  0  0  0  0  0  0  0  0  0  0  0  0  # atno 17320 bound_to 7965
  144.8736  139.5003  143.6756 LP  0  0  0  0  0  0  0  0  0  0  0  0  # atno 17321 bound_to 7965
  140.6962  143.7744  150.7330 LP  0  0  0  0  0  0  0  0  0  0  0  0  # atno 17342 bound_to 10162
  140.1241  143.4585  152.2295 LP  0  0  0  0  0  0  0  0  0  0  0  0  # atno 17343 bound_to 10162
  157.7007  130.9329  150.0776 LP  0  0  0  0  0  0  0  0  0  0  0  0  # atno 17370 bound_to 10713
  156.1793  130.3649  149.9057 LP  0  0  0  0  0  0  0  0  0  0  0  0  # atno 17371 bound_to 10713
  139.9649  134.7390  156.0159 LP  0  0  0  0  0  0  0  0  0  0  0  0  # atno 17394 bound_to 11000
  141.1376  133.6571  156.3637 LP  0  0  0  0  0  0  0  0  0  0  0  0  # atno 17395 bound_to 11000

$$$$
