AV-unprocessed.smi:749|AV-procd|sdf|3585|dock3
  -GOLD-   22720 0583D 1   1.00000     0.00000
 Structure written by MMmdl.
 43 44  0  0  0  0  0  0  0  0  1 V2000
  153.0998  140.0081  158.4990 C   0  0  0  0  0  0  0  0  0  0  0  0
  152.1143  140.3805  157.4827 N   0  0  0  0  0  0  0  0  0  0  0  0
  151.1605  141.4197  157.9002 C   0  0  0  0  0  0  0  0  0  0  0  0
  150.3741  142.0568  156.7415 C   0  0  2  0  0  0  0  0  0  0  0  0
  149.2515  142.8225  157.2717 N   0  0  0  0  0  0  0  0  0  0  0  0
  148.2925  142.3494  158.0848 C   0  0  0  0  0  0  0  0  0  0  0  0
  148.2599  141.1809  158.4671 O   0  0  0  0  0  0  0  0  0  0  0  0
  147.3499  143.2354  158.4700 N   0  0  0  0  0  0  0  0  0  0  0  0
  146.2114  143.0797  159.3109 C   0  0  0  0  0  0  0  0  0  0  0  0
  145.2476  144.1175  159.4089 C   0  0  0  0  0  0  0  0  0  0  0  0
  144.3233  143.6129  160.2829 C   0  0  0  0  0  0  0  0  0  0  0  0
  143.0395  144.1473  160.8536 C   0  0  0  0  0  0  0  0  0  0  0  0
  141.8470  143.2617  160.4411 C   0  0  0  0  0  0  0  0  0  0  0  0
  142.7861  145.5753  160.3349 C   0  0  0  0  0  0  0  0  0  0  0  0
  143.1168  144.1727  162.3916 C   0  0  0  0  0  0  0  0  0  0  0  0
  144.6965  142.3646  160.6810 O   0  0  0  0  0  0  0  0  0  0  0  0
  145.9032  142.0302  160.0576 N   0  0  0  0  0  0  0  0  0  0  0  0
  149.8807  140.9627  155.7897 C   0  0  0  0  0  0  0  0  0  0  0  0
  151.0649  140.1693  155.2257 C   0  0  0  0  0  0  0  0  0  0  0  0
  152.0801  139.7325  156.2930 C   0  0  0  0  0  0  0  0  0  0  0  0
  152.8572  138.8189  156.0143 O   0  0  0  0  0  0  0  0  0  0  0  0
  154.1093  140.2307  158.1503 H   0  0  0  0  0  0  0  0  0  0  0  0
  153.0426  138.9416  158.7231 H   0  0  0  0  0  0  0  0  0  0  0  0
  152.9469  140.5444  159.4366 H   0  0  0  0  0  0  0  0  0  0  0  0
  150.4680  140.9567  158.6051 H   0  0  0  0  0  0  0  0  0  0  0  0
  151.6831  142.2048  158.4489 H   0  0  0  0  0  0  0  0  0  0  0  0
  151.0442  142.7255  156.1971 H   0  0  0  0  0  0  0  0  0  0  0  0
  149.2010  143.7960  157.0059 H   0  0  0  0  0  0  0  0  0  0  0  0
  147.4581  144.1599  158.0791 H   0  0  0  0  0  0  0  0  0  0  0  0
  145.2356  145.0786  158.9169 H   0  0  0  0  0  0  0  0  0  0  0  0
  140.9085  143.6424  160.8457 H   0  0  0  0  0  0  0  0  0  0  0  0
  141.9664  142.2394  160.8021 H   0  0  0  0  0  0  0  0  0  0  0  0
  141.7403  143.2177  159.3564 H   0  0  0  0  0  0  0  0  0  0  0  0
  142.7191  145.5944  159.2467 H   0  0  0  0  0  0  0  0  0  0  0  0
  143.5882  146.2548  160.6256 H   0  0  0  0  0  0  0  0  0  0  0  0
  141.8551  145.9841  160.7292 H   0  0  0  0  0  0  0  0  0  0  0  0
  142.1913  144.5467  162.8314 H   0  0  0  0  0  0  0  0  0  0  0  0
  143.9261  144.8146  162.7417 H   0  0  0  0  0  0  0  0  0  0  0  0
  143.2926  143.1748  162.7952 H   0  0  0  0  0  0  0  0  0  0  0  0
  149.1995  140.2891  156.3121 H   0  0  0  0  0  0  0  0  0  0  0  0
  149.3133  141.4011  154.9678 H   0  0  0  0  0  0  0  0  0  0  0  0
  150.7008  139.2918  154.6901 H   0  0  0  0  0  0  0  0  0  0  0  0
  151.5970  140.7804  154.4960 H   0  0  0  0  0  0  0  0  0  0  0  0
  1  2  1  0  0  0  0
  1 22  1  0  0  0  0
  1 23  1  0  0  0  0
  1 24  1  0  0  0  0
  2 20  1  0  0  0  0
  2  3  1  0  0  0  0
  3  4  1  0  0  0  0
  3 25  1  0  0  0  0
  3 26  1  0  0  0  0
  4  5  1  0  0  0  0
  4 18  1  0  0  0  0
  4 27  1  0  0  0  0
  5  6  1  0  0  0  0
  5 28  1  0  0  0  0
  6  7  2  0  0  0  0
  6  8  1  0  0  0  0
  8  9  1  0  0  0  0
  8 29  1  0  0  0  0
  9 17  2  0  0  0  0
  9 10  1  0  0  0  0
 10 11  2  0  0  0  0
 10 30  1  0  0  0  0
 11 12  1  0  0  0  0
 11 16  1  0  0  0  0
 12 13  1  0  0  0  0
 12 14  1  0  0  0  0
 12 15  1  0  0  0  0
 13 31  1  0  0  0  0
 13 32  1  0  0  0  0
 13 33  1  0  0  0  0
 14 34  1  0  0  0  0
 14 35  1  0  0  0  0
 14 36  1  0  0  0  0
 15 37  1  0  0  0  0
 15 38  1  0  0  0  0
 15 39  1  0  0  0  0
 16 17  1  0  0  0  0
 18 19  1  0  0  0  0
 18 40  1  0  0  0  0
 18 41  1  0  0  0  0
 19 20  1  0  0  0  0
 19 42  1  0  0  0  0
 19 43  1  0  0  0  0
 20 21  2  0  0  0  0
M  END
> <s_m_source_file>
AV-unprocessed.smi

> <i_m_source_file_index>
749

> <i_lp_mmshare_version>
43012

> <i_f3d_flags>
0

> <s_epik_input>
Tz1DMVtDSDJdW0NIMl1bQ0BASF0oW0NIMl1OMVtDSDNdKVtOSF1DKD1PKVtOSF1jMltjSF1jKG9uMilDKFtDSDNdKShbQ0gzXSlbQ0gzXQ==

> <s_epik_cmdline>
J2VwaWtfcHl0aG9uJywgJy1waCcsICc3LjAnLCAnLXRuJywgJzgnLCAnLW1hJywgJzIwMCcsICctbWV0YWxfYmluZGluZycsICctaW1hZScsICc8aW5maWxlLm1hZT4nLCAnLW9tYWUnLCAnPG91dGZpbGUubWFlPic=

> <r_lp_tautomer_probability>
1

> <r_epik_Ionization_Penalty>
2.91905e-05

> <r_epik_Ionization_Penalty_Charging>
0

> <r_epik_Ionization_Penalty_Neutral>
2.91905e-05

> <r_epik_State_Penalty>
-0

> <r_epik_Charging_Adjusted_Penalty>
0

> <i_epik_Tot_Q>
0

> <i_epik_Tot_abs_Q>
0

> <r_epik_Metal_State_Penalty>
0.0102923

> <b_epik_Metal_Only>
0

> <s_lp_Force_Field>
OPLS_2005

> <r_lp_Energy>
15.3042

> <b_lp_Chiralities_Consistent>
1

> <s_lp_Variant>
AV-unprocessed.smi:749-2

> <Gold.Version>
5.8.1

> <Gold.Id.Protein>
6NUR|6NUR_protein|mol2

> <Gold.PLP.Fitness>
35.5198

> <Gold.PLP.PLP>
-25.7350

> <Gold.PLP.part.hbond>
-5.0000

> <Gold.PLP.part.metal>
0.0000

> <Gold.PLP.part.buried>
-0.1303

> <Gold.PLP.part.nonpolar>
-20.6521

> <Gold.PLP.part.repulsive>
0.1349

> <Gold.PLP.ligand.clash>
0.0000

> <Gold.PLP.ligand.torsion>
0.0585

> <Gold.PLP.Chemscore.Hbond>
3.3000

> <Gold.PLP.Chemscore.CHOScore>
0.0000

> <Gold.PLP.Chemscore.Metal>
0.0000

> <Gold.Chemscore.Hbonds>
donor molecule, donor type, donor heavy atom, donor atom, acceptor molecule, acceptor atom, score
      L1  H     5    28       P1  8028  0.82
      L1  H     8    29       P1  8029  1.00
      P1  H  6934  6946       L1    17  1.00
      P1  H  7997  8009       L1    21  0.45

> <Gold.PLP.Chemscore.Internal.Correction>
0.0017

> <Gold.Rescore>
     Score         DG    S(hbond)    S(metal)    S(lipo)     H(rot)  DE(clash)    DE(int)     intcor
     13.17     -15.59       1.83        0.00      60.97       1.23       0.09       2.32       ----

> <Gold.Chemscore.Fitness>
13.1714

> <Gold.Chemscore.DG>
-15.5857

> <Gold.Chemscore.ZeroCoef>
-5.4800

> <Gold.Chemscore.Hbond>
1.8338

> <Gold.Chemscore.Metal>
0.0000

> <Gold.Chemscore.Lipo>
60.9742

> <Gold.Chemscore.Internal_Hbond>
0.0000

> <Gold.Chemscore.DEClash>
0.0948

> <Gold.Chemscore.DEInternal>
2.3195

> <Gold.Chemscore.Rot>
1.2317

> <Gold.Chemscore.Internal.Correction>
   9.000000E+99

> <Gold.Chemscore.Hbonds>
donor molecule, donor type, donor heavy atom, donor atom, acceptor molecule, acceptor atom, score
      L1  H     5    28       P1  8028  0.45
      L1  H     8    29       P1  8029  0.29
      P1  H  6934  6946       L1    17  0.98
      P1  H  7997  8009       L1    21  0.01

> <Gold.Chemscore.Hbond.Weighted>
-6.1248

> <Gold.Chemscore.Metal.Weighted>
-0.0000

> <Gold.Chemscore.Lipo.Weighted>
-7.1340

> <Gold.Chemscore.Internal_Hbond.Weighted>
0.0000

> <Gold.Chemscore.DEClash.Weighted>
0.0948

> <Gold.Chemscore.DEInternal.Weighted>
2.3195

> <Gold.Chemscore.Rot.Weighted>
3.1531

> <Gold.Chemscore.Internal.Correction.Weighted>
   9.000000E+99

> <Gold.Protein.RotatedTorsions>
[ 6907 6896 6895 6894 ] final  135.06 input  -60.11 | X-H torsion
[ 7974 7965 7964 7962 ] final  125.10 input  175.53 | X-H torsion
[ 8008 7997 7996 7995 ] final -148.01 input   59.86 | X-H torsion
[ 10167 10162 10161 10158 ] final  120.99 input  -65.29 | X-H torsion
[ 10718 10713 10712 10709 ] final    7.58 input   66.30 | X-H torsion
[ 10763 10752 10751 10750 ] final -168.57 input  -60.55 | X-H torsion
[ 11005 11000 10999 10996 ] final  146.85 input  -57.11 | X-H torsion

> <Gold.Protein.ActiveResidues>
 VAL166  LYS551  ARG553  GLY616  TRP617  ASP618  TYR619  PRO620  LYS621  CYS622 
 ASP623  PHE694  ASN695  SER759  ASP760  ASP761  ALA762  ILE779  LEU786  VAL792 
 PHE793  MET794  SER795  GLU796  ALA797  LYS798  CYS799  TRP800  GLU811  SER814 

> <Gold.Protein.RotatedAtoms>
  152.3045  133.5689  159.5640 H   0  0  0  0  0  0  0  0  0  0  0  0  # atno 6907 bound_to 6896
  150.7293  134.0242  159.3720 H   0  0  0  0  0  0  0  0  0  0  0  0  # atno 6908 bound_to 6896
  151.8139  135.0672  160.0467 H   0  0  0  0  0  0  0  0  0  0  0  0  # atno 6909 bound_to 6896
  145.0769  139.3687  143.4929 H   0  0  0  0  0  0  0  0  0  0  0  0  # atno 7974 bound_to 7965
  155.5848  140.0647  157.2774 H   0  0  0  0  0  0  0  0  0  0  0  0  # atno 8008 bound_to 7997
  154.4322  140.1845  156.1060 H   0  0  0  0  0  0  0  0  0  0  0  0  # atno 8009 bound_to 7997
  156.0277  140.3310  155.7110 H   0  0  0  0  0  0  0  0  0  0  0  0  # atno 8010 bound_to 7997
  139.5947  144.7037  151.3204 H   0  0  0  0  0  0  0  0  0  0  0  0  # atno 10167 bound_to 10162
  156.9389  130.5854  149.5652 H   0  0  0  0  0  0  0  0  0  0  0  0  # atno 10718 bound_to 10713
  154.6614  135.2925  154.9861 H   0  0  0  0  0  0  0  0  0  0  0  0  # atno 10763 bound_to 10752
  154.0919  135.6589  153.4858 H   0  0  0  0  0  0  0  0  0  0  0  0  # atno 10764 bound_to 10752
  153.0432  135.5222  154.7567 H   0  0  0  0  0  0  0  0  0  0  0  0  # atno 10765 bound_to 10752
  140.0827  134.9087  157.1527 H   0  0  0  0  0  0  0  0  0  0  0  0  # atno 11005 bound_to 11000
  146.3530  140.0540  142.8634 LP  0  0  0  0  0  0  0  0  0  0  0  0  # atno 17320 bound_to 7965
  145.1225  140.9471  143.4592 LP  0  0  0  0  0  0  0  0  0  0  0  0  # atno 17321 bound_to 7965
  140.7202  143.7156  150.7736 LP  0  0  0  0  0  0  0  0  0  0  0  0  # atno 17342 bound_to 10162
  140.0719  143.5052  152.2575 LP  0  0  0  0  0  0  0  0  0  0  0  0  # atno 17343 bound_to 10162
  156.0413  130.5495  150.8777 LP  0  0  0  0  0  0  0  0  0  0  0  0  # atno 17370 bound_to 10713
  157.5798  131.0946  150.9289 LP  0  0  0  0  0  0  0  0  0  0  0  0  # atno 17371 bound_to 10713
  140.3464  134.2647  155.7204 LP  0  0  0  0  0  0  0  0  0  0  0  0  # atno 17394 bound_to 11000
  141.2052  133.7866  157.0245 LP  0  0  0  0  0  0  0  0  0  0  0  0  # atno 17395 bound_to 11000

$$$$
