AV-unprocessed.smi:36|AV-procd|sdf|286|dock1
  -GOLD-   2262016 63D 1   1.00000     0.00000
 Structure written by MMmdl.
 64 67  0  0  0  0  0  0  0  0  1 V2000
  149.1928  141.5004  154.5202 C   0  0  0  0  0  0  0  0  0  0  0  0
  149.5963  140.8660  155.8617 C   0  0  0  0  0  0  0  0  0  0  0  0
  150.9210  141.4752  156.3512 C   0  0  0  0  0  0  0  0  0  0  0  0
  148.4967  141.1113  156.9082 C   0  0  0  0  0  0  0  0  0  0  0  0
  149.8264  138.9837  155.6301 Si  0  0  0  0  0  0  0  0  0  0  0  0
  151.2549  138.6051  154.4362 C   0  0  0  0  0  0  0  0  0  0  0  0
  150.1353  138.1219  157.2953 C   0  0  0  0  0  0  0  0  0  0  0  0
  148.4001  138.3652  154.9637 O   0  0  0  0  0  0  0  0  0  0  0  0
  147.7480  138.9400  153.8509 C   0  0  0  0  0  0  0  0  0  0  0  0
  147.3203  137.8319  152.8810 C   0  0  1  0  0  0  0  0  0  0  0  0
  146.8133  136.7216  153.6169 O   0  0  0  0  0  0  0  0  0  0  0  0
  145.7703  136.1119  152.9153 C   0  0  2  0  0  0  0  0  0  0  0  0
  146.1441  134.6885  152.6712 N   0  0  0  0  0  0  0  0  0  0  0  0
  147.2611  134.0067  153.1029 C   0  0  0  0  0  0  0  0  0  0  0  0
  147.3223  132.7522  152.7434 N   0  0  0  0  0  0  0  0  0  0  0  0
  146.1616  132.5566  152.0051 C   0  0  0  0  0  0  0  0  0  0  0  0
  145.6001  131.4408  151.3311 C   0  0  0  0  0  0  0  0  0  0  0  0
  146.2374  130.2465  151.3462 N   0  0  0  0  0  0  0  0  0  0  0  0
  146.9333  129.6145  152.4531 C   0  0  0  0  0  0  0  0  0  0  0  0
  146.9269  130.0906  153.5887 O   0  0  0  0  0  0  0  0  0  0  0  0
  147.5896  128.2983  152.1533 C   0  0  0  0  0  0  0  0  0  0  0  0
  148.1634  127.5399  153.1987 C   0  0  0  0  0  0  0  0  0  0  0  0
  148.8017  126.3149  152.9236 C   0  0  0  0  0  0  0  0  0  0  0  0
  148.8790  125.8417  151.6000 C   0  0  0  0  0  0  0  0  0  0  0  0
  148.3189  126.5952  150.5513 C   0  0  0  0  0  0  0  0  0  0  0  0
  147.6800  127.8203  150.8252 C   0  0  0  0  0  0  0  0  0  0  0  0
  144.4138  131.6272  150.6941 N   0  0  0  0  0  0  0  0  0  0  0  0
  143.8190  132.8239  150.7150 C   0  0  0  0  0  0  0  0  0  0  0  0
  144.2276  133.9486  151.3065 N   0  0  0  0  0  0  0  0  0  0  0  0
  145.4172  133.7676  151.9495 C   0  0  0  0  0  0  0  0  0  0  0  0
  145.6145  136.8559  151.5888 C   0  0  0  0  0  0  0  0  0  0  0  0
  146.1691  138.2171  151.9485 C   0  0  2  0  0  0  0  0  0  0  0  0
  146.6138  138.9021  150.7956 O   0  0  0  0  0  0  0  0  0  0  0  0
  149.0535  142.5775  154.6174 H   0  0  0  0  0  0  0  0  0  0  0  0
  148.2580  141.0810  154.1475 H   0  0  0  0  0  0  0  0  0  0  0  0
  149.9544  141.3360  153.7575 H   0  0  0  0  0  0  0  0  0  0  0  0
  151.7208  141.3242  155.6258 H   0  0  0  0  0  0  0  0  0  0  0  0
  151.2401  141.0247  157.2916 H   0  0  0  0  0  0  0  0  0  0  0  0
  150.8269  142.5491  156.5154 H   0  0  0  0  0  0  0  0  0  0  0  0
  148.3469  142.1772  157.0833 H   0  0  0  0  0  0  0  0  0  0  0  0
  148.7506  140.6531  157.8647 H   0  0  0  0  0  0  0  0  0  0  0  0
  147.5418  140.6947  156.5872 H   0  0  0  0  0  0  0  0  0  0  0  0
  152.1996  139.0082  154.8006 H   0  0  0  0  0  0  0  0  0  0  0  0
  151.0768  139.0331  153.4500 H   0  0  0  0  0  0  0  0  0  0  0  0
  151.3911  137.5321  154.3037 H   0  0  0  0  0  0  0  0  0  0  0  0
  151.0308  138.5048  157.7845 H   0  0  0  0  0  0  0  0  0  0  0  0
  150.2706  137.0479  157.1703 H   0  0  0  0  0  0  0  0  0  0  0  0
  149.3022  138.2659  157.9824 H   0  0  0  0  0  0  0  0  0  0  0  0
  146.8749  139.4958  154.1943 H   0  0  0  0  0  0  0  0  0  0  0  0
  148.4128  139.6493  153.3568 H   0  0  0  0  0  0  0  0  0  0  0  0
  148.1760  137.4817  152.3003 H   0  0  0  0  0  0  0  0  0  0  0  0
  144.8649  136.0921  153.5226 H   0  0  0  0  0  0  0  0  0  0  0  0
  148.0326  134.4722  153.6991 H   0  0  0  0  0  0  0  0  0  0  0  0
  146.2567  129.7462  150.4697 H   0  0  0  0  0  0  0  0  0  0  0  0
  148.1154  127.8912  154.2197 H   0  0  0  0  0  0  0  0  0  0  0  0
  149.2347  125.7394  153.7285 H   0  0  0  0  0  0  0  0  0  0  0  0
  149.3707  124.9034  151.3891 H   0  0  0  0  0  0  0  0  0  0  0  0
  148.3827  126.2354  149.5347 H   0  0  0  0  0  0  0  0  0  0  0  0
  147.2670  128.3880  150.0039 H   0  0  0  0  0  0  0  0  0  0  0  0
  142.8816  132.8885  150.1823 H   0  0  0  0  0  0  0  0  0  0  0  0
  146.2254  136.3779  150.8203 H   0  0  0  0  0  0  0  0  0  0  0  0
  144.5746  136.8710  151.2617 H   0  0  0  0  0  0  0  0  0  0  0  0
  145.4180  138.8064  152.4767 H   0  0  0  0  0  0  0  0  0  0  0  0
  145.8821  138.9984  150.2047 H   0  0  0  0  0  0  0  0  0  0  0  0
  1  2  1  0  0  0  0
  1 34  1  0  0  0  0
  1 35  1  0  0  0  0
  1 36  1  0  0  0  0
  2  3  1  0  0  0  0
  2  4  1  0  0  0  0
  2  5  1  0  0  0  0
  3 37  1  0  0  0  0
  3 38  1  0  0  0  0
  3 39  1  0  0  0  0
  4 40  1  0  0  0  0
  4 41  1  0  0  0  0
  4 42  1  0  0  0  0
  5  6  1  0  0  0  0
  5  7  1  0  0  0  0
  5  8  1  0  0  0  0
  6 43  1  0  0  0  0
  6 44  1  0  0  0  0
  6 45  1  0  0  0  0
  7 46  1  0  0  0  0
  7 47  1  0  0  0  0
  7 48  1  0  0  0  0
  8  9  1  0  0  0  0
  9 10  1  0  0  0  0
  9 49  1  0  0  0  0
  9 50  1  0  0  0  0
 10 32  1  0  0  0  0
 10 11  1  0  0  0  0
 10 51  1  0  0  0  0
 11 12  1  0  0  0  0
 12 13  1  0  0  0  0
 12 31  1  0  0  0  0
 12 52  1  0  0  0  0
 13 30  1  0  0  0  0
 13 14  1  0  0  0  0
 14 15  2  0  0  0  0
 14 53  1  0  0  0  0
 15 16  1  0  0  0  0
 16 30  2  0  0  0  0
 16 17  1  0  0  0  0
 17 18  1  0  0  0  0
 17 27  2  0  0  0  0
 18 19  1  0  0  0  0
 18 54  1  0  0  0  0
 19 20  2  0  0  0  0
 19 21  1  0  0  0  0
 21 26  1  0  0  0  0
 21 22  2  0  0  0  0
 22 23  1  0  0  0  0
 22 55  1  0  0  0  0
 23 24  2  0  0  0  0
 23 56  1  0  0  0  0
 24 25  1  0  0  0  0
 24 57  1  0  0  0  0
 25 26  2  0  0  0  0
 25 58  1  0  0  0  0
 26 59  1  0  0  0  0
 27 28  1  0  0  0  0
 28 29  2  0  0  0  0
 28 60  1  0  0  0  0
 29 30  1  0  0  0  0
 31 32  1  0  0  0  0
 31 61  1  0  0  0  0
 31 62  1  0  0  0  0
 32 33  1  0  0  0  0
 32 63  1  0  0  0  0
 33 64  1  0  0  0  0
M  END
> <s_m_source_file>
AV-unprocessed.smi

> <i_m_source_file_index>
36

> <i_lp_mmshare_version>
43012

> <i_f3d_flags>
0

> <s_epik_input>
W0NIM11DKFtDSDNdKShbQ0gzXSlbU2ldKFtDSDNdKShbQ0gzXSlPW0NIMl1bQ0BASF0xT1tDQEhdKFtDSDJdW0NASF0xW09IXSluKFtjSF1uMiljKGMyMyluW2NIXW5jM1tOSF1DKD1PKWM0W2NIXVtjSF1bY0hdW2NIXVtjSF00

> <s_epik_cmdline>
J2VwaWtfcHl0aG9uJywgJy1waCcsICc3LjAnLCAnLXRuJywgJzgnLCAnLW1hJywgJzIwMCcsICctbWV0YWxfYmluZGluZycsICctaW1hZScsICc8aW5maWxlLm1hZT4nLCAnLW9tYWUnLCAnPG91dGZpbGUubWFlPic=

> <r_lp_tautomer_probability>
1

> <r_epik_Ionization_Penalty>
0.00150433

> <r_epik_Ionization_Penalty_Charging>
0

> <r_epik_Ionization_Penalty_Neutral>
0.00150433

> <r_epik_State_Penalty>
0.00724046

> <r_epik_Charging_Adjusted_Penalty>
0.00724046

> <i_epik_Tot_Q>
0

> <i_epik_Tot_abs_Q>
0

> <r_epik_Metal_State_Penalty>
0.323355

> <b_epik_Metal_Only>
0

> <s_epik_Chemistry_Notes>
This compound contains an acetal/aminal-like group ( X-CH(R)-Y where X, Y are N, S, or O) that may be acid/base labile, releasing an aldehyde.

> <s_lp_Force_Field>
OPLS_2005

> <r_lp_Energy>
35.7954

> <b_lp_Chiralities_Consistent>
1

> <s_lp_Variant>
AV-unprocessed.smi:36-8

> <Gold.Version>
5.8.1

> <Gold.Id.Protein>
6NUR|6NUR_protein|mol2

> <Gold.PLP.Fitness>
56.3714

> <Gold.PLP.PLP>
-48.9068

> <Gold.PLP.part.hbond>
-3.5127

> <Gold.PLP.part.metal>
0.0000

> <Gold.PLP.part.buried>
0.7037

> <Gold.PLP.part.nonpolar>
-47.5913

> <Gold.PLP.part.repulsive>
2.8787

> <Gold.PLP.ligand.clash>
0.0000

> <Gold.PLP.ligand.torsion>
1.0290

> <Gold.PLP.Chemscore.Hbond>
1.6840

> <Gold.PLP.Chemscore.CHOScore>
1.2548

> <Gold.PLP.Chemscore.Metal>
0.0000

> <Gold.Chemscore.Hbonds>
donor molecule, donor type, donor heavy atom, donor atom, acceptor molecule, acceptor atom, score
      L1  H    33    64       P1 10171  0.92
      P1  H  7954  7966       L1    33  0.73
      L1  C    14    53       P1  7948  0.23
      L1  C    28    60       P1 10186  1.00

> <Gold.PLP.Chemscore.Internal.Correction>
0.7061

> <Gold.Rescore>
     Score         DG    S(hbond)    S(metal)    S(lipo)     H(rot)  DE(clash)    DE(int)     intcor
     11.89     -16.47       1.49        0.00     110.46       2.70       3.48       1.10       ----

> <Gold.Chemscore.Fitness>
11.8899

> <Gold.Chemscore.DG>
-16.4712

> <Gold.Chemscore.ZeroCoef>
-5.4800

> <Gold.Chemscore.Hbond>
1.4941

> <Gold.Chemscore.Metal>
0.0000

> <Gold.Chemscore.Lipo>
110.4579

> <Gold.Chemscore.Internal_Hbond>
0.0000

> <Gold.Chemscore.DEClash>
3.4768

> <Gold.Chemscore.DEInternal>
1.1045

> <Gold.Chemscore.Rot>
2.7041

> <Gold.Chemscore.Internal.Correction>
   9.000000E+99

> <Gold.Chemscore.Hbonds>
donor molecule, donor type, donor heavy atom, donor atom, acceptor molecule, acceptor atom, score
      L1  H    33    64       P1 10171  0.84
      P1  H  7954  7966       L1    33  0.42

> <Gold.Chemscore.Hbond.Weighted>
-4.9901

> <Gold.Chemscore.Metal.Weighted>
-0.0000

> <Gold.Chemscore.Lipo.Weighted>
-12.9236

> <Gold.Chemscore.Internal_Hbond.Weighted>
0.0000

> <Gold.Chemscore.DEClash.Weighted>
3.4768

> <Gold.Chemscore.DEInternal.Weighted>
1.1045

> <Gold.Chemscore.Rot.Weighted>
6.9225

> <Gold.Chemscore.Internal.Correction.Weighted>
   9.000000E+99

> <Gold.Protein.RotatedTorsions>
[ 6907 6896 6895 6894 ] final   85.09 input  -60.11 | X-H torsion
[ 7974 7965 7964 7962 ] final  -69.84 input  175.53 | X-H torsion
[ 8008 7997 7996 7995 ] final   -9.52 input   59.86 | X-H torsion
[ 10167 10162 10161 10158 ] final -174.48 input  -65.29 | X-H torsion
[ 10718 10713 10712 10709 ] final  -46.25 input   66.30 | X-H torsion
[ 10763 10752 10751 10750 ] final  168.76 input  -60.55 | X-H torsion
[ 11005 11000 10999 10996 ] final -151.84 input  -57.11 | X-H torsion

> <Gold.Protein.ActiveResidues>
 VAL166  LYS551  ARG553  GLY616  TRP617  ASP618  TYR619  PRO620  LYS621  CYS622 
 ASP623  PHE694  ASN695  SER759  ASP760  ASP761  ALA762  ILE779  LEU786  VAL792 
 PHE793  MET794  SER795  GLU796  ALA797  LYS798  CYS799  TRP800  GLU811  SER814 

> <Gold.Protein.RotatedAtoms>
  152.5367  134.2640  159.8945 H   0  0  0  0  0  0  0  0  0  0  0  0  # atno 6907 bound_to 6896
  151.2599  133.4301  159.2623 H   0  0  0  0  0  0  0  0  0  0  0  0  # atno 6908 bound_to 6896
  151.0462  134.9656  159.8244 H   0  0  0  0  0  0  0  0  0  0  0  0  # atno 6909 bound_to 6896
  145.6986  140.9125  143.0743 H   0  0  0  0  0  0  0  0  0  0  0  0  # atno 7974 bound_to 7965
  154.5639  140.2353  155.8293 H   0  0  0  0  0  0  0  0  0  0  0  0  # atno 8008 bound_to 7997
  156.2052  140.3041  155.9570 H   0  0  0  0  0  0  0  0  0  0  0  0  # atno 8009 bound_to 7997
  155.2838  140.0423  157.3008 H   0  0  0  0  0  0  0  0  0  0  0  0  # atno 8010 bound_to 7997
  139.5631  144.1820  152.1271 H   0  0  0  0  0  0  0  0  0  0  0  0  # atno 10167 bound_to 10162
  156.2202  130.4166  149.9002 H   0  0  0  0  0  0  0  0  0  0  0  0  # atno 10718 bound_to 10713
  154.3733  135.2753  155.2254 H   0  0  0  0  0  0  0  0  0  0  0  0  # atno 10763 bound_to 10752
  154.4392  135.5958  153.6121 H   0  0  0  0  0  0  0  0  0  0  0  0  # atno 10764 bound_to 10752
  152.9837  135.6014  154.3967 H   0  0  0  0  0  0  0  0  0  0  0  0  # atno 10765 bound_to 10752
  140.7253  134.3681  157.5176 H   0  0  0  0  0  0  0  0  0  0  0  0  # atno 11005 bound_to 11000
  144.6975  139.8917  143.7453 LP  0  0  0  0  0  0  0  0  0  0  0  0  # atno 17320 bound_to 7965
  146.0818  139.3806  143.0460 LP  0  0  0  0  0  0  0  0  0  0  0  0  # atno 17321 bound_to 7965
  140.1338  144.5265  150.6786 LP  0  0  0  0  0  0  0  0  0  0  0  0  # atno 17342 bound_to 10162
  140.6913  143.2378  151.5123 LP  0  0  0  0  0  0  0  0  0  0  0  0  # atno 17343 bound_to 10162
  156.6651  130.8798  151.3553 LP  0  0  0  0  0  0  0  0  0  0  0  0  # atno 17370 bound_to 10713
  157.7084  130.9411  150.1005 LP  0  0  0  0  0  0  0  0  0  0  0  0  # atno 17371 bound_to 10713
  139.8838  134.8982  156.2740 LP  0  0  0  0  0  0  0  0  0  0  0  0  # atno 17394 bound_to 11000
  140.9968  133.7175  156.0898 LP  0  0  0  0  0  0  0  0  0  0  0  0  # atno 17395 bound_to 11000

$$$$
