AV-unprocessed.smi:1538|AV-procd|sdf|6195|dock3
  -GOLD-   22720 6363D 1   1.00000     0.00000
 Structure written by MMmdl.
 36 37  0  0  0  0  0  0  0  0  1 V2000
  144.3977  134.4386  150.4584 C   0  0  0  0  0  0  0  0  0  0  0  0
  144.8995  133.1473  150.9317 N   0  0  0  0  0  0  0  0  0  0  0  0
  145.8214  133.2203  152.0741 C   0  0  0  0  0  0  0  0  0  0  0  0
  146.6504  131.9454  152.2759 C   0  0  0  0  0  0  0  0  0  0  0  0
  145.7393  130.7123  152.2221 C   0  0  2  0  0  0  0  0  0  0  0  0
  146.5410  129.4305  152.4862 C   0  0  0  0  0  0  0  0  0  0  0  0
  146.2530  128.7000  153.4350 O   0  0  0  0  0  0  0  0  0  0  0  0
  147.5478  129.1695  151.6382 N   0  0  0  0  0  0  0  0  0  0  0  0
  148.4327  128.0136  151.7202 C   0  0  0  0  0  0  0  0  0  0  0  0
  147.6569  126.6962  151.5575 C   0  0  0  0  0  0  0  0  0  0  0  0
  148.3498  125.7781  150.6774 N   0  0  0  0  0  0  0  0  0  0  0  0
  149.6208  125.9321  150.1400 C   0  0  0  0  0  0  0  0  0  0  0  0
  149.8598  124.8156  149.3708 C   0  0  0  0  0  0  0  0  0  0  0  0
  148.7567  123.9665  149.4214 N   0  0  0  0  0  0  0  0  0  0  0  0
  147.9036  124.6028  150.2138 C   0  0  0  0  0  0  0  0  0  0  0  0
  145.0331  130.6498  150.8527 C   0  0  0  0  0  0  0  0  0  0  0  0
  144.4613  131.9940  150.3710 C   0  0  0  0  0  0  0  0  0  0  0  0
  143.6353  131.9761  149.4579 O   0  0  0  0  0  0  0  0  0  0  0  0
  143.3071  134.4650  150.4818 H   0  0  0  0  0  0  0  0  0  0  0  0
  144.7221  134.6202  149.4328 H   0  0  0  0  0  0  0  0  0  0  0  0
  144.7533  135.2684  151.0703 H   0  0  0  0  0  0  0  0  0  0  0  0
  146.4986  134.0674  151.9563 H   0  0  0  0  0  0  0  0  0  0  0  0
  145.2303  133.4158  152.9696 H   0  0  0  0  0  0  0  0  0  0  0  0
  147.4138  131.8845  151.4982 H   0  0  0  0  0  0  0  0  0  0  0  0
  147.1796  131.9965  153.2284 H   0  0  0  0  0  0  0  0  0  0  0  0
  144.9790  130.8125  152.9995 H   0  0  0  0  0  0  0  0  0  0  0  0
  147.7150  129.8203  150.8844 H   0  0  0  0  0  0  0  0  0  0  0  0
  149.2201  128.0914  150.9684 H   0  0  0  0  0  0  0  0  0  0  0  0
  148.9280  128.0361  152.6914 H   0  0  0  0  0  0  0  0  0  0  0  0
  147.5164  126.2130  152.5254 H   0  0  0  0  0  0  0  0  0  0  0  0
  146.6631  126.8799  151.1471 H   0  0  0  0  0  0  0  0  0  0  0  0
  150.2329  126.7984  150.3444 H   0  0  0  0  0  0  0  0  0  0  0  0
  150.7338  124.5599  148.7903 H   0  0  0  0  0  0  0  0  0  0  0  0
  146.9312  124.2038  150.4635 H   0  0  0  0  0  0  0  0  0  0  0  0
  145.7249  130.3066  150.0820 H   0  0  0  0  0  0  0  0  0  0  0  0
  144.2253  129.9175  150.8886 H   0  0  0  0  0  0  0  0  0  0  0  0
  1  2  1  0  0  0  0
  1 19  1  0  0  0  0
  1 20  1  0  0  0  0
  1 21  1  0  0  0  0
  2 17  1  0  0  0  0
  2  3  1  0  0  0  0
  3  4  1  0  0  0  0
  3 22  1  0  0  0  0
  3 23  1  0  0  0  0
  4  5  1  0  0  0  0
  4 24  1  0  0  0  0
  4 25  1  0  0  0  0
  5  6  1  0  0  0  0
  5 16  1  0  0  0  0
  5 26  1  0  0  0  0
  6  7  2  0  0  0  0
  6  8  1  0  0  0  0
  8  9  1  0  0  0  0
  8 27  1  0  0  0  0
  9 10  1  0  0  0  0
  9 28  1  0  0  0  0
  9 29  1  0  0  0  0
 10 11  1  0  0  0  0
 10 30  1  0  0  0  0
 10 31  1  0  0  0  0
 11 15  1  0  0  0  0
 11 12  1  0  0  0  0
 12 13  2  0  0  0  0
 12 32  1  0  0  0  0
 13 14  1  0  0  0  0
 13 33  1  0  0  0  0
 14 15  2  0  0  0  0
 15 34  1  0  0  0  0
 16 17  1  0  0  0  0
 16 35  1  0  0  0  0
 16 36  1  0  0  0  0
 17 18  2  0  0  0  0
M  END
> <s_m_source_file>
AV-unprocessed.smi

> <i_m_source_file_index>
1538

> <i_lp_mmshare_version>
43012

> <i_f3d_flags>
0

> <s_epik_input>
W0NIM11OMVtDSDJdW0NIMl1bQ0BIXShbQ0gyXUMxPU8pQyg9TylbTkhdW0NIMl1bQ0gyXW4yW2NIXVtjSF1uW2NIXTI=

> <s_epik_cmdline>
J2VwaWtfcHl0aG9uJywgJy1waCcsICc3LjAnLCAnLXRuJywgJzgnLCAnLW1hJywgJzIwMCcsICctbWV0YWxfYmluZGluZycsICctaW1hZScsICc8aW5maWxlLm1hZT4nLCAnLW9tYWUnLCAnPG91dGZpbGUubWFlPic=

> <r_lp_tautomer_probability>
1

> <r_epik_Ionization_Penalty>
0.590576

> <r_epik_Ionization_Penalty_Charging>
0.590576

> <r_epik_Ionization_Penalty_Neutral>
2.97775e-08

> <r_epik_State_Penalty>
0.604111

> <r_epik_Charging_Adjusted_Penalty>
1.19469

> <i_epik_Tot_Q>
0

> <i_epik_Tot_abs_Q>
0

> <r_epik_Metal_State_Penalty>
0.298544

> <b_epik_Metal_Only>
0

> <s_lp_Force_Field>
OPLS_2005

> <r_lp_Energy>
14.6501

> <b_lp_Chiralities_Consistent>
1

> <s_lp_Variant>
AV-unprocessed.smi:1538-4

> <Gold.Version>
5.8.1

> <Gold.Id.Protein>
6NUR|6NUR_protein|mol2

> <Gold.PLP.Fitness>
44.8285

> <Gold.PLP.PLP>
-37.4952

> <Gold.PLP.part.hbond>
-2.0000

> <Gold.PLP.part.metal>
0.0000

> <Gold.PLP.part.buried>
-5.0380

> <Gold.PLP.part.nonpolar>
-31.1930

> <Gold.PLP.part.repulsive>
0.4533

> <Gold.PLP.ligand.clash>
0.0000

> <Gold.PLP.ligand.torsion>
0.3704

> <Gold.PLP.Chemscore.Hbond>
1.6808

> <Gold.PLP.Chemscore.CHOScore>
1.0000

> <Gold.PLP.Chemscore.Metal>
0.0000

> <Gold.Chemscore.Hbonds>
donor molecule, donor type, donor heavy atom, donor atom, acceptor molecule, acceptor atom, score
      L1  H     8    27       P1 10747  0.78
      P1  H 10785 10796       L1    18  0.93
      L1  C    12    32       P1 10737  1.00

> <Gold.PLP.Chemscore.Internal.Correction>
0.0318

> <Gold.Rescore>
     Score         DG    S(hbond)    S(metal)    S(lipo)     H(rot)  DE(clash)    DE(int)     intcor
     13.19     -13.63       1.70        0.00      64.48       1.98       0.08       0.36       ----

> <Gold.Chemscore.Fitness>
13.1911

> <Gold.Chemscore.DG>
-13.6299

> <Gold.Chemscore.ZeroCoef>
-5.4800

> <Gold.Chemscore.Hbond>
1.6976

> <Gold.Chemscore.Metal>
0.0000

> <Gold.Chemscore.Lipo>
64.4793

> <Gold.Chemscore.Internal_Hbond>
0.0000

> <Gold.Chemscore.DEClash>
0.0781

> <Gold.Chemscore.DEInternal>
0.3607

> <Gold.Chemscore.Rot>
1.9782

> <Gold.Chemscore.Internal.Correction>
   9.000000E+99

> <Gold.Chemscore.Hbonds>
donor molecule, donor type, donor heavy atom, donor atom, acceptor molecule, acceptor atom, score
      L1  H     8    27       P1 10747  0.77
      P1  H 10785 10796       L1    18  0.78

> <Gold.Chemscore.Hbond.Weighted>
-5.6701

> <Gold.Chemscore.Metal.Weighted>
-0.0000

> <Gold.Chemscore.Lipo.Weighted>
-7.5441

> <Gold.Chemscore.Internal_Hbond.Weighted>
0.0000

> <Gold.Chemscore.DEClash.Weighted>
0.0781

> <Gold.Chemscore.DEInternal.Weighted>
0.3607

> <Gold.Chemscore.Rot.Weighted>
5.0643

> <Gold.Chemscore.Internal.Correction.Weighted>
   9.000000E+99

> <Gold.Protein.RotatedTorsions>
[ 6907 6896 6895 6894 ] final  121.73 input  -60.11 | X-H torsion
[ 7974 7965 7964 7962 ] final  131.20 input  175.53 | X-H torsion
[ 8008 7997 7996 7995 ] final    7.58 input   59.86 | X-H torsion
[ 10167 10162 10161 10158 ] final  102.16 input  -65.29 | X-H torsion
[ 10718 10713 10712 10709 ] final  161.37 input   66.30 | X-H torsion
[ 10763 10752 10751 10750 ] final -178.50 input  -60.55 | X-H torsion
[ 11005 11000 10999 10996 ] final    7.82 input  -57.11 | X-H torsion

> <Gold.Protein.ActiveResidues>
 VAL166  LYS551  ARG553  GLY616  TRP617  ASP618  TYR619  PRO620  LYS621  CYS622 
 ASP623  PHE694  ASN695  SER759  ASP760  ASP761  ALA762  ILE779  LEU786  VAL792 
 PHE793  MET794  SER795  GLU796  ALA797  LYS798  CYS799  TRP800  GLU811  SER814 

> <Gold.Protein.RotatedAtoms>
  152.4299  133.7259  159.6559 H   0  0  0  0  0  0  0  0  0  0  0  0  # atno 6907 bound_to 6896
  150.8177  133.8297  159.3159 H   0  0  0  0  0  0  0  0  0  0  0  0  # atno 6908 bound_to 6896
  151.5988  135.1051  160.0107 H   0  0  0  0  0  0  0  0  0  0  0  0  # atno 6909 bound_to 6896
  145.0098  139.4231  143.5250 H   0  0  0  0  0  0  0  0  0  0  0  0  # atno 7974 bound_to 7965
  154.7557  140.2775  155.6255 H   0  0  0  0  0  0  0  0  0  0  0  0  # atno 8008 bound_to 7997
  156.2905  140.2670  156.2249 H   0  0  0  0  0  0  0  0  0  0  0  0  # atno 8009 bound_to 7997
  155.0080  140.0372  157.2377 H   0  0  0  0  0  0  0  0  0  0  0  0  # atno 8010 bound_to 7997
  139.7374  144.7020  151.0627 H   0  0  0  0  0  0  0  0  0  0  0  0  # atno 10167 bound_to 10162
  157.1374  131.0532  151.2343 H   0  0  0  0  0  0  0  0  0  0  0  0  # atno 10718 bound_to 10713
  154.5469  135.2810  155.1044 H   0  0  0  0  0  0  0  0  0  0  0  0  # atno 10763 bound_to 10752
  154.2505  135.6340  153.5242 H   0  0  0  0  0  0  0  0  0  0  0  0  # atno 10764 bound_to 10752
  152.9993  135.5581  154.6024 H   0  0  0  0  0  0  0  0  0  0  0  0  # atno 10765 bound_to 10752
  140.5440  134.0347  155.7913 H   0  0  0  0  0  0  0  0  0  0  0  0  # atno 11005 bound_to 11000
  146.3468  139.9535  142.8726 LP  0  0  0  0  0  0  0  0  0  0  0  0  # atno 17320 bound_to 7965
  145.2039  140.9866  143.4140 LP  0  0  0  0  0  0  0  0  0  0  0  0  # atno 17321 bound_to 7965
  140.7781  143.4966  150.9824 LP  0  0  0  0  0  0  0  0  0  0  0  0  # atno 17342 bound_to 10162
  139.8654  143.7260  152.3170 LP  0  0  0  0  0  0  0  0  0  0  0  0  # atno 17343 bound_to 10162
  157.4338  130.7505  149.7012 LP  0  0  0  0  0  0  0  0  0  0  0  0  # atno 17370 bound_to 10713
  155.9795  130.4039  150.3582 LP  0  0  0  0  0  0  0  0  0  0  0  0  # atno 17371 bound_to 10713
  141.1211  133.9460  157.2728 LP  0  0  0  0  0  0  0  0  0  0  0  0  # atno 17394 bound_to 11000
  139.9489  135.0179  156.8936 LP  0  0  0  0  0  0  0  0  0  0  0  0  # atno 17395 bound_to 11000

$$$$
