#       Name:                AV-unprocessed.smi:3263
#       Creating user name   scv26
#       Creation time:       Fri Mar 27 18:39:23 2020


#       File generated by GOLD software.
#

@<TRIPOS>MOLECULE
AV-unprocessed.smi:3263
    44    46     1
SMALL
NO_CHARGES


@<TRIPOS>ATOM
      1 ****         0.1770   1.2115  -0.6605 O.2            1 S1                 0.0000
      2 ****        -0.3234   0.1047  -0.4599 C.2            1 S1                 0.0000
      3 ****        -1.8461  -0.0636  -0.4201 C.3            1 S1                 0.0000
      4 ****        -2.5658   1.0427   0.3841 C.3            1 S1                 0.0000
      5 ****        -2.2089   1.0680   1.8905 C.3            1 S1                 0.0000
      6 ****        -3.5834   0.9737   2.5769 C.3            1 S1                 0.0000
      7 ****        -4.3655   2.2806   2.3488 C.3            1 S1                 0.0000
      8 ****        -4.7523   2.1886   0.8605 C.3            1 S1                 0.0000
      9 ****        -4.1012   0.8627   0.4225 C.3            1 S1                 0.0000
     10 ****        -4.3155   0.0001   1.6630 C.3            1 S1                 0.0000
     11 ****         0.4041  -1.0067  -0.2709 N.am           1 S1                 0.0000
     12 ****         1.8609  -1.0607  -0.2609 C.3            1 S1                 0.0000
     13 ****         2.4362  -1.0997  -1.6865 C.3            1 S1                 0.0000
     14 ****         3.9513  -1.1575  -1.6915 C.ar           1 S1                 0.0000
     15 ****         4.7447  -0.0155  -1.9350 C.ar           1 S1                 0.0000
     16 ****         6.1500  -0.1364  -1.9176 C.ar           1 S1                 0.0000
     17 ****         6.7316  -1.3946  -1.6571 C.ar           1 S1                 0.0000
     18 ****         5.8916  -2.5019  -1.4203 C.ar           1 S1                 0.0000
     19 ****         4.5496  -2.3457  -1.4453 N.pl3          1 S1                 1.0000
     20 ****        -2.2067  -0.0579  -1.4493 H              1 S1                 0.0000
     21 ****        -2.0945  -1.0457  -0.0152 H              1 S1                 0.0000
     22 ****        -2.3300   2.0066  -0.0697 H              1 S1                 0.0000
     23 ****        -1.5945   0.2110   2.1699 H              1 S1                 0.0000
     24 ****        -1.6641   1.9698   2.1723 H              1 S1                 0.0000
     25 ****        -3.5293   0.6724   3.6233 H              1 S1                 0.0000
     26 ****        -5.2577   2.3165   2.9753 H              1 S1                 0.0000
     27 ****        -3.7643   3.1636   2.5684 H              1 S1                 0.0000
     28 ****        -5.8363   2.1400   0.7505 H              1 S1                 0.0000
     29 ****        -4.3976   3.0423   0.2821 H              1 S1                 0.0000
     30 ****        -4.5240   0.4594  -0.4981 H              1 S1                 0.0000
     31 ****        -3.8402  -0.9803   1.6044 H              1 S1                 0.0000
     32 ****        -5.3676  -0.1300   1.9232 H              1 S1                 0.0000
     33 ****        -0.0881  -1.8742  -0.1125 H              1 S1                 0.0000
     34 ****         2.2618  -0.2080   0.2899 H              1 S1                 0.0000
     35 ****         2.1612  -1.9533   0.2885 H              1 S1                 0.0000
     36 ****         2.0465  -1.9646  -2.2251 H              1 S1                 0.0000
     37 ****         2.1156  -0.2202  -2.2465 H              1 S1                 0.0000
     38 ****         4.2846   0.9424  -2.1305 H              1 S1                 0.0000
     39 ****         6.7741   0.7260  -2.1007 H              1 S1                 0.0000
     40 ****         7.8058  -1.5079  -1.6380 H              1 S1                 0.0000
     41 ****         6.2497  -3.4997  -1.2124 H              1 S1                 0.0000
     42 ****         3.9613  -3.1605  -1.2696 H              1 S1                 0.0000
     43 ****        -0.4110   2.0085  -0.7989 LP             1 S1                 0.0000
     44 ****         1.1715   1.3136  -0.6851 LP             1 S1                 0.0000
@<TRIPOS>BOND
    1    1    2 2     
    2    2    3 1     
    3    2   11 am    
    4    3    4 1     
    5    3   20 1     
    6    3   21 1     
    7    4    9 1     
    8    4    5 1     
    9    4   22 1     
   10    5    6 1     
   11    5   23 1     
   12    5   24 1     
   13    6   10 1     
   14    6    7 1     
   15    6   25 1     
   16    7    8 1     
   17    7   26 1     
   18    7   27 1     
   19    8    9 1     
   20    8   28 1     
   21    8   29 1     
   22    9   10 1     
   23    9   30 1     
   24   10   31 1     
   25   10   32 1     
   26   11   12 1     
   27   11   33 1     
   28   12   13 1     
   29   12   34 1     
   30   12   35 1     
   31   13   14 1     
   32   13   36 1     
   33   13   37 1     
   34   14   19 ar    
   35   14   15 ar    
   36   15   16 ar    
   37   15   38 1     
   38   16   17 ar    
   39   16   39 1     
   40   17   18 ar    
   41   17   40 1     
   42   18   19 ar    
   43   18   41 1     
   44   19   42 1     
   45    1   43 1     
   46    1   44 1     
@<TRIPOS>SUBSTRUCTURE
      1 S1             1
@<TRIPOS>SET
LONE_PAIRS      STATIC     ATOMS    <user>   **** ""
2 43 44
DONOR_HYDROGENS      STATIC     ATOMS    <user>   **** ""
2 33 42
ATOM$BLUE        STATIC     ATOMS    COLORGROUP SYSTEM
2 43 44
ATOM$RED        STATIC     ATOMS    COLORGROUP SYSTEM
2 33 42
