AV-unprocessed.smi:1329|AV-procd|sdf|5484|dock4
  -GOLD-   22720 5 63D 1   1.00000     0.00000
 Structure written by MMmdl.
 42 43  0  0  0  0  0  0  0  0  1 V2000
  150.4290  135.7416  163.3063 C   0  0  0  0  0  0  0  0  0  0  0  0
  150.2656  135.2677  161.8874 C   0  0  0  0  0  0  0  0  0  0  0  0
  149.9630  136.1640  161.0066 N   0  0  0  0  0  0  0  0  0  0  0  0
  149.7862  135.8352  159.6773 N   0  0  0  0  0  0  0  0  0  0  0  0
  149.4249  136.9746  158.8246 C   0  0  0  0  0  0  0  0  0  0  0  0
  150.6158  137.9355  158.6110 C   0  0  1  0  0  0  0  0  0  0  0  0
  151.4704  137.3555  157.6449 O   0  0  0  0  0  0  0  0  0  0  0  0
  150.1657  139.2988  158.0598 C   0  0  0  0  0  0  0  0  0  0  0  0
  150.8434  140.3254  158.7658 O   0  0  0  0  0  0  0  0  0  0  0  0
  150.9355  141.5335  158.0309 C   0  0  0  0  0  0  0  0  0  0  0  0
  151.2638  142.7016  158.9379 C   0  0  0  0  0  0  0  0  0  0  0  0
  152.3401  142.6159  159.8457 C   0  0  0  0  0  0  0  0  0  0  0  0
  152.6470  143.7064  160.6832 C   0  0  0  0  0  0  0  0  0  0  0  0
  151.8793  144.8853  160.6149 C   0  0  0  0  0  0  0  0  0  0  0  0
  150.8053  144.9744  159.7083 C   0  0  0  0  0  0  0  0  0  0  0  0
  150.4985  143.8845  158.8701 C   0  0  0  0  0  0  0  0  0  0  0  0
  149.9104  134.5772  159.1651 C   0  0  0  0  0  0  0  0  0  0  0  0
  149.7394  134.3280  157.9708 O   0  0  0  0  0  0  0  0  0  0  0  0
  150.2554  133.5668  160.1677 C   0  0  0  0  0  0  0  0  0  0  0  0
  150.3912  132.2342  159.6745 C   0  0  0  0  0  0  0  0  0  0  0  0
  150.5136  131.1489  159.2911 N   0  0  0  0  0  0  0  0  0  0  0  0
  150.4292  133.8767  161.4768 C   0  0  0  0  0  0  0  0  0  0  0  0
  150.7831  132.8646  162.5578 C   0  0  0  0  0  0  0  0  0  0  0  0
  151.4417  135.5531  163.6633 H   0  0  0  0  0  0  0  0  0  0  0  0
  149.7346  135.2253  163.9693 H   0  0  0  0  0  0  0  0  0  0  0  0
  150.2401  136.8120  163.4024 H   0  0  0  0  0  0  0  0  0  0  0  0
  149.0280  136.6358  157.8651 H   0  0  0  0  0  0  0  0  0  0  0  0
  148.5955  137.5070  159.2934 H   0  0  0  0  0  0  0  0  0  0  0  0
  151.1580  138.0855  159.5455 H   0  0  0  0  0  0  0  0  0  0  0  0
  151.8476  136.5708  158.0121 H   0  0  0  0  0  0  0  0  0  0  0  0
  150.3391  139.3703  156.9843 H   0  0  0  0  0  0  0  0  0  0  0  0
  149.0949  139.4294  158.2234 H   0  0  0  0  0  0  0  0  0  0  0  0
  151.7103  141.4475  157.2673 H   0  0  0  0  0  0  0  0  0  0  0  0
  149.9954  141.7301  157.5125 H   0  0  0  0  0  0  0  0  0  0  0  0
  152.9349  141.7158  159.9007 H   0  0  0  0  0  0  0  0  0  0  0  0
  153.4718  143.6388  161.3770 H   0  0  0  0  0  0  0  0  0  0  0  0
  152.1149  145.7215  161.2566 H   0  0  0  0  0  0  0  0  0  0  0  0
  150.2175  145.8790  159.6542 H   0  0  0  0  0  0  0  0  0  0  0  0
  149.6763  143.9592  158.1736 H   0  0  0  0  0  0  0  0  0  0  0  0
  150.9207  131.8614  162.1555 H   0  0  0  0  0  0  0  0  0  0  0  0
  149.9908  132.8127  163.3050 H   0  0  0  0  0  0  0  0  0  0  0  0
  151.7104  133.1448  163.0582 H   0  0  0  0  0  0  0  0  0  0  0  0
  1  2  1  0  0  0  0
  1 24  1  0  0  0  0
  1 25  1  0  0  0  0
  1 26  1  0  0  0  0
  2 22  1  0  0  0  0
  2  3  2  0  0  0  0
  3  4  1  0  0  0  0
  4  5  1  0  0  0  0
  4 17  1  0  0  0  0
  5  6  1  0  0  0  0
  5 27  1  0  0  0  0
  5 28  1  0  0  0  0
  6  7  1  0  0  0  0
  6  8  1  0  0  0  0
  6 29  1  0  0  0  0
  7 30  1  0  0  0  0
  8  9  1  0  0  0  0
  8 31  1  0  0  0  0
  8 32  1  0  0  0  0
  9 10  1  0  0  0  0
 10 11  1  0  0  0  0
 10 33  1  0  0  0  0
 10 34  1  0  0  0  0
 11 16  1  0  0  0  0
 11 12  2  0  0  0  0
 12 13  1  0  0  0  0
 12 35  1  0  0  0  0
 13 14  2  0  0  0  0
 13 36  1  0  0  0  0
 14 15  1  0  0  0  0
 14 37  1  0  0  0  0
 15 16  2  0  0  0  0
 15 38  1  0  0  0  0
 16 39  1  0  0  0  0
 17 18  2  0  0  0  0
 17 19  1  0  0  0  0
 19 20  1  0  0  0  0
 19 22  2  0  0  0  0
 20 21  3  0  0  0  0
 22 23  1  0  0  0  0
 23 40  1  0  0  0  0
 23 41  1  0  0  0  0
 23 42  1  0  0  0  0
M  END
> <s_m_source_file>
AV-unprocessed.smi

> <i_m_source_file_index>
1329

> <i_lp_mmshare_version>
43012

> <i_f3d_flags>
0

> <s_epik_input>
TiNDYyhjMVtDSDNdKWMoPU8pbihuYzFbQ0gzXSlbQ0gyXVtDQEhdKFtPSF0pW0NIMl1PW0NIMl1jMltjSF1bY0hdW2NIXVtjSF1bY0hdMg==

> <s_epik_cmdline>
J2VwaWtfcHl0aG9uJywgJy1waCcsICc3LjAnLCAnLXRuJywgJzgnLCAnLW1hJywgJzIwMCcsICctbWV0YWxfYmluZGluZycsICctaW1hZScsICc8aW5maWxlLm1hZT4nLCAnLW9tYWUnLCAnPG91dGZpbGUubWFlPic=

> <r_lp_tautomer_probability>
1

> <r_epik_Ionization_Penalty>
6.13319e-08

> <r_epik_Ionization_Penalty_Charging>
2.19172e-10

> <r_epik_Ionization_Penalty_Neutral>
6.11128e-08

> <r_epik_State_Penalty>
-0

> <r_epik_Charging_Adjusted_Penalty>
2.19172e-10

> <i_epik_Tot_Q>
0

> <i_epik_Tot_abs_Q>
0

> <r_epik_Metal_State_Penalty>
-0

> <b_epik_Metal_Only>
0

> <s_lp_Force_Field>
OPLS_2005

> <r_lp_Energy>
31.6334

> <b_lp_Chiralities_Consistent>
1

> <s_lp_Variant>
AV-unprocessed.smi:1329-2

> <Gold.Version>
5.8.1

> <Gold.Id.Protein>
6NUR|6NUR_protein|mol2

> <Gold.PLP.Fitness>
53.7027

> <Gold.PLP.PLP>
-49.0749

> <Gold.PLP.part.hbond>
-3.9357

> <Gold.PLP.part.metal>
0.0000

> <Gold.PLP.part.buried>
-2.7564

> <Gold.PLP.part.nonpolar>
-41.9834

> <Gold.PLP.part.repulsive>
0.0000

> <Gold.PLP.ligand.clash>
0.0000

> <Gold.PLP.ligand.torsion>
1.2026

> <Gold.PLP.Chemscore.Hbond>
2.2896

> <Gold.PLP.Chemscore.CHOScore>
0.0000

> <Gold.PLP.Chemscore.Metal>
0.0000

> <Gold.Chemscore.Hbonds>
donor molecule, donor type, donor heavy atom, donor atom, acceptor molecule, acceptor atom, score
      P1  H  6931  6943       L1     3  0.02

> <Gold.PLP.Chemscore.Internal.Correction>
0.1641

> <Gold.Rescore>
     Score         DG    S(hbond)    S(metal)    S(lipo)     H(rot)  DE(clash)    DE(int)     intcor
     15.24     -16.85       1.22        0.00     116.55       2.48       0.16       1.44       ----

> <Gold.Chemscore.Fitness>
15.2444

> <Gold.Chemscore.DG>
-16.8467

> <Gold.Chemscore.ZeroCoef>
-5.4800

> <Gold.Chemscore.Hbond>
1.2196

> <Gold.Chemscore.Metal>
0.0000

> <Gold.Chemscore.Lipo>
116.5470

> <Gold.Chemscore.Internal_Hbond>
0.0000

> <Gold.Chemscore.DEClash>
0.1598

> <Gold.Chemscore.DEInternal>
1.4426

> <Gold.Chemscore.Rot>
2.4777

> <Gold.Chemscore.Internal.Correction>
   9.000000E+99

> <Gold.Chemscore.Hbonds>
donor molecule, donor type, donor heavy atom, donor atom, acceptor molecule, acceptor atom, score
      P1  H  6931  6943       L1     3  0.05

> <Gold.Chemscore.Hbond.Weighted>
-4.0736

> <Gold.Chemscore.Metal.Weighted>
-0.0000

> <Gold.Chemscore.Lipo.Weighted>
-13.6360

> <Gold.Chemscore.Internal_Hbond.Weighted>
0.0000

> <Gold.Chemscore.DEClash.Weighted>
0.1598

> <Gold.Chemscore.DEInternal.Weighted>
1.4426

> <Gold.Chemscore.Rot.Weighted>
6.3428

> <Gold.Chemscore.Internal.Correction.Weighted>
   9.000000E+99

> <Gold.Protein.RotatedTorsions>
[ 6907 6896 6895 6894 ] final    9.84 input  -60.11 | X-H torsion
[ 7974 7965 7964 7962 ] final -145.00 input  175.53 | X-H torsion
[ 8008 7997 7996 7995 ] final  175.93 input   59.86 | X-H torsion
[ 10167 10162 10161 10158 ] final  -57.34 input  -65.29 | X-H torsion
[ 10718 10713 10712 10709 ] final -103.46 input   66.30 | X-H torsion
[ 10763 10752 10751 10750 ] final  -54.07 input  -60.55 | X-H torsion
[ 11005 11000 10999 10996 ] final  -49.58 input  -57.11 | X-H torsion

> <Gold.Protein.ActiveResidues>
 VAL166  LYS551  ARG553  GLY616  TRP617  ASP618  TYR619  PRO620  LYS621  CYS622 
 ASP623  PHE694  ASN695  SER759  ASP760  ASP761  ALA762  ILE779  LEU786  VAL792 
 PHE793  MET794  SER795  GLU796  ALA797  LYS798  CYS799  TRP800  GLU811  SER814 

> <Gold.Protein.RotatedAtoms>
  151.7286  135.0879  160.0295 H   0  0  0  0  0  0  0  0  0  0  0  0  # atno 6907 bound_to 6896
  152.3556  133.6228  159.5985 H   0  0  0  0  0  0  0  0  0  0  0  0  # atno 6908 bound_to 6896
  150.7569  133.9422  159.3501 H   0  0  0  0  0  0  0  0  0  0  0  0  # atno 6909 bound_to 6896
  144.8258  140.5639  143.5548 H   0  0  0  0  0  0  0  0  0  0  0  0  # atno 7974 bound_to 7965
  156.0819  140.1396  156.9702 H   0  0  0  0  0  0  0  0  0  0  0  0  # atno 8008 bound_to 7997
  154.4590  140.0950  156.6888 H   0  0  0  0  0  0  0  0  0  0  0  0  # atno 8009 bound_to 7997
  155.5062  140.3452  155.4382 H   0  0  0  0  0  0  0  0  0  0  0  0  # atno 8010 bound_to 7997
  140.6264  143.2440  151.5353 H   0  0  0  0  0  0  0  0  0  0  0  0  # atno 10167 bound_to 10162
  156.0266  130.5468  150.7256 H   0  0  0  0  0  0  0  0  0  0  0  0  # atno 10718 bound_to 10713
  154.1689  135.6462  153.5004 H   0  0  0  0  0  0  0  0  0  0  0  0  # atno 10763 bound_to 10752
  153.0090  135.5378  154.6633 H   0  0  0  0  0  0  0  0  0  0  0  0  # atno 10764 bound_to 10752
  154.5967  135.2939  155.0551 H   0  0  0  0  0  0  0  0  0  0  0  0  # atno 10765 bound_to 10752
  141.0767  133.6664  156.3606 H   0  0  0  0  0  0  0  0  0  0  0  0  # atno 11005 bound_to 11000
  145.5004  139.1483  143.3660 LP  0  0  0  0  0  0  0  0  0  0  0  0  # atno 17320 bound_to 7965
  146.2563  140.5144  142.8872 LP  0  0  0  0  0  0  0  0  0  0  0  0  # atno 17321 bound_to 7965
  139.5484  144.2461  152.1484 LP  0  0  0  0  0  0  0  0  0  0  0  0  # atno 17342 bound_to 10162
  140.1693  144.4951  150.6588 LP  0  0  0  0  0  0  0  0  0  0  0  0  # atno 17343 bound_to 10162
  157.4861  131.0907  151.0481 LP  0  0  0  0  0  0  0  0  0  0  0  0  # atno 17370 bound_to 10713
  157.0900  130.5938  149.5438 LP  0  0  0  0  0  0  0  0  0  0  0  0  # atno 17371 bound_to 10713
  140.5558  134.5983  157.5420 LP  0  0  0  0  0  0  0  0  0  0  0  0  # atno 17394 bound_to 11000
  139.9579  134.7502  156.0300 LP  0  0  0  0  0  0  0  0  0  0  0  0  # atno 17395 bound_to 11000

$$$$
