AV-unprocessed.smi:1744|AV-procd|sdf|7027|dock7
  -GOLD-   22720 8243D 1   1.00000     0.00000
 Structure written by MMmdl.
 43 44  0  0  0  0  0  0  0  0  3 V2000
  151.8469  145.5057  159.5934 C   0  0  0  0  0  0  0  0  0  0  0  0
  152.2335  144.7647  158.3077 C   0  0  0  0  0  0  0  0  0  0  0  0
  151.8312  143.3719  158.3465 N   0  0  0  0  0  0  0  0  0  0  0  0
  150.9742  142.7070  157.4924 C   0  0  0  0  0  0  0  0  0  0  0  0
  150.9249  141.4218  157.9414 C   0  0  0  0  0  0  0  0  0  0  0  0
  150.1554  140.3881  157.3520 N   0  0  0  0  0  0  0  0  0  0  0  0
  150.4864  139.0917  157.2408 C   0  0  0  0  0  0  0  0  0  0  0  0
  151.5417  138.5937  157.6325 O   0  0  0  0  0  0  0  0  0  0  0  0
  149.5179  138.3927  156.6319 N   0  0  0  0  0  0  0  0  0  0  0  0
  149.5700  136.9638  156.3369 C   0  0  2  0  0  0  0  0  0  0  0  0
  150.7797  136.6366  155.4424 C   0  0  0  0  0  0  0  0  0  0  0  0
  150.7831  135.1562  155.0276 C   0  0  0  0  0  0  0  0  0  0  0  0
  149.5148  134.7867  154.3506 N   0  3  1  0  0  0  0  0  0  0  0  0
  149.5466  133.4068  153.8024 C   0  0  0  0  0  0  0  0  0  0  0  0
  148.1499  132.9722  153.3454 C   0  0  0  0  0  0  0  0  0  0  0  0
  147.7051  133.6908  152.2947 N   0  5  0  0  0  0  0  0  0  0  0  0
  147.5741  132.0612  153.9355 O   0  0  0  0  0  0  0  0  0  0  0  0
  148.3350  135.0505  155.2172 C   0  0  0  0  0  0  0  0  0  0  0  0
  148.2746  136.5297  155.6320 C   0  0  0  0  0  0  0  0  0  0  0  0
  151.7751  141.3755  159.0824 C   0  0  0  0  0  0  0  0  0  0  0  0
  152.3174  142.5608  159.3186 N   0  0  0  0  0  0  0  0  0  0  0  0
  152.1811  146.5428  159.5589 H   0  0  0  0  0  0  0  0  0  0  0  0
  152.3001  145.0383  160.4679 H   0  0  0  0  0  0  0  0  0  0  0  0
  150.7660  145.5104  159.7374 H   0  0  0  0  0  0  0  0  0  0  0  0
  151.7717  145.2398  157.4411 H   0  0  0  0  0  0  0  0  0  0  0  0
  153.3125  144.8117  158.1578 H   0  0  0  0  0  0  0  0  0  0  0  0
  150.4903  143.1946  156.6590 H   0  0  0  0  0  0  0  0  0  0  0  0
  149.2653  140.6671  156.9662 H   0  0  0  0  0  0  0  0  0  0  0  0
  148.6860  138.8871  156.3437 H   0  0  0  0  0  0  0  0  0  0  0  0
  149.6553  136.4049  157.2711 H   0  0  0  0  0  0  0  0  0  0  0  0
  150.7594  137.2611  154.5480 H   0  0  0  0  0  0  0  0  0  0  0  0
  151.7090  136.8728  155.9623 H   0  0  0  0  0  0  0  0  0  0  0  0
  151.6243  134.9762  154.3572 H   0  0  0  0  0  0  0  0  0  0  0  0
  150.9299  134.5190  155.9011 H   0  0  0  0  0  0  0  0  0  0  0  0
  150.2146  133.3541  152.9408 H   0  0  0  0  0  0  0  0  0  0  0  0
  149.9421  132.7121  154.5451 H   0  0  0  0  0  0  0  0  0  0  0  0
  148.1228  134.6095  152.1050 H   0  0  0  0  0  0  0  0  0  0  0  0
  147.4146  134.7920  154.6929 H   0  0  0  0  0  0  0  0  0  0  0  0
  148.3820  134.4138  156.1020 H   0  0  0  0  0  0  0  0  0  0  0  0
  147.4188  136.6935  156.2881 H   0  0  0  0  0  0  0  0  0  0  0  0
  148.1077  137.1448  154.7463 H   0  0  0  0  0  0  0  0  0  0  0  0
  152.0156  140.5513  159.7372 H   0  0  0  0  0  0  0  0  0  0  0  0
  149.4313  135.3919  153.5457 H   0  0  0  0  0  0  0  0  0  0  0  0
  1  2  1  0  0  0  0
  1 22  1  0  0  0  0
  1 23  1  0  0  0  0
  1 24  1  0  0  0  0
  2  3  1  0  0  0  0
  2 25  1  0  0  0  0
  2 26  1  0  0  0  0
  3 21  1  0  0  0  0
  3  4  1  0  0  0  0
  4  5  2  0  0  0  0
  4 27  1  0  0  0  0
  5  6  1  0  0  0  0
  5 20  1  0  0  0  0
  6  7  1  0  0  0  0
  6 28  1  0  0  0  0
  7  8  2  0  0  0  0
  7  9  1  0  0  0  0
  9 10  1  0  0  0  0
  9 29  1  0  0  0  0
 10 19  1  0  0  0  0
 10 11  1  0  0  0  0
 10 30  1  0  0  0  0
 11 12  1  0  0  0  0
 11 31  1  0  0  0  0
 11 32  1  0  0  0  0
 12 13  1  0  0  0  0
 12 33  1  0  0  0  0
 12 34  1  0  0  0  0
 13 14  1  0  0  0  0
 13 18  1  0  0  0  0
 13 43  1  0  0  0  0
 14 15  1  0  0  0  0
 14 35  1  0  0  0  0
 14 36  1  0  0  0  0
 15 16  1  0  0  0  0
 15 17  2  0  0  0  0
 16 37  1  0  0  0  0
 18 19  1  0  0  0  0
 18 38  1  0  0  0  0
 18 39  1  0  0  0  0
 19 40  1  0  0  0  0
 19 41  1  0  0  0  0
 20 21  2  0  0  0  0
 20 42  1  0  0  0  0
M  CHG  1  13   1
M  CHG  1  16  -1
M  END
> <s_m_source_file>
AV-unprocessed.smi

> <i_m_source_file_index>
1744

> <i_lp_mmshare_version>
43012

> <i_f3d_flags>
0

> <s_epik_input>
W0NIM11bQ0gyXW4xW2NIXWMoW2NIXW4xKVtOSF1DKD1PKVtOSF1bQ0hdMltDSDJdW0NIMl1OKFtDSDJdW0NIMl0yKVtDSDJdQyg9TylbTkgyXQ==

> <s_epik_cmdline>
J2VwaWtfcHl0aG9uJywgJy1waCcsICc3LjAnLCAnLXRuJywgJzgnLCAnLW1hJywgJzIwMCcsICctbWV0YWxfYmluZGluZycsICctaW1hZScsICc8aW5maWxlLm1hZT4nLCAnLW9tYWUnLCAnPG91dGZpbGUubWFlPic=

> <r_lp_tautomer_probability>
1

> <r_epik_Ionization_Penalty>
5.72895

> <r_epik_Ionization_Penalty_Charging>
5.7288

> <r_epik_Ionization_Penalty_Neutral>
0.000148676

> <r_epik_State_Penalty>
6.54882

> <r_epik_Charging_Adjusted_Penalty>
12.2776

> <i_epik_Tot_Q>
0

> <i_epik_Tot_abs_Q>
2

> <r_epik_Metal_State_Penalty>
2.51309

> <b_epik_Metal_Only>
1

> <s_lp_Force_Field>
OPLS_2005

> <r_lp_Energy>
12.1226

> <b_lp_Chiralities_Consistent>
1

> <s_lp_Variant>
AV-unprocessed.smi:1744-4

> <Gold.Version>
5.8.1

> <Gold.Id.Protein>
6NUR|6NUR_protein|mol2

> <Gold.PLP.Fitness>
45.1622

> <Gold.PLP.PLP>
-33.9323

> <Gold.PLP.part.hbond>
-2.0000

> <Gold.PLP.part.metal>
0.0000

> <Gold.PLP.part.buried>
-4.8698

> <Gold.PLP.part.nonpolar>
-27.4025

> <Gold.PLP.part.repulsive>
0.1323

> <Gold.PLP.ligand.clash>
0.0000

> <Gold.PLP.ligand.torsion>
0.4057

> <Gold.PLP.Chemscore.Hbond>
3.0000

> <Gold.PLP.Chemscore.CHOScore>
1.0000

> <Gold.PLP.Chemscore.Metal>
0.0000

> <Gold.Chemscore.Hbonds>
donor molecule, donor type, donor heavy atom, donor atom, acceptor molecule, acceptor atom, score
      L1  H    13    43       P1  7948  1.80
      L1  H    16    37       P1  7948  0.90
      L1  C     4    27       P1  8028  1.00

> <Gold.PLP.Chemscore.Internal.Correction>
0.0412

> <Gold.Rescore>
     Score         DG    S(hbond)    S(metal)    S(lipo)     H(rot)  DE(clash)    DE(int)     intcor
     13.43     -13.83       1.93        0.00      64.11       2.18       0.01       0.40       ----

> <Gold.Chemscore.Fitness>
13.4270

> <Gold.Chemscore.DG>
-13.8316

> <Gold.Chemscore.ZeroCoef>
-5.4800

> <Gold.Chemscore.Hbond>
1.9280

> <Gold.Chemscore.Metal>
0.0000

> <Gold.Chemscore.Lipo>
64.1122

> <Gold.Chemscore.Internal_Hbond>
0.0000

> <Gold.Chemscore.DEClash>
0.0060

> <Gold.Chemscore.DEInternal>
0.3987

> <Gold.Chemscore.Rot>
2.1833

> <Gold.Chemscore.Internal.Correction>
   9.000000E+99

> <Gold.Chemscore.Hbonds>
donor molecule, donor type, donor heavy atom, donor atom, acceptor molecule, acceptor atom, score
      L1  H    13    43       P1  7948  0.18
      L1  H    16    37       P1  7948  0.18

> <Gold.Chemscore.Hbond.Weighted>
-6.4397

> <Gold.Chemscore.Metal.Weighted>
-0.0000

> <Gold.Chemscore.Lipo.Weighted>
-7.5011

> <Gold.Chemscore.Internal_Hbond.Weighted>
0.0000

> <Gold.Chemscore.DEClash.Weighted>
0.0060

> <Gold.Chemscore.DEInternal.Weighted>
0.3987

> <Gold.Chemscore.Rot.Weighted>
5.5892

> <Gold.Chemscore.Internal.Correction.Weighted>
   9.000000E+99

> <Gold.Protein.RotatedTorsions>
[ 6907 6896 6895 6894 ] final  177.24 input  -60.11 | X-H torsion
[ 7974 7965 7964 7962 ] final  -24.23 input  175.53 | X-H torsion
[ 8008 7997 7996 7995 ] final  -21.49 input   59.86 | X-H torsion
[ 10167 10162 10161 10158 ] final  -10.09 input  -65.29 | X-H torsion
[ 10718 10713 10712 10709 ] final   49.48 input   66.30 | X-H torsion
[ 10763 10752 10751 10750 ] final  -24.34 input  -60.55 | X-H torsion
[ 11005 11000 10999 10996 ] final   17.00 input  -57.11 | X-H torsion

> <Gold.Protein.ActiveResidues>
 VAL166  LYS551  ARG553  GLY616  TRP617  ASP618  TYR619  PRO620  LYS621  CYS622 
 ASP623  PHE694  ASN695  SER759  ASP760  ASP761  ALA762  ILE779  LEU786  VAL792 
 PHE793  MET794  SER795  GLU796  ALA797  LYS798  CYS799  TRP800  GLU811  SER814 

> <Gold.Protein.RotatedAtoms>
  151.7072  133.3312  159.3281 H   0  0  0  0  0  0  0  0  0  0  0  0  # atno 6907 bound_to 6896
  150.7710  134.6564  159.6325 H   0  0  0  0  0  0  0  0  0  0  0  0  # atno 6908 bound_to 6896
  152.3733  134.6703  160.0220 H   0  0  0  0  0  0  0  0  0  0  0  0  # atno 6909 bound_to 6896
  146.1567  140.4723  142.8588 H   0  0  0  0  0  0  0  0  0  0  0  0  # atno 7974 bound_to 7965
  154.4702  140.2033  156.0014 H   0  0  0  0  0  0  0  0  0  0  0  0  # atno 8008 bound_to 7997
  156.0998  140.3245  155.7897 H   0  0  0  0  0  0  0  0  0  0  0  0  # atno 8009 bound_to 7997
  155.4817  140.0539  157.2957 H   0  0  0  0  0  0  0  0  0  0  0  0  # atno 8010 bound_to 7997
  140.7105  143.5786  150.9016 H   0  0  0  0  0  0  0  0  0  0  0  0  # atno 10167 bound_to 10162
  157.4791  130.8304  149.8073 H   0  0  0  0  0  0  0  0  0  0  0  0  # atno 10718 bound_to 10713
  153.6822  135.6966  153.5114 H   0  0  0  0  0  0  0  0  0  0  0  0  # atno 10763 bound_to 10752
  153.2476  135.4285  155.0763 H   0  0  0  0  0  0  0  0  0  0  0  0  # atno 10764 bound_to 10752
  154.8397  135.3523  154.6365 H   0  0  0  0  0  0  0  0  0  0  0  0  # atno 10765 bound_to 10752
  140.4408  134.1324  155.7690 H   0  0  0  0  0  0  0  0  0  0  0  0  # atno 11005 bound_to 11000
  144.7973  140.6147  143.6501 LP  0  0  0  0  0  0  0  0  0  0  0  0  # atno 17320 bound_to 7965
  145.4690  139.1505  143.3825 LP  0  0  0  0  0  0  0  0  0  0  0  0  # atno 17321 bound_to 7965
  139.9512  143.6270  152.3028 LP  0  0  0  0  0  0  0  0  0  0  0  0  # atno 17342 bound_to 10162
  139.6789  144.7657  151.1645 LP  0  0  0  0  0  0  0  0  0  0  0  0  # atno 17343 bound_to 10162
  156.0112  130.3832  150.2258 LP  0  0  0  0  0  0  0  0  0  0  0  0  # atno 17370 bound_to 10713
  157.0444  131.0044  151.3273 LP  0  0  0  0  0  0  0  0  0  0  0  0  # atno 17371 bound_to 10713
  141.1706  133.8616  157.1581 LP  0  0  0  0  0  0  0  0  0  0  0  0  # atno 17394 bound_to 11000
  140.0071  135.0004  157.0316 LP  0  0  0  0  0  0  0  0  0  0  0  0  # atno 17395 bound_to 11000

$$$$
