AV-unprocessed.smi:1205|AV-procd|sdf|5044|dock6
  -GOLD-   22720 4 73D 1   1.00000     0.00000
 Structure written by MMmdl.
 49 50  0  0  0  0  0  0  0  0  2 V2000
  146.2726  129.4470  152.2012 C   0  0  0  0  0  0  0  0  0  0  0  0
  146.8664  130.7821  152.5418 C   0  0  0  0  0  0  0  0  0  0  0  0
  146.3427  132.0751  152.2509 C   0  0  0  0  0  0  0  0  0  0  0  0
  147.2861  132.9099  152.7848 C   0  0  0  0  0  0  0  0  0  0  0  0
  147.3130  134.2694  152.7944 N   0  0  0  0  0  0  0  0  0  0  0  0
  146.4117  135.1253  153.3067 C   0  0  0  0  0  0  0  0  0  0  0  0
  145.3868  134.8081  153.9103 O   0  0  0  0  0  0  0  0  0  0  0  0
  146.7679  136.3979  153.0765 N   0  0  0  0  0  0  0  0  0  0  0  0
  146.0296  137.5796  153.5155 C   0  0  0  0  0  0  0  0  0  0  0  0
  146.6578  138.9002  152.9990 C   0  0  1  0  0  0  0  0  0  0  0  0
  146.4912  139.1069  151.4811 C   0  0  0  0  0  0  0  0  0  0  0  0
  146.1771  140.1046  153.7377 N   0  3  1  0  0  0  0  0  0  0  0  0
  145.4882  139.8317  155.0284 C   0  0  0  0  0  0  0  0  0  0  0  0
  144.8083  141.1028  155.5604 C   0  0  0  0  0  0  0  0  0  0  0  0
  145.8202  142.2500  155.7019 C   0  0  0  0  0  0  0  0  0  0  0  0
  146.5889  142.4878  154.3878 C   0  0  2  0  0  0  0  0  0  0  0  0
  145.7332  143.1832  153.3141 C   0  0  0  0  0  0  0  0  0  0  0  0
  147.2065  141.1699  153.8756 C   0  0  0  0  0  0  0  0  0  0  0  0
  148.2897  132.1475  153.3433 N   0  0  0  0  0  0  0  0  0  0  0  0
  149.5025  132.5543  154.0268 C   0  0  0  0  0  0  0  0  0  0  0  0
  148.0223  130.8325  153.1941 N   0  0  0  0  0  0  0  0  0  0  0  0
  145.4061  129.5565  151.5487 H   0  0  0  0  0  0  0  0  0  0  0  0
  145.9474  128.9218  153.0996 H   0  0  0  0  0  0  0  0  0  0  0  0
  146.9959  128.8140  151.6866 H   0  0  0  0  0  0  0  0  0  0  0  0
  145.4281  132.3239  151.7342 H   0  0  0  0  0  0  0  0  0  0  0  0
  148.1190  134.6844  152.3506 H   0  0  0  0  0  0  0  0  0  0  0  0
  147.6263  136.5628  152.5711 H   0  0  0  0  0  0  0  0  0  0  0  0
  144.9856  137.4965  153.2104 H   0  0  0  0  0  0  0  0  0  0  0  0
  146.0277  137.5655  154.6051 H   0  0  0  0  0  0  0  0  0  0  0  0
  147.7340  138.8378  153.1678 H   0  0  0  0  0  0  0  0  0  0  0  0
  147.0348  138.3503  150.9153 H   0  0  0  0  0  0  0  0  0  0  0  0
  146.8822  140.0765  151.1710 H   0  0  0  0  0  0  0  0  0  0  0  0
  145.4465  139.0544  151.1746 H   0  0  0  0  0  0  0  0  0  0  0  0
  144.7373  139.0522  154.9028 H   0  0  0  0  0  0  0  0  0  0  0  0
  146.2046  139.4686  155.7663 H   0  0  0  0  0  0  0  0  0  0  0  0
  143.9996  141.3974  154.8908 H   0  0  0  0  0  0  0  0  0  0  0  0
  144.3450  140.8985  156.5261 H   0  0  0  0  0  0  0  0  0  0  0  0
  145.3167  143.1625  156.0229 H   0  0  0  0  0  0  0  0  0  0  0  0
  146.5309  142.0008  156.4911 H   0  0  0  0  0  0  0  0  0  0  0  0
  147.4112  143.1686  154.6119 H   0  0  0  0  0  0  0  0  0  0  0  0
  144.8905  142.5670  153.0008 H   0  0  0  0  0  0  0  0  0  0  0  0
  146.3262  143.4044  152.4263 H   0  0  0  0  0  0  0  0  0  0  0  0
  145.3337  144.1283  153.6829 H   0  0  0  0  0  0  0  0  0  0  0  0
  147.9833  140.8369  154.5651 H   0  0  0  0  0  0  0  0  0  0  0  0
  147.6969  141.3487  152.9177 H   0  0  0  0  0  0  0  0  0  0  0  0
  149.7039  133.6115  153.8548 H   0  0  0  0  0  0  0  0  0  0  0  0
  150.3490  131.9743  153.6576 H   0  0  0  0  0  0  0  0  0  0  0  0
  149.3932  132.3837  155.0980 H   0  0  0  0  0  0  0  0  0  0  0  0
  145.4724  140.5068  153.1360 H   0  0  0  0  0  0  0  0  0  0  0  0
  1  2  1  0  0  0  0
  1 22  1  0  0  0  0
  1 23  1  0  0  0  0
  1 24  1  0  0  0  0
  2 21  2  0  0  0  0
  2  3  1  0  0  0  0
  3  4  2  0  0  0  0
  3 25  1  0  0  0  0
  4  5  1  0  0  0  0
  4 19  1  0  0  0  0
  5  6  1  0  0  0  0
  5 26  1  0  0  0  0
  6  7  2  0  0  0  0
  6  8  1  0  0  0  0
  8  9  1  0  0  0  0
  8 27  1  0  0  0  0
  9 10  1  0  0  0  0
  9 28  1  0  0  0  0
  9 29  1  0  0  0  0
 10 11  1  0  0  0  0
 10 12  1  0  0  0  0
 10 30  1  0  0  0  0
 11 31  1  0  0  0  0
 11 32  1  0  0  0  0
 11 33  1  0  0  0  0
 12 18  1  0  0  0  0
 12 13  1  0  0  0  0
 12 49  1  0  0  0  0
 13 14  1  0  0  0  0
 13 34  1  0  0  0  0
 13 35  1  0  0  0  0
 14 15  1  0  0  0  0
 14 36  1  0  0  0  0
 14 37  1  0  0  0  0
 15 16  1  0  0  0  0
 15 38  1  0  0  0  0
 15 39  1  0  0  0  0
 16 17  1  0  0  0  0
 16 18  1  0  0  0  0
 16 40  1  0  0  0  0
 17 41  1  0  0  0  0
 17 42  1  0  0  0  0
 17 43  1  0  0  0  0
 18 44  1  0  0  0  0
 18 45  1  0  0  0  0
 19 20  1  0  0  0  0
 19 21  1  0  0  0  0
 20 46  1  0  0  0  0
 20 47  1  0  0  0  0
 20 48  1  0  0  0  0
M  CHG  1  12   1
M  END
> <s_m_source_file>
AV-unprocessed.smi

> <i_m_source_file_index>
1205

> <i_lp_mmshare_version>
43012

> <i_f3d_flags>
0

> <s_epik_input>
W0NIM11jMVtjSF1jKG4objEpW0NIM10pW05IXUMoPU8pW05IXVtDSDJdW0NASF0oW0NIM10pTjJbQ0gyXVtDSDJdW0NIMl1bQ0BASF0oW0NIM10pW0NIMl0y

> <s_epik_cmdline>
J2VwaWtfcHl0aG9uJywgJy1waCcsICc3LjAnLCAnLXRuJywgJzgnLCAnLW1hJywgJzIwMCcsICctbWV0YWxfYmluZGluZycsICctaW1hZScsICc8aW5maWxlLm1hZT4nLCAnLW9tYWUnLCAnPG91dGZpbGUubWFlPic=

> <r_lp_tautomer_probability>
1

> <r_epik_Ionization_Penalty>
0.0020309

> <r_epik_Ionization_Penalty_Charging>
0.00195276

> <r_epik_Ionization_Penalty_Neutral>
7.81448e-05

> <r_epik_State_Penalty>
0.00133177

> <r_epik_Charging_Adjusted_Penalty>
0.00328452

> <i_epik_Tot_Q>
1

> <i_epik_Tot_abs_Q>
1

> <r_epik_Metal_State_Penalty>
-0

> <b_epik_Metal_Only>
0

> <s_lp_Force_Field>
OPLS_2005

> <r_lp_Energy>
25.114

> <b_lp_Chiralities_Consistent>
1

> <s_lp_Variant>
AV-unprocessed.smi:1205-6

> <Gold.Version>
5.8.1

> <Gold.Id.Protein>
6NUR|6NUR_protein|mol2

> <Gold.PLP.Fitness>
43.8945

> <Gold.PLP.PLP>
-34.9854

> <Gold.PLP.part.hbond>
-2.9784

> <Gold.PLP.part.metal>
0.0000

> <Gold.PLP.part.buried>
-2.1065

> <Gold.PLP.part.nonpolar>
-30.4292

> <Gold.PLP.part.repulsive>
0.3475

> <Gold.PLP.ligand.clash>
0.0000

> <Gold.PLP.ligand.torsion>
1.5813

> <Gold.PLP.Chemscore.Hbond>
3.9760

> <Gold.PLP.Chemscore.CHOScore>
0.0000

> <Gold.PLP.Chemscore.Metal>
0.0000

> <Gold.Chemscore.Hbonds>
donor molecule, donor type, donor heavy atom, donor atom, acceptor molecule, acceptor atom, score
      L1  H     5    26       P1  7948  0.96
      L1  H     8    27       P1  7948  1.00
      L1  H    12    49       P1 10175  1.98

> <Gold.PLP.Chemscore.Internal.Correction>
0.1438

> <Gold.Rescore>
     Score         DG    S(hbond)    S(metal)    S(lipo)     H(rot)  DE(clash)    DE(int)     intcor
     17.74     -19.33       2.68        0.00      74.01       1.47       0.18       1.41       ----

> <Gold.Chemscore.Fitness>
17.7379

> <Gold.Chemscore.DG>
-19.3304

> <Gold.Chemscore.ZeroCoef>
-5.4800

> <Gold.Chemscore.Hbond>
2.6777

> <Gold.Chemscore.Metal>
0.0000

> <Gold.Chemscore.Lipo>
74.0114

> <Gold.Chemscore.Internal_Hbond>
0.0000

> <Gold.Chemscore.DEClash>
0.1794

> <Gold.Chemscore.DEInternal>
1.4130

> <Gold.Chemscore.Rot>
1.4658

> <Gold.Chemscore.Internal.Correction>
   9.000000E+99

> <Gold.Chemscore.Hbonds>
donor molecule, donor type, donor heavy atom, donor atom, acceptor molecule, acceptor atom, score
      L1  H     5    26       P1  7948  0.37
      L1  H     8    27       P1  7948  0.93
      L1  H    12    49       P1 10175  0.84

> <Gold.Chemscore.Hbond.Weighted>
-8.9436

> <Gold.Chemscore.Metal.Weighted>
-0.0000

> <Gold.Chemscore.Lipo.Weighted>
-8.6593

> <Gold.Chemscore.Internal_Hbond.Weighted>
0.0000

> <Gold.Chemscore.DEClash.Weighted>
0.1794

> <Gold.Chemscore.DEInternal.Weighted>
1.4130

> <Gold.Chemscore.Rot.Weighted>
3.7526

> <Gold.Chemscore.Internal.Correction.Weighted>
   9.000000E+99

> <Gold.Protein.RotatedTorsions>
[ 6907 6896 6895 6894 ] final  134.84 input  -60.11 | X-H torsion
[ 7974 7965 7964 7962 ] final  141.66 input  175.53 | X-H torsion
[ 8008 7997 7996 7995 ] final  155.85 input   59.86 | X-H torsion
[ 10167 10162 10161 10158 ] final  116.78 input  -65.29 | X-H torsion
[ 10718 10713 10712 10709 ] final  -67.59 input   66.30 | X-H torsion
[ 10763 10752 10751 10750 ] final -133.32 input  -60.55 | X-H torsion
[ 11005 11000 10999 10996 ] final   35.23 input  -57.11 | X-H torsion

> <Gold.Protein.ActiveResidues>
 VAL166  LYS551  ARG553  GLY616  TRP617  ASP618  TYR619  PRO620  LYS621  CYS622 
 ASP623  PHE694  ASN695  SER759  ASP760  ASP761  ALA762  ILE779  LEU786  VAL792 
 PHE793  MET794  SER795  GLU796  ALA797  LYS798  CYS799  TRP800  GLU811  SER814 

> <Gold.Protein.RotatedAtoms>
  152.3070  133.5713  159.5655 H   0  0  0  0  0  0  0  0  0  0  0  0  # atno 6907 bound_to 6896
  150.7304  134.0209  159.3710 H   0  0  0  0  0  0  0  0  0  0  0  0  # atno 6908 bound_to 6896
  151.8104  135.0683  160.0463 H   0  0  0  0  0  0  0  0  0  0  0  0  # atno 6909 bound_to 6896
  144.9076  139.5336  143.5724 H   0  0  0  0  0  0  0  0  0  0  0  0  # atno 7974 bound_to 7965
  156.2455  140.1928  156.6864 H   0  0  0  0  0  0  0  0  0  0  0  0  # atno 8008 bound_to 7997
  154.6284  140.0599  156.9727 H   0  0  0  0  0  0  0  0  0  0  0  0  # atno 8009 bound_to 7997
  155.1750  140.3271  155.4388 H   0  0  0  0  0  0  0  0  0  0  0  0  # atno 8010 bound_to 7997
  139.6223  144.7103  151.2607 H   0  0  0  0  0  0  0  0  0  0  0  0  # atno 10167 bound_to 10162
  156.0550  130.4280  150.1876 H   0  0  0  0  0  0  0  0  0  0  0  0  # atno 10718 bound_to 10713
  154.8734  135.3770  154.4553 H   0  0  0  0  0  0  0  0  0  0  0  0  # atno 10763 bound_to 10752
  153.5226  135.7028  153.5729 H   0  0  0  0  0  0  0  0  0  0  0  0  # atno 10764 bound_to 10752
  153.3969  135.3958  155.1927 H   0  0  0  0  0  0  0  0  0  0  0  0  # atno 10765 bound_to 10752
  140.2447  134.3373  155.7912 H   0  0  0  0  0  0  0  0  0  0  0  0  # atno 11005 bound_to 11000
  146.3142  139.7857  142.8996 LP  0  0  0  0  0  0  0  0  0  0  0  0  # atno 17320 bound_to 7965
  145.3508  141.0307  143.3339 LP  0  0  0  0  0  0  0  0  0  0  0  0  # atno 17321 bound_to 7965
  140.7390  143.6632  150.8146 LP  0  0  0  0  0  0  0  0  0  0  0  0  # atno 17342 bound_to 10162
  140.0244  143.5508  152.2787 LP  0  0  0  0  0  0  0  0  0  0  0  0  # atno 17343 bound_to 10162
  156.9954  130.9906  151.3404 LP  0  0  0  0  0  0  0  0  0  0  0  0  # atno 17370 bound_to 10713
  157.5511  130.8183  149.8146 LP  0  0  0  0  0  0  0  0  0  0  0  0  # atno 17371 bound_to 10713
  141.2207  133.7319  156.8942 LP  0  0  0  0  0  0  0  0  0  0  0  0  # atno 17394 bound_to 11000
  140.1617  134.9161  157.2723 LP  0  0  0  0  0  0  0  0  0  0  0  0  # atno 17395 bound_to 11000

$$$$
