AV-unprocessed.smi:3284|AV-procd|sdf|12574|dock4
  -GOLD-   2272018493D 1   1.00000     0.00000
 Structure written by MMmdl.
 44 45  0  0  0  0  0  0  0  0  2 V2000
  151.9966  140.7587  157.7938 C   0  0  0  0  0  0  0  0  0  0  0  0
  152.3091  141.9066  158.7396 C   0  0  0  0  0  0  0  0  0  0  0  0
  152.1809  143.1773  158.3126 C   0  0  0  0  0  0  0  0  0  0  0  0
  152.3907  144.3939  159.1834 C   0  0  0  0  0  0  0  0  0  0  0  0
  152.2570  144.0365  160.6652 C   0  0  0  0  0  0  0  0  0  0  0  0
  153.1128  142.8117  161.0266 C   0  0  1  0  0  0  0  0  0  0  0  0
  153.0148  142.5487  162.5418 C   0  0  0  0  0  0  0  0  0  0  0  0
  152.7437  141.5556  160.1777 C   0  0  2  0  0  0  0  0  0  0  0  0
  153.9059  140.5280  160.2195 C   0  0  0  0  0  0  0  0  0  0  0  0
  153.9427  139.7491  161.4743 N   0  3  0  0  0  0  0  0  0  0  0  0
  154.6206  138.4443  161.3539 C   0  0  0  0  0  0  0  0  0  0  0  0
  153.8475  137.3511  162.1018 C   0  0  0  0  0  0  0  0  0  0  0  0
  154.3610  135.9793  161.7936 C   0  0  0  0  0  0  0  0  0  0  0  0
  154.3020  135.4288  160.5853 N   0  0  0  0  0  0  0  0  0  0  0  0
  154.8994  134.1817  160.7335 C   0  0  0  0  0  0  0  0  0  0  0  0
  155.3095  134.0250  162.0353 C   0  0  0  0  0  0  0  0  0  0  0  0
  154.9629  135.1908  162.7052 N   0  0  0  0  0  0  0  0  0  0  0  0
  155.2127  135.4746  164.1050 C   0  0  0  0  0  0  0  0  0  0  0  0
  151.3063  140.0553  158.2598 H   0  0  0  0  0  0  0  0  0  0  0  0
  152.9059  140.2302  157.5089 H   0  0  0  0  0  0  0  0  0  0  0  0
  151.5301  141.1180  156.8757 H   0  0  0  0  0  0  0  0  0  0  0  0
  151.8961  143.3763  157.2895 H   0  0  0  0  0  0  0  0  0  0  0  0
  153.3750  144.8120  158.9706 H   0  0  0  0  0  0  0  0  0  0  0  0
  151.6546  145.1539  158.9201 H   0  0  0  0  0  0  0  0  0  0  0  0
  152.5444  144.8969  161.2708 H   0  0  0  0  0  0  0  0  0  0  0  0
  151.2106  143.8322  160.8972 H   0  0  0  0  0  0  0  0  0  0  0  0
  154.1480  143.0763  160.8035 H   0  0  0  0  0  0  0  0  0  0  0  0
  152.0019  142.2644  162.8284 H   0  0  0  0  0  0  0  0  0  0  0  0
  153.2760  143.4422  163.1097 H   0  0  0  0  0  0  0  0  0  0  0  0
  153.6863  141.7580  162.8725 H   0  0  0  0  0  0  0  0  0  0  0  0
  151.8671  141.1002  160.6415 H   0  0  0  0  0  0  0  0  0  0  0  0
  153.8264  139.8501  159.3683 H   0  0  0  0  0  0  0  0  0  0  0  0
  154.8717  141.0220  160.1264 H   0  0  0  0  0  0  0  0  0  0  0  0
  154.4132  140.2972  162.1802 H   0  0  0  0  0  0  0  0  0  0  0  0
  154.7071  138.1818  160.2987 H   0  0  0  0  0  0  0  0  0  0  0  0
  155.6331  138.5254  161.7513 H   0  0  0  0  0  0  0  0  0  0  0  0
  153.8863  137.5248  163.1775 H   0  0  0  0  0  0  0  0  0  0  0  0
  152.7927  137.3910  161.8265 H   0  0  0  0  0  0  0  0  0  0  0  0
  154.9884  133.5008  159.8999 H   0  0  0  0  0  0  0  0  0  0  0  0
  155.8087  133.2019  162.5255 H   0  0  0  0  0  0  0  0  0  0  0  0
  155.8062  134.6757  164.5505 H   0  0  0  0  0  0  0  0  0  0  0  0
  154.2660  135.5504  164.6401 H   0  0  0  0  0  0  0  0  0  0  0  0
  155.7581  136.4134  164.2015 H   0  0  0  0  0  0  0  0  0  0  0  0
  152.9915  139.5861  161.7727 H   0  0  0  0  0  0  0  0  0  0  0  0
  1  2  1  0  0  0  0
  1 19  1  0  0  0  0
  1 20  1  0  0  0  0
  1 21  1  0  0  0  0
  2  8  1  0  0  0  0
  2  3  2  0  0  0  0
  3  4  1  0  0  0  0
  3 22  1  0  0  0  0
  4  5  1  0  0  0  0
  4 23  1  0  0  0  0
  4 24  1  0  0  0  0
  5  6  1  0  0  0  0
  5 25  1  0  0  0  0
  5 26  1  0  0  0  0
  6  7  1  0  0  0  0
  6  8  1  0  0  0  0
  6 27  1  0  0  0  0
  7 28  1  0  0  0  0
  7 29  1  0  0  0  0
  7 30  1  0  0  0  0
  8  9  1  0  0  0  0
  8 31  1  0  0  0  0
  9 10  1  0  0  0  0
  9 32  1  0  0  0  0
  9 33  1  0  0  0  0
 10 11  1  0  0  0  0
 10 34  1  0  0  0  0
 10 44  1  0  0  0  0
 11 12  1  0  0  0  0
 11 35  1  0  0  0  0
 11 36  1  0  0  0  0
 12 13  1  0  0  0  0
 12 37  1  0  0  0  0
 12 38  1  0  0  0  0
 13 17  1  0  0  0  0
 13 14  2  0  0  0  0
 14 15  1  0  0  0  0
 15 16  2  0  0  0  0
 15 39  1  0  0  0  0
 16 17  1  0  0  0  0
 16 40  1  0  0  0  0
 17 18  1  0  0  0  0
 18 41  1  0  0  0  0
 18 42  1  0  0  0  0
 18 43  1  0  0  0  0
M  CHG  1  10   1
M  END
> <s_m_source_file>
AV-unprocessed.smi

> <i_m_source_file_index>
3284

> <i_lp_mmshare_version>
43012

> <i_f3d_flags>
0

> <s_epik_input>
W0NIM11DMT1bQ0hdW0NIMl1bQ0gyXVtDQEBIXShbQ0gzXSlbQ0BIXTFbQ0gyXVtOSF1bQ0gyXVtDSDJdYzJuW2NIXVtjSF1uMltDSDNd

> <s_epik_cmdline>
J2VwaWtfcHl0aG9uJywgJy1waCcsICc3LjAnLCAnLXRuJywgJzgnLCAnLW1hJywgJzIwMCcsICctbWV0YWxfYmluZGluZycsICctaW1hZScsICc8aW5maWxlLm1hZT4nLCAnLW9tYWUnLCAnPG91dGZpbGUubWFlPic=

> <r_lp_tautomer_probability>
1

> <r_epik_Ionization_Penalty>
0.150779

> <r_epik_Ionization_Penalty_Charging>
0.150779

> <r_epik_Ionization_Penalty_Neutral>
1.39452e-13

> <r_epik_State_Penalty>
0.349447

> <r_epik_Charging_Adjusted_Penalty>
0.500226

> <i_epik_Tot_Q>
1

> <i_epik_Tot_abs_Q>
1

> <r_epik_Metal_State_Penalty>
0.000470967

> <b_epik_Metal_Only>
0

> <s_lp_Force_Field>
OPLS_2005

> <r_lp_Energy>
12.7203

> <b_lp_Chiralities_Consistent>
1

> <s_lp_Variant>
AV-unprocessed.smi:3284-3

> <Gold.Version>
5.8.1

> <Gold.Id.Protein>
6NUR|6NUR_protein|mol2

> <Gold.PLP.Fitness>
41.8202

> <Gold.PLP.PLP>
-40.9693

> <Gold.PLP.part.hbond>
-0.8696

> <Gold.PLP.part.metal>
0.0000

> <Gold.PLP.part.buried>
-4.2526

> <Gold.PLP.part.nonpolar>
-36.5138

> <Gold.PLP.part.repulsive>
0.0243

> <Gold.PLP.ligand.clash>
0.0000

> <Gold.PLP.ligand.torsion>
0.7057

> <Gold.PLP.Chemscore.Hbond>
0.7256

> <Gold.PLP.Chemscore.CHOScore>
0.0000

> <Gold.PLP.Chemscore.Metal>
0.0000

> <Gold.Chemscore.Hbonds>
donor molecule, donor type, donor heavy atom, donor atom, acceptor molecule, acceptor atom, score
      P1  H  6896  6909       L1    14  0.76

> <Gold.PLP.Chemscore.Internal.Correction>
0.0856

> <Gold.Rescore>
     Score         DG    S(hbond)    S(metal)    S(lipo)     H(rot)  DE(clash)    DE(int)     intcor
     17.22     -18.09       0.76        0.00     121.20       1.61       0.01       0.86       ----

> <Gold.Chemscore.Fitness>
17.2163

> <Gold.Chemscore.DG>
-18.0874

> <Gold.Chemscore.ZeroCoef>
-5.4800

> <Gold.Chemscore.Hbond>
0.7635

> <Gold.Chemscore.Metal>
0.0000

> <Gold.Chemscore.Lipo>
121.1997

> <Gold.Chemscore.Internal_Hbond>
0.0000

> <Gold.Chemscore.DEClash>
0.0149

> <Gold.Chemscore.DEInternal>
0.8563

> <Gold.Chemscore.Rot>
1.6105

> <Gold.Chemscore.Internal.Correction>
   9.000000E+99

> <Gold.Chemscore.Hbonds>
donor molecule, donor type, donor heavy atom, donor atom, acceptor molecule, acceptor atom, score
      P1  H  6896  6909       L1    14  0.14

> <Gold.Chemscore.Hbond.Weighted>
-2.5501

> <Gold.Chemscore.Metal.Weighted>
-0.0000

> <Gold.Chemscore.Lipo.Weighted>
-14.1804

> <Gold.Chemscore.Internal_Hbond.Weighted>
0.0000

> <Gold.Chemscore.DEClash.Weighted>
0.0149

> <Gold.Chemscore.DEInternal.Weighted>
0.8563

> <Gold.Chemscore.Rot.Weighted>
4.1230

> <Gold.Chemscore.Internal.Correction.Weighted>
   9.000000E+99

> <Gold.Protein.RotatedTorsions>
[ 6907 6896 6895 6894 ] final  169.66 input  -60.11 | X-H torsion
[ 7974 7965 7964 7962 ] final   90.51 input  175.53 | X-H torsion
[ 8008 7997 7996 7995 ] final   33.21 input   59.86 | X-H torsion
[ 10167 10162 10161 10158 ] final   66.55 input  -65.29 | X-H torsion
[ 10718 10713 10712 10709 ] final  124.94 input   66.30 | X-H torsion
[ 10763 10752 10751 10750 ] final  -61.38 input  -60.55 | X-H torsion
[ 11005 11000 10999 10996 ] final  -73.51 input  -57.11 | X-H torsion

> <Gold.Protein.ActiveResidues>
 VAL166  LYS551  ARG553  GLY616  TRP617  ASP618  TYR619  PRO620  LYS621  CYS622 
 ASP623  PHE694  ASN695  SER759  ASP760  ASP761  ALA762  ILE779  LEU786  VAL792 
 PHE793  MET794  SER795  GLU796  ALA797  LYS798  CYS799  TRP800  GLU811  SER814 

> <Gold.Protein.RotatedAtoms>
  151.8284  133.3405  159.3605 H   0  0  0  0  0  0  0  0  0  0  0  0  # atno 6907 bound_to 6896
  150.7272  134.5507  159.5802 H   0  0  0  0  0  0  0  0  0  0  0  0  # atno 6908 bound_to 6896
  152.2954  134.7674  160.0420 H   0  0  0  0  0  0  0  0  0  0  0  0  # atno 6909 bound_to 6896
  145.5180  139.2278  143.2687 H   0  0  0  0  0  0  0  0  0  0  0  0  # atno 7974 bound_to 7965
  155.1349  140.3261  155.4465 H   0  0  0  0  0  0  0  0  0  0  0  0  # atno 8008 bound_to 7997
  156.2623  140.2004  156.6416 H   0  0  0  0  0  0  0  0  0  0  0  0  # atno 8009 bound_to 7997
  154.6585  140.0550  157.0022 H   0  0  0  0  0  0  0  0  0  0  0  0  # atno 8010 bound_to 7997
  140.0992  144.4919  150.7048 H   0  0  0  0  0  0  0  0  0  0  0  0  # atno 10167 bound_to 10162
  157.5544  131.1092  150.8647 H   0  0  0  0  0  0  0  0  0  0  0  0  # atno 10718 bound_to 10713
  154.2837  135.6267  153.5357 H   0  0  0  0  0  0  0  0  0  0  0  0  # atno 10763 bound_to 10752
  152.9862  135.5639  154.5467 H   0  0  0  0  0  0  0  0  0  0  0  0  # atno 10764 bound_to 10752
  154.5063  135.2874  155.1355 H   0  0  0  0  0  0  0  0  0  0  0  0  # atno 10765 bound_to 10752
  141.1623  133.6880  156.7223 H   0  0  0  0  0  0  0  0  0  0  0  0  # atno 11005 bound_to 11000
  146.2124  140.5991  142.9053 LP  0  0  0  0  0  0  0  0  0  0  0  0  # atno 17320 bound_to 7965
  144.7691  140.5598  143.6682 LP  0  0  0  0  0  0  0  0  0  0  0  0  # atno 17321 bound_to 7965
  140.6987  143.2420  151.4927 LP  0  0  0  0  0  0  0  0  0  0  0  0  # atno 17342 bound_to 10162
  139.5681  144.1995  152.1795 LP  0  0  0  0  0  0  0  0  0  0  0  0  # atno 17343 bound_to 10162
  156.9163  130.5299  149.5279 LP  0  0  0  0  0  0  0  0  0  0  0  0  # atno 17370 bound_to 10713
  156.0605  130.5658  150.9182 LP  0  0  0  0  0  0  0  0  0  0  0  0  # atno 17371 bound_to 10713
  140.2807  134.8319  157.3930 LP  0  0  0  0  0  0  0  0  0  0  0  0  # atno 17394 bound_to 11000
  140.1436  134.4940  155.8013 LP  0  0  0  0  0  0  0  0  0  0  0  0  # atno 17395 bound_to 11000

$$$$
