AV-unprocessed.smi:1114|AV-procd|sdf|4801|dock3
  -GOLD-   22720 3343D 1   1.00000     0.00000
 Structure written by MMmdl.
 53 55  0  0  0  0  0  0  0  0  2 V2000
  151.9153  144.9415  161.4918 C   0  0  0  0  0  0  0  0  0  0  0  0
  152.1349  143.4921  161.0522 C   0  0  0  0  0  0  0  0  0  0  0  0
  151.9562  142.6025  161.8845 O   0  0  0  0  0  0  0  0  0  0  0  0
  152.5116  143.2363  159.7762 N   0  0  0  0  0  0  0  0  0  0  0  0
  152.6772  141.8745  159.2543 C   0  0  0  0  0  0  0  0  0  0  0  0
  151.5490  141.5850  158.2477 C   0  0  0  0  0  0  0  0  0  0  0  0
  151.5146  142.6387  157.1198 C   0  0  0  0  0  0  0  0  0  0  0  0
  150.3291  142.4317  156.2928 N   0  0  0  0  0  0  0  0  0  0  0  0
  149.8709  141.2407  155.8807 C   0  0  0  0  0  0  0  0  0  0  0  0
  150.4139  140.1710  156.1562 O   0  0  0  0  0  0  0  0  0  0  0  0
  148.7468  141.3744  155.1556 N   0  0  0  0  0  0  0  0  0  0  0  0
  147.9859  140.3581  154.5174 C   0  0  0  0  0  0  0  0  0  0  0  0
  148.3677  139.0165  154.7234 C   0  0  0  0  0  0  0  0  0  0  0  0
  147.6280  137.9757  154.1249 C   0  0  0  0  0  0  0  0  0  0  0  0
  146.4942  138.2817  153.3307 C   0  0  0  0  0  0  0  0  0  0  0  0
  145.6923  137.3094  152.6922 N   0  0  0  0  0  0  0  0  0  0  0  0
  144.2710  137.2593  153.0412 C   0  0  0  0  0  0  0  0  0  0  0  0
  143.6292  135.9332  152.5982 C   0  0  0  0  0  0  0  0  0  0  0  0
  143.8855  135.6636  151.1093 C   0  0  0  0  0  0  0  0  0  0  0  0
  145.3940  135.6967  150.8274 C   0  0  0  0  0  0  0  0  0  0  0  0
  146.0159  137.0250  151.2905 C   0  0  0  0  0  0  0  0  0  0  0  0
  146.1616  139.5858  153.1729 N   0  3  0  0  0  0  0  0  0  0  0  0
  146.8438  140.6132  153.7229 C   0  0  0  0  0  0  0  0  0  0  0  0
  151.5426  144.0751  157.6923 C   0  0  0  0  0  0  0  0  0  0  0  0
  152.6754  144.2434  158.7205 C   0  0  0  0  0  0  0  0  0  0  0  0
  151.1475  145.4193  160.8825 H   0  0  0  0  0  0  0  0  0  0  0  0
  152.8401  145.5134  161.4118 H   0  0  0  0  0  0  0  0  0  0  0  0
  151.5882  144.9827  162.5313 H   0  0  0  0  0  0  0  0  0  0  0  0
  153.6484  141.7904  158.7647 H   0  0  0  0  0  0  0  0  0  0  0  0
  152.6750  141.1175  160.0396 H   0  0  0  0  0  0  0  0  0  0  0  0
  151.6757  140.5876  157.8250 H   0  0  0  0  0  0  0  0  0  0  0  0
  150.5947  141.5773  158.7771 H   0  0  0  0  0  0  0  0  0  0  0  0
  152.4056  142.4949  156.5055 H   0  0  0  0  0  0  0  0  0  0  0  0
  149.8184  143.2591  156.0209 H   0  0  0  0  0  0  0  0  0  0  0  0
  148.3695  142.3084  155.0886 H   0  0  0  0  0  0  0  0  0  0  0  0
  149.2266  138.7806  155.3350 H   0  0  0  0  0  0  0  0  0  0  0  0
  147.9401  136.9575  154.2999 H   0  0  0  0  0  0  0  0  0  0  0  0
  144.1428  137.3603  154.1192 H   0  0  0  0  0  0  0  0  0  0  0  0
  143.7579  138.0992  152.5708 H   0  0  0  0  0  0  0  0  0  0  0  0
  144.0384  135.1141  153.1916 H   0  0  0  0  0  0  0  0  0  0  0  0
  142.5571  135.9530  152.7967 H   0  0  0  0  0  0  0  0  0  0  0  0
  143.4687  134.6976  150.8231 H   0  0  0  0  0  0  0  0  0  0  0  0
  143.3788  136.4166  150.5043 H   0  0  0  0  0  0  0  0  0  0  0  0
  145.8802  134.8669  151.3425 H   0  0  0  0  0  0  0  0  0  0  0  0
  145.5788  135.5507  149.7629 H   0  0  0  0  0  0  0  0  0  0  0  0
  145.6411  137.8444  150.6758 H   0  0  0  0  0  0  0  0  0  0  0  0
  147.0921  136.9774  151.1266 H   0  0  0  0  0  0  0  0  0  0  0  0
  146.4376  141.5912  153.5136 H   0  0  0  0  0  0  0  0  0  0  0  0
  151.6662  144.8003  156.8874 H   0  0  0  0  0  0  0  0  0  0  0  0
  150.5888  144.3037  158.1702 H   0  0  0  0  0  0  0  0  0  0  0  0
  152.6898  145.2675  159.0903 H   0  0  0  0  0  0  0  0  0  0  0  0
  153.6414  144.0977  158.2348 H   0  0  0  0  0  0  0  0  0  0  0  0
  145.3450  139.8068  152.6028 H   0  0  0  0  0  0  0  0  0  0  0  0
  1  2  1  0  0  0  0
  1 26  1  0  0  0  0
  1 27  1  0  0  0  0
  1 28  1  0  0  0  0
  2  3  2  0  0  0  0
  2  4  1  0  0  0  0
  4 25  1  0  0  0  0
  4  5  1  0  0  0  0
  5  6  1  0  0  0  0
  5 29  1  0  0  0  0
  5 30  1  0  0  0  0
  6  7  1  0  0  0  0
  6 31  1  0  0  0  0
  6 32  1  0  0  0  0
  7  8  1  0  0  0  0
  7 24  1  0  0  0  0
  7 33  1  0  0  0  0
  8  9  1  0  0  0  0
  8 34  1  0  0  0  0
  9 10  2  0  0  0  0
  9 11  1  0  0  0  0
 11 12  1  0  0  0  0
 11 35  1  0  0  0  0
 12 23  1  0  0  0  0
 12 13  2  0  0  0  0
 13 14  1  0  0  0  0
 13 36  1  0  0  0  0
 14 15  2  0  0  0  0
 14 37  1  0  0  0  0
 15 16  1  0  0  0  0
 15 22  1  0  0  0  0
 16 21  1  0  0  0  0
 16 17  1  0  0  0  0
 17 18  1  0  0  0  0
 17 38  1  0  0  0  0
 17 39  1  0  0  0  0
 18 19  1  0  0  0  0
 18 40  1  0  0  0  0
 18 41  1  0  0  0  0
 19 20  1  0  0  0  0
 19 42  1  0  0  0  0
 19 43  1  0  0  0  0
 20 21  1  0  0  0  0
 20 44  1  0  0  0  0
 20 45  1  0  0  0  0
 21 46  1  0  0  0  0
 21 47  1  0  0  0  0
 22 23  2  0  0  0  0
 22 53  1  0  0  0  0
 23 48  1  0  0  0  0
 24 25  1  0  0  0  0
 24 49  1  0  0  0  0
 24 50  1  0  0  0  0
 25 51  1  0  0  0  0
 25 52  1  0  0  0  0
M  CHG  1  22   1
M  END
> <s_m_source_file>
AV-unprocessed.smi

> <i_m_source_file_index>
1114

> <i_lp_mmshare_version>
43012

> <i_f3d_flags>
0

> <s_epik_input>
W0NIM11DKD1PKU4xW0NIMl1bQ0gyXVtDSF0oW0NIMl1bQ0gyXTEpW05IXUMoPU8pW05IXWMyW2NIXVtjSF1jKG5bY0hdMilOM1tDSDJdW0NIMl1bQ0gyXVtDSDJdW0NIMl0z

> <s_epik_cmdline>
J2VwaWtfcHl0aG9uJywgJy1waCcsICc3LjAnLCAnLXRuJywgJzgnLCAnLW1hJywgJzIwMCcsICctbWV0YWxfYmluZGluZycsICctaW1hZScsICc8aW5maWxlLm1hZT4nLCAnLW9tYWUnLCAnPG91dGZpbGUubWFlPic=

> <r_lp_tautomer_probability>
0.999994

> <r_epik_Ionization_Penalty>
1.08953

> <r_epik_Ionization_Penalty_Charging>
1.08951

> <r_epik_Ionization_Penalty_Neutral>
2.1351e-05

> <r_epik_State_Penalty>
1.14567

> <r_epik_Charging_Adjusted_Penalty>
2.23518

> <i_epik_Tot_Q>
1

> <i_epik_Tot_abs_Q>
1

> <r_epik_Metal_State_Penalty>
1.23466

> <b_epik_Metal_Only>
0

> <s_lp_Force_Field>
OPLS_2005

> <r_lp_Energy>
44.385

> <b_lp_Chiralities_Consistent>
1

> <s_lp_Variant>
AV-unprocessed.smi:1114-2

> <Gold.Version>
5.8.1

> <Gold.Id.Protein>
6NUR|6NUR_protein|mol2

> <Gold.PLP.Fitness>
54.1599

> <Gold.PLP.PLP>
-43.7632

> <Gold.PLP.part.hbond>
-3.0000

> <Gold.PLP.part.metal>
0.0000

> <Gold.PLP.part.buried>
-1.1587

> <Gold.PLP.part.nonpolar>
-42.4018

> <Gold.PLP.part.repulsive>
0.5664

> <Gold.PLP.ligand.clash>
0.0000

> <Gold.PLP.ligand.torsion>
0.5596

> <Gold.PLP.Chemscore.Hbond>
3.6625

> <Gold.PLP.Chemscore.CHOScore>
0.0000

> <Gold.PLP.Chemscore.Metal>
0.0000

> <Gold.Chemscore.Hbonds>
donor molecule, donor type, donor heavy atom, donor atom, acceptor molecule, acceptor atom, score
      L1  H     8    34       P1  8028  1.00
      L1  H    22    53       P1 10175  2.00
      P1  H  6933  6945       L1     3  0.66

> <Gold.PLP.Chemscore.Internal.Correction>
0.5284

> <Gold.Rescore>
     Score         DG    S(hbond)    S(metal)    S(lipo)     H(rot)  DE(clash)    DE(int)     intcor
     18.80     -23.94       2.77        0.00     105.10       1.21       1.78       3.36       ----

> <Gold.Chemscore.Fitness>
18.8008

> <Gold.Chemscore.DG>
-23.9350

> <Gold.Chemscore.ZeroCoef>
-5.4800

> <Gold.Chemscore.Hbond>
2.7715

> <Gold.Chemscore.Metal>
0.0000

> <Gold.Chemscore.Lipo>
105.1039

> <Gold.Chemscore.Internal_Hbond>
0.0000

> <Gold.Chemscore.DEClash>
1.7772

> <Gold.Chemscore.DEInternal>
3.3570

> <Gold.Chemscore.Rot>
1.2105

> <Gold.Chemscore.Internal.Correction>
   9.000000E+99

> <Gold.Chemscore.Hbonds>
donor molecule, donor type, donor heavy atom, donor atom, acceptor molecule, acceptor atom, score
      L1  H     8    34       P1  8028  1.00
      L1  H    11    35       P1  8028  0.01
      L1  H    22    53       P1 10175  0.94
      P1  H  6933  6945       L1     3  0.65

> <Gold.Chemscore.Hbond.Weighted>
-9.2569

> <Gold.Chemscore.Metal.Weighted>
-0.0000

> <Gold.Chemscore.Lipo.Weighted>
-12.2972

> <Gold.Chemscore.Internal_Hbond.Weighted>
0.0000

> <Gold.Chemscore.DEClash.Weighted>
1.7772

> <Gold.Chemscore.DEInternal.Weighted>
3.3570

> <Gold.Chemscore.Rot.Weighted>
3.0990

> <Gold.Chemscore.Internal.Correction.Weighted>
   9.000000E+99

> <Gold.Protein.RotatedTorsions>
[ 6907 6896 6895 6894 ] final   27.51 input  -60.11 | X-H torsion
[ 7974 7965 7964 7962 ] final  175.66 input  175.53 | X-H torsion
[ 8008 7997 7996 7995 ] final  144.67 input   59.86 | X-H torsion
[ 10167 10162 10161 10158 ] final  -10.90 input  -65.29 | X-H torsion
[ 10718 10713 10712 10709 ] final   -2.62 input   66.30 | X-H torsion
[ 10763 10752 10751 10750 ] final -169.24 input  -60.55 | X-H torsion
[ 11005 11000 10999 10996 ] final -151.97 input  -57.11 | X-H torsion

> <Gold.Protein.ActiveResidues>
 VAL166  LYS551  ARG553  GLY616  TRP617  ASP618  TYR619  PRO620  LYS621  CYS622 
 ASP623  PHE694  ASN695  SER759  ASP760  ASP761  ALA762  ILE779  LEU786  VAL792 
 PHE793  MET794  SER795  GLU796  ALA797  LYS798  CYS799  TRP800  GLU811  SER814 

> <Gold.Protein.RotatedAtoms>
  152.0033  134.9916  160.0565 H   0  0  0  0  0  0  0  0  0  0  0  0  # atno 6907 bound_to 6896
  152.1499  133.4510  159.4816 H   0  0  0  0  0  0  0  0  0  0  0  0  # atno 6908 bound_to 6896
  150.6874  134.2120  159.4406 H   0  0  0  0  0  0  0  0  0  0  0  0  # atno 6909 bound_to 6896
  144.7198  139.9980  143.6440 H   0  0  0  0  0  0  0  0  0  0  0  0  # atno 7974 bound_to 7965
  156.2902  140.2229  156.5091 H   0  0  0  0  0  0  0  0  0  0  0  0  # atno 8008 bound_to 7997
  154.7624  140.0472  157.1006 H   0  0  0  0  0  0  0  0  0  0  0  0  # atno 8009 bound_to 7997
  154.9975  140.3097  155.4884 H   0  0  0  0  0  0  0  0  0  0  0  0  # atno 8010 bound_to 7997
  140.7125  143.5697  150.9105 H   0  0  0  0  0  0  0  0  0  0  0  0  # atno 10167 bound_to 10162
  156.7881  130.5352  149.5740 H   0  0  0  0  0  0  0  0  0  0  0  0  # atno 10718 bound_to 10713
  154.6544  135.2916  154.9947 H   0  0  0  0  0  0  0  0  0  0  0  0  # atno 10763 bound_to 10752
  154.1028  135.6574  153.4875 H   0  0  0  0  0  0  0  0  0  0  0  0  # atno 10764 bound_to 10752
  153.0394  135.5246  154.7466 H   0  0  0  0  0  0  0  0  0  0  0  0  # atno 10765 bound_to 10752
  140.7239  134.3697  157.5179 H   0  0  0  0  0  0  0  0  0  0  0  0  # atno 11005 bound_to 11000
  146.0358  139.3376  143.0727 LP  0  0  0  0  0  0  0  0  0  0  0  0  # atno 17320 bound_to 7965
  145.8396  140.9587  143.0806 LP  0  0  0  0  0  0  0  0  0  0  0  0  # atno 17321 bound_to 7965
  139.9423  143.6367  152.3050 LP  0  0  0  0  0  0  0  0  0  0  0  0  # atno 17342 bound_to 10162
  139.6856  144.7652  151.1529 LP  0  0  0  0  0  0  0  0  0  0  0  0  # atno 17343 bound_to 10162
  156.1176  130.6086  151.0144 LP  0  0  0  0  0  0  0  0  0  0  0  0  # atno 17370 bound_to 10713
  157.6614  131.0880  150.7830 LP  0  0  0  0  0  0  0  0  0  0  0  0  # atno 17371 bound_to 10713
  139.8842  134.8973  156.2720 LP  0  0  0  0  0  0  0  0  0  0  0  0  # atno 17394 bound_to 11000
  140.9980  133.7168  156.0916 LP  0  0  0  0  0  0  0  0  0  0  0  0  # atno 17395 bound_to 11000

$$$$
