AV-unprocessed.smi:610|AV-procd|sdf|3056|dock4
  -GOLD-   2262023583D 1   1.00000     0.00000
 Structure written by MMmdl.
 38 39  0  0  0  0  0  0  0  0  2 V2000
  143.1141  137.2742  153.0351 C   0  0  0  0  0  0  0  0  0  0  0  0
  144.2880  136.4227  152.5331 C   0  0  1  0  0  0  0  0  0  0  0  0
  143.9663  135.7707  151.1721 C   0  0  0  0  0  0  0  0  0  0  0  0
  144.6784  134.5229  150.9673 N   0  0  0  0  0  0  0  0  0  0  0  0
  146.0372  134.2947  151.1410 C   0  0  0  0  0  0  0  0  0  0  0  0
  146.2577  132.9740  150.8219 C   0  0  0  0  0  0  0  0  0  0  0  0
  145.0547  132.3718  150.4605 N   0  0  0  0  0  0  0  0  0  0  0  0
  144.1646  133.3481  150.5787 C   0  0  0  0  0  0  0  0  0  0  0  0
  145.4781  137.2675  152.4362 N   0  0  0  0  0  0  0  0  0  0  0  0
  145.9274  138.1127  153.3808 C   0  0  0  0  0  0  0  0  0  0  0  0
  145.3392  138.2811  154.4493 O   0  0  0  0  0  0  0  0  0  0  0  0
  147.2165  138.9170  153.0897 C   0  0  0  0  0  0  0  0  0  0  0  0
  147.6694  138.5344  151.7401 N   0  3  0  0  0  0  0  0  0  0  0  0
  146.9652  140.4341  153.1843 C   0  0  0  0  0  0  0  0  0  0  0  0
  147.1221  140.7879  154.6705 C   0  0  0  0  0  0  0  0  0  0  0  0
  147.9725  139.6679  155.2905 C   0  0  0  0  0  0  0  0  0  0  0  0
  148.3397  138.7325  154.1316 C   0  0  0  0  0  0  0  0  0  0  0  0
  142.2124  136.6710  153.1460 H   0  0  0  0  0  0  0  0  0  0  0  0
  142.8874  138.0874  152.3445 H   0  0  0  0  0  0  0  0  0  0  0  0
  143.3356  137.7143  154.0082 H   0  0  0  0  0  0  0  0  0  0  0  0
  144.4483  135.6336  153.2699 H   0  0  0  0  0  0  0  0  0  0  0  0
  142.8989  135.5579  151.1013 H   0  0  0  0  0  0  0  0  0  0  0  0
  144.2033  136.4524  150.3537 H   0  0  0  0  0  0  0  0  0  0  0  0
  146.7168  135.0707  151.4613 H   0  0  0  0  0  0  0  0  0  0  0  0
  147.1819  132.4152  150.8267 H   0  0  0  0  0  0  0  0  0  0  0  0
  143.1148  133.2069  150.3671 H   0  0  0  0  0  0  0  0  0  0  0  0
  146.0153  137.1875  151.5847 H   0  0  0  0  0  0  0  0  0  0  0  0
  148.2364  137.7007  151.7959 H   0  0  0  0  0  0  0  0  0  0  0  0
  148.2148  139.2889  151.3479 H   0  0  0  0  0  0  0  0  0  0  0  0
  147.7239  140.9700  152.6114 H   0  0  0  0  0  0  0  0  0  0  0  0
  145.9978  140.7509  152.7916 H   0  0  0  0  0  0  0  0  0  0  0  0
  147.5868  141.7665  154.7947 H   0  0  0  0  0  0  0  0  0  0  0  0
  146.1470  140.8285  155.1564 H   0  0  0  0  0  0  0  0  0  0  0  0
  148.8608  140.0554  155.7908 H   0  0  0  0  0  0  0  0  0  0  0  0
  147.3869  139.1299  156.0370 H   0  0  0  0  0  0  0  0  0  0  0  0
  148.4948  137.7036  154.4579 H   0  0  0  0  0  0  0  0  0  0  0  0
  149.2885  139.0621  153.7045 H   0  0  0  0  0  0  0  0  0  0  0  0
  146.8667  138.3609  151.1525 H   0  0  0  0  0  0  0  0  0  0  0  0
  1  2  1  0  0  0  0
  1 18  1  0  0  0  0
  1 19  1  0  0  0  0
  1 20  1  0  0  0  0
  2  3  1  0  0  0  0
  2  9  1  0  0  0  0
  2 21  1  0  0  0  0
  3  4  1  0  0  0  0
  3 22  1  0  0  0  0
  3 23  1  0  0  0  0
  4  8  1  0  0  0  0
  4  5  1  0  0  0  0
  5  6  2  0  0  0  0
  5 24  1  0  0  0  0
  6  7  1  0  0  0  0
  6 25  1  0  0  0  0
  7  8  2  0  0  0  0
  8 26  1  0  0  0  0
  9 10  1  0  0  0  0
  9 27  1  0  0  0  0
 10 11  2  0  0  0  0
 10 12  1  0  0  0  0
 12 17  1  0  0  0  0
 12 13  1  0  0  0  0
 12 14  1  0  0  0  0
 13 28  1  0  0  0  0
 13 29  1  0  0  0  0
 13 38  1  0  0  0  0
 14 15  1  0  0  0  0
 14 30  1  0  0  0  0
 14 31  1  0  0  0  0
 15 16  1  0  0  0  0
 15 32  1  0  0  0  0
 15 33  1  0  0  0  0
 16 17  1  0  0  0  0
 16 34  1  0  0  0  0
 16 35  1  0  0  0  0
 17 36  1  0  0  0  0
 17 37  1  0  0  0  0
M  CHG  1  13   1
M  END
> <s_m_source_file>
AV-unprocessed.smi

> <i_m_source_file_index>
610

> <i_lp_mmshare_version>
43012

> <i_f3d_flags>
0

> <s_epik_input>
W2NIXTFuW2NIXVtjSF1uMVtDSDJdW0NAQEhdKFtDSDNdKVtOSF1DKD1PKUMyKFtOSDJdKVtDSDJdW0NIMl1bQ0gyXVtDSDJdMg==

> <s_epik_cmdline>
J2VwaWtfcHl0aG9uJywgJy1waCcsICc3LjAnLCAnLXRuJywgJzgnLCAnLW1hJywgJzIwMCcsICctbWV0YWxfYmluZGluZycsICctaW1hZScsICc8aW5maWxlLm1hZT4nLCAnLW9tYWUnLCAnPG91dGZpbGUubWFlPic=

> <r_lp_tautomer_probability>
1

> <r_epik_Ionization_Penalty>
0.661147

> <r_epik_Ionization_Penalty_Charging>
0.661145

> <r_epik_Ionization_Penalty_Neutral>
1.19451e-06

> <r_epik_State_Penalty>
0.679243

> <r_epik_Charging_Adjusted_Penalty>
1.34039

> <i_epik_Tot_Q>
1

> <i_epik_Tot_abs_Q>
1

> <r_epik_Metal_State_Penalty>
0.372892

> <b_epik_Metal_Only>
0

> <s_lp_Force_Field>
OPLS_2005

> <r_lp_Energy>
24.5235

> <b_lp_Chiralities_Consistent>
1

> <s_lp_Variant>
AV-unprocessed.smi:610-4

> <Gold.Version>
5.8.1

> <Gold.Id.Protein>
6NUR|6NUR_protein|mol2

> <Gold.PLP.Fitness>
42.3068

> <Gold.PLP.PLP>
-25.3337

> <Gold.PLP.part.hbond>
-1.8720

> <Gold.PLP.part.metal>
0.0000

> <Gold.PLP.part.buried>
-3.9800

> <Gold.PLP.part.nonpolar>
-21.4090

> <Gold.PLP.part.repulsive>
1.6167

> <Gold.PLP.ligand.clash>
0.0000

> <Gold.PLP.ligand.torsion>
0.5463

> <Gold.PLP.Chemscore.Hbond>
3.0000

> <Gold.PLP.Chemscore.CHOScore>
3.0000

> <Gold.PLP.Chemscore.Metal>
0.0000

> <Gold.Chemscore.Hbonds>
donor molecule, donor type, donor heavy atom, donor atom, acceptor molecule, acceptor atom, score
      L1  H    13    28       P1  7948  2.00
      L1  H    13    29       P1  7957  1.00
      L1  C     5    24       P1  7948  1.00
      L1  C     6    25       P1 10747  1.00
      L1  C     8    26       P1 10186  0.91

> <Gold.PLP.Chemscore.Internal.Correction>
0.0657

> <Gold.Rescore>
     Score         DG    S(hbond)    S(metal)    S(lipo)     H(rot)  DE(clash)    DE(int)     intcor
      9.91     -12.42       1.94        0.00      47.59       2.00       0.02       2.48       ----

> <Gold.Chemscore.Fitness>
9.9122

> <Gold.Chemscore.DG>
-12.4158

> <Gold.Chemscore.ZeroCoef>
-5.4800

> <Gold.Chemscore.Hbond>
1.9404

> <Gold.Chemscore.Metal>
0.0000

> <Gold.Chemscore.Lipo>
47.5867

> <Gold.Chemscore.Internal_Hbond>
0.0000

> <Gold.Chemscore.DEClash>
0.0246

> <Gold.Chemscore.DEInternal>
2.4790

> <Gold.Chemscore.Rot>
1.9972

> <Gold.Chemscore.Internal.Correction>
   9.000000E+99

> <Gold.Chemscore.Hbonds>
donor molecule, donor type, donor heavy atom, donor atom, acceptor molecule, acceptor atom, score
      L1  H    13    28       P1  7948  0.99
      L1  H    13    29       P1  7957  0.75

> <Gold.Chemscore.Hbond.Weighted>
-6.4809

> <Gold.Chemscore.Metal.Weighted>
-0.0000

> <Gold.Chemscore.Lipo.Weighted>
-5.5676

> <Gold.Chemscore.Internal_Hbond.Weighted>
0.0000

> <Gold.Chemscore.DEClash.Weighted>
0.0246

> <Gold.Chemscore.DEInternal.Weighted>
2.4790

> <Gold.Chemscore.Rot.Weighted>
5.1127

> <Gold.Chemscore.Internal.Correction.Weighted>
   9.000000E+99

> <Gold.Protein.RotatedTorsions>
[ 6907 6896 6895 6894 ] final  -86.46 input  -60.11 | X-H torsion
[ 7974 7965 7964 7962 ] final -152.85 input  175.53 | X-H torsion
[ 8008 7997 7996 7995 ] final   86.13 input   59.86 | X-H torsion
[ 10167 10162 10161 10158 ] final   88.80 input  -65.29 | X-H torsion
[ 10718 10713 10712 10709 ] final  141.96 input   66.30 | X-H torsion
[ 10763 10752 10751 10750 ] final -147.57 input  -60.55 | X-H torsion
[ 11005 11000 10999 10996 ] final   21.97 input  -57.11 | X-H torsion

> <Gold.Protein.ActiveResidues>
 VAL166  LYS551  ARG553  GLY616  TRP617  ASP618  TYR619  PRO620  LYS621  CYS622 
 ASP623  PHE694  ASN695  SER759  ASP760  ASP761  ALA762  ILE779  LEU786  VAL792 
 PHE793  MET794  SER795  GLU796  ALA797  LYS798  CYS799  TRP800  GLU811  SER814 

> <Gold.Protein.RotatedAtoms>
  150.6867  134.3047  159.4721 H   0  0  0  0  0  0  0  0  0  0  0  0  # atno 6907 bound_to 6896
  152.0939  134.9385  160.0580 H   0  0  0  0  0  0  0  0  0  0  0  0  # atno 6908 bound_to 6896
  152.0690  133.4063  159.4488 H   0  0  0  0  0  0  0  0  0  0  0  0  # atno 6909 bound_to 6896
  144.7772  140.4605  143.5865 H   0  0  0  0  0  0  0  0  0  0  0  0  # atno 7974 bound_to 7965
  155.9589  140.3395  155.6473 H   0  0  0  0  0  0  0  0  0  0  0  0  # atno 8008 bound_to 7997
  155.6824  140.0739  157.2498 H   0  0  0  0  0  0  0  0  0  0  0  0  # atno 8009 bound_to 7997
  154.4138  140.1672  156.1984 H   0  0  0  0  0  0  0  0  0  0  0  0  # atno 8010 bound_to 7997
  139.8637  144.6530  150.9029 H   0  0  0  0  0  0  0  0  0  0  0  0  # atno 10167 bound_to 10162
  157.3860  131.0998  151.0693 H   0  0  0  0  0  0  0  0  0  0  0  0  # atno 10718 bound_to 10713
  154.8279  135.3357  154.6838 H   0  0  0  0  0  0  0  0  0  0  0  0  # atno 10763 bound_to 10752
  153.7462  135.6942  153.4960 H   0  0  0  0  0  0  0  0  0  0  0  0  # atno 10764 bound_to 10752
  153.2209  135.4449  155.0438 H   0  0  0  0  0  0  0  0  0  0  0  0  # atno 10765 bound_to 10752
  140.3858  134.1872  155.7663 H   0  0  0  0  0  0  0  0  0  0  0  0  # atno 11005 bound_to 11000
  145.6153  139.1518  143.3053 LP  0  0  0  0  0  0  0  0  0  0  0  0  # atno 17320 bound_to 7965
  146.1958  140.6267  142.9125 LP  0  0  0  0  0  0  0  0  0  0  0  0  # atno 17321 bound_to 7965
  140.7771  143.3723  151.1627 LP  0  0  0  0  0  0  0  0  0  0  0  0  # atno 17342 bound_to 10162
  139.7350  143.9014  152.3032 LP  0  0  0  0  0  0  0  0  0  0  0  0  # atno 17343 bound_to 10162
  157.1744  130.6281  149.5651 LP  0  0  0  0  0  0  0  0  0  0  0  0  # atno 17370 bound_to 10713
  155.9787  130.4774  150.6669 LP  0  0  0  0  0  0  0  0  0  0  0  0  # atno 17371 bound_to 10713
  141.1908  133.8209  157.0904 LP  0  0  0  0  0  0  0  0  0  0  0  0  # atno 17394 bound_to 11000
  140.0444  134.9838  157.1022 LP  0  0  0  0  0  0  0  0  0  0  0  0  # atno 17395 bound_to 11000

$$$$
