AV-unprocessed.smi:109|AV-procd|sdf|1039|dock2
  -GOLD-   2262018 63D 1   1.00000     0.00000
 Structure written by MMmdl.
 58 61  0  0  0  0  0  0  0  0  1 V2000
  150.6164  139.5985  154.3869 O   0  0  0  0  0  0  0  0  0  0  0  0
  151.0089  139.6438  155.7417 C   0  0  0  0  0  0  0  0  0  0  0  0
  151.4622  141.0678  156.1076 C   0  0  0  0  0  0  0  0  0  0  0  0
  150.5122  141.8042  157.0838 C   0  0  2  0  0  0  0  0  0  0  0  0
  149.3301  142.2694  156.3553 N   0  0  0  0  0  0  0  0  0  0  0  0
  148.4559  141.4167  155.7752 C   0  0  0  0  0  0  0  0  0  0  0  0
  148.5773  141.0480  154.4735 N   0  0  0  0  0  0  0  0  0  0  0  0
  147.6879  140.2127  153.9284 C   0  0  0  0  0  0  0  0  0  0  0  0
  146.6259  139.6383  154.4975 N   0  0  0  0  0  0  0  0  0  0  0  0
  146.5043  139.9980  155.8082 C   0  0  0  0  0  0  0  0  0  0  0  0
  147.3676  140.8825  156.5118 C   0  0  0  0  0  0  0  0  0  0  0  0
  146.9218  141.0344  157.8176 N   0  0  0  0  0  0  0  0  0  0  0  0
  145.8525  140.2871  157.8744 C   0  0  0  0  0  0  0  0  0  0  0  0
  145.5466  139.5990  156.7180 N   0  0  0  0  0  0  0  0  0  0  0  0
  144.3856  138.6910  156.4414 C   0  0  2  0  0  0  0  0  0  0  0  0
  143.6418  139.2356  155.3884 O   0  0  0  0  0  0  0  0  0  0  0  0
  142.4307  139.8244  155.8588 C   0  0  2  0  0  0  0  0  0  0  0  0
  142.6553  141.3127  156.2123 C   0  0  0  0  0  0  0  0  0  0  0  0
  143.1949  141.9902  155.0981 O   0  0  0  0  0  0  0  0  0  0  0  0
  142.0851  138.9129  157.0435 C   0  0  2  0  0  0  0  0  0  0  0  0
  141.2157  139.5232  157.9775 O   0  0  0  0  0  0  0  0  0  0  0  0
  143.4419  138.5905  157.6564 C   0  0  1  0  0  0  0  0  0  0  0  0
  143.4182  137.2837  158.1963 O   0  0  0  0  0  0  0  0  0  0  0  0
  151.1752  143.0102  157.8100 C   0  0  0  0  0  0  0  0  0  0  0  0
  152.3998  142.6097  158.6702 C   0  0  0  0  0  0  0  0  0  0  0  0
  153.0155  143.8092  159.4095 C   0  0  0  0  0  0  0  0  0  0  0  0
  151.9770  144.5256  160.2810 C   0  0  0  0  0  0  0  0  0  0  0  0
  150.7696  144.9535  159.4386 C   0  0  0  0  0  0  0  0  0  0  0  0
  150.1507  143.7530  158.7064 C   0  0  0  0  0  0  0  0  0  0  0  0
  144.8455  137.7477  156.1436 H   0  0  0  0  0  0  0  0  0  0  0  0
  141.6561  139.7474  155.0946 H   0  0  0  0  0  0  0  0  0  0  0  0
  141.6177  138.0047  156.6587 H   0  0  0  0  0  0  0  0  0  0  0  0
  143.7165  139.3263  158.4144 H   0  0  0  0  0  0  0  0  0  0  0  0
  150.1660  138.7825  154.2318 H   0  0  0  0  0  0  0  0  0  0  0  0
  150.1665  139.3257  156.3559 H   0  0  0  0  0  0  0  0  0  0  0  0
  151.8182  138.9305  155.8998 H   0  0  0  0  0  0  0  0  0  0  0  0
  152.4512  140.9763  156.5532 H   0  0  0  0  0  0  0  0  0  0  0  0
  151.5869  141.6593  155.1994 H   0  0  0  0  0  0  0  0  0  0  0  0
  150.2294  141.0957  157.8620 H   0  0  0  0  0  0  0  0  0  0  0  0
  149.1864  143.2690  156.3596 H   0  0  0  0  0  0  0  0  0  0  0  0
  147.8504  139.9694  152.8888 H   0  0  0  0  0  0  0  0  0  0  0  0
  145.2602  140.2155  158.7747 H   0  0  0  0  0  0  0  0  0  0  0  0
  141.7075  141.8016  156.4371 H   0  0  0  0  0  0  0  0  0  0  0  0
  143.2891  141.4468  157.0872 H   0  0  0  0  0  0  0  0  0  0  0  0
  143.4018  141.3538  154.4310 H   0  0  0  0  0  0  0  0  0  0  0  0
  141.1523  138.9660  158.7383 H   0  0  0  0  0  0  0  0  0  0  0  0
  143.9691  137.2646  158.9635 H   0  0  0  0  0  0  0  0  0  0  0  0
  151.5234  143.7101  157.0486 H   0  0  0  0  0  0  0  0  0  0  0  0
  152.1086  141.8463  159.3929 H   0  0  0  0  0  0  0  0  0  0  0  0
  153.1825  142.1725  158.0526 H   0  0  0  0  0  0  0  0  0  0  0  0
  153.8500  143.4754  160.0269 H   0  0  0  0  0  0  0  0  0  0  0  0
  153.4301  144.5107  158.6844 H   0  0  0  0  0  0  0  0  0  0  0  0
  151.6500  143.8635  161.0838 H   0  0  0  0  0  0  0  0  0  0  0  0
  152.4267  145.3965  160.7589 H   0  0  0  0  0  0  0  0  0  0  0  0
  150.0210  145.4249  160.0761 H   0  0  0  0  0  0  0  0  0  0  0  0
  151.0766  145.7069  158.7119 H   0  0  0  0  0  0  0  0  0  0  0  0
  149.3078  144.1131  158.1161 H   0  0  0  0  0  0  0  0  0  0  0  0
  149.7342  143.0587  159.4375 H   0  0  0  0  0  0  0  0  0  0  0  0
  1  2  1  0  0  0  0
  1 34  1  0  0  0  0
  2  3  1  0  0  0  0
  2 35  1  0  0  0  0
  2 36  1  0  0  0  0
  3  4  1  0  0  0  0
  3 37  1  0  0  0  0
  3 38  1  0  0  0  0
  4  5  1  0  0  0  0
  4 24  1  0  0  0  0
  4 39  1  0  0  0  0
  5  6  1  0  0  0  0
  5 40  1  0  0  0  0
  6 11  1  0  0  0  0
  6  7  2  0  0  0  0
  7  8  1  0  0  0  0
  8  9  2  0  0  0  0
  8 41  1  0  0  0  0
  9 10  1  0  0  0  0
 10 14  1  0  0  0  0
 10 11  2  0  0  0  0
 11 12  1  0  0  0  0
 12 13  2  0  0  0  0
 13 14  1  0  0  0  0
 13 42  1  0  0  0  0
 14 15  1  0  0  0  0
 15 30  1  0  0  0  0
 15 22  1  0  0  0  0
 15 16  1  0  0  0  0
 16 17  1  0  0  0  0
 17 31  1  0  0  0  0
 17 18  1  0  0  0  0
 17 20  1  0  0  0  0
 18 19  1  0  0  0  0
 18 43  1  0  0  0  0
 18 44  1  0  0  0  0
 19 45  1  0  0  0  0
 20 32  1  0  0  0  0
 20 21  1  0  0  0  0
 20 22  1  0  0  0  0
 21 46  1  0  0  0  0
 22 33  1  0  0  0  0
 22 23  1  0  0  0  0
 23 47  1  0  0  0  0
 24 29  1  0  0  0  0
 24 25  1  0  0  0  0
 24 48  1  0  0  0  0
 25 26  1  0  0  0  0
 25 49  1  0  0  0  0
 25 50  1  0  0  0  0
 26 27  1  0  0  0  0
 26 51  1  0  0  0  0
 26 52  1  0  0  0  0
 27 28  1  0  0  0  0
 27 53  1  0  0  0  0
 27 54  1  0  0  0  0
 28 29  1  0  0  0  0
 28 55  1  0  0  0  0
 28 56  1  0  0  0  0
 29 57  1  0  0  0  0
 29 58  1  0  0  0  0
M  END
> <s_m_source_file>
AV-unprocessed.smi

> <i_m_source_file_index>
109

> <i_lp_mmshare_version>
43012

> <i_f3d_flags>
0

> <s_epik_input>
W0NIMl0xW0NIMl1bQ0gyXVtDSDJdW0NIMl1bQ0hdMVtDQEhdKFtDSDJdW0NIMl1bT0hdKVtOSF1jKG5bY0hdbjIpYyhjMjMpbltjSF1uM1tDQEBIXTRPW0NASF0oW0NIMl1bT0hdKVtDQEBIXShbT0hdKVtDQEhdNFtPSF0=

> <s_epik_cmdline>
J2VwaWtfcHl0aG9uJywgJy1waCcsICc3LjAnLCAnLXRuJywgJzgnLCAnLW1hJywgJzIwMCcsICctbWV0YWxfYmluZGluZycsICctaW1hZScsICc8aW5maWxlLm1hZT4nLCAnLW9tYWUnLCAnPG91dGZpbGUubWFlPic=

> <r_lp_tautomer_probability>
1

> <r_epik_Ionization_Penalty>
0.000793976

> <r_epik_Ionization_Penalty_Charging>
0

> <r_epik_Ionization_Penalty_Neutral>
0.000793976

> <r_epik_State_Penalty>
-0

> <r_epik_Charging_Adjusted_Penalty>
0

> <i_epik_Tot_Q>
0

> <i_epik_Tot_abs_Q>
0

> <r_epik_Metal_State_Penalty>
-0

> <b_epik_Metal_Only>
0

> <s_epik_Chemistry_Notes>
This compound contains an acetal/aminal-like group ( X-CH(R)-Y where X, Y are N, S, or O) that may be acid/base labile, releasing an aldehyde.

> <s_lp_Force_Field>
OPLS_2005

> <r_lp_Energy>
51.6151

> <b_lp_Chiralities_Consistent>
1

> <s_lp_Variant>
AV-unprocessed.smi:109-9

> <Gold.Version>
5.8.1

> <Gold.Id.Protein>
6NUR|6NUR_protein|mol2

> <Gold.PLP.Fitness>
44.7723

> <Gold.PLP.PLP>
-35.0766

> <Gold.PLP.part.hbond>
-4.0000

> <Gold.PLP.part.metal>
0.0000

> <Gold.PLP.part.buried>
-7.1264

> <Gold.PLP.part.nonpolar>
-25.2573

> <Gold.PLP.part.repulsive>
0.8733

> <Gold.PLP.ligand.clash>
0.0000

> <Gold.PLP.ligand.torsion>
1.3762

> <Gold.PLP.Chemscore.Hbond>
3.0000

> <Gold.PLP.Chemscore.CHOScore>
1.0000

> <Gold.PLP.Chemscore.Metal>
0.0000

> <Gold.Chemscore.Hbonds>
donor molecule, donor type, donor heavy atom, donor atom, acceptor molecule, acceptor atom, score
      L1  H     5    40       P1  8028  1.00
      L1  H    19    45       P1 10175  0.81
      P1  H  7989  7998       L1     1  1.00
      L1  C     8    41       P1  7957  1.00

> <Gold.PLP.Chemscore.Internal.Correction>
0.4481

> <Gold.Rescore>
     Score         DG    S(hbond)    S(metal)    S(lipo)     H(rot)  DE(clash)    DE(int)     intcor
      7.37     -10.21       2.70        0.00      82.92       5.47       0.06       2.78       ----

> <Gold.Chemscore.Fitness>
7.3728

> <Gold.Chemscore.DG>
-10.2127

> <Gold.Chemscore.ZeroCoef>
-5.4800

> <Gold.Chemscore.Hbond>
2.7020

> <Gold.Chemscore.Metal>
0.0000

> <Gold.Chemscore.Lipo>
82.9201

> <Gold.Chemscore.Internal_Hbond>
0.0000

> <Gold.Chemscore.DEClash>
0.0595

> <Gold.Chemscore.DEInternal>
2.7805

> <Gold.Chemscore.Rot>
5.4662

> <Gold.Chemscore.Internal.Correction>
   9.000000E+99

> <Gold.Chemscore.Hbonds>
donor molecule, donor type, donor heavy atom, donor atom, acceptor molecule, acceptor atom, score
      L1  H     5    40       P1  8028  0.98
      L1  H    19    45       P1 10175  0.28
      P1  H  7989  7998       L1     1  0.60

> <Gold.Chemscore.Hbond.Weighted>
-9.0246

> <Gold.Chemscore.Metal.Weighted>
-0.0000

> <Gold.Chemscore.Lipo.Weighted>
-9.7017

> <Gold.Chemscore.Internal_Hbond.Weighted>
0.0000

> <Gold.Chemscore.DEClash.Weighted>
0.0595

> <Gold.Chemscore.DEInternal.Weighted>
2.7805

> <Gold.Chemscore.Rot.Weighted>
13.9935

> <Gold.Chemscore.Internal.Correction.Weighted>
   9.000000E+99

> <Gold.Protein.RotatedTorsions>
[ 6907 6896 6895 6894 ] final   21.43 input  -60.11 | X-H torsion
[ 7974 7965 7964 7962 ] final  119.94 input  175.53 | X-H torsion
[ 8008 7997 7996 7995 ] final -150.87 input   59.86 | X-H torsion
[ 10167 10162 10161 10158 ] final -154.10 input  -65.29 | X-H torsion
[ 10718 10713 10712 10709 ] final -173.08 input   66.30 | X-H torsion
[ 10763 10752 10751 10750 ] final   46.74 input  -60.55 | X-H torsion
[ 11005 11000 10999 10996 ] final -160.80 input  -57.11 | X-H torsion

> <Gold.Protein.ActiveResidues>
 VAL166  LYS551  ARG553  GLY616  TRP617  ASP618  TYR619  PRO620  LYS621  CYS622 
 ASP623  PHE694  ASN695  SER759  ASP760  ASP761  ALA762  ILE779  LEU786  VAL792 
 PHE793  MET794  SER795  GLU796  ALA797  LYS798  CYS799  TRP800  GLU811  SER814 

> <Gold.Protein.RotatedAtoms>
  151.9117  135.0336  160.0514 H   0  0  0  0  0  0  0  0  0  0  0  0  # atno 6907 bound_to 6896
  152.2274  133.5026  159.5205 H   0  0  0  0  0  0  0  0  0  0  0  0  # atno 6908 bound_to 6896
  150.7016  134.1179  159.4066 H   0  0  0  0  0  0  0  0  0  0  0  0  # atno 6909 bound_to 6896
  145.1371  139.3291  143.4635 H   0  0  0  0  0  0  0  0  0  0  0  0  # atno 7974 bound_to 7965
  155.6304  140.0691  157.2650 H   0  0  0  0  0  0  0  0  0  0  0  0  # atno 8008 bound_to 7997
  154.4207  140.1768  156.1515 H   0  0  0  0  0  0  0  0  0  0  0  0  # atno 8009 bound_to 7997
  155.9937  140.3342  155.6781 H   0  0  0  0  0  0  0  0  0  0  0  0  # atno 8010 bound_to 7997
  139.7042  143.9214  152.2441 H   0  0  0  0  0  0  0  0  0  0  0  0  # atno 10167 bound_to 10162
  156.7650  130.9427  151.3119 H   0  0  0  0  0  0  0  0  0  0  0  0  # atno 10718 bound_to 10713
  152.9807  135.5998  154.3649 H   0  0  0  0  0  0  0  0  0  0  0  0  # atno 10763 bound_to 10752
  154.3328  135.2768  155.2465 H   0  0  0  0  0  0  0  0  0  0  0  0  # atno 10764 bound_to 10752
  154.4581  135.5973  153.6293 H   0  0  0  0  0  0  0  0  0  0  0  0  # atno 10765 bound_to 10752
  140.6275  134.4686  157.5227 H   0  0  0  0  0  0  0  0  0  0  0  0  # atno 11005 bound_to 11000
  146.3508  140.1393  142.8595 LP  0  0  0  0  0  0  0  0  0  0  0  0  # atno 17320 bound_to 7965
  145.0572  140.9061  143.4960 LP  0  0  0  0  0  0  0  0  0  0  0  0  # atno 17321 bound_to 7965
  139.9065  144.6882  150.8609 LP  0  0  0  0  0  0  0  0  0  0  0  0  # atno 17342 bound_to 10162
  140.7717  143.3475  151.2081 LP  0  0  0  0  0  0  0  0  0  0  0  0  # atno 17343 bound_to 10162
  157.6717  130.9057  150.0056 LP  0  0  0  0  0  0  0  0  0  0  0  0  # atno 17370 bound_to 10713
  156.1315  130.3643  149.9725 LP  0  0  0  0  0  0  0  0  0  0  0  0  # atno 17371 bound_to 10713
  139.9129  134.8307  156.1465 LP  0  0  0  0  0  0  0  0  0  0  0  0  # atno 17394 bound_to 11000
  141.0699  133.6801  156.2120 LP  0  0  0  0  0  0  0  0  0  0  0  0  # atno 17395 bound_to 11000

$$$$
