AV-unprocessed.smi:113|AV-procd|sdf|1101|dock1
  -GOLD-   2262018213D 1   1.00000     0.00000
 Structure written by MMmdl.
 53 56  0  0  0  0  0  0  0  0  2 V2000
  146.3075  143.1748  158.6660 C   0  0  0  0  0  0  0  0  0  0  0  0
  147.8174  143.0963  158.5891 C   0  0  0  0  0  0  0  0  0  0  0  0
  148.4795  142.0483  157.9211 C   0  0  0  0  0  0  0  0  0  0  0  0
  149.8956  142.0166  157.8820 C   0  0  0  0  0  0  0  0  0  0  0  0
  150.6422  140.8858  157.1657 C   0  0  0  0  0  0  0  0  0  0  0  0
  150.7710  139.6267  157.8859 N   0  0  0  0  0  0  0  0  0  0  0  0
  152.0328  139.3054  158.4424 C   0  0  0  0  0  0  0  0  0  0  0  0
  153.0032  140.0557  158.3174 O   0  0  0  0  0  0  0  0  0  0  0  0
  152.0917  138.0231  159.1477 C   0  0  0  0  0  0  0  0  0  0  0  0
  153.4019  137.6305  159.8123 C   0  0  0  0  0  0  0  0  0  0  0  0
  150.9948  137.2289  159.1921 C   0  0  0  0  0  0  0  0  0  0  0  0
  149.7868  137.5421  158.5932 N   0  0  0  0  0  0  0  0  0  0  0  0
  148.6215  136.5821  158.7280 C   0  0  2  0  0  0  0  0  0  0  0  0
  147.3136  137.2576  159.1572 C   0  0  0  0  0  0  0  0  0  0  0  0
  146.6989  136.1780  160.0237 C   0  0  2  0  0  0  0  0  0  0  0  0
  145.8074  136.7357  160.9674 O   0  0  0  0  0  0  0  0  0  0  0  0
  147.9243  135.5386  160.6855 C   0  0  1  0  0  0  0  0  0  0  0  0
  147.7011  134.0745  161.0939 C   0  0  0  0  0  0  0  0  0  0  0  0
  146.7049  133.9942  162.0909 O   0  0  0  0  0  0  0  0  0  0  0  0
  148.9384  135.6115  159.6823 O   0  0  0  0  0  0  0  0  0  0  0  0
  149.6377  138.7843  157.9371 C   0  0  0  0  0  0  0  0  0  0  0  0
  148.5690  139.1131  157.4187 O   0  0  0  0  0  0  0  0  0  0  0  0
  150.6110  143.0637  158.5253 C   0  0  0  0  0  0  0  0  0  0  0  0
  152.0255  143.1175  158.5329 C   0  0  0  0  0  0  0  0  0  0  0  0
  152.6976  144.1698  159.1848 C   0  0  0  0  0  0  0  0  0  0  0  0
  151.9689  145.1825  159.8359 C   0  0  0  0  0  0  0  0  0  0  0  0
  150.5623  145.1455  159.8365 C   0  0  0  0  0  0  0  0  0  0  0  0
  149.8879  144.0938  159.1854 C   0  0  0  0  0  0  0  0  0  0  0  0
  148.5385  144.0647  159.1895 N   0  3  0  0  0  0  0  0  0  0  0  0
  145.8486  142.6395  157.8342 H   0  0  0  0  0  0  0  0  0  0  0  0
  145.9696  144.2109  158.6287 H   0  0  0  0  0  0  0  0  0  0  0  0
  145.9543  142.7300  159.5964 H   0  0  0  0  0  0  0  0  0  0  0  0
  147.8890  141.2787  157.4471 H   0  0  0  0  0  0  0  0  0  0  0  0
  150.1692  140.6738  156.2058 H   0  0  0  0  0  0  0  0  0  0  0  0
  151.6515  141.2057  156.9013 H   0  0  0  0  0  0  0  0  0  0  0  0
  153.3255  136.6716  160.3252 H   0  0  0  0  0  0  0  0  0  0  0  0
  153.6967  138.3789  160.5492 H   0  0  0  0  0  0  0  0  0  0  0  0
  154.1967  137.5492  159.0700 H   0  0  0  0  0  0  0  0  0  0  0  0
  151.0752  136.2907  159.7225 H   0  0  0  0  0  0  0  0  0  0  0  0
  148.5200  136.0826  157.7643 H   0  0  0  0  0  0  0  0  0  0  0  0
  147.5042  138.1636  159.7311 H   0  0  0  0  0  0  0  0  0  0  0  0
  146.7060  137.5189  158.2905 H   0  0  0  0  0  0  0  0  0  0  0  0
  146.1780  135.4524  159.3970 H   0  0  0  0  0  0  0  0  0  0  0  0
  145.2678  136.0430  161.3174 H   0  0  0  0  0  0  0  0  0  0  0  0
  148.2292  136.1395  161.5439 H   0  0  0  0  0  0  0  0  0  0  0  0
  147.3517  133.4961  160.2380 H   0  0  0  0  0  0  0  0  0  0  0  0
  148.6259  133.6131  161.4412 H   0  0  0  0  0  0  0  0  0  0  0  0
  146.3643  133.1128  162.1059 H   0  0  0  0  0  0  0  0  0  0  0  0
  152.6184  142.3596  158.0436 H   0  0  0  0  0  0  0  0  0  0  0  0
  153.7777  144.1998  159.1850 H   0  0  0  0  0  0  0  0  0  0  0  0
  152.4892  145.9875  160.3343 H   0  0  0  0  0  0  0  0  0  0  0  0
  150.0077  145.9259  160.3377 H   0  0  0  0  0  0  0  0  0  0  0  0
  148.0392  144.8132  159.6697 H   0  0  0  0  0  0  0  0  0  0  0  0
  1  2  1  0  0  0  0
  1 30  1  0  0  0  0
  1 31  1  0  0  0  0
  1 32  1  0  0  0  0
  2 29  1  0  0  0  0
  2  3  2  0  0  0  0
  3  4  1  0  0  0  0
  3 33  1  0  0  0  0
  4  5  1  0  0  0  0
  4 23  2  0  0  0  0
  5  6  1  0  0  0  0
  5 34  1  0  0  0  0
  5 35  1  0  0  0  0
  6 21  1  0  0  0  0
  6  7  1  0  0  0  0
  7  8  2  0  0  0  0
  7  9  1  0  0  0  0
  9 10  1  0  0  0  0
  9 11  2  0  0  0  0
 10 36  1  0  0  0  0
 10 37  1  0  0  0  0
 10 38  1  0  0  0  0
 11 12  1  0  0  0  0
 11 39  1  0  0  0  0
 12 13  1  0  0  0  0
 12 21  1  0  0  0  0
 13 20  1  0  0  0  0
 13 14  1  0  0  0  0
 13 40  1  0  0  0  0
 14 15  1  0  0  0  0
 14 41  1  0  0  0  0
 14 42  1  0  0  0  0
 15 16  1  0  0  0  0
 15 17  1  0  0  0  0
 15 43  1  0  0  0  0
 16 44  1  0  0  0  0
 17 18  1  0  0  0  0
 17 20  1  0  0  0  0
 17 45  1  0  0  0  0
 18 19  1  0  0  0  0
 18 46  1  0  0  0  0
 18 47  1  0  0  0  0
 19 48  1  0  0  0  0
 21 22  2  0  0  0  0
 23 28  1  0  0  0  0
 23 24  1  0  0  0  0
 24 25  2  0  0  0  0
 24 49  1  0  0  0  0
 25 26  1  0  0  0  0
 25 50  1  0  0  0  0
 26 27  2  0  0  0  0
 26 51  1  0  0  0  0
 27 28  1  0  0  0  0
 27 52  1  0  0  0  0
 28 29  2  0  0  0  0
 29 53  1  0  0  0  0
M  CHG  1  29   1
M  END
> <s_m_source_file>
AV-unprocessed.smi

> <i_m_source_file_index>
113

> <i_lp_mmshare_version>
43012

> <i_f3d_flags>
0

> <s_epik_input>
W2NIXTFbY0hdW2NIXVtjSF1jKGMxMiluYyhbQ0gzXSlbY0hdYzJbQ0gyXW4zYyg9TyljKFtDSDNdKVtjSF1uKGMzPU8pW0NAQEhdNFtDSDJdW0NAQEhdKFtPSF0pW0NASF0oTzQpW0NIMl1bT0hd

> <s_epik_cmdline>
J2VwaWtfcHl0aG9uJywgJy1waCcsICc3LjAnLCAnLXRuJywgJzgnLCAnLW1hJywgJzIwMCcsICctbWV0YWxfYmluZGluZycsICctaW1hZScsICc8aW5maWxlLm1hZT4nLCAnLW9tYWUnLCAnPG91dGZpbGUubWFlPic=

> <r_lp_tautomer_probability>
1

> <r_epik_Ionization_Penalty>
0.705471

> <r_epik_Ionization_Penalty_Charging>
0.70547

> <r_epik_Ionization_Penalty_Neutral>
1.19947e-07

> <r_epik_State_Penalty>
0.728574

> <r_epik_Charging_Adjusted_Penalty>
1.43404

> <i_epik_Tot_Q>
1

> <i_epik_Tot_abs_Q>
1

> <r_epik_Metal_State_Penalty>
4.61665

> <b_epik_Metal_Only>
0

> <s_epik_Chemistry_Notes>
This compound contains an acetal/aminal-like group ( X-CH(R)-Y where X, Y are N, S, or O) that may be acid/base labile, releasing an aldehyde.

> <s_lp_Force_Field>
OPLS_2005

> <r_lp_Energy>
36.4748

> <b_lp_Chiralities_Consistent>
1

> <s_lp_Variant>
AV-unprocessed.smi:113-11

> <Gold.Version>
5.8.1

> <Gold.Id.Protein>
6NUR|6NUR_protein|mol2

> <Gold.PLP.Fitness>
49.3024

> <Gold.PLP.PLP>
-44.8491

> <Gold.PLP.part.hbond>
-3.0000

> <Gold.PLP.part.metal>
0.0000

> <Gold.PLP.part.buried>
-6.9571

> <Gold.PLP.part.nonpolar>
-35.7301

> <Gold.PLP.part.repulsive>
0.1281

> <Gold.PLP.ligand.clash>
0.0000

> <Gold.PLP.ligand.torsion>
0.7786

> <Gold.PLP.Chemscore.Hbond>
1.9913

> <Gold.PLP.Chemscore.CHOScore>
0.0000

> <Gold.PLP.Chemscore.Metal>
0.0000

> <Gold.Chemscore.Hbonds>
donor molecule, donor type, donor heavy atom, donor atom, acceptor molecule, acceptor atom, score
      P1  H  6896  6909       L1    20  1.00
      P1  H  7997  8009       L1     8  0.98

> <Gold.PLP.Chemscore.Internal.Correction>
0.0368

> <Gold.Rescore>
     Score         DG    S(hbond)    S(metal)    S(lipo)     H(rot)  DE(clash)    DE(int)     intcor
     14.73     -18.02       1.96        0.00     117.02       3.01       0.19       3.10       ----

> <Gold.Chemscore.Fitness>
14.7278

> <Gold.Chemscore.DG>
-18.0192

> <Gold.Chemscore.ZeroCoef>
-5.4800

> <Gold.Chemscore.Hbond>
1.9635

> <Gold.Chemscore.Metal>
0.0000

> <Gold.Chemscore.Lipo>
117.0237

> <Gold.Chemscore.Internal_Hbond>
0.0000

> <Gold.Chemscore.DEClash>
0.1877

> <Gold.Chemscore.DEInternal>
3.1037

> <Gold.Chemscore.Rot>
3.0120

> <Gold.Chemscore.Internal.Correction>
   9.000000E+99

> <Gold.Chemscore.Hbonds>
donor molecule, donor type, donor heavy atom, donor atom, acceptor molecule, acceptor atom, score
      P1  H  6896  6909       L1    20  0.94
      P1  H  7997  8009       L1     8  0.88

> <Gold.Chemscore.Hbond.Weighted>
-6.5582

> <Gold.Chemscore.Metal.Weighted>
-0.0000

> <Gold.Chemscore.Lipo.Weighted>
-13.6918

> <Gold.Chemscore.Internal_Hbond.Weighted>
0.0000

> <Gold.Chemscore.DEClash.Weighted>
0.1877

> <Gold.Chemscore.DEInternal.Weighted>
3.1037

> <Gold.Chemscore.Rot.Weighted>
7.7108

> <Gold.Chemscore.Internal.Correction.Weighted>
   9.000000E+99

> <Gold.Protein.RotatedTorsions>
[ 6907 6896 6895 6894 ] final   56.53 input  -60.11 | X-H torsion
[ 7974 7965 7964 7962 ] final  -41.71 input  175.53 | X-H torsion
[ 8008 7997 7996 7995 ] final  158.63 input   59.86 | X-H torsion
[ 10167 10162 10161 10158 ] final -124.25 input  -65.29 | X-H torsion
[ 10718 10713 10712 10709 ] final  112.31 input   66.30 | X-H torsion
[ 10763 10752 10751 10750 ] final  -11.98 input  -60.55 | X-H torsion
[ 11005 11000 10999 10996 ] final  -73.86 input  -57.11 | X-H torsion

> <Gold.Protein.ActiveResidues>
 VAL166  LYS551  ARG553  GLY616  TRP617  ASP618  TYR619  PRO620  LYS621  CYS622 
 ASP623  PHE694  ASN695  SER759  ASP760  ASP761  ALA762  ILE779  LEU786  VAL792 
 PHE793  MET794  SER795  GLU796  ALA797  LYS798  CYS799  TRP800  GLU811  SER814 

> <Gold.Protein.RotatedAtoms>
  152.3645  134.6825  160.0196 H   0  0  0  0  0  0  0  0  0  0  0  0  # atno 6907 bound_to 6896
  151.7137  133.3307  159.3305 H   0  0  0  0  0  0  0  0  0  0  0  0  # atno 6908 bound_to 6896
  150.7628  134.6444  159.6299 H   0  0  0  0  0  0  0  0  0  0  0  0  # atno 6909 bound_to 6896
  146.0185  140.6879  142.9190 H   0  0  0  0  0  0  0  0  0  0  0  0  # atno 7974 bound_to 7965
  156.2291  140.1853  156.7289 H   0  0  0  0  0  0  0  0  0  0  0  0  # atno 8008 bound_to 7997
  154.5991  140.0639  156.9372 H   0  0  0  0  0  0  0  0  0  0  0  0  # atno 8009 bound_to 7997
  155.2205  140.3307  155.4319 H   0  0  0  0  0  0  0  0  0  0  0  0  # atno 8010 bound_to 7997
  139.9948  143.5603  152.2327 H   0  0  0  0  0  0  0  0  0  0  0  0  # atno 10167 bound_to 10162
  157.6399  131.0965  150.6877 H   0  0  0  0  0  0  0  0  0  0  0  0  # atno 10718 bound_to 10713
  153.4918  135.7017  153.5880 H   0  0  0  0  0  0  0  0  0  0  0  0  # atno 10763 bound_to 10752
  153.4049  135.3863  155.2012 H   0  0  0  0  0  0  0  0  0  0  0  0  # atno 10764 bound_to 10752
  154.8716  135.3890  154.4379 H   0  0  0  0  0  0  0  0  0  0  0  0  # atno 10765 bound_to 10752
  141.1628  133.6892  156.7276 H   0  0  0  0  0  0  0  0  0  0  0  0  # atno 11005 bound_to 11000
  144.6980  140.3523  143.7179 LP  0  0  0  0  0  0  0  0  0  0  0  0  # atno 17320 bound_to 7965
  145.7231  139.1715  143.2473 LP  0  0  0  0  0  0  0  0  0  0  0  0  # atno 17321 bound_to 7965
  139.6314  144.7644  151.2529 LP  0  0  0  0  0  0  0  0  0  0  0  0  # atno 17342 bound_to 10162
  140.7441  143.6473  150.8280 LP  0  0  0  0  0  0  0  0  0  0  0  0  # atno 17343 bound_to 10162
  156.7202  130.4678  149.5525 LP  0  0  0  0  0  0  0  0  0  0  0  0  # atno 17370 bound_to 10713
  156.1671  130.6412  151.0791 LP  0  0  0  0  0  0  0  0  0  0  0  0  # atno 17371 bound_to 10713
  140.2769  134.8348  157.3898 LP  0  0  0  0  0  0  0  0  0  0  0  0  # atno 17394 bound_to 11000
  140.1469  134.4899  155.7989 LP  0  0  0  0  0  0  0  0  0  0  0  0  # atno 17395 bound_to 11000

$$$$
