#       Name:                AV-unprocessed.smi:1163
#       Creating user name   scv26
#       Creation time:       Fri Mar 27 03:50:13 2020


#       File generated by GOLD software.
#

@<TRIPOS>MOLECULE
AV-unprocessed.smi:1163
    45    46     1
SMALL
NO_CHARGES


@<TRIPOS>ATOM
      1 ****        -7.4168   0.6529   0.4620 C.3            1 S1                 0.0000
      2 ****        -6.7561  -0.6061   0.3933 O.3            1 S1                 0.0000
      3 ****        -5.4064  -0.6222   0.1061 C.ar           1 S1                 0.0000
      4 ****        -4.7465  -1.8653   0.0366 C.ar           1 S1                 0.0000
      5 ****        -3.3692  -1.8867  -0.2537 C.ar           1 S1                 0.0000
      6 ****        -2.6897  -0.6684  -0.4549 C.ar           1 S1                 0.0000
      7 ****        -1.3038  -0.7159  -0.7653 N.am           1 S1                 0.0000
      8 ****        -0.3809   0.2459  -0.5931 C.2            1 S1                 0.0000
      9 ****        -0.5873   1.3446  -0.0779 O.2            1 S1                 0.0000
     10 ****         0.8217  -0.1489  -1.0343 N.am           1 S1                 0.0000
     11 ****         2.0389   0.6542  -0.9699 C.3            1 S1                 0.0000
     12 ****         3.1148   0.1623  -1.9321 C.3            1 S1                 0.0000
     13 ****         4.4018   0.3963  -1.1505 C.3            1 S1                 0.0000
     14 ****         4.0238   0.0146   0.2011 N.3            1 S1                 0.0000
     15 ****         5.0206   0.4359   1.1830 C.3            1 S1                 0.0000
     16 ****         4.7818  -0.1684   2.5805 C.3            1 S1                 0.0000
     17 ****         5.8163   0.1410   3.3608 F              1 S1                 0.0000
     18 ****         3.6757   0.3181   3.1432 F              1 S1                 0.0000
     19 ****         4.6909  -1.4964   2.5045 F              1 S1                 0.0000
     20 ****         2.6992   0.5934   0.4189 C.3            1 S1                 0.0000
     21 ****        -3.4441   0.5276  -0.3769 C.ar           1 S1                 0.0000
     22 ****        -4.7659   0.5546  -0.1023 N.ar           1 S1                 0.0000
     23 ****        -8.4690   0.4957   0.6985 H              1 S1                 0.0000
     24 ****        -7.3679   1.1816  -0.4910 H              1 S1                 0.0000
     25 ****        -6.9931   1.2844   1.2443 H              1 S1                 0.0000
     26 ****        -5.2873  -2.7853   0.2023 H              1 S1                 0.0000
     27 ****        -2.8428  -2.8282  -0.3152 H              1 S1                 0.0000
     28 ****        -0.9655  -1.6023  -1.1101 H              1 S1                 0.0000
     29 ****         0.9051  -1.0711  -1.4365 H              1 S1                 0.0000
     30 ****         1.8065   1.6945  -1.2062 H              1 S1                 0.0000
     31 ****         3.0003  -0.9036  -2.1378 H              1 S1                 0.0000
     32 ****         3.1010   0.6916  -2.8855 H              1 S1                 0.0000
     33 ****         5.2369  -0.1961  -1.5252 H              1 S1                 0.0000
     34 ****         4.6793   1.4514  -1.1836 H              1 S1                 0.0000
     35 ****         5.9984   0.1036   0.8313 H              1 S1                 0.0000
     36 ****         5.0633   1.5246   1.2375 H              1 S1                 0.0000
     37 ****         2.7856   1.6043   0.8201 H              1 S1                 0.0000
     38 ****         2.1328  -0.0035   1.1345 H              1 S1                 0.0000
     39 ****        -3.0008   1.4944  -0.5580 H              1 S1                 0.0000
     40 ****        -7.2157  -1.1433  -0.3139 LP             1 S1                 0.0000
     41 ****        -6.8753  -1.0517   1.2806 LP             1 S1                 0.0000
     42 ****        -1.5021   1.5784   0.2518 LP             1 S1                 0.0000
     43 ****         0.1597   2.0034   0.0111 LP             1 S1                 0.0000
     44 ****         3.9861  -0.9782   0.3148 LP             1 S1                 0.0000
     45 ****        -5.2609   1.4222  -0.0537 LP             1 S1                 0.0000
@<TRIPOS>BOND
    1    1    2 1     
    2    1   23 1     
    3    1   24 1     
    4    1   25 1     
    5    2    3 1     
    6    3   22 ar    
    7    3    4 ar    
    8    4    5 ar    
    9    4   26 1     
   10    5    6 ar    
   11    5   27 1     
   12    6    7 1     
   13    6   21 ar    
   14    7    8 am    
   15    7   28 1     
   16    8    9 2     
   17    8   10 am    
   18   10   11 1     
   19   10   29 1     
   20   11   20 1     
   21   11   12 1     
   22   11   30 1     
   23   12   13 1     
   24   12   31 1     
   25   12   32 1     
   26   13   14 1     
   27   13   33 1     
   28   13   34 1     
   29   14   15 1     
   30   14   20 1     
   31   15   16 1     
   32   15   35 1     
   33   15   36 1     
   34   16   17 1     
   35   16   18 1     
   36   16   19 1     
   37   20   37 1     
   38   20   38 1     
   39   21   22 ar    
   40   21   39 1     
   41    2   40 1     
   42    2   41 1     
   43    9   42 1     
   44    9   43 1     
   45   14   44 1     
   46   22   45 1     
@<TRIPOS>SUBSTRUCTURE
      1 S1             1
@<TRIPOS>SET
LONE_PAIRS      STATIC     ATOMS    <user>   **** ""
6 40 41 42 43 44 45
DONOR_HYDROGENS      STATIC     ATOMS    <user>   **** ""
2 28 29
ATOM$BLUE        STATIC     ATOMS    COLORGROUP SYSTEM
6 40 41 42 43 44 45
ATOM$RED        STATIC     ATOMS    COLORGROUP SYSTEM
2 28 29
