#       Name:                AV-unprocessed.smi:1266
#       Creating user name   scv26
#       Creation time:       Fri Mar 27 04:44:39 2020


#       File generated by GOLD software.
#

@<TRIPOS>MOLECULE
AV-unprocessed.smi:1266
    46    47     1
SMALL
NO_CHARGES


@<TRIPOS>ATOM
      1 ****        -0.0108   1.3750   0.4330 O.2            1 S1                 0.0000
      2 ****         0.6882   0.3717   0.2841 C.2            1 S1                 0.0000
      3 ****         2.2205   0.4695   0.2838 C.3            1 S1                 0.0000
      4 ****         2.7219   1.8456   0.1284 N.am           1 S1                 0.0000
      5 ****         3.0647   2.5383   1.3064 C.2            1 S1                 0.0000
      6 ****         3.5344   3.8012   1.2838 C.2            1 S1                 0.0000
      7 ****         3.8768   4.4989   2.5038 N.pl3          1 S1                 1.0000
      8 ****         4.3048   5.6460   2.4253 O.2            1 S1                 0.0000
      9 ****         3.7308   3.9253   3.5792 O.2            1 S1                -1.0000
     10 ****         3.6831   4.4417  -0.0086 C.2            1 S1                 0.0000
     11 ****         3.3512   3.7868  -1.1385 C.2            1 S1                 0.0000
     12 ****         2.8342   2.4146  -1.1109 C.2            1 S1                 0.0000
     13 ****         2.5223   1.8135  -2.1390 O.2            1 S1                 0.0000
     14 ****         0.1826  -0.8615   0.1256 N.am           1 S1                 0.0000
     15 ****        -1.2379  -1.2022   0.0934 C.3            1 S1                 0.0000
     16 ****        -1.4184  -2.6275   0.6572 C.3            1 S1                 0.0000
     17 ****        -2.8805  -2.9678   0.9929 C.3            1 S1                 0.0000
     18 ****        -3.7154  -3.5362  -0.1682 C.3            1 S1                 0.0000
     19 ****        -3.4906  -2.9017  -1.5517 C.3            1 S1                 0.0000
     20 ****        -3.2486  -1.3839  -1.5479 C.3            1 S1                 0.0000
     21 ****        -1.7687  -1.0175  -1.3433 C.3            1 S1                 0.0000
     22 ****         2.5892   0.0323   1.2128 H              1 S1                 0.0000
     23 ****         2.6196  -0.1677  -0.5077 H              1 S1                 0.0000
     24 ****         2.9119   1.9767   2.2168 H              1 S1                 0.0000
     25 ****         4.0613   5.4509  -0.0800 H              1 S1                 0.0000
     26 ****         3.4691   4.2832  -2.0905 H              1 S1                 0.0000
     27 ****         0.8326  -1.6260   0.0130 H              1 S1                 0.0000
     28 ****        -1.7710  -0.5131   0.7513 H              1 S1                 0.0000
     29 ****        -0.9897  -3.3746  -0.0119 H              1 S1                 0.0000
     30 ****        -0.8482  -2.6986   1.5847 H              1 S1                 0.0000
     31 ****        -2.8949  -3.7001   1.8011 H              1 S1                 0.0000
     32 ****        -3.3740  -2.0852   1.4015 H              1 S1                 0.0000
     33 ****        -3.5293  -4.6074  -0.2520 H              1 S1                 0.0000
     34 ****        -4.7691  -3.4444   0.0983 H              1 S1                 0.0000
     35 ****        -2.6582  -3.3994  -2.0506 H              1 S1                 0.0000
     36 ****        -4.3639  -3.1206  -2.1670 H              1 S1                 0.0000
     37 ****        -3.5511  -0.9943  -2.5205 H              1 S1                 0.0000
     38 ****        -3.8849  -0.8839  -0.8168 H              1 S1                 0.0000
     39 ****        -1.6402   0.0280  -1.6265 H              1 S1                 0.0000
     40 ****        -1.1539  -1.5857  -2.0430 H              1 S1                 0.0000
     41 ****         0.4185   2.2697   0.5560 LP             1 S1                 0.0000
     42 ****        -1.0076   1.2947   0.4308 LP             1 S1                 0.0000
     43 ****         4.4107   6.0800   1.5306 LP             1 S1                 0.0000
     44 ****         4.5477   6.1469   3.2559 LP             1 S1                 0.0000
     45 ****         2.1736   0.8779  -2.0849 LP             1 S1                 0.0000
     46 ****         2.6176   2.2610  -3.0283 LP             1 S1                 0.0000
@<TRIPOS>BOND
    1    1    2 2     
    2    2    3 1     
    3    2   14 am    
    4    3    4 1     
    5    3   22 1     
    6    3   23 1     
    7    4   12 am    
    8    4    5 1     
    9    5    6 2     
   10    5   24 1     
   11    6    7 1     
   12    6   10 1     
   13    7    8 2     
   14    7    9 1     
   15   10   11 2     
   16   10   25 1     
   17   11   12 1     
   18   11   26 1     
   19   12   13 2     
   20   14   15 1     
   21   14   27 1     
   22   15   21 1     
   23   15   16 1     
   24   15   28 1     
   25   16   17 1     
   26   16   29 1     
   27   16   30 1     
   28   17   18 1     
   29   17   31 1     
   30   17   32 1     
   31   18   19 1     
   32   18   33 1     
   33   18   34 1     
   34   19   20 1     
   35   19   35 1     
   36   19   36 1     
   37   20   21 1     
   38   20   37 1     
   39   20   38 1     
   40   21   39 1     
   41   21   40 1     
   42    1   41 1     
   43    1   42 1     
   44    8   43 1     
   45    8   44 1     
   46   13   45 1     
   47   13   46 1     
@<TRIPOS>SUBSTRUCTURE
      1 S1             1
@<TRIPOS>SET
LONE_PAIRS      STATIC     ATOMS    <user>   **** ""
7 41 42 43 44 9 45 46
DONOR_HYDROGENS      STATIC     ATOMS    <user>   **** ""
1 27
ATOM$BLUE        STATIC     ATOMS    COLORGROUP SYSTEM
7 41 42 43 44 9 45 46
ATOM$RED        STATIC     ATOMS    COLORGROUP SYSTEM
1 27
