#       Name:                AV-unprocessed.smi:1381
#       Creating user name   scv26
#       Creation time:       Fri Mar 27 05:22:49 2020


#       File generated by GOLD software.
#

@<TRIPOS>MOLECULE
AV-unprocessed.smi:1381
    50    51     1
SMALL
NO_CHARGES


@<TRIPOS>ATOM
      1 ****        -5.7987   6.1100   1.2629 C.3            1 S1                 0.0000
      2 ****        -4.9474   4.9265   0.9538 C.2            1 S1                 0.0000
      3 ****        -3.8985   4.7342   0.0995 C.2            1 S1                 0.0000
      4 ****        -3.5620   3.3698   0.3056 C.2            1 S1                 0.0000
      5 ****        -2.4969   2.7696  -0.4169 N.am           1 S1                 0.0000
      6 ****        -2.0382   1.5065  -0.3480 C.2            1 S1                 0.0000
      7 ****        -2.5504   0.6971   0.4345 O.2            1 S1                 0.0000
      8 ****        -1.0008   1.2870  -1.2028 N.pl3          1 S1                -1.0000
      9 ****        -0.3079   0.0094  -1.3638 C.3            1 S1                 0.0000
     10 ****         0.7912  -0.1403  -0.2956 C.3            1 S1                 0.0000
     11 ****         1.5127  -1.4291  -0.4529 N.4            1 S1                 1.0000
     12 ****         2.9649  -1.2702  -0.7055 C.3            1 S1                 0.0000
     13 ****         3.6159  -2.6429  -0.9571 C.3            1 S1                 0.0000
     14 ****         5.1326  -2.5374  -1.1497 C.3            1 S1                 0.0000
     15 ****         3.3664  -3.4878   0.1617 O.3            1 S1                 0.0000
     16 ****         1.9779  -3.7226   0.3743 C.3            1 S1                 0.0000
     17 ****         1.8325  -4.7095   1.5377 C.3            1 S1                 0.0000
     18 ****         1.2789  -2.3806   0.6604 C.3            1 S1                 0.0000
     19 ****        -4.3366   2.7832   1.2063 N.2            1 S1                 0.0000
     20 ****        -5.2286   3.7773   1.6254 O.3            1 S1                 0.0000
     21 ****        -5.2663   7.0372   1.0510 H              1 S1                 0.0000
     22 ****        -6.0865   6.1196   2.3144 H              1 S1                 0.0000
     23 ****        -6.7082   6.0968   0.6624 H              1 S1                 0.0000
     24 ****        -3.4466   5.4546  -0.5659 H              1 S1                 0.0000
     25 ****        -2.0235   3.3716  -1.0739 H              1 S1                 0.0000
     26 ****        -0.9881  -0.8413  -1.3006 H              1 S1                 0.0000
     27 ****         0.1523  -0.0630  -2.3496 H              1 S1                 0.0000
     28 ****         1.4879   0.6963  -0.3720 H              1 S1                 0.0000
     29 ****         0.3552  -0.0723   0.7027 H              1 S1                 0.0000
     30 ****         3.1161  -0.6244  -1.5716 H              1 S1                 0.0000
     31 ****         3.4323  -0.7784   0.1493 H              1 S1                 0.0000
     32 ****         3.1844  -3.0959  -1.8515 H              1 S1                 0.0000
     33 ****         5.3768  -1.9100  -2.0074 H              1 S1                 0.0000
     34 ****         5.5722  -3.5200  -1.3221 H              1 S1                 0.0000
     35 ****         5.6140  -2.1063  -0.2715 H              1 S1                 0.0000
     36 ****         1.5496  -4.1769  -0.5210 H              1 S1                 0.0000
     37 ****         0.7835  -4.9330   1.7338 H              1 S1                 0.0000
     38 ****         2.2663  -4.3072   2.4537 H              1 S1                 0.0000
     39 ****         2.3365  -5.6506   1.3160 H              1 S1                 0.0000
     40 ****         1.6522  -1.9502   1.5912 H              1 S1                 0.0000
     41 ****         0.2067  -2.5394   0.7860 H              1 S1                 0.0000
     42 ****         1.1258  -1.8567  -1.2823 H              1 S1                 0.0000
     43 ****        -3.3097   0.9800   1.0204 LP             1 S1                 0.0000
     44 ****        -2.2052  -0.2403   0.4812 LP             1 S1                 0.0000
     45 ****        -0.6901   2.0561  -1.7614 LP             1 S1                 0.0000
     46 ****         3.7468  -3.0562   0.9796 LP             1 S1                 0.0000
     47 ****         3.8193  -4.3658   0.0068 LP             1 S1                 0.0000
     48 ****        -4.2933   1.8344   1.5193 LP             1 S1                 0.0000
     49 ****        -6.1667   3.4928   1.4276 LP             1 S1                 0.0000
     50 ****        -5.1264   3.9284   2.6086 LP             1 S1                 0.0000
@<TRIPOS>BOND
    1    1    2 1     
    2    1   21 1     
    3    1   22 1     
    4    1   23 1     
    5    2   20 1     
    6    2    3 2     
    7    3    4 1     
    8    3   24 1     
    9    4    5 1     
   10    4   19 2     
   11    5    6 am    
   12    5   25 1     
   13    6    7 2     
   14    6    8 1     
   15    8    9 1     
   16    9   10 1     
   17    9   26 1     
   18    9   27 1     
   19   10   11 1     
   20   10   28 1     
   21   10   29 1     
   22   11   18 1     
   23   11   12 1     
   24   11   42 1     
   25   12   13 1     
   26   12   30 1     
   27   12   31 1     
   28   13   14 1     
   29   13   15 1     
   30   13   32 1     
   31   14   33 1     
   32   14   34 1     
   33   14   35 1     
   34   15   16 1     
   35   16   17 1     
   36   16   18 1     
   37   16   36 1     
   38   17   37 1     
   39   17   38 1     
   40   17   39 1     
   41   18   40 1     
   42   18   41 1     
   43   19   20 1     
   44    7   43 1     
   45    7   44 1     
   46    8   45 1     
   47   15   46 1     
   48   15   47 1     
   49   19   48 1     
   50   20   49 1     
   51   20   50 1     
@<TRIPOS>SUBSTRUCTURE
      1 S1             1
@<TRIPOS>SET
LONE_PAIRS      STATIC     ATOMS    <user>   **** ""
8 43 44 45 46 47 48 49 50
DONOR_HYDROGENS      STATIC     ATOMS    <user>   **** ""
2 25 42
ATOM$BLUE        STATIC     ATOMS    COLORGROUP SYSTEM
8 43 44 45 46 47 48 49 50
ATOM$RED        STATIC     ATOMS    COLORGROUP SYSTEM
2 25 42
