AV-unprocessed.smi:2482|AV-procd|sdf|9776|dock1
  -GOLD-   2272013413D 1   1.00000     0.00000
 Structure written by MMmdl.
 35 36  0  0  0  0  0  0  0  0  2 V2000
  152.5732  143.7209  161.3081 C   0  0  0  0  0  0  0  0  0  0  0  0
  151.8757  143.1988  160.0631 C   0  0  0  0  0  0  0  0  0  0  0  0
  150.7371  143.8540  159.7471 N   0  0  0  0  0  0  0  0  0  0  0  0
  150.0493  143.4553  158.6580 C   0  0  0  0  0  0  0  0  0  0  0  0
  150.4621  142.3961  157.8288 C   0  0  0  0  0  0  0  0  0  0  0  0
  151.6608  141.7164  158.1464 C   0  0  0  0  0  0  0  0  0  0  0  0
  152.1434  140.6181  157.3855 N   0  0  0  0  0  0  0  0  0  0  0  0
  151.7897  140.2547  156.1393 C   0  0  0  0  0  0  0  0  0  0  0  0
  150.9454  140.8408  155.4613 O   0  0  0  0  0  0  0  0  0  0  0  0
  152.5320  139.0305  155.5664 C   0  0  1  0  0  0  0  0  0  0  0  0
  152.4049  137.7442  156.4172 C   0  0  0  0  0  0  0  0  0  0  0  0
  151.0329  137.1883  156.3440 N   0  3  2  0  0  0  0  0  0  0  0  0
  150.8541  135.9958  157.1993 C   0  0  0  0  0  0  0  0  0  0  0  0
  150.6395  136.9486  154.9373 C   0  0  0  0  0  0  0  0  0  0  0  0
  150.7762  138.2408  154.1157 C   0  0  0  0  0  0  0  0  0  0  0  0
  152.1063  138.7489  154.2281 O   0  0  0  0  0  0  0  0  0  0  0  0
  152.3785  142.1157  159.2982 C   0  0  0  0  0  0  0  0  0  0  0  0
  153.8414  141.2963  159.7363 Cl  0  0  0  0  0  0  0  0  0  0  0  0
  153.5017  143.1998  161.5335 H   0  0  0  0  0  0  0  0  0  0  0  0
  151.9177  143.6197  162.1735 H   0  0  0  0  0  0  0  0  0  0  0  0
  152.8104  144.7781  161.1863 H   0  0  0  0  0  0  0  0  0  0  0  0
  149.1375  143.9934  158.4443 H   0  0  0  0  0  0  0  0  0  0  0  0
  149.8536  142.1160  156.9821 H   0  0  0  0  0  0  0  0  0  0  0  0
  152.9209  140.1174  157.7916 H   0  0  0  0  0  0  0  0  0  0  0  0
  153.5860  139.3057  155.5185 H   0  0  0  0  0  0  0  0  0  0  0  0
  153.1143  136.9974  156.0571 H   0  0  0  0  0  0  0  0  0  0  0  0
  152.6705  137.9427  157.4567 H   0  0  0  0  0  0  0  0  0  0  0  0
  151.5030  135.1805  156.8768 H   0  0  0  0  0  0  0  0  0  0  0  0
  149.8213  135.6472  157.1624 H   0  0  0  0  0  0  0  0  0  0  0  0
  151.0888  136.2304  158.2380 H   0  0  0  0  0  0  0  0  0  0  0  0
  151.2681  136.1660  154.5095 H   0  0  0  0  0  0  0  0  0  0  0  0
  149.6097  136.5921  154.8962 H   0  0  0  0  0  0  0  0  0  0  0  0
  150.5698  138.0377  153.0647 H   0  0  0  0  0  0  0  0  0  0  0  0
  150.0438  138.9830  154.4356 H   0  0  0  0  0  0  0  0  0  0  0  0
  150.4118  137.8988  156.7054 H   0  0  0  0  0  0  0  0  0  0  0  0
  1  2  1  0  0  0  0
  1 19  1  0  0  0  0
  1 20  1  0  0  0  0
  1 21  1  0  0  0  0
  2 17  1  0  0  0  0
  2  3  2  0  0  0  0
  3  4  1  0  0  0  0
  4  5  2  0  0  0  0
  4 22  1  0  0  0  0
  5  6  1  0  0  0  0
  5 23  1  0  0  0  0
  6  7  1  0  0  0  0
  6 17  2  0  0  0  0
  7  8  1  0  0  0  0
  7 24  1  0  0  0  0
  8  9  2  0  0  0  0
  8 10  1  0  0  0  0
 10 16  1  0  0  0  0
 10 11  1  0  0  0  0
 10 25  1  0  0  0  0
 11 12  1  0  0  0  0
 11 26  1  0  0  0  0
 11 27  1  0  0  0  0
 12 13  1  0  0  0  0
 12 14  1  0  0  0  0
 12 35  1  0  0  0  0
 13 28  1  0  0  0  0
 13 29  1  0  0  0  0
 13 30  1  0  0  0  0
 14 15  1  0  0  0  0
 14 31  1  0  0  0  0
 14 32  1  0  0  0  0
 15 16  1  0  0  0  0
 15 33  1  0  0  0  0
 15 34  1  0  0  0  0
 17 18  1  0  0  0  0
M  CHG  1  12   1
M  END
> <s_m_source_file>
AV-unprocessed.smi

> <i_m_source_file_index>
2482

> <i_lp_mmshare_version>
43012

> <i_f3d_flags>
0

> <s_epik_input>
W0NIM11jMW5bY0hdW2NIXWMoYzFDbClbTkhdQyg9TylbQ0BASF0yW0NIMl1OKFtDSDNdKVtDSDJdW0NIMl1PMg==

> <s_epik_cmdline>
J2VwaWtfcHl0aG9uJywgJy1waCcsICc3LjAnLCAnLXRuJywgJzgnLCAnLW1hJywgJzIwMCcsICctbWV0YWxfYmluZGluZycsICctaW1hZScsICc8aW5maWxlLm1hZT4nLCAnLW9tYWUnLCAnPG91dGZpbGUubWFlPic=

> <r_epik_Ionization_Penalty>
0.314226

> <r_epik_Ionization_Penalty_Charging>
0.314023

> <r_epik_Ionization_Penalty_Neutral>
0.00020299

> <r_epik_State_Penalty>
0.308208

> <r_epik_Charging_Adjusted_Penalty>
0.62223

> <i_epik_Tot_Q>
1

> <i_epik_Tot_abs_Q>
1

> <r_epik_Metal_State_Penalty>
0.314444

> <b_epik_Metal_Only>
0

> <s_lp_Force_Field>
OPLS_2005

> <r_lp_Energy>
21.5381

> <b_lp_Chiralities_Consistent>
1

> <s_lp_Variant>
AV-unprocessed.smi:2482-2

> <Gold.Version>
5.8.1

> <Gold.Id.Protein>
6NUR|6NUR_protein|mol2

> <Gold.PLP.Fitness>
35.6883

> <Gold.PLP.PLP>
-30.4387

> <Gold.PLP.part.hbond>
-1.7850

> <Gold.PLP.part.metal>
0.0000

> <Gold.PLP.part.buried>
-1.9720

> <Gold.PLP.part.nonpolar>
-26.1655

> <Gold.PLP.part.repulsive>
0.4392

> <Gold.PLP.ligand.clash>
0.0000

> <Gold.PLP.ligand.torsion>
0.0702

> <Gold.PLP.Chemscore.Hbond>
0.7332

> <Gold.PLP.Chemscore.CHOScore>
1.0571

> <Gold.PLP.Chemscore.Metal>
0.0000

> <Gold.Chemscore.Hbonds>
donor molecule, donor type, donor heavy atom, donor atom, acceptor molecule, acceptor atom, score
      P1  H  7989  7998       L1     9  0.69
      L1  C     4    22       P1  8028  0.05
      L1  C     4    22       P1  8029  0.85

> <Gold.PLP.Chemscore.Internal.Correction>
0.0191

> <Gold.Rescore>
     Score         DG    S(hbond)    S(metal)    S(lipo)     H(rot)  DE(clash)    DE(int)     intcor
     13.67     -16.53       0.76        0.00      94.80       1.00       0.29       2.58       ----

> <Gold.Chemscore.Fitness>
13.6721

> <Gold.Chemscore.DG>
-16.5345

> <Gold.Chemscore.ZeroCoef>
-5.4800

> <Gold.Chemscore.Hbond>
0.7555

> <Gold.Chemscore.Metal>
0.0000

> <Gold.Chemscore.Lipo>
94.7954

> <Gold.Chemscore.Internal_Hbond>
0.0000

> <Gold.Chemscore.DEClash>
0.2862

> <Gold.Chemscore.DEInternal>
2.5762

> <Gold.Chemscore.Rot>
1.0000

> <Gold.Chemscore.Internal.Correction>
   9.000000E+99

> <Gold.Chemscore.Hbonds>
donor molecule, donor type, donor heavy atom, donor atom, acceptor molecule, acceptor atom, score
      P1  H  7989  7998       L1     9  0.44

> <Gold.Chemscore.Hbond.Weighted>
-2.5234

> <Gold.Chemscore.Metal.Weighted>
-0.0000

> <Gold.Chemscore.Lipo.Weighted>
-11.0911

> <Gold.Chemscore.Internal_Hbond.Weighted>
0.0000

> <Gold.Chemscore.DEClash.Weighted>
0.2862

> <Gold.Chemscore.DEInternal.Weighted>
2.5762

> <Gold.Chemscore.Rot.Weighted>
2.5600

> <Gold.Chemscore.Internal.Correction.Weighted>
   9.000000E+99

> <Gold.Protein.RotatedTorsions>
[ 6907 6896 6895 6894 ] final  -68.31 input  -60.11 | X-H torsion
[ 7974 7965 7964 7962 ] final    5.11 input  175.53 | X-H torsion
[ 8008 7997 7996 7995 ] final -132.36 input   59.86 | X-H torsion
[ 10167 10162 10161 10158 ] final   95.14 input  -65.29 | X-H torsion
[ 10718 10713 10712 10709 ] final -115.92 input   66.30 | X-H torsion
[ 10763 10752 10751 10750 ] final  -44.72 input  -60.55 | X-H torsion
[ 11005 11000 10999 10996 ] final   34.36 input  -57.11 | X-H torsion

> <Gold.Protein.ActiveResidues>
 VAL166  LYS551  ARG553  GLY616  TRP617  ASP618  TYR619  PRO620  LYS621  CYS622 
 ASP623  PHE694  ASN695  SER759  ASP760  ASP761  ALA762  ILE779  LEU786  VAL792 
 PHE793  MET794  SER795  GLU796  ALA797  LYS798  CYS799  TRP800  GLU811  SER814 

> <Gold.Protein.RotatedAtoms>
  150.7363  134.5757  159.5912 H   0  0  0  0  0  0  0  0  0  0  0  0  # atno 6907 bound_to 6896
  152.3184  134.7407  160.0328 H   0  0  0  0  0  0  0  0  0  0  0  0  # atno 6908 bound_to 6896
  151.7931  133.3326  159.3541 H   0  0  0  0  0  0  0  0  0  0  0  0  # atno 6909 bound_to 6896
  146.2442  140.0433  142.8380 H   0  0  0  0  0  0  0  0  0  0  0  0  # atno 7974 bound_to 7965
  155.3276  140.0465  157.3041 H   0  0  0  0  0  0  0  0  0  0  0  0  # atno 8008 bound_to 7997
  154.5346  140.2268  155.8711 H   0  0  0  0  0  0  0  0  0  0  0  0  # atno 8009 bound_to 7997
  156.1822  140.3071  155.9176 H   0  0  0  0  0  0  0  0  0  0  0  0  # atno 8010 bound_to 7997
  139.8017  144.6811  150.9756 H   0  0  0  0  0  0  0  0  0  0  0  0  # atno 10167 bound_to 10162
  156.0928  130.6107  150.8968 H   0  0  0  0  0  0  0  0  0  0  0  0  # atno 10718 bound_to 10713
  154.0167  135.6674  153.4769 H   0  0  0  0  0  0  0  0  0  0  0  0  # atno 10763 bound_to 10752
  153.0597  135.5035  154.8061 H   0  0  0  0  0  0  0  0  0  0  0  0  # atno 10764 bound_to 10752
  154.6962  135.3070  154.9372 H   0  0  0  0  0  0  0  0  0  0  0  0  # atno 10765 bound_to 10752
  140.2537  134.3273  155.7881 H   0  0  0  0  0  0  0  0  0  0  0  0  # atno 11005 bound_to 11000
  145.1049  140.9369  143.4690 LP  0  0  0  0  0  0  0  0  0  0  0  0  # atno 17320 bound_to 7965
  145.0634  139.3087  143.5868 LP  0  0  0  0  0  0  0  0  0  0  0  0  # atno 17321 bound_to 7965
  140.7820  143.4275  151.0746 LP  0  0  0  0  0  0  0  0  0  0  0  0  # atno 17342 bound_to 10162
  139.7946  143.8169  152.3156 LP  0  0  0  0  0  0  0  0  0  0  0  0  # atno 17343 bound_to 10162
  157.6081  131.0938  150.8843 LP  0  0  0  0  0  0  0  0  0  0  0  0  # atno 17370 bound_to 10713
  156.8987  130.5239  149.5283 LP  0  0  0  0  0  0  0  0  0  0  0  0  # atno 17371 bound_to 10713
  141.2198  133.7368  156.9077 LP  0  0  0  0  0  0  0  0  0  0  0  0  # atno 17394 bound_to 11000
  140.1533  134.9215  157.2620 LP  0  0  0  0  0  0  0  0  0  0  0  0  # atno 17395 bound_to 11000

$$$$
