AV-unprocessed.smi:2973|AV-procd|sdf|11349|dock9
  -GOLD-   2272016263D 1   1.00000     0.00000
 Structure written by MMmdl.
 49 51  0  0  0  0  0  0  0  0  3 V2000
  151.1821  141.1717  157.3254 C   0  0  0  0  0  0  0  0  0  0  0  0
  150.2778  141.1466  156.0726 C   0  0  2  0  0  0  0  0  0  0  0  0
  148.8273  141.5062  156.4653 C   0  0  0  0  0  0  0  0  0  0  0  0
  147.8999  141.5699  155.2430 C   0  0  0  0  0  0  0  0  0  0  0  0
  147.9225  140.2520  154.4591 C   0  0  0  0  0  0  0  0  0  0  0  0
  149.3573  139.8803  154.0462 C   0  0  0  0  0  0  0  0  0  0  0  0
  150.3493  139.8226  155.2391 C   0  0  1  0  0  0  0  0  0  0  0  0
  151.6905  139.6297  154.7143 N   0  5  0  0  0  0  0  0  0  0  0  0
  152.1834  138.4571  155.1751 C   0  0  0  0  0  0  0  0  0  0  0  0
  153.2964  137.9852  154.9442 O   0  0  0  0  0  0  0  0  0  0  0  0
  151.2866  137.8309  155.9595 N   0  0  0  0  0  0  0  0  0  0  0  0
  151.5217  136.5554  156.6486 C   0  0  0  0  0  0  0  0  0  0  0  0
  150.3116  135.6132  156.5875 C   0  0  0  0  0  0  0  0  0  0  0  0
  149.8591  135.0944  157.6094 O   0  0  0  0  0  0  0  0  0  0  0  0
  149.7838  135.4123  155.3708 N   0  0  0  0  0  0  0  0  0  0  0  0
  148.6426  134.5506  155.0881 C   0  0  0  0  0  0  0  0  0  0  0  0
  149.0296  133.3828  154.1644 C   0  0  0  0  0  0  0  0  0  0  0  0
  147.8896  132.9696  153.2551 C   0  0  0  0  0  0  0  0  0  0  0  0
  147.2986  131.6895  153.3285 C   0  0  0  0  0  0  0  0  0  0  0  0
  146.2340  131.3713  152.4597 C   0  0  0  0  0  0  0  0  0  0  0  0
  145.7830  132.3382  151.5375 C   0  0  0  0  0  0  0  0  0  0  0  0
  146.4086  133.6014  151.5079 C   0  0  0  0  0  0  0  0  0  0  0  0
  147.4251  133.8686  152.3570 N   0  3  0  0  0  0  0  0  0  0  0  0
  150.1658  138.5529  156.0683 C   0  0  0  0  0  0  0  0  0  0  0  0
  149.1615  138.2713  156.7235 O   0  0  0  0  0  0  0  0  0  0  0  0
  150.8746  140.4314  158.0643 H   0  0  0  0  0  0  0  0  0  0  0  0
  151.1452  142.1476  157.8097 H   0  0  0  0  0  0  0  0  0  0  0  0
  152.2250  140.9782  157.0743 H   0  0  0  0  0  0  0  0  0  0  0  0
  150.6330  141.9496  155.4242 H   0  0  0  0  0  0  0  0  0  0  0  0
  148.4383  140.7832  157.1825 H   0  0  0  0  0  0  0  0  0  0  0  0
  148.8124  142.4709  156.9735 H   0  0  0  0  0  0  0  0  0  0  0  0
  146.8817  141.7958  155.5604 H   0  0  0  0  0  0  0  0  0  0  0  0
  148.2101  142.3878  154.5915 H   0  0  0  0  0  0  0  0  0  0  0  0
  147.4825  139.4568  155.0605 H   0  0  0  0  0  0  0  0  0  0  0  0
  147.2966  140.3409  153.5709 H   0  0  0  0  0  0  0  0  0  0  0  0
  149.3406  138.9256  153.5175 H   0  0  0  0  0  0  0  0  0  0  0  0
  149.7084  140.6141  153.3187 H   0  0  0  0  0  0  0  0  0  0  0  0
  152.3806  136.0416  156.2142 H   0  0  0  0  0  0  0  0  0  0  0  0
  151.7873  136.7455  157.6902 H   0  0  0  0  0  0  0  0  0  0  0  0
  150.2106  135.8839  154.5866 H   0  0  0  0  0  0  0  0  0  0  0  0
  148.2199  134.1761  156.0221 H   0  0  0  0  0  0  0  0  0  0  0  0
  147.8692  135.1591  154.6186 H   0  0  0  0  0  0  0  0  0  0  0  0
  149.8902  133.6578  153.5528 H   0  0  0  0  0  0  0  0  0  0  0  0
  149.3377  132.5185  154.7544 H   0  0  0  0  0  0  0  0  0  0  0  0
  147.6540  130.9608  154.0429 H   0  0  0  0  0  0  0  0  0  0  0  0
  145.7687  130.3971  152.5007 H   0  0  0  0  0  0  0  0  0  0  0  0
  144.9687  132.1146  150.8636 H   0  0  0  0  0  0  0  0  0  0  0  0
  146.1282  134.3999  150.8367 H   0  0  0  0  0  0  0  0  0  0  0  0
  147.8624  134.7897  152.3180 H   0  0  0  0  0  0  0  0  0  0  0  0
  1  2  1  0  0  0  0
  1 26  1  0  0  0  0
  1 27  1  0  0  0  0
  1 28  1  0  0  0  0
  2  7  1  0  0  0  0
  2  3  1  0  0  0  0
  2 29  1  0  0  0  0
  3  4  1  0  0  0  0
  3 30  1  0  0  0  0
  3 31  1  0  0  0  0
  4  5  1  0  0  0  0
  4 32  1  0  0  0  0
  4 33  1  0  0  0  0
  5  6  1  0  0  0  0
  5 34  1  0  0  0  0
  5 35  1  0  0  0  0
  6  7  1  0  0  0  0
  6 36  1  0  0  0  0
  6 37  1  0  0  0  0
  7 24  1  0  0  0  0
  7  8  1  0  0  0  0
  8  9  1  0  0  0  0
  9 10  2  0  0  0  0
  9 11  1  0  0  0  0
 11 12  1  0  0  0  0
 11 24  1  0  0  0  0
 12 13  1  0  0  0  0
 12 38  1  0  0  0  0
 12 39  1  0  0  0  0
 13 14  2  0  0  0  0
 13 15  1  0  0  0  0
 15 16  1  0  0  0  0
 15 40  1  0  0  0  0
 16 17  1  0  0  0  0
 16 41  1  0  0  0  0
 16 42  1  0  0  0  0
 17 18  1  0  0  0  0
 17 43  1  0  0  0  0
 17 44  1  0  0  0  0
 18 23  1  0  0  0  0
 18 19  2  0  0  0  0
 19 20  1  0  0  0  0
 19 45  1  0  0  0  0
 20 21  2  0  0  0  0
 20 46  1  0  0  0  0
 21 22  1  0  0  0  0
 21 47  1  0  0  0  0
 22 23  2  0  0  0  0
 22 48  1  0  0  0  0
 23 49  1  0  0  0  0
 24 25  2  0  0  0  0
M  CHG  1   8  -1
M  CHG  1  23   1
M  END
> <s_m_source_file>
AV-unprocessed.smi

> <i_m_source_file_index>
2973

> <i_lp_mmshare_version>
43012

> <i_f3d_flags>
0

> <s_epik_input>
W0NIMl0xW0NIMl1bQ0gyXVtDSDJdW0NAQEhdKFtDSDNdKVtDQF0xMltOSF1DKD1PKU4oQzI9TylbQ0gyXUMoPU8pW05IXVtDSDJdW0NIMl1jM1tjSF1bY0hdW2NIXVtjSF1uMw==

> <s_epik_cmdline>
J2VwaWtfcHl0aG9uJywgJy1waCcsICc3LjAnLCAnLXRuJywgJzgnLCAnLW1hJywgJzIwMCcsICctbWV0YWxfYmluZGluZycsICctaW1hZScsICc8aW5maWxlLm1hZT4nLCAnLW9tYWUnLCAnPG91dGZpbGUubWFlPic=

> <r_lp_tautomer_probability>
1

> <r_epik_Ionization_Penalty>
7.89073

> <r_epik_Ionization_Penalty_Charging>
7.89073

> <r_epik_Ionization_Penalty_Neutral>
1.56557e-07

> <r_epik_State_Penalty>
8.01193

> <r_epik_Charging_Adjusted_Penalty>
15.9027

> <i_epik_Tot_Q>
0

> <i_epik_Tot_abs_Q>
2

> <r_epik_Metal_State_Penalty>
3.98737

> <b_epik_Metal_Only>
1

> <s_lp_Force_Field>
OPLS_2005

> <r_lp_Energy>
17.4929

> <b_lp_Chiralities_Consistent>
1

> <s_lp_Variant>
AV-unprocessed.smi:2973-13

> <Gold.Version>
5.8.1

> <Gold.Id.Protein>
6NUR|6NUR_protein|mol2

> <Gold.PLP.Fitness>
48.8720

> <Gold.PLP.PLP>
-38.7271

> <Gold.PLP.part.hbond>
-4.0000

> <Gold.PLP.part.metal>
0.0000

> <Gold.PLP.part.buried>
-3.8115

> <Gold.PLP.part.nonpolar>
-32.1834

> <Gold.PLP.part.repulsive>
0.1616

> <Gold.PLP.ligand.clash>
0.0000

> <Gold.PLP.ligand.torsion>
0.5341

> <Gold.PLP.Chemscore.Hbond>
3.7271

> <Gold.PLP.Chemscore.CHOScore>
0.0000

> <Gold.PLP.Chemscore.Metal>
0.0000

> <Gold.Chemscore.Hbonds>
donor molecule, donor type, donor heavy atom, donor atom, acceptor molecule, acceptor atom, score
      L1  H    23    49       P1  7948  2.00
      P1  H  6896  6907       L1    14  0.69
      P1  H  7989  7998       L1     8  0.90
      P1  H 10752 10764       L1    10  0.01

> <Gold.PLP.Chemscore.Internal.Correction>
0.0317

> <Gold.Rescore>
     Score         DG    S(hbond)    S(metal)    S(lipo)     H(rot)  DE(clash)    DE(int)     intcor
     16.06     -18.02       2.59        0.00      75.13       1.92       0.04       1.93       ----

> <Gold.Chemscore.Fitness>
16.0572

> <Gold.Chemscore.DG>
-18.0181

> <Gold.Chemscore.ZeroCoef>
-5.4800

> <Gold.Chemscore.Hbond>
2.5918

> <Gold.Chemscore.Metal>
0.0000

> <Gold.Chemscore.Lipo>
75.1310

> <Gold.Chemscore.Internal_Hbond>
0.0000

> <Gold.Chemscore.DEClash>
0.0354

> <Gold.Chemscore.DEInternal>
1.9255

> <Gold.Chemscore.Rot>
1.9175

> <Gold.Chemscore.Internal.Correction>
   9.000000E+99

> <Gold.Chemscore.Hbonds>
donor molecule, donor type, donor heavy atom, donor atom, acceptor molecule, acceptor atom, score
      L1  H    23    49       P1  7948  0.70
      P1  H  6896  6907       L1    14  0.66
      P1  H  7989  7998       L1     8  0.18
      P1  H 10752 10764       L1    10  0.01

> <Gold.Chemscore.Hbond.Weighted>
-8.6566

> <Gold.Chemscore.Metal.Weighted>
-0.0000

> <Gold.Chemscore.Lipo.Weighted>
-8.7903

> <Gold.Chemscore.Internal_Hbond.Weighted>
0.0000

> <Gold.Chemscore.DEClash.Weighted>
0.0354

> <Gold.Chemscore.DEInternal.Weighted>
1.9255

> <Gold.Chemscore.Rot.Weighted>
4.9087

> <Gold.Chemscore.Internal.Correction.Weighted>
   9.000000E+99

> <Gold.Protein.RotatedTorsions>
[ 6907 6896 6895 6894 ] final  -91.08 input  -60.11 | X-H torsion
[ 7974 7965 7964 7962 ] final -132.90 input  175.53 | X-H torsion
[ 8008 7997 7996 7995 ] final  164.09 input   59.86 | X-H torsion
[ 10167 10162 10161 10158 ] final -163.05 input  -65.29 | X-H torsion
[ 10718 10713 10712 10709 ] final  -30.64 input   66.30 | X-H torsion
[ 10763 10752 10751 10750 ] final  -63.56 input  -60.55 | X-H torsion
[ 11005 11000 10999 10996 ] final  -78.52 input  -57.11 | X-H torsion

> <Gold.Protein.ActiveResidues>
 VAL166  LYS551  ARG553  GLY616  TRP617  ASP618  TYR619  PRO620  LYS621  CYS622 
 ASP623  PHE694  ASN695  SER759  ASP760  ASP761  ALA762  ILE779  LEU786  VAL792 
 PHE793  MET794  SER795  GLU796  ALA797  LYS798  CYS799  TRP800  GLU811  SER814 

> <Gold.Protein.RotatedAtoms>
  150.6888  134.2333  159.4442 H   0  0  0  0  0  0  0  0  0  0  0  0  # atno 6907 bound_to 6896
  152.0282  134.9781  160.0581 H   0  0  0  0  0  0  0  0  0  0  0  0  # atno 6908 bound_to 6896
  152.1330  133.4384  159.4767 H   0  0  0  0  0  0  0  0  0  0  0  0  # atno 6909 bound_to 6896
  144.9242  140.7051  143.4946 H   0  0  0  0  0  0  0  0  0  0  0  0  # atno 7974 bound_to 7965
  156.1907  140.1706  156.8097 H   0  0  0  0  0  0  0  0  0  0  0  0  # atno 8008 bound_to 7997
  154.5468  140.0725  156.8634 H   0  0  0  0  0  0  0  0  0  0  0  0  # atno 8009 bound_to 7997
  155.3107  140.3367  155.4246 H   0  0  0  0  0  0  0  0  0  0  0  0  # atno 8010 bound_to 7997
  139.6349  144.0370  152.2046 H   0  0  0  0  0  0  0  0  0  0  0  0  # atno 10167 bound_to 10162
  156.3973  130.4383  149.7349 H   0  0  0  0  0  0  0  0  0  0  0  0  # atno 10718 bound_to 10713
  154.3169  135.6204  153.5490 H   0  0  0  0  0  0  0  0  0  0  0  0  # atno 10763 bound_to 10752
  152.9824  135.5714  154.5114 H   0  0  0  0  0  0  0  0  0  0  0  0  # atno 10764 bound_to 10752
  154.4774  135.2862  155.1573 H   0  0  0  0  0  0  0  0  0  0  0  0  # atno 10765 bound_to 10752
  141.1665  133.7066  156.7984 H   0  0  0  0  0  0  0  0  0  0  0  0  # atno 11005 bound_to 11000
  145.3246  139.1778  143.4569 LP  0  0  0  0  0  0  0  0  0  0  0  0  # atno 17320 bound_to 7965
  146.3219  140.3268  142.8637 LP  0  0  0  0  0  0  0  0  0  0  0  0  # atno 17321 bound_to 7965
  140.0044  144.6269  150.7701 LP  0  0  0  0  0  0  0  0  0  0  0  0  # atno 17342 bound_to 10162
  140.7459  143.2883  151.3401 LP  0  0  0  0  0  0  0  0  0  0  0  0  # atno 17343 bound_to 10162
  156.4379  130.7847  151.2868 LP  0  0  0  0  0  0  0  0  0  0  0  0  # atno 17370 bound_to 10713
  157.7502  131.0134  150.3422 LP  0  0  0  0  0  0  0  0  0  0  0  0  # atno 17371 bound_to 10713
  140.2274  134.8711  157.3441 LP  0  0  0  0  0  0  0  0  0  0  0  0  # atno 17394 bound_to 11000
  140.1925  134.4354  155.7707 LP  0  0  0  0  0  0  0  0  0  0  0  0  # atno 17395 bound_to 11000

$$$$
