#       Name:                AV-unprocessed.smi:2021
#       Creating user name   scv26
#       Creation time:       Fri Mar 27 10:44:04 2020


#       File generated by GOLD software.
#

@<TRIPOS>MOLECULE
AV-unprocessed.smi:2021
    48    49     1
SMALL
NO_CHARGES


@<TRIPOS>ATOM
      1 ****        -4.1199   1.3765   0.3521 C.3            1 S1                 0.0000
      2 ****        -3.5140   1.7891  -1.0003 C.3            1 S1                 0.0000
      3 ****        -4.5566   2.5570  -1.8277 C.3            1 S1                 0.0000
      4 ****        -2.9732   0.5702  -1.7840 C.3            1 S1                 0.0000
      5 ****        -1.5205   0.3953  -1.7556 N.3            1 S1                 0.0000
      6 ****        -1.1050  -0.6520  -2.6819 C.3            1 S1                 0.0000
      7 ****         0.4184  -0.8567  -2.6728 C.3            1 S1                 0.0000
      8 ****         0.8457  -1.1527  -1.3482 O.3            1 S1                 0.0000
      9 ****         0.5157  -0.1265  -0.4147 C.3            1 S1                 0.0000
     10 ****         1.0284  -0.5396   0.9721 C.3            1 S1                 0.0000
     11 ****         2.4839  -0.6066   0.9875 N.am           1 S1                 0.0000
     12 ****         3.2282  -0.9384   2.0503 C.2            1 S1                 0.0000
     13 ****         2.6803  -1.2196   3.1188 O.2            1 S1                 0.0000
     14 ****         4.5594  -0.9251   1.8106 N.pl3          1 S1                -1.0000
     15 ****         5.4218  -1.2387   2.7916 C.2            1 S1                 0.0000
     16 ****         6.0521  -0.3036   3.5207 N.2            1 S1                 0.0000
     17 ****         6.9027  -0.8391   4.4785 N.2            1 S1                 0.0000
     18 ****         6.8985  -2.1713   4.4409 C.2            1 S1                 0.0000
     19 ****         5.8586  -2.8925   3.2307 S.3            1 S1                 0.0000
     20 ****        -1.0126   0.0789  -0.4227 C.3            1 S1                 0.0000
     21 ****        -4.9796   0.7197   0.2155 H              1 S1                 0.0000
     22 ****        -4.4569   2.2490   0.9123 H              1 S1                 0.0000
     23 ****        -3.4004   0.8482   0.9762 H              1 S1                 0.0000
     24 ****        -2.6921   2.4811  -0.8112 H              1 S1                 0.0000
     25 ****        -5.4144   1.9282  -2.0679 H              1 S1                 0.0000
     26 ****        -4.1290   2.9119  -2.7658 H              1 S1                 0.0000
     27 ****        -4.9241   3.4292  -1.2867 H              1 S1                 0.0000
     28 ****        -3.4670  -0.3423  -1.4464 H              1 S1                 0.0000
     29 ****        -3.2716   0.6834  -2.8273 H              1 S1                 0.0000
     30 ****        -1.5948  -1.5916  -2.4217 H              1 S1                 0.0000
     31 ****        -1.4275  -0.4023  -3.6933 H              1 S1                 0.0000
     32 ****         0.6946  -1.6818  -3.3294 H              1 S1                 0.0000
     33 ****         0.9321   0.0331  -3.0401 H              1 S1                 0.0000
     34 ****         1.0048   0.8023  -0.7151 H              1 S1                 0.0000
     35 ****         0.7023   0.1860   1.7189 H              1 S1                 0.0000
     36 ****         0.6113  -1.5066   1.2577 H              1 S1                 0.0000
     37 ****         2.9639  -0.3863   0.1271 H              1 S1                 0.0000
     38 ****         7.5144  -2.7327   5.1274 H              1 S1                 0.0000
     39 ****        -1.2535   0.8858   0.2685 H              1 S1                 0.0000
     40 ****        -1.5039  -0.8186  -0.0436 H              1 S1                 0.0000
     41 ****        -1.1323   1.2739  -2.0336 LP             1 S1                 0.0000
     42 ****         1.8385  -1.2723  -1.3528 LP             1 S1                 0.0000
     43 ****         0.4088  -2.0031  -1.0549 LP             1 S1                 0.0000
     44 ****         1.6830  -1.1995   3.1898 LP             1 S1                 0.0000
     45 ****         3.2333  -1.4678   3.9141 LP             1 S1                 0.0000
     46 ****         4.9015  -0.6818   0.9030 LP             1 S1                 0.0000
     47 ****         5.9220   0.6789   3.3873 LP             1 S1                 0.0000
     48 ****         7.4488  -0.2947   5.1152 LP             1 S1                 0.0000
@<TRIPOS>BOND
    1    1    2 1     
    2    1   21 1     
    3    1   22 1     
    4    1   23 1     
    5    2    3 1     
    6    2    4 1     
    7    2   24 1     
    8    3   25 1     
    9    3   26 1     
   10    3   27 1     
   11    4    5 1     
   12    4   28 1     
   13    4   29 1     
   14    5   20 1     
   15    5    6 1     
   16    6    7 1     
   17    6   30 1     
   18    6   31 1     
   19    7    8 1     
   20    7   32 1     
   21    7   33 1     
   22    8    9 1     
   23    9   10 1     
   24    9   20 1     
   25    9   34 1     
   26   10   11 1     
   27   10   35 1     
   28   10   36 1     
   29   11   12 am    
   30   11   37 1     
   31   12   13 2     
   32   12   14 1     
   33   14   15 1     
   34   15   19 1     
   35   15   16 2     
   36   16   17 1     
   37   17   18 2     
   38   18   19 1     
   39   18   38 1     
   40   20   39 1     
   41   20   40 1     
   42    5   41 1     
   43    8   42 1     
   44    8   43 1     
   45   13   44 1     
   46   13   45 1     
   47   14   46 1     
   48   16   47 1     
   49   17   48 1     
@<TRIPOS>SUBSTRUCTURE
      1 S1             1
@<TRIPOS>SET
LONE_PAIRS      STATIC     ATOMS    <user>   **** ""
8 41 42 43 44 45 46 47 48
DONOR_HYDROGENS      STATIC     ATOMS    <user>   **** ""
1 37
ATOM$BLUE        STATIC     ATOMS    COLORGROUP SYSTEM
8 41 42 43 44 45 46 47 48
ATOM$RED        STATIC     ATOMS    COLORGROUP SYSTEM
1 37
