AV-unprocessed.smi:1912|AV-procd|sdf|7750|dock4
  -GOLD-   22720 9493D 1   1.00000     0.00000
 Structure written by MMmdl.
 44 46  0  0  0  0  0  0  0  0  2 V2000
  151.9431  138.5602  154.5703 C   0  0  0  0  0  0  0  0  0  0  0  0
  151.2295  139.7669  154.3440 O   0  0  0  0  0  0  0  0  0  0  0  0
  149.8803  139.7851  154.6246 C   0  0  0  0  0  0  0  0  0  0  0  0
  149.1618  140.9417  155.0075 C   0  0  0  0  0  0  0  0  0  0  0  0
  147.7807  140.8702  155.2655 C   0  0  0  0  0  0  0  0  0  0  0  0
  147.0823  139.6426  155.1510 C   0  0  0  0  0  0  0  0  0  0  0  0
  145.7248  139.5216  155.3702 O   0  0  0  0  0  0  0  0  0  0  0  0
  144.9937  140.6794  155.7448 C   0  0  0  0  0  0  0  0  0  0  0  0
  147.8012  138.4801  154.7775 C   0  0  0  0  0  0  0  0  0  0  0  0
  147.0822  137.1413  154.6141 C   0  0  2  0  0  0  0  0  0  0  0  0
  147.9312  136.1249  154.1200 O   0  0  0  0  0  0  0  0  0  0  0  0
  145.8608  137.2370  153.6755 C   0  0  0  0  0  0  0  0  0  0  0  0
  145.1180  135.9699  153.5827 N   0  0  0  0  0  0  0  0  0  0  0  0
  144.5509  135.2163  154.5673 C   0  0  0  0  0  0  0  0  0  0  0  0
  144.5661  135.5045  156.0306 C   0  0  0  0  0  0  0  0  0  0  0  0
  143.9513  134.1504  153.9666 N   0  3  0  0  0  0  0  0  0  0  0  0
  144.1348  134.2221  152.5853 C   0  0  0  0  0  0  0  0  0  0  0  0
  143.7052  133.3786  151.5655 C   0  0  0  0  0  0  0  0  0  0  0  0
  144.0570  133.7460  150.2502 C   0  0  0  0  0  0  0  0  0  0  0  0
  144.8098  134.9090  149.9895 C   0  0  0  0  0  0  0  0  0  0  0  0
  145.2443  135.7532  151.0321 C   0  0  0  0  0  0  0  0  0  0  0  0
  144.8889  135.3861  152.3302 C   0  0  0  0  0  0  0  0  0  0  0  0
  149.1865  138.5657  154.5145 C   0  0  0  0  0  0  0  0  0  0  0  0
  152.9888  138.7052  154.2990 H   0  0  0  0  0  0  0  0  0  0  0  0
  151.5533  137.7457  153.9581 H   0  0  0  0  0  0  0  0  0  0  0  0
  151.9126  138.2697  155.6213 H   0  0  0  0  0  0  0  0  0  0  0  0
  149.6473  141.9006  155.1072 H   0  0  0  0  0  0  0  0  0  0  0  0
  147.2772  141.7815  155.5499 H   0  0  0  0  0  0  0  0  0  0  0  0
  143.9357  140.4269  155.8162 H   0  0  0  0  0  0  0  0  0  0  0  0
  145.0929  141.4713  155.0009 H   0  0  0  0  0  0  0  0  0  0  0  0
  145.3101  141.0536  156.7191 H   0  0  0  0  0  0  0  0  0  0  0  0
  146.7530  136.7888  155.5915 H   0  0  0  0  0  0  0  0  0  0  0  0
  148.1860  136.3497  153.2380 H   0  0  0  0  0  0  0  0  0  0  0  0
  145.1863  138.0398  153.9738 H   0  0  0  0  0  0  0  0  0  0  0  0
  146.1900  137.4805  152.6645 H   0  0  0  0  0  0  0  0  0  0  0  0
  144.0641  134.7099  156.5829 H   0  0  0  0  0  0  0  0  0  0  0  0
  144.0544  136.4452  156.2343 H   0  0  0  0  0  0  0  0  0  0  0  0
  145.5927  135.5800  156.3895 H   0  0  0  0  0  0  0  0  0  0  0  0
  143.1276  132.4875  151.7628 H   0  0  0  0  0  0  0  0  0  0  0  0
  143.7425  133.1238  149.4249 H   0  0  0  0  0  0  0  0  0  0  0  0
  145.0585  135.1607  148.9688 H   0  0  0  0  0  0  0  0  0  0  0  0
  145.8150  136.6442  150.8171 H   0  0  0  0  0  0  0  0  0  0  0  0
  149.7322  137.6839  154.2117 H   0  0  0  0  0  0  0  0  0  0  0  0
  143.4489  133.4291  154.4677 H   0  0  0  0  0  0  0  0  0  0  0  0
  1  2  1  0  0  0  0
  1 24  1  0  0  0  0
  1 25  1  0  0  0  0
  1 26  1  0  0  0  0
  2  3  1  0  0  0  0
  3 23  1  0  0  0  0
  3  4  2  0  0  0  0
  4  5  1  0  0  0  0
  4 27  1  0  0  0  0
  5  6  2  0  0  0  0
  5 28  1  0  0  0  0
  6  7  1  0  0  0  0
  6  9  1  0  0  0  0
  7  8  1  0  0  0  0
  8 29  1  0  0  0  0
  8 30  1  0  0  0  0
  8 31  1  0  0  0  0
  9 10  1  0  0  0  0
  9 23  2  0  0  0  0
 10 11  1  0  0  0  0
 10 12  1  0  0  0  0
 10 32  1  0  0  0  0
 11 33  1  0  0  0  0
 12 13  1  0  0  0  0
 12 34  1  0  0  0  0
 12 35  1  0  0  0  0
 13 22  1  0  0  0  0
 13 14  1  0  0  0  0
 14 15  1  0  0  0  0
 14 16  2  0  0  0  0
 15 36  1  0  0  0  0
 15 37  1  0  0  0  0
 15 38  1  0  0  0  0
 16 17  1  0  0  0  0
 16 44  1  0  0  0  0
 17 22  2  0  0  0  0
 17 18  1  0  0  0  0
 18 19  2  0  0  0  0
 18 39  1  0  0  0  0
 19 20  1  0  0  0  0
 19 40  1  0  0  0  0
 20 21  2  0  0  0  0
 20 41  1  0  0  0  0
 21 22  1  0  0  0  0
 21 42  1  0  0  0  0
 23 43  1  0  0  0  0
M  CHG  1  16   1
M  END
> <s_m_source_file>
AV-unprocessed.smi

> <i_m_source_file_index>
1912

> <i_lp_mmshare_version>
43012

> <i_f3d_flags>
0

> <s_epik_input>
W0NIM11PYzFbY0hdW2NIXWMoT1tDSDNdKWMoW2NIXTEpW0NASF0oW09IXSlbQ0gyXW4oYyhuMilbQ0gzXSljKGMyMylbY0hdW2NIXVtjSF1bY0hdMw==

> <s_epik_cmdline>
J2VwaWtfcHl0aG9uJywgJy1waCcsICc3LjAnLCAnLXRuJywgJzgnLCAnLW1hJywgJzIwMCcsICctbWV0YWxfYmluZGluZycsICctaW1hZScsICc8aW5maWxlLm1hZT4nLCAnLW9tYWUnLCAnPG91dGZpbGUubWFlPic=

> <r_lp_tautomer_probability>
1

> <r_epik_Ionization_Penalty>
0.963869

> <r_epik_Ionization_Penalty_Charging>
0.963868

> <r_epik_Ionization_Penalty_Neutral>
1.34362e-06

> <r_epik_State_Penalty>
1.00924

> <r_epik_Charging_Adjusted_Penalty>
1.9731

> <i_epik_Tot_Q>
1

> <i_epik_Tot_abs_Q>
1

> <r_epik_Metal_State_Penalty>
4.98304

> <b_epik_Metal_Only>
0

> <s_lp_Force_Field>
OPLS_2005

> <r_lp_Energy>
21.5299

> <b_lp_Chiralities_Consistent>
1

> <s_lp_Variant>
AV-unprocessed.smi:1912-3

> <Gold.Version>
5.8.1

> <Gold.Id.Protein>
6NUR|6NUR_protein|mol2

> <Gold.PLP.Fitness>
39.5758

> <Gold.PLP.PLP>
-28.4466

> <Gold.PLP.part.hbond>
-3.0000

> <Gold.PLP.part.metal>
0.0000

> <Gold.PLP.part.buried>
-2.8815

> <Gold.PLP.part.nonpolar>
-23.6345

> <Gold.PLP.part.repulsive>
0.1860

> <Gold.PLP.ligand.clash>
0.0000

> <Gold.PLP.ligand.torsion>
0.4600

> <Gold.PLP.Chemscore.Hbond>
4.0000

> <Gold.PLP.Chemscore.CHOScore>
0.0000

> <Gold.PLP.Chemscore.Metal>
0.0000

> <Gold.Chemscore.Hbonds>
donor molecule, donor type, donor heavy atom, donor atom, acceptor molecule, acceptor atom, score
      L1  H    11    33       P1  7948  1.00
      L1  H    16    44       P1 10957  2.00
      P1  H  7989  7998       L1     2  0.78

> <Gold.PLP.Chemscore.Internal.Correction>
0.0491

> <Gold.Rescore>
     Score         DG    S(hbond)    S(metal)    S(lipo)     H(rot)  DE(clash)    DE(int)     intcor
     15.02     -18.08       2.82        0.00      76.31       2.24       1.40       1.66       ----

> <Gold.Chemscore.Fitness>
15.0186

> <Gold.Chemscore.DG>
-18.0765

> <Gold.Chemscore.ZeroCoef>
-5.4800

> <Gold.Chemscore.Hbond>
2.8189

> <Gold.Chemscore.Metal>
0.0000

> <Gold.Chemscore.Lipo>
76.3078

> <Gold.Chemscore.Internal_Hbond>
0.0000

> <Gold.Chemscore.DEClash>
1.3996

> <Gold.Chemscore.DEInternal>
1.6583

> <Gold.Chemscore.Rot>
2.2448

> <Gold.Chemscore.Internal.Correction>
   9.000000E+99

> <Gold.Chemscore.Hbonds>
donor molecule, donor type, donor heavy atom, donor atom, acceptor molecule, acceptor atom, score
      L1  H    11    33       P1  7948  0.96
      L1  H    16    44       P1 10957  0.99
      P1  H  7989  7998       L1     2  0.65

> <Gold.Chemscore.Hbond.Weighted>
-9.4152

> <Gold.Chemscore.Metal.Weighted>
-0.0000

> <Gold.Chemscore.Lipo.Weighted>
-8.9280

> <Gold.Chemscore.Internal_Hbond.Weighted>
0.0000

> <Gold.Chemscore.DEClash.Weighted>
1.3996

> <Gold.Chemscore.DEInternal.Weighted>
1.6583

> <Gold.Chemscore.Rot.Weighted>
5.7467

> <Gold.Chemscore.Internal.Correction.Weighted>
   9.000000E+99

> <Gold.Protein.RotatedTorsions>
[ 6907 6896 6895 6894 ] final   95.36 input  -60.11 | X-H torsion
[ 7974 7965 7964 7962 ] final  -23.87 input  175.53 | X-H torsion
[ 8008 7997 7996 7995 ] final   67.70 input   59.86 | X-H torsion
[ 10167 10162 10161 10158 ] final  -99.13 input  -65.29 | X-H torsion
[ 10718 10713 10712 10709 ] final -156.64 input   66.30 | X-H torsion
[ 10763 10752 10751 10750 ] final  -54.97 input  -60.55 | X-H torsion
[ 11005 11000 10999 10996 ] final  127.09 input  -57.11 | X-H torsion

> <Gold.Protein.ActiveResidues>
 VAL166  LYS551  ARG553  GLY616  TRP617  ASP618  TYR619  PRO620  LYS621  CYS622 
 ASP623  PHE694  ASN695  SER759  ASP760  ASP761  ALA762  ILE779  LEU786  VAL792 
 PHE793  MET794  SER795  GLU796  ALA797  LYS798  CYS799  TRP800  GLU811  SER814 

> <Gold.Protein.RotatedAtoms>
  152.5444  134.1052  159.8334 H   0  0  0  0  0  0  0  0  0  0  0  0  # atno 6907 bound_to 6896
  151.1125  133.5155  159.2612 H   0  0  0  0  0  0  0  0  0  0  0  0  # atno 6908 bound_to 6896
  151.1868  135.0395  159.8870 H   0  0  0  0  0  0  0  0  0  0  0  0  # atno 6909 bound_to 6896
  146.1590  140.4674  142.8579 H   0  0  0  0  0  0  0  0  0  0  0  0  # atno 7974 bound_to 7965
  155.6970  140.3495  155.4917 H   0  0  0  0  0  0  0  0  0  0  0  0  # atno 8008 bound_to 7997
  155.9474  140.1113  157.1027 H   0  0  0  0  0  0  0  0  0  0  0  0  # atno 8009 bound_to 7997
  154.4115  140.1201  156.4993 H   0  0  0  0  0  0  0  0  0  0  0  0  # atno 8010 bound_to 7997
  140.2657  143.3377  152.0583 H   0  0  0  0  0  0  0  0  0  0  0  0  # atno 10167 bound_to 10162
  156.5293  130.8513  151.2710 H   0  0  0  0  0  0  0  0  0  0  0  0  # atno 10718 bound_to 10713
  154.1833  135.6439  153.5040 H   0  0  0  0  0  0  0  0  0  0  0  0  # atno 10763 bound_to 10752
  153.0053  135.5411  154.6491 H   0  0  0  0  0  0  0  0  0  0  0  0  # atno 10764 bound_to 10752
  154.5861  135.2930  155.0656 H   0  0  0  0  0  0  0  0  0  0  0  0  # atno 10765 bound_to 10752
  139.9489  134.9625  156.8803 H   0  0  0  0  0  0  0  0  0  0  0  0  # atno 11005 bound_to 11000
  144.8001  140.6197  143.6484 LP  0  0  0  0  0  0  0  0  0  0  0  0  # atno 17320 bound_to 7965
  145.4637  139.1510  143.3852 LP  0  0  0  0  0  0  0  0  0  0  0  0  # atno 17321 bound_to 7965
  139.5003  144.6689  151.6289 LP  0  0  0  0  0  0  0  0  0  0  0  0  # atno 17342 bound_to 10162
  140.5930  143.9746  150.6336 LP  0  0  0  0  0  0  0  0  0  0  0  0  # atno 17343 bound_to 10162
  157.7424  130.9890  150.2516 LP  0  0  0  0  0  0  0  0  0  0  0  0  # atno 17370 bound_to 10713
  156.3075  130.3767  149.7693 LP  0  0  0  0  0  0  0  0  0  0  0  0  # atno 17371 bound_to 10713
  140.5766  134.0392  155.7449 LP  0  0  0  0  0  0  0  0  0  0  0  0  # atno 17394 bound_to 11000
  141.1147  133.9559  157.2844 LP  0  0  0  0  0  0  0  0  0  0  0  0  # atno 17395 bound_to 11000

$$$$
