AV-unprocessed.smi:280|AV-procd|sdf|2097|dock3
  -GOLD-   2262021383D 1   1.00000     0.00000
 Structure written by MMmdl.
 59 62  0  0  0  0  0  0  0  0  2 V2000
  145.3050  142.9665  155.1166 C   0  0  0  0  0  0  0  0  0  0  0  0
  146.1847  141.6999  155.1352 C   0  0  2  0  0  0  0  0  0  0  0  0
  147.2247  141.8229  153.9933 C   0  0  0  0  0  0  0  0  0  0  0  0
  148.0157  140.6089  153.8141 N   0  0  0  0  0  0  0  0  0  0  0  0
  149.1579  140.4448  154.5338 C   0  0  0  0  0  0  0  0  0  0  0  0
  150.1012  139.5590  154.1156 N   0  0  0  0  0  0  0  0  0  0  0  0
  151.2346  139.3994  154.8046 C   0  0  0  0  0  0  0  0  0  0  0  0
  151.6234  140.0138  155.9225 N   0  0  0  0  0  0  0  0  0  0  0  0
  150.6802  140.8985  156.3551 C   0  0  0  0  0  0  0  0  0  0  0  0
  149.4286  141.1669  155.7313 C   0  0  0  0  0  0  0  0  0  0  0  0
  148.7228  142.1032  156.4771 N   0  0  0  0  0  0  0  0  0  0  0  0
  149.5158  142.3814  157.4749 C   0  0  0  0  0  0  0  0  0  0  0  0
  150.7231  141.7192  157.4696 N   0  0  0  0  0  0  0  0  0  0  0  0
  151.7921  141.8390  158.4521 C   0  0  0  0  0  0  0  0  0  0  0  0
  151.9088  143.2312  159.1200 C   0  0  0  0  0  0  0  0  0  0  0  0
  151.1658  143.1782  160.4619 C   0  0  0  0  0  0  0  0  0  0  0  0
  151.2456  144.4145  161.1417 O   0  0  0  0  0  0  0  0  0  0  0  0
  153.2944  143.9003  159.1367 C   0  0  0  0  0  0  0  0  0  0  0  0
  152.9615  144.7358  158.0081 O   0  0  0  0  0  0  0  0  0  0  0  0
  151.5670  144.4390  158.2307 C   0  0  0  0  0  0  0  0  0  0  0  0
  147.2015  139.4176  153.6168 C   0  0  0  0  0  0  0  0  0  0  0  0
  146.2397  139.2357  154.7983 C   0  0  0  0  0  0  0  0  0  0  0  0
  145.3866  140.4378  155.0132 N   0  3  1  0  0  0  0  0  0  0  0  0
  144.4089  140.2109  156.1176 C   0  0  0  0  0  0  0  0  0  0  0  0
  143.0907  139.5590  155.6330 C   0  0  0  0  0  0  0  0  0  0  0  0
  143.3959  138.2607  154.8665 C   0  0  0  0  0  0  0  0  0  0  0  0
  142.1044  139.2752  156.7804 C   0  0  0  0  0  0  0  0  0  0  0  0
  142.4582  140.4286  154.7153 O   0  0  0  0  0  0  0  0  0  0  0  0
  145.9240  143.8633  155.1545 H   0  0  0  0  0  0  0  0  0  0  0  0
  144.6231  143.0289  155.9630 H   0  0  0  0  0  0  0  0  0  0  0  0
  144.7108  143.0223  154.2042 H   0  0  0  0  0  0  0  0  0  0  0  0
  146.7135  141.6619  156.0885 H   0  0  0  0  0  0  0  0  0  0  0  0
  146.7084  142.0145  153.0516 H   0  0  0  0  0  0  0  0  0  0  0  0
  147.8755  142.6837  154.1533 H   0  0  0  0  0  0  0  0  0  0  0  0
  151.9300  138.6781  154.4016 H   0  0  0  0  0  0  0  0  0  0  0  0
  149.2381  143.0850  158.2461 H   0  0  0  0  0  0  0  0  0  0  0  0
  151.6304  141.0711  159.2097 H   0  0  0  0  0  0  0  0  0  0  0  0
  152.7239  141.5692  157.9541 H   0  0  0  0  0  0  0  0  0  0  0  0
  150.1103  142.9462  160.3153 H   0  0  0  0  0  0  0  0  0  0  0  0
  151.5693  142.3953  161.1049 H   0  0  0  0  0  0  0  0  0  0  0  0
  152.1455  144.5648  161.3882 H   0  0  0  0  0  0  0  0  0  0  0  0
  153.4855  144.4940  160.0323 H   0  0  0  0  0  0  0  0  0  0  0  0
  154.1298  143.2306  158.9401 H   0  0  0  0  0  0  0  0  0  0  0  0
  151.0300  144.1962  157.3151 H   0  0  0  0  0  0  0  0  0  0  0  0
  151.0654  145.2514  158.7593 H   0  0  0  0  0  0  0  0  0  0  0  0
  146.6371  139.5307  152.6903 H   0  0  0  0  0  0  0  0  0  0  0  0
  147.8082  138.5213  153.4966 H   0  0  0  0  0  0  0  0  0  0  0  0
  145.6142  138.3613  154.6192 H   0  0  0  0  0  0  0  0  0  0  0  0
  146.8129  139.0318  155.7044 H   0  0  0  0  0  0  0  0  0  0  0  0
  144.8605  139.5906  156.8942 H   0  0  0  0  0  0  0  0  0  0  0  0
  144.1751  141.1421  156.6308 H   0  0  0  0  0  0  0  0  0  0  0  0
  143.8810  137.5276  155.5119 H   0  0  0  0  0  0  0  0  0  0  0  0
  144.0585  138.4423  154.0193 H   0  0  0  0  0  0  0  0  0  0  0  0
  142.4856  137.8023  154.4783 H   0  0  0  0  0  0  0  0  0  0  0  0
  142.5418  138.6035  157.5195 H   0  0  0  0  0  0  0  0  0  0  0  0
  141.1932  138.8032  156.4106 H   0  0  0  0  0  0  0  0  0  0  0  0
  141.8071  140.1889  157.2958 H   0  0  0  0  0  0  0  0  0  0  0  0
  143.0598  140.6121  154.0094 H   0  0  0  0  0  0  0  0  0  0  0  0
  144.8375  140.5433  154.1722 H   0  0  0  0  0  0  0  0  0  0  0  0
  1  2  1  0  0  0  0
  1 29  1  0  0  0  0
  1 30  1  0  0  0  0
  1 31  1  0  0  0  0
  2 23  1  0  0  0  0
  2  3  1  0  0  0  0
  2 32  1  0  0  0  0
  3  4  1  0  0  0  0
  3 33  1  0  0  0  0
  3 34  1  0  0  0  0
  4  5  1  0  0  0  0
  4 21  1  0  0  0  0
  5 10  1  0  0  0  0
  5  6  2  0  0  0  0
  6  7  1  0  0  0  0
  7  8  2  0  0  0  0
  7 35  1  0  0  0  0
  8  9  1  0  0  0  0
  9 13  1  0  0  0  0
  9 10  2  0  0  0  0
 10 11  1  0  0  0  0
 11 12  2  0  0  0  0
 12 13  1  0  0  0  0
 12 36  1  0  0  0  0
 13 14  1  0  0  0  0
 14 15  1  0  0  0  0
 14 37  1  0  0  0  0
 14 38  1  0  0  0  0
 15 20  1  0  0  0  0
 15 16  1  0  0  0  0
 15 18  1  0  0  0  0
 16 17  1  0  0  0  0
 16 39  1  0  0  0  0
 16 40  1  0  0  0  0
 17 41  1  0  0  0  0
 18 19  1  0  0  0  0
 18 42  1  0  0  0  0
 18 43  1  0  0  0  0
 19 20  1  0  0  0  0
 20 44  1  0  0  0  0
 20 45  1  0  0  0  0
 21 22  1  0  0  0  0
 21 46  1  0  0  0  0
 21 47  1  0  0  0  0
 22 23  1  0  0  0  0
 22 48  1  0  0  0  0
 22 49  1  0  0  0  0
 23 24  1  0  0  0  0
 23 59  1  0  0  0  0
 24 25  1  0  0  0  0
 24 50  1  0  0  0  0
 24 51  1  0  0  0  0
 25 26  1  0  0  0  0
 25 27  1  0  0  0  0
 25 28  1  0  0  0  0
 26 52  1  0  0  0  0
 26 53  1  0  0  0  0
 26 54  1  0  0  0  0
 27 55  1  0  0  0  0
 27 56  1  0  0  0  0
 27 57  1  0  0  0  0
 28 58  1  0  0  0  0
M  CHG  1  23   1
M  END
> <s_m_source_file>
AV-unprocessed.smi

> <i_m_source_file_index>
280

> <i_lp_mmshare_version>
43012

> <i_f3d_flags>
0

> <s_epik_input>
W0NIM11DKFtDSDNdKShbT0hdKVtDSDJdTjFbQ0gyXVtDSDJdTihbQ0gyXVtDQEhdMVtDSDNdKWMobltjSF1uMiljKGMyMyluW2NIXW4zW0NIMl1DNChbQ0gyXVtPSF0pW0NIMl1PW0NIMl00

> <s_epik_cmdline>
J2VwaWtfcHl0aG9uJywgJy1waCcsICc3LjAnLCAnLXRuJywgJzgnLCAnLW1hJywgJzIwMCcsICctbWV0YWxfYmluZGluZycsICctaW1hZScsICc8aW5maWxlLm1hZT4nLCAnLW9tYWUnLCAnPG91dGZpbGUubWFlPic=

> <r_lp_tautomer_probability>
1

> <r_epik_Ionization_Penalty>
0.00179402

> <r_epik_Ionization_Penalty_Charging>
0.00173996

> <r_epik_Ionization_Penalty_Neutral>
5.40607e-05

> <r_epik_State_Penalty>
-0

> <r_epik_Charging_Adjusted_Penalty>
0.00173996

> <i_epik_Tot_Q>
1

> <i_epik_Tot_abs_Q>
1

> <r_epik_Metal_State_Penalty>
-0

> <b_epik_Metal_Only>
0

> <s_lp_Force_Field>
OPLS_2005

> <r_lp_Energy>
49.5757

> <b_lp_Chiralities_Consistent>
1

> <s_lp_Variant>
AV-unprocessed.smi:280-1

> <Gold.Version>
5.8.1

> <Gold.Id.Protein>
6NUR|6NUR_protein|mol2

> <Gold.PLP.Fitness>
43.7806

> <Gold.PLP.PLP>
-37.2318

> <Gold.PLP.part.hbond>
-4.4391

> <Gold.PLP.part.metal>
0.0000

> <Gold.PLP.part.buried>
-1.7768

> <Gold.PLP.part.nonpolar>
-32.9753

> <Gold.PLP.part.repulsive>
2.8631

> <Gold.PLP.ligand.clash>
0.0000

> <Gold.PLP.ligand.torsion>
1.9172

> <Gold.PLP.Chemscore.Hbond>
3.0000

> <Gold.PLP.Chemscore.CHOScore>
0.0000

> <Gold.PLP.Chemscore.Metal>
0.0000

> <Gold.Chemscore.Hbonds>
donor molecule, donor type, donor heavy atom, donor atom, acceptor molecule, acceptor atom, score
      L1  H    23    59       P1 10175  1.95
      L1  H    28    58       P1 10175  1.00

> <Gold.PLP.Chemscore.Internal.Correction>
1.3833

> <Gold.Rescore>
     Score         DG    S(hbond)    S(metal)    S(lipo)     H(rot)  DE(clash)    DE(int)     intcor
      5.92     -11.94       1.88        0.00      80.90       3.63       1.17       4.85       ----

> <Gold.Chemscore.Fitness>
5.9197

> <Gold.Chemscore.DG>
-11.9409

> <Gold.Chemscore.ZeroCoef>
-5.4800

> <Gold.Chemscore.Hbond>
1.8797

> <Gold.Chemscore.Metal>
0.0000

> <Gold.Chemscore.Lipo>
80.9005

> <Gold.Chemscore.Internal_Hbond>
0.0000

> <Gold.Chemscore.DEClash>
1.1671

> <Gold.Chemscore.DEInternal>
4.8541

> <Gold.Chemscore.Rot>
3.6260

> <Gold.Chemscore.Internal.Correction>
   9.000000E+99

> <Gold.Chemscore.Hbonds>
donor molecule, donor type, donor heavy atom, donor atom, acceptor molecule, acceptor atom, score
      L1  H    23    59       P1 10175  0.91
      L1  H    28    58       P1 10175  0.85

> <Gold.Chemscore.Hbond.Weighted>
-6.2780

> <Gold.Chemscore.Metal.Weighted>
-0.0000

> <Gold.Chemscore.Lipo.Weighted>
-9.4654

> <Gold.Chemscore.Internal_Hbond.Weighted>
0.0000

> <Gold.Chemscore.DEClash.Weighted>
1.1671

> <Gold.Chemscore.DEInternal.Weighted>
4.8541

> <Gold.Chemscore.Rot.Weighted>
9.2825

> <Gold.Chemscore.Internal.Correction.Weighted>
   9.000000E+99

> <Gold.Protein.RotatedTorsions>
[ 6907 6896 6895 6894 ] final  -94.75 input  -60.11 | X-H torsion
[ 7974 7965 7964 7962 ] final  -47.65 input  175.53 | X-H torsion
[ 8008 7997 7996 7995 ] final  163.26 input   59.86 | X-H torsion
[ 10167 10162 10161 10158 ] final -176.03 input  -65.29 | X-H torsion
[ 10718 10713 10712 10709 ] final   40.37 input   66.30 | X-H torsion
[ 10763 10752 10751 10750 ] final  -20.81 input  -60.55 | X-H torsion
[ 11005 11000 10999 10996 ] final  -56.30 input  -57.11 | X-H torsion

> <Gold.Protein.ActiveResidues>
 VAL166  LYS551  ARG553  GLY616  TRP617  ASP618  TYR619  PRO620  LYS621  CYS622 
 ASP623  PHE694  ASN695  SER759  ASP760  ASP761  ALA762  ILE779  LEU786  VAL792 
 PHE793  MET794  SER795  GLU796  ALA797  LYS798  CYS799  TRP800  GLU811  SER814 

> <Gold.Protein.RotatedAtoms>
  150.6948  134.1765  159.4231 H   0  0  0  0  0  0  0  0  0  0  0  0  # atno 6907 bound_to 6896
  151.9740  135.0060  160.0563 H   0  0  0  0  0  0  0  0  0  0  0  0  # atno 6908 bound_to 6896
  152.1815  133.4676  159.4997 H   0  0  0  0  0  0  0  0  0  0  0  0  # atno 6909 bound_to 6896
  145.9594  140.7494  142.9465 H   0  0  0  0  0  0  0  0  0  0  0  0  # atno 7974 bound_to 7965
  156.1970  140.1728  156.7978 H   0  0  0  0  0  0  0  0  0  0  0  0  # atno 8008 bound_to 7997
  154.5542  140.0712  156.8748 H   0  0  0  0  0  0  0  0  0  0  0  0  # atno 8009 bound_to 7997
  155.2970  140.3359  155.4252 H   0  0  0  0  0  0  0  0  0  0  0  0  # atno 8010 bound_to 7997
  139.5550  144.2012  152.1144 H   0  0  0  0  0  0  0  0  0  0  0  0  # atno 10167 bound_to 10162
  157.3813  130.7755  149.7195 H   0  0  0  0  0  0  0  0  0  0  0  0  # atno 10718 bound_to 10713
  153.6262  135.6991  153.5292 H   0  0  0  0  0  0  0  0  0  0  0  0  # atno 10763 bound_to 10752
  153.2896  135.4161  155.1154 H   0  0  0  0  0  0  0  0  0  0  0  0  # atno 10764 bound_to 10752
  154.8532  135.3622  154.5804 H   0  0  0  0  0  0  0  0  0  0  0  0  # atno 10765 bound_to 10752
  141.1114  133.6610  156.4599 H   0  0  0  0  0  0  0  0  0  0  0  0  # atno 11005 bound_to 11000
  144.6812  140.2565  143.7324 LP  0  0  0  0  0  0  0  0  0  0  0  0  # atno 17320 bound_to 7965
  145.8061  139.1984  143.2020 LP  0  0  0  0  0  0  0  0  0  0  0  0  # atno 17321 bound_to 7965
  140.1514  144.5111  150.6685 LP  0  0  0  0  0  0  0  0  0  0  0  0  # atno 17342 bound_to 10162
  140.6821  143.2332  151.5357 LP  0  0  0  0  0  0  0  0  0  0  0  0  # atno 17343 bound_to 10162
  155.9776  130.4060  150.3699 LP  0  0  0  0  0  0  0  0  0  0  0  0  # atno 17370 bound_to 10713
  157.1803  131.0390  151.2752 LP  0  0  0  0  0  0  0  0  0  0  0  0  # atno 17371 bound_to 10713
  140.4765  134.6704  157.5152 LP  0  0  0  0  0  0  0  0  0  0  0  0  # atno 17394 bound_to 11000
  140.0010  134.6837  155.9531 LP  0  0  0  0  0  0  0  0  0  0  0  0  # atno 17395 bound_to 11000

$$$$
