#       Name:                AV-unprocessed.smi:3001
#       Creating user name   scv26
#       Creation time:       Fri Mar 27 16:35:51 2020


#       File generated by GOLD software.
#

@<TRIPOS>MOLECULE
AV-unprocessed.smi:3001
    47    48     1
SMALL
NO_CHARGES


@<TRIPOS>ATOM
      1 ****        -3.8762  -0.6974  -0.4057 C.1            1 S1                 0.0000
      2 ****        -3.7754  -0.1547   0.6835 C.1            1 S1                 0.0000
      3 ****        -3.6421   0.4922   1.9974 C.3            1 S1                 0.0000
      4 ****        -2.2494   0.6080   2.3996 N.am           1 S1                 0.0000
      5 ****        -1.8267   1.1477   3.5546 C.2            1 S1                 0.0000
      6 ****        -2.6004   1.5942   4.4008 O.2            1 S1                 0.0000
      7 ****        -0.3131   1.2036   3.8207 C.3            1 S1                 0.0000
      8 ****         0.5147   0.7093   2.7202 N.am           1 S1                 0.0000
      9 ****         0.8916   1.4287   1.6533 C.2            1 S1                 0.0000
     10 ****         0.6344   2.6240   1.5091 O.2            1 S1                 0.0000
     11 ****         1.5443   0.6676   0.7607 N.am           1 S1                 0.0000
     12 ****         1.9387   1.0405  -0.5526 C.ar           1 S1                 0.0000
     13 ****         2.5275   2.3027  -0.8047 C.ar           1 S1                 0.0000
     14 ****         2.9703   2.6083  -2.1033 C.ar           1 S1                 0.0000
     15 ****         2.8226   1.6313  -3.1022 C.ar           1 S1                 0.0000
     16 ****         2.2739   0.4208  -2.8743 N.ar           1 S1                 0.0000
     17 ****         1.8271   0.1168  -1.6305 C.ar           1 S1                 0.0000
     18 ****         1.2360  -1.1559  -1.4550 N.3            1 S1                 0.0000
     19 ****         1.3778  -2.1852  -2.4796 C.3            1 S1                 0.0000
     20 ****         0.3168  -3.2287  -2.1421 C.3            1 S1                 0.0000
     21 ****        -0.8260  -2.3699  -1.6100 C.3            1 S1                 0.0000
     22 ****        -0.1121  -1.2172  -0.8964 C.3            1 S1                 0.0000
     23 ****        -3.9583  -1.1734  -1.3572 H              1 S1                 0.0000
     24 ****        -4.1006   1.4803   1.9404 H              1 S1                 0.0000
     25 ****        -4.1993  -0.0959   2.7277 H              1 S1                 0.0000
     26 ****        -1.5546   0.2668   1.7516 H              1 S1                 0.0000
     27 ****        -0.0320   2.2269   4.0753 H              1 S1                 0.0000
     28 ****        -0.0984   0.5977   4.7011 H              1 S1                 0.0000
     29 ****         0.7776  -0.2647   2.7539 H              1 S1                 0.0000
     30 ****         1.6045  -0.3181   0.9708 H              1 S1                 0.0000
     31 ****         2.6619   3.0280  -0.0159 H              1 S1                 0.0000
     32 ****         3.4233   3.5634  -2.3246 H              1 S1                 0.0000
     33 ****         3.1576   1.8243  -4.1106 H              1 S1                 0.0000
     34 ****         1.1797  -1.7751  -3.4706 H              1 S1                 0.0000
     35 ****         2.3811  -2.6118  -2.4784 H              1 S1                 0.0000
     36 ****         0.0311  -3.8379  -2.9999 H              1 S1                 0.0000
     37 ****         0.6808  -3.8932  -1.3572 H              1 S1                 0.0000
     38 ****        -1.4095  -1.9790  -2.4449 H              1 S1                 0.0000
     39 ****        -1.5033  -2.9184  -0.9549 H              1 S1                 0.0000
     40 ****        -0.0413  -1.4300   0.1705 H              1 S1                 0.0000
     41 ****        -0.6529  -0.2776  -1.0188 H              1 S1                 0.0000
     42 ****        -3.5872   1.5637   4.2417 LP             1 S1                 0.0000
     43 ****        -2.2424   1.9876   5.2475 LP             1 S1                 0.0000
     44 ****         0.1163   3.1123   2.2114 LP             1 S1                 0.0000
     45 ****         0.9435   3.1067   0.6896 LP             1 S1                 0.0000
     46 ****         2.1972  -0.2463  -3.6154 LP             1 S1                 0.0000
     47 ****         1.8919  -1.4013  -0.7413 LP             1 S1                 0.0000
@<TRIPOS>BOND
    1    1    2 3     
    2    1   23 1     
    3    2    3 1     
    4    3    4 1     
    5    3   24 1     
    6    3   25 1     
    7    4    5 am    
    8    4   26 1     
    9    5    6 2     
   10    5    7 1     
   11    7    8 1     
   12    7   27 1     
   13    7   28 1     
   14    8    9 am    
   15    8   29 1     
   16    9   10 2     
   17    9   11 am    
   18   11   12 1     
   19   11   30 1     
   20   12   17 ar    
   21   12   13 ar    
   22   13   14 ar    
   23   13   31 1     
   24   14   15 ar    
   25   14   32 1     
   26   15   16 ar    
   27   15   33 1     
   28   16   17 ar    
   29   17   18 1     
   30   18   22 1     
   31   18   19 1     
   32   19   20 1     
   33   19   34 1     
   34   19   35 1     
   35   20   21 1     
   36   20   36 1     
   37   20   37 1     
   38   21   22 1     
   39   21   38 1     
   40   21   39 1     
   41   22   40 1     
   42   22   41 1     
   43    6   42 1     
   44    6   43 1     
   45   10   44 1     
   46   10   45 1     
   47   16   46 1     
   48   18   47 1     
@<TRIPOS>SUBSTRUCTURE
      1 S1             1
@<TRIPOS>SET
LONE_PAIRS      STATIC     ATOMS    <user>   **** ""
6 42 43 44 45 46 47
DONOR_HYDROGENS      STATIC     ATOMS    <user>   **** ""
3 26 29 30
ATOM$BLUE        STATIC     ATOMS    COLORGROUP SYSTEM
6 42 43 44 45 46 47
ATOM$RED        STATIC     ATOMS    COLORGROUP SYSTEM
3 26 29 30
