AV-unprocessed.smi:1687|AV-procd|sdf|6768|dock2
  -GOLD-   22720 7523D 1   1.00000     0.00000
 Structure written by MMmdl.
 45 46  0  0  0  0  0  0  0  0  2 V2000
  146.0714  143.1182  156.8567 C   0  0  0  0  0  0  0  0  0  0  0  0
  145.0998  142.8321  155.6984 C   0  0  2  0  0  0  0  0  0  0  0  0
  144.2971  141.5341  155.9044 C   0  0  0  0  0  0  0  0  0  0  0  0
  145.1543  140.2758  155.6767 C   0  0  0  0  0  0  0  0  0  0  0  0
  145.7815  140.2981  154.3291 N   0  3  2  0  0  0  0  0  0  0  0  0
  146.4180  139.0030  153.9474 C   0  0  2  0  0  0  0  0  0  0  0  0
  147.7800  138.7792  154.6413 C   0  0  0  0  0  0  0  0  0  0  0  0
  146.4782  138.8663  152.4084 C   0  0  0  0  0  0  0  0  0  0  0  0
  146.8002  137.5084  151.9770 N   0  0  0  0  0  0  0  0  0  0  0  0
  145.9166  136.5096  151.8297 C   0  0  0  0  0  0  0  0  0  0  0  0
  144.7091  136.6381  152.0343 O   0  0  0  0  0  0  0  0  0  0  0  0
  146.5229  135.3787  151.4281 N   0  0  0  0  0  0  0  0  0  0  0  0
  145.9338  134.1141  151.1613 C   0  0  0  0  0  0  0  0  0  0  0  0
  144.5489  134.1463  150.8821 C   0  0  0  0  0  0  0  0  0  0  0  0
  143.8707  132.9444  150.6014 C   0  0  0  0  0  0  0  0  0  0  0  0
  144.5960  131.7396  150.6077 C   0  0  0  0  0  0  0  0  0  0  0  0
  145.9719  131.7954  150.8967 C   0  0  0  0  0  0  0  0  0  0  0  0
  146.6238  132.9462  151.1661 N   0  0  0  0  0  0  0  0  0  0  0  0
  146.6285  141.5072  154.1352 C   0  0  0  0  0  0  0  0  0  0  0  0
  145.8020  142.7915  154.3278 C   0  0  0  0  0  0  0  0  0  0  0  0
  146.8255  142.3391  156.9642 H   0  0  0  0  0  0  0  0  0  0  0  0
  145.5373  143.1915  157.8043 H   0  0  0  0  0  0  0  0  0  0  0  0
  146.5939  144.0631  156.7038 H   0  0  0  0  0  0  0  0  0  0  0  0
  144.3896  143.6599  155.6801 H   0  0  0  0  0  0  0  0  0  0  0  0
  143.8589  141.5146  156.9030 H   0  0  0  0  0  0  0  0  0  0  0  0
  143.4581  141.5202  155.2072 H   0  0  0  0  0  0  0  0  0  0  0  0
  145.9224  140.1937  156.4460 H   0  0  0  0  0  0  0  0  0  0  0  0
  144.5175  139.3960  155.7755 H   0  0  0  0  0  0  0  0  0  0  0  0
  145.7533  138.2085  154.2903 H   0  0  0  0  0  0  0  0  0  0  0  0
  148.1333  137.7582  154.4965 H   0  0  0  0  0  0  0  0  0  0  0  0
  147.7159  138.9381  155.7173 H   0  0  0  0  0  0  0  0  0  0  0  0
  148.5487  139.4451  154.2479 H   0  0  0  0  0  0  0  0  0  0  0  0
  145.5070  139.1206  151.9825 H   0  0  0  0  0  0  0  0  0  0  0  0
  147.1871  139.5742  151.9779 H   0  0  0  0  0  0  0  0  0  0  0  0
  147.7718  137.3117  151.7858 H   0  0  0  0  0  0  0  0  0  0  0  0
  147.5225  135.4265  151.2973 H   0  0  0  0  0  0  0  0  0  0  0  0
  144.0067  135.0810  150.8806 H   0  0  0  0  0  0  0  0  0  0  0  0
  142.8127  132.9479  150.3845 H   0  0  0  0  0  0  0  0  0  0  0  0
  144.1110  130.7981  150.3965 H   0  0  0  0  0  0  0  0  0  0  0  0
  146.5649  130.8930  150.9116 H   0  0  0  0  0  0  0  0  0  0  0  0
  147.4649  141.4982  154.8348 H   0  0  0  0  0  0  0  0  0  0  0  0
  147.0586  141.5129  153.1343 H   0  0  0  0  0  0  0  0  0  0  0  0
  145.0506  142.8497  153.5389 H   0  0  0  0  0  0  0  0  0  0  0  0
  146.4380  143.6687  154.2031 H   0  0  0  0  0  0  0  0  0  0  0  0
  145.0084  140.4022  153.6877 H   0  0  0  0  0  0  0  0  0  0  0  0
  1  2  1  0  0  0  0
  1 21  1  0  0  0  0
  1 22  1  0  0  0  0
  1 23  1  0  0  0  0
  2 20  1  0  0  0  0
  2  3  1  0  0  0  0
  2 24  1  0  0  0  0
  3  4  1  0  0  0  0
  3 25  1  0  0  0  0
  3 26  1  0  0  0  0
  4  5  1  0  0  0  0
  4 27  1  0  0  0  0
  4 28  1  0  0  0  0
  5  6  1  0  0  0  0
  5 19  1  0  0  0  0
  5 45  1  0  0  0  0
  6  7  1  0  0  0  0
  6  8  1  0  0  0  0
  6 29  1  0  0  0  0
  7 30  1  0  0  0  0
  7 31  1  0  0  0  0
  7 32  1  0  0  0  0
  8  9  1  0  0  0  0
  8 33  1  0  0  0  0
  8 34  1  0  0  0  0
  9 10  1  0  0  0  0
  9 35  1  0  0  0  0
 10 11  2  0  0  0  0
 10 12  1  0  0  0  0
 12 13  1  0  0  0  0
 12 36  1  0  0  0  0
 13 18  1  0  0  0  0
 13 14  2  0  0  0  0
 14 15  1  0  0  0  0
 14 37  1  0  0  0  0
 15 16  2  0  0  0  0
 15 38  1  0  0  0  0
 16 17  1  0  0  0  0
 16 39  1  0  0  0  0
 17 18  2  0  0  0  0
 17 40  1  0  0  0  0
 19 20  1  0  0  0  0
 19 41  1  0  0  0  0
 19 42  1  0  0  0  0
 20 43  1  0  0  0  0
 20 44  1  0  0  0  0
M  CHG  1   5   1
M  END
> <s_m_source_file>
AV-unprocessed.smi

> <i_m_source_file_index>
1687

> <i_lp_mmshare_version>
43012

> <i_f3d_flags>
0

> <s_epik_input>
W0NIM11bQ0hdMVtDSDJdW0NIMl1OKFtDSDJdW0NIMl0xKVtDQEhdKFtDSDNdKVtDSDJdW05IXUMoPU8pW05IXWMyW2NIXVtjSF1bY0hdW2NIXW4y

> <s_epik_cmdline>
J2VwaWtfcHl0aG9uJywgJy1waCcsICc3LjAnLCAnLXRuJywgJzgnLCAnLW1hJywgJzIwMCcsICctbWV0YWxfYmluZGluZycsICctaW1hZScsICc8aW5maWxlLm1hZT4nLCAnLW9tYWUnLCAnPG91dGZpbGUubWFlPic=

> <r_epik_Ionization_Penalty>
0.00142891

> <r_epik_Ionization_Penalty_Charging>
0.00139388

> <r_epik_Ionization_Penalty_Neutral>
3.50347e-05

> <r_epik_State_Penalty>
0.000929204

> <r_epik_Charging_Adjusted_Penalty>
0.00232308

> <i_epik_Tot_Q>
1

> <i_epik_Tot_abs_Q>
1

> <r_epik_Metal_State_Penalty>
-0

> <b_epik_Metal_Only>
0

> <s_lp_Force_Field>
OPLS_2005

> <r_lp_Energy>
23.5172

> <b_lp_Chiralities_Consistent>
1

> <s_lp_Variant>
AV-unprocessed.smi:1687-3

> <Gold.Version>
5.8.1

> <Gold.Id.Protein>
6NUR|6NUR_protein|mol2

> <Gold.PLP.Fitness>
44.8517

> <Gold.PLP.PLP>
-31.8305

> <Gold.PLP.part.hbond>
-2.8399

> <Gold.PLP.part.metal>
0.0000

> <Gold.PLP.part.buried>
-4.4233

> <Gold.PLP.part.nonpolar>
-25.4253

> <Gold.PLP.part.repulsive>
1.3403

> <Gold.PLP.ligand.clash>
0.0018

> <Gold.PLP.ligand.torsion>
0.5878

> <Gold.PLP.Chemscore.Hbond>
3.9040

> <Gold.PLP.Chemscore.CHOScore>
0.7868

> <Gold.PLP.Chemscore.Metal>
0.0000

> <Gold.Chemscore.Hbonds>
donor molecule, donor type, donor heavy atom, donor atom, acceptor molecule, acceptor atom, score
      L1  H     5    45       P1 10175  2.00
      L1  H     9    35       P1  7948  0.94
      L1  H    12    36       P1  7948  0.90
      L1  C    17    40       P1 10747  0.86

> <Gold.PLP.Chemscore.Internal.Correction>
0.1262

> <Gold.Rescore>
     Score         DG    S(hbond)    S(metal)    S(lipo)     H(rot)  DE(clash)    DE(int)     intcor
     16.77     -18.86       2.85        0.00      65.75       1.50       0.07       2.01       ----

> <Gold.Chemscore.Fitness>
16.7721

> <Gold.Chemscore.DG>
-18.8556

> <Gold.Chemscore.ZeroCoef>
-5.4800

> <Gold.Chemscore.Hbond>
2.8478

> <Gold.Chemscore.Metal>
0.0000

> <Gold.Chemscore.Lipo>
65.7514

> <Gold.Chemscore.Internal_Hbond>
0.0000

> <Gold.Chemscore.DEClash>
0.0697

> <Gold.Chemscore.DEInternal>
2.0138

> <Gold.Chemscore.Rot>
1.4956

> <Gold.Chemscore.Internal.Correction>
   9.000000E+99

> <Gold.Chemscore.Hbonds>
donor molecule, donor type, donor heavy atom, donor atom, acceptor molecule, acceptor atom, score
      L1  H     5    45       P1 10175  1.00
      L1  H     9    35       P1  7948  0.90
      L1  H    12    36       P1  7948  0.65

> <Gold.Chemscore.Hbond.Weighted>
-9.5115

> <Gold.Chemscore.Metal.Weighted>
-0.0000

> <Gold.Chemscore.Lipo.Weighted>
-7.6929

> <Gold.Chemscore.Internal_Hbond.Weighted>
0.0000

> <Gold.Chemscore.DEClash.Weighted>
0.0697

> <Gold.Chemscore.DEInternal.Weighted>
2.0138

> <Gold.Chemscore.Rot.Weighted>
3.8289

> <Gold.Chemscore.Internal.Correction.Weighted>
   9.000000E+99

> <Gold.Protein.RotatedTorsions>
[ 6907 6896 6895 6894 ] final   89.53 input  -60.11 | X-H torsion
[ 7974 7965 7964 7962 ] final    8.26 input  175.53 | X-H torsion
[ 8008 7997 7996 7995 ] final  -20.50 input   59.86 | X-H torsion
[ 10167 10162 10161 10158 ] final  151.52 input  -65.29 | X-H torsion
[ 10718 10713 10712 10709 ] final  178.01 input   66.30 | X-H torsion
[ 10763 10752 10751 10750 ] final  -57.87 input  -60.55 | X-H torsion
[ 11005 11000 10999 10996 ] final -108.01 input  -57.11 | X-H torsion

> <Gold.Protein.ActiveResidues>
 VAL166  LYS551  ARG553  GLY616  TRP617  ASP618  TYR619  PRO620  LYS621  CYS622 
 ASP623  PHE694  ASN695  SER759  ASP760  ASP761  ALA762  ILE779  LEU786  VAL792 
 PHE793  MET794  SER795  GLU796  ALA797  LYS798  CYS799  TRP800  GLU811  SER814 

> <Gold.Protein.RotatedAtoms>
  152.5437  134.1953  159.8689 H   0  0  0  0  0  0  0  0  0  0  0  0  # atno 6907 bound_to 6896
  151.1945  133.4640  159.2603 H   0  0  0  0  0  0  0  0  0  0  0  0  # atno 6908 bound_to 6896
  151.1050  135.0006  159.8522 H   0  0  0  0  0  0  0  0  0  0  0  0  # atno 6909 bound_to 6896
  146.2418  139.9960  142.8421 H   0  0  0  0  0  0  0  0  0  0  0  0  # atno 7974 bound_to 7965
  154.4766  140.2060  155.9863 H   0  0  0  0  0  0  0  0  0  0  0  0  # atno 8008 bound_to 7997
  156.1099  140.3230  155.8028 H   0  0  0  0  0  0  0  0  0  0  0  0  # atno 8009 bound_to 7997
  155.4653  140.0527  157.2977 H   0  0  0  0  0  0  0  0  0  0  0  0  # atno 8010 bound_to 7997
  139.4840  144.5434  151.7525 H   0  0  0  0  0  0  0  0  0  0  0  0  # atno 10167 bound_to 10162
  156.8968  130.9865  151.3041 H   0  0  0  0  0  0  0  0  0  0  0  0  # atno 10718 bound_to 10713
  154.2293  135.6363  153.5170 H   0  0  0  0  0  0  0  0  0  0  0  0  # atno 10763 bound_to 10752
  152.9952  135.5515  154.6030 H   0  0  0  0  0  0  0  0  0  0  0  0  # atno 10764 bound_to 10752
  154.5509  135.2901  155.0983 H   0  0  0  0  0  0  0  0  0  0  0  0  # atno 10765 bound_to 10752
  141.0924  133.9031  157.2044 H   0  0  0  0  0  0  0  0  0  0  0  0  # atno 11005 bound_to 11000
  145.1459  140.9597  143.4461 LP  0  0  0  0  0  0  0  0  0  0  0  0  # atno 17320 bound_to 7965
  145.0251  139.3390  143.6053 LP  0  0  0  0  0  0  0  0  0  0  0  0  # atno 17321 bound_to 7965
  140.4977  144.1216  150.5964 LP  0  0  0  0  0  0  0  0  0  0  0  0  # atno 17342 bound_to 10162
  140.4098  143.2662  151.9846 LP  0  0  0  0  0  0  0  0  0  0  0  0  # atno 17343 bound_to 10162
  157.6050  130.8540  149.8861 LP  0  0  0  0  0  0  0  0  0  0  0  0  # atno 17370 bound_to 10713
  156.0601  130.3701  150.1001 LP  0  0  0  0  0  0  0  0  0  0  0  0  # atno 17371 bound_to 10713
  139.9753  135.0116  156.9615 LP  0  0  0  0  0  0  0  0  0  0  0  0  # atno 17394 bound_to 11000
  140.5220  134.0898  155.7294 LP  0  0  0  0  0  0  0  0  0  0  0  0  # atno 17395 bound_to 11000

$$$$
