AV-unprocessed.smi:3028|AV-procd|sdf|11517|dock5
  -GOLD-   2272016453D 1   1.00000     0.00000
 Structure written by MMmdl.
 48 49  0  0  0  0  0  0  0  0  2 V2000
  151.0082  142.4821  158.0842 C   0  0  0  0  0  0  0  0  0  0  0  0
  150.7340  141.7388  156.8087 C   0  0  0  0  0  0  0  0  0  0  0  0
  151.6075  140.8681  156.0977 C   0  0  0  0  0  0  0  0  0  0  0  0
  151.0562  140.3683  155.0040 N   0  0  0  0  0  0  0  0  0  0  0  0
  149.8164  140.9019  154.9728 N   0  0  0  0  0  0  0  0  0  0  0  0
  148.9097  140.5603  153.8840 C   0  0  2  0  0  0  0  0  0  0  0  0
  147.7259  141.5445  153.8684 C   0  0  0  0  0  0  0  0  0  0  0  0
  148.4688  139.0732  153.9457 C   0  0  2  0  0  0  0  0  0  0  0  0
  149.6068  138.1221  154.3588 C   0  0  0  0  0  0  0  0  0  0  0  0
  147.9372  138.6359  152.6354 N   0  3  0  0  0  0  0  0  0  0  0  0
  146.4633  138.6658  152.5160 C   0  0  0  0  0  0  0  0  0  0  0  0
  145.8585  137.2604  152.4014 C   0  0  0  0  0  0  0  0  0  0  0  0
  144.8778  136.9564  153.0788 O   0  0  0  0  0  0  0  0  0  0  0  0
  146.4119  136.3716  151.5591 N   0  0  0  0  0  0  0  0  0  0  0  0
  145.9989  134.9930  151.2984 C   0  0  0  0  0  0  0  0  0  0  0  0
  144.5787  134.9747  150.7127 C   0  0  0  0  0  0  0  0  0  0  0  0
  144.0533  133.5341  150.6029 C   0  0  0  0  0  0  0  0  0  0  0  0
  144.1017  132.8988  151.8757 O   0  0  0  0  0  0  0  0  0  0  0  0
  145.4241  132.7859  152.3904 C   0  0  0  0  0  0  0  0  0  0  0  0
  146.0250  134.1847  152.6046 C   0  0  0  0  0  0  0  0  0  0  0  0
  149.5964  141.7335  156.0528 C   0  0  0  0  0  0  0  0  0  0  0  0
  151.9841  142.2289  158.4990 H   0  0  0  0  0  0  0  0  0  0  0  0
  150.2657  142.2555  158.8496 H   0  0  0  0  0  0  0  0  0  0  0  0
  150.9945  143.5614  157.9312 H   0  0  0  0  0  0  0  0  0  0  0  0
  152.6205  140.5850  156.3437 H   0  0  0  0  0  0  0  0  0  0  0  0
  149.4590  140.7033  152.9510 H   0  0  0  0  0  0  0  0  0  0  0  0
  147.1074  141.4127  152.9808 H   0  0  0  0  0  0  0  0  0  0  0  0
  148.0776  142.5769  153.8614 H   0  0  0  0  0  0  0  0  0  0  0  0
  147.0871  141.4178  154.7430 H   0  0  0  0  0  0  0  0  0  0  0  0
  147.6849  138.9739  154.6987 H   0  0  0  0  0  0  0  0  0  0  0  0
  149.9636  138.3285  155.3681 H   0  0  0  0  0  0  0  0  0  0  0  0
  150.4580  138.2051  153.6821 H   0  0  0  0  0  0  0  0  0  0  0  0
  149.2725  137.0842  154.3464 H   0  0  0  0  0  0  0  0  0  0  0  0
  148.3343  139.2209  151.9141 H   0  0  0  0  0  0  0  0  0  0  0  0
  146.0491  139.1658  153.3925 H   0  0  0  0  0  0  0  0  0  0  0  0
  146.1831  139.2457  151.6362 H   0  0  0  0  0  0  0  0  0  0  0  0
  147.2191  136.6878  151.0404 H   0  0  0  0  0  0  0  0  0  0  0  0
  146.6626  134.4991  150.5893 H   0  0  0  0  0  0  0  0  0  0  0  0
  143.9061  135.5513  151.3496 H   0  0  0  0  0  0  0  0  0  0  0  0
  144.5668  135.4530  149.7326 H   0  0  0  0  0  0  0  0  0  0  0  0
  143.0216  133.5382  150.2508 H   0  0  0  0  0  0  0  0  0  0  0  0
  144.6343  132.9627  149.8774 H   0  0  0  0  0  0  0  0  0  0  0  0
  145.3889  132.2445  153.3360 H   0  0  0  0  0  0  0  0  0  0  0  0
  146.0414  132.1969  151.7102 H   0  0  0  0  0  0  0  0  0  0  0  0
  147.0465  134.0998  152.9773 H   0  0  0  0  0  0  0  0  0  0  0  0
  145.4530  134.7031  153.3758 H   0  0  0  0  0  0  0  0  0  0  0  0
  148.6568  142.2473  156.1944 H   0  0  0  0  0  0  0  0  0  0  0  0
  148.2379  137.6856  152.4711 H   0  0  0  0  0  0  0  0  0  0  0  0
  1  2  1  0  0  0  0
  1 22  1  0  0  0  0
  1 23  1  0  0  0  0
  1 24  1  0  0  0  0
  2 21  2  0  0  0  0
  2  3  1  0  0  0  0
  3  4  2  0  0  0  0
  3 25  1  0  0  0  0
  4  5  1  0  0  0  0
  5  6  1  0  0  0  0
  5 21  1  0  0  0  0
  6  7  1  0  0  0  0
  6  8  1  0  0  0  0
  6 26  1  0  0  0  0
  7 27  1  0  0  0  0
  7 28  1  0  0  0  0
  7 29  1  0  0  0  0
  8  9  1  0  0  0  0
  8 10  1  0  0  0  0
  8 30  1  0  0  0  0
  9 31  1  0  0  0  0
  9 32  1  0  0  0  0
  9 33  1  0  0  0  0
 10 11  1  0  0  0  0
 10 34  1  0  0  0  0
 10 48  1  0  0  0  0
 11 12  1  0  0  0  0
 11 35  1  0  0  0  0
 11 36  1  0  0  0  0
 12 13  2  0  0  0  0
 12 14  1  0  0  0  0
 14 15  1  0  0  0  0
 14 37  1  0  0  0  0
 15 20  1  0  0  0  0
 15 16  1  0  0  0  0
 15 38  1  0  0  0  0
 16 17  1  0  0  0  0
 16 39  1  0  0  0  0
 16 40  1  0  0  0  0
 17 18  1  0  0  0  0
 17 41  1  0  0  0  0
 17 42  1  0  0  0  0
 18 19  1  0  0  0  0
 19 20  1  0  0  0  0
 19 43  1  0  0  0  0
 19 44  1  0  0  0  0
 20 45  1  0  0  0  0
 20 46  1  0  0  0  0
 21 47  1  0  0  0  0
M  CHG  1  10   1
M  END
> <s_m_source_file>
AV-unprocessed.smi

> <i_m_source_file_index>
3028

> <i_lp_mmshare_version>
43012

> <i_f3d_flags>
0

> <s_epik_input>
W0NIM11jMVtjSF1ubihbY0hdMSlbQ0BIXShbQ0gzXSlbQ0BIXShbQ0gzXSlbTkhdW0NIMl1DKD1PKVtOSF1bQ0hdMltDSDJdW0NIMl1PW0NIMl1bQ0gyXTI=

> <s_epik_cmdline>
J2VwaWtfcHl0aG9uJywgJy1waCcsICc3LjAnLCAnLXRuJywgJzgnLCAnLW1hJywgJzIwMCcsICctbWV0YWxfYmluZGluZycsICctaW1hZScsICc8aW5maWxlLm1hZT4nLCAnLW9tYWUnLCAnPG91dGZpbGUubWFlPic=

> <r_lp_tautomer_probability>
1

> <r_epik_Ionization_Penalty>
0.151514

> <r_epik_Ionization_Penalty_Charging>
0.151494

> <r_epik_Ionization_Penalty_Neutral>
1.95502e-05

> <r_epik_State_Penalty>
0.141395

> <r_epik_Charging_Adjusted_Penalty>
0.292889

> <i_epik_Tot_Q>
1

> <i_epik_Tot_abs_Q>
1

> <r_epik_Metal_State_Penalty>
0.141632

> <b_epik_Metal_Only>
0

> <s_lp_Force_Field>
OPLS_2005

> <r_lp_Energy>
18.1204

> <b_lp_Chiralities_Consistent>
1

> <s_lp_Variant>
AV-unprocessed.smi:3028-1

> <Gold.Version>
5.8.1

> <Gold.Id.Protein>
6NUR|6NUR_protein|mol2

> <Gold.PLP.Fitness>
49.9214

> <Gold.PLP.PLP>
-38.3098

> <Gold.PLP.part.hbond>
-3.9185

> <Gold.PLP.part.metal>
0.0000

> <Gold.PLP.part.buried>
-0.0289

> <Gold.PLP.part.nonpolar>
-33.3906

> <Gold.PLP.part.repulsive>
0.5499

> <Gold.PLP.ligand.clash>
0.0000

> <Gold.PLP.ligand.torsion>
1.6285

> <Gold.PLP.Chemscore.Hbond>
4.3040

> <Gold.PLP.Chemscore.CHOScore>
0.5939

> <Gold.PLP.Chemscore.Metal>
0.0000

> <Gold.Chemscore.Hbonds>
donor molecule, donor type, donor heavy atom, donor atom, acceptor molecule, acceptor atom, score
      L1  H    10    34       P1  7957  1.00
      L1  H    10    48       P1  7948  2.00
      L1  H    14    37       P1  7948  0.32
      P1  H  7989  7998       L1     4  1.00
      L1  C    21    47       P1  8028  0.62

> <Gold.PLP.Chemscore.Internal.Correction>
0.1748

> <Gold.Rescore>
     Score         DG    S(hbond)    S(metal)    S(lipo)     H(rot)  DE(clash)    DE(int)     intcor
     17.47     -21.51       3.35        0.00      84.82       1.99       0.13       3.91       ----

> <Gold.Chemscore.Fitness>
17.4718

> <Gold.Chemscore.DG>
-21.5094

> <Gold.Chemscore.ZeroCoef>
-5.4800

> <Gold.Chemscore.Hbond>
3.3529

> <Gold.Chemscore.Metal>
0.0000

> <Gold.Chemscore.Lipo>
84.8241

> <Gold.Chemscore.Internal_Hbond>
0.0000

> <Gold.Chemscore.DEClash>
0.1299

> <Gold.Chemscore.DEInternal>
3.9077

> <Gold.Chemscore.Rot>
1.9897

> <Gold.Chemscore.Internal.Correction>
   9.000000E+99

> <Gold.Chemscore.Hbonds>
donor molecule, donor type, donor heavy atom, donor atom, acceptor molecule, acceptor atom, score
      L1  H    10    34       P1  7957  0.97
      L1  H    10    48       P1  7948  1.00
      L1  H    14    37       P1  7948  0.32
      P1  H  7989  7998       L1     4  0.24

> <Gold.Chemscore.Hbond.Weighted>
-11.1985

> <Gold.Chemscore.Metal.Weighted>
-0.0000

> <Gold.Chemscore.Lipo.Weighted>
-9.9244

> <Gold.Chemscore.Internal_Hbond.Weighted>
0.0000

> <Gold.Chemscore.DEClash.Weighted>
0.1299

> <Gold.Chemscore.DEInternal.Weighted>
3.9077

> <Gold.Chemscore.Rot.Weighted>
5.0936

> <Gold.Chemscore.Internal.Correction.Weighted>
   9.000000E+99

> <Gold.Protein.RotatedTorsions>
[ 6907 6896 6895 6894 ] final   63.43 input  -60.11 | X-H torsion
[ 7974 7965 7964 7962 ] final  -11.97 input  175.53 | X-H torsion
[ 8008 7997 7996 7995 ] final  -30.38 input   59.86 | X-H torsion
[ 10167 10162 10161 10158 ] final  159.74 input  -65.29 | X-H torsion
[ 10718 10713 10712 10709 ] final  105.50 input   66.30 | X-H torsion
[ 10763 10752 10751 10750 ] final  -11.12 input  -60.55 | X-H torsion
[ 11005 11000 10999 10996 ] final  -85.57 input  -57.11 | X-H torsion

> <Gold.Protein.ActiveResidues>
 VAL166  LYS551  ARG553  GLY616  TRP617  ASP618  TYR619  PRO620  LYS621  CYS622 
 ASP623  PHE694  ASN695  SER759  ASP760  ASP761  ALA762  ILE779  LEU786  VAL792 
 PHE793  MET794  SER795  GLU796  ALA797  LYS798  CYS799  TRP800  GLU811  SER814 

> <Gold.Protein.RotatedAtoms>
  152.4253  134.5880  159.9966 H   0  0  0  0  0  0  0  0  0  0  0  0  # atno 6907 bound_to 6896
  151.6019  133.3350  159.3057 H   0  0  0  0  0  0  0  0  0  0  0  0  # atno 6908 bound_to 6896
  150.8142  134.7351  159.6780 H   0  0  0  0  0  0  0  0  0  0  0  0  # atno 6909 bound_to 6896
  146.2168  140.2989  142.8374 H   0  0  0  0  0  0  0  0  0  0  0  0  # atno 7974 bound_to 7965
  154.4253  140.1793  156.1397 H   0  0  0  0  0  0  0  0  0  0  0  0  # atno 8008 bound_to 7997
  156.0001  140.3361  155.6812 H   0  0  0  0  0  0  0  0  0  0  0  0  # atno 8009 bound_to 7997
  155.6254  140.0664  157.2656 H   0  0  0  0  0  0  0  0  0  0  0  0  # atno 8010 bound_to 7997
  139.4834  144.4701  151.8588 H   0  0  0  0  0  0  0  0  0  0  0  0  # atno 10167 bound_to 10162
  157.6703  131.0829  150.5866 H   0  0  0  0  0  0  0  0  0  0  0  0  # atno 10718 bound_to 10713
  153.4792  135.7017  153.5948 H   0  0  0  0  0  0  0  0  0  0  0  0  # atno 10763 bound_to 10752
  153.4169  135.3835  155.2086 H   0  0  0  0  0  0  0  0  0  0  0  0  # atno 10764 bound_to 10752
  154.8722  135.3918  154.4239 H   0  0  0  0  0  0  0  0  0  0  0  0  # atno 10765 bound_to 10752
  141.1640  133.7407  156.9034 H   0  0  0  0  0  0  0  0  0  0  0  0  # atno 11005 bound_to 11000
  144.9071  140.7713  143.5830 LP  0  0  0  0  0  0  0  0  0  0  0  0  # atno 17320 bound_to 7965
  145.2918  139.1881  143.4736 LP  0  0  0  0  0  0  0  0  0  0  0  0  # atno 17321 bound_to 7965
  140.4169  144.2295  150.5887 LP  0  0  0  0  0  0  0  0  0  0  0  0  # atno 17342 bound_to 10162
  140.4912  143.2347  151.8816 LP  0  0  0  0  0  0  0  0  0  0  0  0  # atno 17343 bound_to 10162
  156.6166  130.4394  149.5838 LP  0  0  0  0  0  0  0  0  0  0  0  0  # atno 17370 bound_to 10713
  156.2388  130.6839  151.1535 LP  0  0  0  0  0  0  0  0  0  0  0  0  # atno 17371 bound_to 10713
  140.1566  134.9194  157.2662 LP  0  0  0  0  0  0  0  0  0  0  0  0  # atno 17394 bound_to 11000
  140.2660  134.3516  155.7390 LP  0  0  0  0  0  0  0  0  0  0  0  0  # atno 17395 bound_to 11000

$$$$
