AV-unprocessed.smi:221|AV-procd|sdf|1688|dock10
  -GOLD-   2262020133D 1   1.00000     0.00000
 Structure written by MMmdl.
 50 53  0  0  0  0  0  0  0  0  1 V2000
  144.8602  136.0930  149.8892 N   0  0  0  0  0  0  0  0  0  0  0  0
  144.8497  135.5904  151.1259 C   0  0  0  0  0  0  0  0  0  0  0  0
  144.1324  136.0503  152.0129 O   0  0  0  0  0  0  0  0  0  0  0  0
  145.7662  134.3884  151.3943 C   0  0  2  0  0  0  0  0  0  0  0  0
  145.3625  133.1611  150.5545 C   0  0  0  0  0  0  0  0  0  0  0  0
  145.7216  131.9831  151.4495 C   0  0  2  0  0  0  0  0  0  0  0  0
  145.0507  130.8756  151.1339 F   0  0  0  0  0  0  0  0  0  0  0  0
  145.3653  132.5147  152.8317 C   0  0  0  0  0  0  0  0  0  0  0  0
  145.6858  133.9402  152.7913 N   0  0  0  0  0  0  0  0  0  0  0  0
  146.7007  134.3871  153.5715 C   0  0  0  0  0  0  0  0  0  0  0  0
  147.6331  133.5174  154.0435 N   0  0  0  0  0  0  0  0  0  0  0  0
  148.6522  133.9632  154.7840 C   0  0  0  0  0  0  0  0  0  0  0  0
  148.9259  135.2141  155.1602 N   0  0  0  0  0  0  0  0  0  0  0  0
  147.9948  136.0903  154.6848 C   0  0  0  0  0  0  0  0  0  0  0  0
  146.8646  135.7635  153.8843 C   0  0  0  0  0  0  0  0  0  0  0  0
  146.1509  136.9146  153.5789 N   0  0  0  0  0  0  0  0  0  0  0  0
  146.8220  137.8689  154.1633 C   0  0  0  0  0  0  0  0  0  0  0  0
  147.9283  137.4605  154.8761 N   0  0  0  0  0  0  0  0  0  0  0  0
  148.8595  138.3069  155.6088 C   0  0  0  0  0  0  0  0  0  0  0  0
  150.1378  138.6888  154.8094 C   0  0  2  0  0  0  0  0  0  0  0  0
  151.2485  137.6529  155.1037 C   0  0  0  0  0  0  0  0  0  0  0  0
  151.9805  137.3505  153.9335 O   0  0  0  0  0  0  0  0  0  0  0  0
  150.6596  140.1306  155.0985 C   0  0  2  0  0  0  0  0  0  0  0  0
  151.2039  140.3948  156.4960 C   0  0  0  0  0  0  0  0  0  0  0  0
  149.9444  140.6236  157.3246 C   0  0  0  0  0  0  0  0  0  0  0  0
  148.9923  141.1664  156.4165 O   0  0  0  0  0  0  0  0  0  0  0  0
  149.5339  141.1763  155.0992 C   0  0  0  0  0  0  0  0  0  0  0  0
  146.7976  134.6549  151.1500 H   0  0  0  0  0  0  0  0  0  0  0  0
  146.7878  131.7618  151.3849 H   0  0  0  0  0  0  0  0  0  0  0  0
  144.2800  136.8894  149.6685 H   0  0  0  0  0  0  0  0  0  0  0  0
  145.4526  135.6829  149.1819 H   0  0  0  0  0  0  0  0  0  0  0  0
  144.2884  133.1536  150.3585 H   0  0  0  0  0  0  0  0  0  0  0  0
  145.8752  133.1236  149.5931 H   0  0  0  0  0  0  0  0  0  0  0  0
  144.2923  132.4247  153.0062 H   0  0  0  0  0  0  0  0  0  0  0  0
  145.8619  131.9571  153.6271 H   0  0  0  0  0  0  0  0  0  0  0  0
  149.3485  133.2103  155.1225 H   0  0  0  0  0  0  0  0  0  0  0  0
  146.5196  138.9035  154.0927 H   0  0  0  0  0  0  0  0  0  0  0  0
  148.3458  139.2064  155.9498 H   0  0  0  0  0  0  0  0  0  0  0  0
  149.1183  137.7552  156.5126 H   0  0  0  0  0  0  0  0  0  0  0  0
  149.9221  138.6241  153.7425 H   0  0  0  0  0  0  0  0  0  0  0  0
  151.9617  138.0190  155.8399 H   0  0  0  0  0  0  0  0  0  0  0  0
  150.8227  136.7358  155.5119 H   0  0  0  0  0  0  0  0  0  0  0  0
  151.3714  137.1099  153.2520 H   0  0  0  0  0  0  0  0  0  0  0  0
  151.4191  140.3810  154.3567 H   0  0  0  0  0  0  0  0  0  0  0  0
  151.8592  139.6277  156.8964 H   0  0  0  0  0  0  0  0  0  0  0  0
  151.7887  141.3159  156.4804 H   0  0  0  0  0  0  0  0  0  0  0  0
  149.5606  139.6805  157.7147 H   0  0  0  0  0  0  0  0  0  0  0  0
  150.1195  141.2936  158.1667 H   0  0  0  0  0  0  0  0  0  0  0  0
  149.9469  142.1681  154.9084 H   0  0  0  0  0  0  0  0  0  0  0  0
  148.7528  141.0046  154.3604 H   0  0  0  0  0  0  0  0  0  0  0  0
  1  2  1  0  0  0  0
  1 30  1  0  0  0  0
  1 31  1  0  0  0  0
  2  3  2  0  0  0  0
  2  4  1  0  0  0  0
  4 28  1  0  0  0  0
  4  9  1  0  0  0  0
  4  5  1  0  0  0  0
  5  6  1  0  0  0  0
  5 32  1  0  0  0  0
  5 33  1  0  0  0  0
  6 29  1  0  0  0  0
  6  7  1  0  0  0  0
  6  8  1  0  0  0  0
  8  9  1  0  0  0  0
  8 34  1  0  0  0  0
  8 35  1  0  0  0  0
  9 10  1  0  0  0  0
 10 15  1  0  0  0  0
 10 11  2  0  0  0  0
 11 12  1  0  0  0  0
 12 13  2  0  0  0  0
 12 36  1  0  0  0  0
 13 14  1  0  0  0  0
 14 18  1  0  0  0  0
 14 15  2  0  0  0  0
 15 16  1  0  0  0  0
 16 17  2  0  0  0  0
 17 18  1  0  0  0  0
 17 37  1  0  0  0  0
 18 19  1  0  0  0  0
 19 20  1  0  0  0  0
 19 38  1  0  0  0  0
 19 39  1  0  0  0  0
 20 21  1  0  0  0  0
 20 23  1  0  0  0  0
 20 40  1  0  0  0  0
 21 22  1  0  0  0  0
 21 41  1  0  0  0  0
 21 42  1  0  0  0  0
 22 43  1  0  0  0  0
 23 27  1  0  0  0  0
 23 24  1  0  0  0  0
 23 44  1  0  0  0  0
 24 25  1  0  0  0  0
 24 45  1  0  0  0  0
 24 46  1  0  0  0  0
 25 26  1  0  0  0  0
 25 47  1  0  0  0  0
 25 48  1  0  0  0  0
 26 27  1  0  0  0  0
 27 49  1  0  0  0  0
 27 50  1  0  0  0  0
M  END
> <s_m_source_file>
AV-unprocessed.smi

> <i_m_source_file_index>
221

> <i_lp_mmshare_version>
43012

> <i_f3d_flags>
0

> <s_epik_input>
W05IMl1DKD1PKVtDQEBIXTFbQ0gyXVtDQEBIXShGKVtDSDJdTjFjKG5bY0hdbjIpYyhjMjMpbltjSF1uM1tDSDJdW0NASF0oW0NIMl1bT0hdKVtDQEBIXTRbQ0gyXVtDSDJdT1tDSDJdNA==

> <s_epik_cmdline>
J2VwaWtfcHl0aG9uJywgJy1waCcsICc3LjAnLCAnLXRuJywgJzgnLCAnLW1hJywgJzIwMCcsICctbWV0YWxfYmluZGluZycsICctaW1hZScsICc8aW5maWxlLm1hZT4nLCAnLW9tYWUnLCAnPG91dGZpbGUubWFlPic=

> <r_lp_tautomer_probability>
1

> <r_epik_Ionization_Penalty>
0.000818822

> <r_epik_Ionization_Penalty_Charging>
0

> <r_epik_Ionization_Penalty_Neutral>
0.000818822

> <r_epik_State_Penalty>
0.000440551

> <r_epik_Charging_Adjusted_Penalty>
0.000440551

> <i_epik_Tot_Q>
0

> <i_epik_Tot_abs_Q>
0

> <r_epik_Metal_State_Penalty>
-0

> <b_epik_Metal_Only>
0

> <s_lp_Force_Field>
OPLS_2005

> <r_lp_Energy>
54.2939

> <b_lp_Chiralities_Consistent>
1

> <s_lp_Variant>
AV-unprocessed.smi:221-3

> <Gold.Version>
5.8.1

> <Gold.Id.Protein>
6NUR|6NUR_protein|mol2

> <Gold.PLP.Fitness>
42.6053

> <Gold.PLP.PLP>
-33.9239

> <Gold.PLP.part.hbond>
-4.0000

> <Gold.PLP.part.metal>
0.0000

> <Gold.PLP.part.buried>
-0.1060

> <Gold.PLP.part.nonpolar>
-30.1240

> <Gold.PLP.part.repulsive>
0.7761

> <Gold.PLP.ligand.clash>
0.0000

> <Gold.PLP.ligand.torsion>
1.6958

> <Gold.PLP.Chemscore.Hbond>
3.9520

> <Gold.PLP.Chemscore.CHOScore>
0.0000

> <Gold.PLP.Chemscore.Metal>
0.0000

> <Gold.Chemscore.Hbonds>
donor molecule, donor type, donor heavy atom, donor atom, acceptor molecule, acceptor atom, score
      L1  H     1    30       P1 10171  1.00
      L1  H     1    31       P1  7921  1.00
      L1  H    22    43       P1  7949  0.72
      P1  H 10752 10765       L1    22  1.00

> <Gold.PLP.Chemscore.Internal.Correction>
0.2171

> <Gold.Rescore>
     Score         DG    S(hbond)    S(metal)    S(lipo)     H(rot)  DE(clash)    DE(int)     intcor
      9.33     -14.68       3.38        0.00      63.65       3.72       0.70       4.65       ----

> <Gold.Chemscore.Fitness>
9.3349

> <Gold.Chemscore.DG>
-14.6788

> <Gold.Chemscore.ZeroCoef>
-5.4800

> <Gold.Chemscore.Hbond>
3.3760

> <Gold.Chemscore.Metal>
0.0000

> <Gold.Chemscore.Lipo>
63.6481

> <Gold.Chemscore.Internal_Hbond>
0.0000

> <Gold.Chemscore.DEClash>
0.6978

> <Gold.Chemscore.DEInternal>
4.6461

> <Gold.Chemscore.Rot>
3.7202

> <Gold.Chemscore.Internal.Correction>
   9.000000E+99

> <Gold.Chemscore.Hbonds>
donor molecule, donor type, donor heavy atom, donor atom, acceptor molecule, acceptor atom, score
      L1  H     1    30       P1 10171  0.97
      L1  H     1    31       P1  7921  1.00
      L1  H    22    43       P1  7949  0.55
      P1  H 10752 10765       L1    22  0.21

> <Gold.Chemscore.Hbond.Weighted>
-11.2757

> <Gold.Chemscore.Metal.Weighted>
-0.0000

> <Gold.Chemscore.Lipo.Weighted>
-7.4468

> <Gold.Chemscore.Internal_Hbond.Weighted>
0.0000

> <Gold.Chemscore.DEClash.Weighted>
0.6978

> <Gold.Chemscore.DEInternal.Weighted>
4.6461

> <Gold.Chemscore.Rot.Weighted>
9.5237

> <Gold.Chemscore.Internal.Correction.Weighted>
   9.000000E+99

> <Gold.Protein.RotatedTorsions>
[ 6907 6896 6895 6894 ] final -163.50 input  -60.11 | X-H torsion
[ 7974 7965 7964 7962 ] final  -33.28 input  175.53 | X-H torsion
[ 8008 7997 7996 7995 ] final -169.86 input   59.86 | X-H torsion
[ 10167 10162 10161 10158 ] final  -39.98 input  -65.29 | X-H torsion
[ 10718 10713 10712 10709 ] final -138.93 input   66.30 | X-H torsion
[ 10763 10752 10751 10750 ] final  146.80 input  -60.55 | X-H torsion
[ 11005 11000 10999 10996 ] final -143.22 input  -57.11 | X-H torsion

> <Gold.Protein.ActiveResidues>
 VAL166  LYS551  ARG553  GLY616  TRP617  ASP618  TYR619  PRO620  LYS621  CYS622 
 ASP623  PHE694  ASN695  SER759  ASP760  ASP761  ALA762  ILE779  LEU786  VAL792 
 PHE793  MET794  SER795  GLU796  ALA797  LYS798  CYS799  TRP800  GLU811  SER814 

> <Gold.Protein.RotatedAtoms>
  151.3970  133.3770  159.2727 H   0  0  0  0  0  0  0  0  0  0  0  0  # atno 6907 bound_to 6896
  150.9462  134.8867  159.7654 H   0  0  0  0  0  0  0  0  0  0  0  0  # atno 6908 bound_to 6896
  152.5092  134.3924  159.9440 H   0  0  0  0  0  0  0  0  0  0  0  0  # atno 6909 bound_to 6896
  146.0923  140.5897  142.8859 H   0  0  0  0  0  0  0  0  0  0  0  0  # atno 7974 bound_to 7965
  155.9106  140.1057  157.1282 H   0  0  0  0  0  0  0  0  0  0  0  0  # atno 8008 bound_to 7997
  154.4039  140.1275  156.4617 H   0  0  0  0  0  0  0  0  0  0  0  0  # atno 8009 bound_to 7997
  155.7315  140.3468  155.5064 H   0  0  0  0  0  0  0  0  0  0  0  0  # atno 8010 bound_to 7997
  140.7048  143.3181  151.2859 H   0  0  0  0  0  0  0  0  0  0  0  0  # atno 10167 bound_to 10162
  156.3049  130.7449  151.1511 H   0  0  0  0  0  0  0  0  0  0  0  0  # atno 10718 bound_to 10713
  154.0278  135.2900  155.3372 H   0  0  0  0  0  0  0  0  0  0  0  0  # atno 10763 bound_to 10752
  154.7007  135.5190  153.8525 H   0  0  0  0  0  0  0  0  0  0  0  0  # atno 10764 bound_to 10752
  153.0653  135.6628  154.0493 H   0  0  0  0  0  0  0  0  0  0  0  0  # atno 10765 bound_to 10752
  140.8147  134.2703  157.4926 H   0  0  0  0  0  0  0  0  0  0  0  0  # atno 11005 bound_to 11000
  144.7369  140.4834  143.6897 LP  0  0  0  0  0  0  0  0  0  0  0  0  # atno 17320 bound_to 7965
  145.6015  139.1504  143.3126 LP  0  0  0  0  0  0  0  0  0  0  0  0  # atno 17321 bound_to 7965
  139.6626  144.0161  152.2702 LP  0  0  0  0  0  0  0  0  0  0  0  0  # atno 17342 bound_to 10162
  139.9734  144.6478  150.7968 LP  0  0  0  0  0  0  0  0  0  0  0  0  # atno 17343 bound_to 10162
  157.7377  131.0549  150.5339 LP  0  0  0  0  0  0  0  0  0  0  0  0  # atno 17370 bound_to 10713
  156.5471  130.4222  149.6125 LP  0  0  0  0  0  0  0  0  0  0  0  0  # atno 17371 bound_to 10713
  139.8712  134.9502  156.4049 LP  0  0  0  0  0  0  0  0  0  0  0  0  # atno 17394 bound_to 11000
  140.9161  133.7677  155.9850 LP  0  0  0  0  0  0  0  0  0  0  0  0  # atno 17395 bound_to 11000

$$$$
