#       Name:                AV-unprocessed.smi:389
#       Creating user name   scv26
#       Creation time:       Thu Mar 26 22:41:41 2020


#       File generated by GOLD software.
#

@<TRIPOS>MOLECULE
AV-unprocessed.smi:389
    40    40     1
SMALL
NO_CHARGES


@<TRIPOS>ATOM
      1 ****        -3.2834   0.3047  -1.4337 C.3            1 S1                 0.0000
      2 ****        -1.8680   0.6819  -1.8959 C.3            1 S1                 0.0000
      3 ****        -1.9277   1.7663  -2.9843 C.3            1 S1                 0.0000
      4 ****        -1.0923  -0.5725  -2.3585 C.3            1 S1                 0.0000
      5 ****         0.4088  -0.3536  -2.6428 C.3            1 S1                 0.0000
      6 ****         1.1145   0.2094  -1.4968 N.am           1 S1                 0.0000
      7 ****         1.4622  -0.4713  -0.3945 C.2            1 S1                 0.0000
      8 ****         1.2808  -1.6825  -0.2634 O.2            1 S1                 0.0000
      9 ****         2.1221   0.3434   0.7263 C.3            1 S1                 0.0000
     10 ****         1.7533  -0.1392   2.0652 N.am           1 S1                 0.0000
     11 ****         2.6413  -0.9079   2.8043 C.2            1 S1                 0.0000
     12 ****         2.3599  -1.3931   4.0369 C.2            1 S1                 0.0000
     13 ****         1.0699  -1.1210   4.6616 C.2            1 S1                 0.0000
     14 ****         0.7227  -1.5153   5.7727 O.2            1 S1                 0.0000
     15 ****         0.2033  -0.3459   3.8863 N.am           1 S1                 0.0000
     16 ****         0.4863   0.1569   2.6155 C.2            1 S1                 0.0000
     17 ****        -0.3522   0.8289   2.0152 O.2            1 S1                 0.0000
     18 ****        -0.7034  -0.1341   4.2769 H              1 S1                 0.0000
     19 ****        -3.8633  -0.1324  -2.2471 H              1 S1                 0.0000
     20 ****        -3.8246   1.1791  -1.0707 H              1 S1                 0.0000
     21 ****        -3.2513  -0.4201  -0.6196 H              1 S1                 0.0000
     22 ****        -1.3600   1.1065  -1.0295 H              1 S1                 0.0000
     23 ****        -2.4040   1.3919  -3.8908 H              1 S1                 0.0000
     24 ****        -0.9329   2.1222  -3.2513 H              1 S1                 0.0000
     25 ****        -2.4970   2.6315  -2.6438 H              1 S1                 0.0000
     26 ****        -1.1886  -1.3475  -1.5968 H              1 S1                 0.0000
     27 ****        -1.5657  -0.9822  -3.2514 H              1 S1                 0.0000
     28 ****         0.8739  -1.2964  -2.9349 H              1 S1                 0.0000
     29 ****         0.5397   0.3198  -3.4896 H              1 S1                 0.0000
     30 ****         1.3114   1.1994  -1.5242 H              1 S1                 0.0000
     31 ****         3.2029   0.2983   0.5854 H              1 S1                 0.0000
     32 ****         1.8606   1.3994   0.6304 H              1 S1                 0.0000
     33 ****         3.6083  -1.1388   2.3805 H              1 S1                 0.0000
     34 ****         3.0930  -1.9873   4.5629 H              1 S1                 0.0000
     35 ****         0.8551  -2.2070  -1.0008 LP             1 S1                 0.0000
     36 ****         1.5592  -2.1413   0.5804 LP             1 S1                 0.0000
     37 ****         1.3462  -2.0698   6.3238 LP             1 S1                 0.0000
     38 ****        -0.1833  -1.2816   6.1256 LP             1 S1                 0.0000
     39 ****        -0.1472   1.1867   1.1042 LP             1 S1                 0.0000
     40 ****        -1.2384   1.0171   2.4385 LP             1 S1                 0.0000
@<TRIPOS>BOND
    1    1    2 1     
    2    1   19 1     
    3    1   20 1     
    4    1   21 1     
    5    2    3 1     
    6    2    4 1     
    7    2   22 1     
    8    3   23 1     
    9    3   24 1     
   10    3   25 1     
   11    4    5 1     
   12    4   26 1     
   13    4   27 1     
   14    5    6 1     
   15    5   28 1     
   16    5   29 1     
   17    6    7 am    
   18    6   30 1     
   19    7    8 2     
   20    7    9 1     
   21    9   10 1     
   22    9   31 1     
   23    9   32 1     
   24   10   16 1     
   25   10   11 1     
   26   11   12 2     
   27   11   33 1     
   28   12   13 1     
   29   12   34 1     
   30   13   14 2     
   31   13   15 1     
   32   15   18 1     
   33   15   16 1     
   34   16   17 2     
   35    8   35 1     
   36    8   36 1     
   37   14   37 1     
   38   14   38 1     
   39   17   39 1     
   40   17   40 1     
@<TRIPOS>SUBSTRUCTURE
      1 S1             1
@<TRIPOS>SET
LONE_PAIRS      STATIC     ATOMS    <user>   **** ""
6 35 36 37 38 39 40
DONOR_HYDROGENS      STATIC     ATOMS    <user>   **** ""
2 30 18
ATOM$BLUE        STATIC     ATOMS    COLORGROUP SYSTEM
6 35 36 37 38 39 40
ATOM$RED        STATIC     ATOMS    COLORGROUP SYSTEM
2 30 18
