AV-unprocessed.smi:1209|AV-procd|sdf|5076|dock5
  -GOLD-   22720 4123D 1   1.00000     0.00000
 Structure written by MMmdl.
 49 51  0  0  0  0  0  0  0  0  2 V2000
  146.0033  144.1258  160.4717 C   0  0  0  0  0  0  0  0  0  0  0  0
  146.0662  143.4447  159.1477 C   0  0  0  0  0  0  0  0  0  0  0  0
  146.9167  142.5177  158.6155 C   0  0  0  0  0  0  0  0  0  0  0  0
  146.4041  142.3046  157.3062 C   0  0  0  0  0  0  0  0  0  0  0  0
  146.9181  141.3794  156.2374 C   0  0  0  0  0  0  0  0  0  0  0  0
  147.3204  142.1152  155.0112 N   0  3  2  0  0  0  0  0  0  0  0  0
  146.1677  142.7433  154.3178 C   0  0  0  0  0  0  0  0  0  0  0  0
  148.1493  141.2798  154.1037 C   0  0  0  0  0  0  0  0  0  0  0  0
  149.4142  140.7223  154.7945 C   0  0  1  0  0  0  0  0  0  0  0  0
  150.2042  140.0566  153.8302 O   0  0  0  0  0  0  0  0  0  0  0  0
  150.2908  141.8088  155.4483 C   0  0  0  0  0  0  0  0  0  0  0  0
  151.1327  141.2816  156.5063 N   0  0  0  0  0  0  0  0  0  0  0  0
  151.8289  140.1287  156.4891 C   0  0  0  0  0  0  0  0  0  0  0  0
  152.5289  139.8249  157.5781 N   0  0  0  0  0  0  0  0  0  0  0  0
  152.2614  140.9100  158.3952 C   0  0  0  0  0  0  0  0  0  0  0  0
  152.6993  141.2031  159.7051 C   0  0  0  0  0  0  0  0  0  0  0  0
  152.2864  142.3855  160.3600 C   0  0  0  0  0  0  0  0  0  0  0  0
  152.7828  142.6618  161.7684 C   0  0  0  0  0  0  0  0  0  0  0  0
  151.4214  143.2966  159.7028 C   0  0  0  0  0  0  0  0  0  0  0  0
  150.9602  144.5709  160.3877 C   0  0  0  0  0  0  0  0  0  0  0  0
  150.9772  143.0210  158.3932 C   0  0  0  0  0  0  0  0  0  0  0  0
  151.3938  141.8408  157.7527 C   0  0  0  0  0  0  0  0  0  0  0  0
  145.3293  143.0399  157.0740 N   0  0  0  0  0  0  0  0  0  0  0  0
  145.1067  143.7728  158.2449 O   0  0  0  0  0  0  0  0  0  0  0  0
  146.8148  143.7943  161.1200 H   0  0  0  0  0  0  0  0  0  0  0  0
  145.0600  143.9099  160.9735 H   0  0  0  0  0  0  0  0  0  0  0  0
  146.0853  145.2064  160.3544 H   0  0  0  0  0  0  0  0  0  0  0  0
  147.7737  142.0630  159.0898 H   0  0  0  0  0  0  0  0  0  0  0  0
  147.7731  140.8308  156.6354 H   0  0  0  0  0  0  0  0  0  0  0  0
  146.1672  140.6298  155.9833 H   0  0  0  0  0  0  0  0  0  0  0  0
  145.4628  141.9868  153.9704 H   0  0  0  0  0  0  0  0  0  0  0  0
  146.4873  143.3268  153.4558 H   0  0  0  0  0  0  0  0  0  0  0  0
  145.6324  143.4267  154.9769 H   0  0  0  0  0  0  0  0  0  0  0  0
  147.5687  140.4350  153.7307 H   0  0  0  0  0  0  0  0  0  0  0  0
  148.4065  141.8778  153.2290 H   0  0  0  0  0  0  0  0  0  0  0  0
  149.1411  139.9983  155.5614 H   0  0  0  0  0  0  0  0  0  0  0  0
  149.7879  140.1392  152.9853 H   0  0  0  0  0  0  0  0  0  0  0  0
  150.9340  142.2763  154.7014 H   0  0  0  0  0  0  0  0  0  0  0  0
  149.6700  142.6038  155.8638 H   0  0  0  0  0  0  0  0  0  0  0  0
  151.8153  139.4723  155.6311 H   0  0  0  0  0  0  0  0  0  0  0  0
  153.3578  140.5086  160.2059 H   0  0  0  0  0  0  0  0  0  0  0  0
  153.3773  143.5753  161.7899 H   0  0  0  0  0  0  0  0  0  0  0  0
  153.4066  141.8476  162.1385 H   0  0  0  0  0  0  0  0  0  0  0  0
  151.9441  142.7777  162.4550 H   0  0  0  0  0  0  0  0  0  0  0  0
  150.3048  145.1552  159.7412 H   0  0  0  0  0  0  0  0  0  0  0  0
  151.8148  145.1950  160.6499 H   0  0  0  0  0  0  0  0  0  0  0  0
  150.4086  144.3370  161.2984 H   0  0  0  0  0  0  0  0  0  0  0  0
  150.3183  143.7072  157.8823 H   0  0  0  0  0  0  0  0  0  0  0  0
  147.9218  142.8639  155.3260 H   0  0  0  0  0  0  0  0  0  0  0  0
  1  2  1  0  0  0  0
  1 25  1  0  0  0  0
  1 26  1  0  0  0  0
  1 27  1  0  0  0  0
  2 24  1  0  0  0  0
  2  3  2  0  0  0  0
  3  4  1  0  0  0  0
  3 28  1  0  0  0  0
  4  5  1  0  0  0  0
  4 23  2  0  0  0  0
  5  6  1  0  0  0  0
  5 29  1  0  0  0  0
  5 30  1  0  0  0  0
  6  7  1  0  0  0  0
  6  8  1  0  0  0  0
  6 49  1  0  0  0  0
  7 31  1  0  0  0  0
  7 32  1  0  0  0  0
  7 33  1  0  0  0  0
  8  9  1  0  0  0  0
  8 34  1  0  0  0  0
  8 35  1  0  0  0  0
  9 10  1  0  0  0  0
  9 11  1  0  0  0  0
  9 36  1  0  0  0  0
 10 37  1  0  0  0  0
 11 12  1  0  0  0  0
 11 38  1  0  0  0  0
 11 39  1  0  0  0  0
 12 22  1  0  0  0  0
 12 13  1  0  0  0  0
 13 14  2  0  0  0  0
 13 40  1  0  0  0  0
 14 15  1  0  0  0  0
 15 22  2  0  0  0  0
 15 16  1  0  0  0  0
 16 17  2  0  0  0  0
 16 41  1  0  0  0  0
 17 18  1  0  0  0  0
 17 19  1  0  0  0  0
 18 42  1  0  0  0  0
 18 43  1  0  0  0  0
 18 44  1  0  0  0  0
 19 20  1  0  0  0  0
 19 21  2  0  0  0  0
 20 45  1  0  0  0  0
 20 46  1  0  0  0  0
 20 47  1  0  0  0  0
 21 22  1  0  0  0  0
 21 48  1  0  0  0  0
 23 24  1  0  0  0  0
M  CHG  1   6   1
M  END
> <s_m_source_file>
AV-unprocessed.smi

> <i_m_source_file_index>
1209

> <i_lp_mmshare_version>
43012

> <i_f3d_flags>
0

> <s_epik_input>
W0NIM11jMVtjSF1jKG5vMSlbQ0gyXU4oW0NIM10pW0NIMl1bQ0BIXShbT0hdKVtDSDJdbihbY0hdbjIpYyhjMjMpW2NIXWMoW0NIM10pYyhbY0hdMylbQ0gzXQ==

> <s_epik_cmdline>
J2VwaWtfcHl0aG9uJywgJy1waCcsICc3LjAnLCAnLXRuJywgJzgnLCAnLW1hJywgJzIwMCcsICctbWV0YWxfYmluZGluZycsICctaW1hZScsICc8aW5maWxlLm1hZT4nLCAnLW9tYWUnLCAnPG91dGZpbGUubWFlPic=

> <r_epik_Ionization_Penalty>
2.05249

> <r_epik_Ionization_Penalty_Charging>
1.96618

> <r_epik_Ionization_Penalty_Neutral>
0.0863156

> <r_epik_State_Penalty>
2.19215

> <r_epik_Charging_Adjusted_Penalty>
4.15833

> <i_epik_Tot_Q>
1

> <i_epik_Tot_abs_Q>
1

> <r_epik_Metal_State_Penalty>
2.17654

> <b_epik_Metal_Only>
0

> <s_lp_Force_Field>
OPLS_2005

> <r_lp_Energy>
8.03996

> <b_lp_Chiralities_Consistent>
1

> <s_lp_Variant>
AV-unprocessed.smi:1209-8

> <Gold.Version>
5.8.1

> <Gold.Id.Protein>
6NUR|6NUR_protein|mol2

> <Gold.PLP.Fitness>
62.1667

> <Gold.PLP.PLP>
-48.7149

> <Gold.PLP.part.hbond>
-4.0000

> <Gold.PLP.part.metal>
0.0000

> <Gold.PLP.part.buried>
-6.3022

> <Gold.PLP.part.nonpolar>
-37.6623

> <Gold.PLP.part.repulsive>
0.3599

> <Gold.PLP.ligand.clash>
0.0000

> <Gold.PLP.ligand.torsion>
0.5674

> <Gold.PLP.Chemscore.Hbond>
4.8320

> <Gold.PLP.Chemscore.CHOScore>
0.0000

> <Gold.PLP.Chemscore.Metal>
0.0000

> <Gold.Chemscore.Hbonds>
donor molecule, donor type, donor heavy atom, donor atom, acceptor molecule, acceptor atom, score
      L1  H     6    49       P1  8028  1.69
      L1  H    10    37       P1  7957  1.00
      P1  H  7989  7998       L1    10  0.79
      P1  H  7997  8008       L1    14  0.72

> <Gold.PLP.Chemscore.Internal.Correction>
0.0906

> <Gold.Rescore>
     Score         DG    S(hbond)    S(metal)    S(lipo)     H(rot)  DE(clash)    DE(int)     intcor
     18.26     -20.65       2.35        0.00     118.01       2.53       0.54       1.85       ----

> <Gold.Chemscore.Fitness>
18.2580

> <Gold.Chemscore.DG>
-20.6454

> <Gold.Chemscore.ZeroCoef>
-5.4800

> <Gold.Chemscore.Hbond>
2.3483

> <Gold.Chemscore.Metal>
0.0000

> <Gold.Chemscore.Lipo>
118.0088

> <Gold.Chemscore.Internal_Hbond>
0.0000

> <Gold.Chemscore.DEClash>
0.5402

> <Gold.Chemscore.DEInternal>
1.8471

> <Gold.Chemscore.Rot>
2.5332

> <Gold.Chemscore.Internal.Correction>
   9.000000E+99

> <Gold.Chemscore.Hbonds>
donor molecule, donor type, donor heavy atom, donor atom, acceptor molecule, acceptor atom, score
      L1  H     6    49       P1  8028  0.70
      L1  H    10    37       P1  7957  0.99
      P1  H  7989  7998       L1    10  0.13
      P1  H  7997  8008       L1    14  0.07

> <Gold.Chemscore.Hbond.Weighted>
-7.8434

> <Gold.Chemscore.Metal.Weighted>
-0.0000

> <Gold.Chemscore.Lipo.Weighted>
-13.8070

> <Gold.Chemscore.Internal_Hbond.Weighted>
0.0000

> <Gold.Chemscore.DEClash.Weighted>
0.5402

> <Gold.Chemscore.DEInternal.Weighted>
1.8471

> <Gold.Chemscore.Rot.Weighted>
6.4851

> <Gold.Chemscore.Internal.Correction.Weighted>
   9.000000E+99

> <Gold.Protein.RotatedTorsions>
[ 6907 6896 6895 6894 ] final  -24.35 input  -60.11 | X-H torsion
[ 7974 7965 7964 7962 ] final  147.84 input  175.53 | X-H torsion
[ 8008 7997 7996 7995 ] final  -64.62 input   59.86 | X-H torsion
[ 10167 10162 10161 10158 ] final -135.39 input  -65.29 | X-H torsion
[ 10718 10713 10712 10709 ] final  -65.29 input   66.30 | X-H torsion
[ 10763 10752 10751 10750 ] final   74.75 input  -60.55 | X-H torsion
[ 11005 11000 10999 10996 ] final -139.70 input  -57.11 | X-H torsion

> <Gold.Protein.ActiveResidues>
 VAL166  LYS551  ARG553  GLY616  TRP617  ASP618  TYR619  PRO620  LYS621  CYS622 
 ASP623  PHE694  ASN695  SER759  ASP760  ASP761  ALA762  ILE779  LEU786  VAL792 
 PHE793  MET794  SER795  GLU796  ALA797  LYS798  CYS799  TRP800  GLU811  SER814 

> <Gold.Protein.RotatedAtoms>
  151.1908  135.0401  159.8831 H   0  0  0  0  0  0  0  0  0  0  0  0  # atno 6907 bound_to 6896
  152.5439  134.0958  159.8306 H   0  0  0  0  0  0  0  0  0  0  0  0  # atno 6908 bound_to 6896
  151.1086  133.5142  159.2639 H   0  0  0  0  0  0  0  0  0  0  0  0  # atno 6909 bound_to 6896
  144.8560  139.6079  143.5952 H   0  0  0  0  0  0  0  0  0  0  0  0  # atno 7974 bound_to 7965
  154.4622  140.0950  156.6924 H   0  0  0  0  0  0  0  0  0  0  0  0  # atno 8008 bound_to 7997
  155.4960  140.3472  155.4344 H   0  0  0  0  0  0  0  0  0  0  0  0  # atno 8009 bound_to 7997
  156.0892  140.1393  156.9603 H   0  0  0  0  0  0  0  0  0  0  0  0  # atno 8010 bound_to 7997
  139.8784  143.6870  152.2630 H   0  0  0  0  0  0  0  0  0  0  0  0  # atno 10167 bound_to 10162
  156.0678  130.4245  150.1543 H   0  0  0  0  0  0  0  0  0  0  0  0  # atno 10718 bound_to 10713
  153.0608  135.5014  154.8088 H   0  0  0  0  0  0  0  0  0  0  0  0  # atno 10763 bound_to 10752
  154.6879  135.2979  154.9523 H   0  0  0  0  0  0  0  0  0  0  0  0  # atno 10764 bound_to 10752
  154.0288  135.6732  153.4831 H   0  0  0  0  0  0  0  0  0  0  0  0  # atno 10765 bound_to 10752
  140.8494  134.2304  157.4768 H   0  0  0  0  0  0  0  0  0  0  0  0  # atno 11005 bound_to 11000
  146.2823  139.6910  142.9220 LP  0  0  0  0  0  0  0  0  0  0  0  0  # atno 17320 bound_to 7965
  145.4406  141.0422  143.2860 LP  0  0  0  0  0  0  0  0  0  0  0  0  # atno 17321 bound_to 7965
  139.7219  144.7601  151.0941 LP  0  0  0  0  0  0  0  0  0  0  0  0  # atno 17342 bound_to 10162
  140.7749  143.5197  150.9552 LP  0  0  0  0  0  0  0  0  0  0  0  0  # atno 17343 bound_to 10162
  156.9600  130.9802  151.3481 LP  0  0  0  0  0  0  0  0  0  0  0  0  # atno 17370 bound_to 10713
  157.5730  130.8324  149.8418 LP  0  0  0  0  0  0  0  0  0  0  0  0  # atno 17371 bound_to 10713
  139.8704  134.9676  156.4601 LP  0  0  0  0  0  0  0  0  0  0  0  0  # atno 17394 bound_to 11000
  140.8807  133.7920  155.9463 LP  0  0  0  0  0  0  0  0  0  0  0  0  # atno 17395 bound_to 11000

$$$$
