AV-unprocessed.smi:99|AV-procd|sdf|887|dock2
  -GOLD-   2262017373D 1   1.00000     0.00000
 Structure written by MMmdl.
 52 55  0  0  0  0  0  0  0  0  2 V2000
  149.1209  132.7351  159.4450 O   0  0  0  0  0  0  0  0  0  0  0  0
  148.2081  133.5176  159.1719 C   0  0  0  0  0  0  0  0  0  0  0  0
  147.5861  133.5488  157.9778 O   0  0  0  0  0  0  0  0  0  0  0  0
  148.2105  132.9813  156.8384 C   0  0  0  0  0  0  0  0  0  0  0  0
  148.0609  133.9374  155.6513 C   0  0  2  0  0  0  0  0  0  0  0  0
  147.9010  135.2685  156.1110 O   0  0  0  0  0  0  0  0  0  0  0  0
  147.3054  136.0197  155.1006 C   0  0  2  0  0  0  0  0  0  0  0  0
  146.4508  137.0918  155.7410 N   0  0  0  0  0  0  0  0  0  0  0  0
  146.2168  137.0776  157.1055 C   0  0  0  0  0  0  0  0  0  0  0  0
  145.4535  138.0201  157.6961 C   0  0  0  0  0  0  0  0  0  0  0  0
  144.8590  139.0753  156.8802 C   0  0  0  0  0  0  0  0  0  0  0  0
  144.1747  139.9378  157.4281 O   0  0  0  0  0  0  0  0  0  0  0  0
  145.0907  139.0555  155.5354 N   0  5  0  0  0  0  0  0  0  0  0  0
  145.8557  138.0982  154.9333 C   0  0  0  0  0  0  0  0  0  0  0  0
  146.0515  138.0586  153.7181 O   0  0  0  0  0  0  0  0  0  0  0  0
  146.5065  135.0480  154.2021 C   0  0  2  0  0  0  0  0  0  0  0  0
  145.1111  135.2876  154.1601 O   0  0  0  0  0  0  0  0  0  0  0  0
  146.7908  133.6894  154.8374 C   0  0  1  0  0  0  0  0  0  0  0  0
  147.0545  132.6987  153.8509 O   0  0  0  0  0  0  0  0  0  0  0  0
  146.0464  131.9979  153.2897 C   0  0  0  0  0  0  0  0  0  0  0  0
  144.9076  132.4429  153.1344 O   0  0  0  0  0  0  0  0  0  0  0  0
  146.4561  130.6259  152.8730 C   0  0  0  0  0  0  0  0  0  0  0  0
  145.4649  129.6353  152.6808 C   0  0  0  0  0  0  0  0  0  0  0  0
  145.8211  128.3302  152.2894 C   0  0  0  0  0  0  0  0  0  0  0  0
  147.1734  127.9991  152.0865 C   0  0  0  0  0  0  0  0  0  0  0  0
  148.1692  128.9752  152.2749 C   0  0  0  0  0  0  0  0  0  0  0  0
  147.8148  130.2815  152.6652 C   0  0  0  0  0  0  0  0  0  0  0  0
  147.6784  134.5310  160.1294 C   0  0  0  0  0  0  0  0  0  0  0  0
  146.7539  135.4993  159.6724 C   0  0  0  0  0  0  0  0  0  0  0  0
  146.2354  136.4681  160.5534 C   0  0  0  0  0  0  0  0  0  0  0  0
  146.6358  136.4810  161.9022 C   0  0  0  0  0  0  0  0  0  0  0  0
  147.5559  135.5243  162.3688 C   0  0  0  0  0  0  0  0  0  0  0  0
  148.0749  134.5540  161.4895 C   0  0  0  0  0  0  0  0  0  0  0  0
  149.2681  132.8281  157.0581 H   0  0  0  0  0  0  0  0  0  0  0  0
  147.7781  132.0078  156.6020 H   0  0  0  0  0  0  0  0  0  0  0  0
  148.9362  133.8928  154.9998 H   0  0  0  0  0  0  0  0  0  0  0  0
  148.1053  136.5299  154.5617 H   0  0  0  0  0  0  0  0  0  0  0  0
  146.6441  136.2953  157.7150 H   0  0  0  0  0  0  0  0  0  0  0  0
  145.2790  137.9927  158.7616 H   0  0  0  0  0  0  0  0  0  0  0  0
  146.9190  135.1116  153.1941 H   0  0  0  0  0  0  0  0  0  0  0  0
  144.7813  135.0001  153.3224 H   0  0  0  0  0  0  0  0  0  0  0  0
  145.9837  133.4009  155.5136 H   0  0  0  0  0  0  0  0  0  0  0  0
  144.4198  129.8653  152.8313 H   0  0  0  0  0  0  0  0  0  0  0  0
  145.0551  127.5823  152.1454 H   0  0  0  0  0  0  0  0  0  0  0  0
  147.4466  126.9979  151.7871 H   0  0  0  0  0  0  0  0  0  0  0  0
  149.2077  128.7218  152.1204 H   0  0  0  0  0  0  0  0  0  0  0  0
  148.6042  131.0060  152.8022 H   0  0  0  0  0  0  0  0  0  0  0  0
  146.4316  135.5091  158.6409 H   0  0  0  0  0  0  0  0  0  0  0  0
  145.5295  137.2019  160.1932 H   0  0  0  0  0  0  0  0  0  0  0  0
  146.2381  137.2237  162.5778 H   0  0  0  0  0  0  0  0  0  0  0  0
  147.8653  135.5338  163.4035 H   0  0  0  0  0  0  0  0  0  0  0  0
  148.7796  133.8347  161.8806 H   0  0  0  0  0  0  0  0  0  0  0  0
  1  2  2  0  0  0  0
  2  3  1  0  0  0  0
  2 28  1  0  0  0  0
  3  4  1  0  0  0  0
  4  5  1  0  0  0  0
  4 34  1  0  0  0  0
  4 35  1  0  0  0  0
  5 18  1  0  0  0  0
  5  6  1  0  0  0  0
  5 36  1  0  0  0  0
  6  7  1  0  0  0  0
  7  8  1  0  0  0  0
  7 16  1  0  0  0  0
  7 37  1  0  0  0  0
  8 14  1  0  0  0  0
  8  9  1  0  0  0  0
  9 10  2  0  0  0  0
  9 38  1  0  0  0  0
 10 11  1  0  0  0  0
 10 39  1  0  0  0  0
 11 12  2  0  0  0  0
 11 13  1  0  0  0  0
 13 14  1  0  0  0  0
 14 15  2  0  0  0  0
 16 17  1  0  0  0  0
 16 18  1  0  0  0  0
 16 40  1  0  0  0  0
 17 41  1  0  0  0  0
 18 19  1  0  0  0  0
 18 42  1  0  0  0  0
 19 20  1  0  0  0  0
 20 21  2  0  0  0  0
 20 22  1  0  0  0  0
 22 27  1  0  0  0  0
 22 23  2  0  0  0  0
 23 24  1  0  0  0  0
 23 43  1  0  0  0  0
 24 25  2  0  0  0  0
 24 44  1  0  0  0  0
 25 26  1  0  0  0  0
 25 45  1  0  0  0  0
 26 27  2  0  0  0  0
 26 46  1  0  0  0  0
 27 47  1  0  0  0  0
 28 33  1  0  0  0  0
 28 29  2  0  0  0  0
 29 30  1  0  0  0  0
 29 48  1  0  0  0  0
 30 31  2  0  0  0  0
 30 49  1  0  0  0  0
 31 32  1  0  0  0  0
 31 50  1  0  0  0  0
 32 33  2  0  0  0  0
 32 51  1  0  0  0  0
 33 52  1  0  0  0  0
M  CHG  1  13  -1
M  END
> <s_m_source_file>
AV-unprocessed.smi

> <i_m_source_file_index>
99

> <i_lp_mmshare_version>
43012

> <i_f3d_flags>
0

> <s_epik_input>
W2NIXTFbY0hdW2NIXVtjSF1bY0hdYzFDKD1PKU9bQ0gyXVtDQEBIXTJPW0NAQEhdKG4zW2NIXVtjSF1jKD1PKVtuSF1jMz1PKVtDQEBIXShbT0hdKVtDQEhdMk9DKD1PKWM0W2NIXVtjSF1bY0hdW2NIXVtjSF00

> <s_epik_cmdline>
J2VwaWtfcHl0aG9uJywgJy1waCcsICc3LjAnLCAnLXRuJywgJzgnLCAnLW1hJywgJzIwMCcsICctbWV0YWxfYmluZGluZycsICctaW1hZScsICc8aW5maWxlLm1hZT4nLCAnLW9tYWUnLCAnPG91dGZpbGUubWFlPic=

> <r_lp_tautomer_probability>
1

> <r_epik_Ionization_Penalty>
2.89159

> <r_epik_Ionization_Penalty_Charging>
2.1077e-08

> <r_epik_Ionization_Penalty_Neutral>
2.89159

> <r_epik_State_Penalty>
2.88671

> <r_epik_Charging_Adjusted_Penalty>
2.88671

> <i_epik_Tot_Q>
-1

> <i_epik_Tot_abs_Q>
1

> <r_epik_Metal_State_Penalty>
0.0727308

> <b_epik_Metal_Only>
1

> <s_epik_Chemistry_Notes>
This compound has an ester and may undergo hydrolysis at high or low pH. This compound contains an acetal/aminal-like group ( X-CH(R)-Y where X, Y are N, S, or O) that may be acid/base labile, releasing an aldehyde.

> <s_lp_Force_Field>
OPLS_2005

> <r_lp_Energy>
47.3257

> <b_lp_Chiralities_Consistent>
1

> <s_lp_Variant>
AV-unprocessed.smi:99-23

> <Gold.Version>
5.8.1

> <Gold.Id.Protein>
6NUR|6NUR_protein|mol2

> <Gold.PLP.Fitness>
55.3710

> <Gold.PLP.PLP>
-49.5421

> <Gold.PLP.part.hbond>
-3.0000

> <Gold.PLP.part.metal>
0.0000

> <Gold.PLP.part.buried>
-6.9174

> <Gold.PLP.part.nonpolar>
-40.5544

> <Gold.PLP.part.repulsive>
0.2955

> <Gold.PLP.ligand.clash>
0.0000

> <Gold.PLP.ligand.torsion>
2.0038

> <Gold.PLP.Chemscore.Hbond>
3.0000

> <Gold.PLP.Chemscore.CHOScore>
0.0000

> <Gold.PLP.Chemscore.Metal>
0.0000

> <Gold.Chemscore.Hbonds>
donor molecule, donor type, donor heavy atom, donor atom, acceptor molecule, acceptor atom, score
      P1  H  6896  6909       L1     1  0.69

> <Gold.PLP.Chemscore.Internal.Correction>
0.8365

> <Gold.Rescore>
     Score         DG    S(hbond)    S(metal)    S(lipo)     H(rot)  DE(clash)    DE(int)     intcor
     16.25     -18.53       2.68        0.00     103.69       3.13       0.00       2.28       ----

> <Gold.Chemscore.Fitness>
16.2509

> <Gold.Chemscore.DG>
-18.5334

> <Gold.Chemscore.ZeroCoef>
-5.4800

> <Gold.Chemscore.Hbond>
2.6784

> <Gold.Chemscore.Metal>
0.0000

> <Gold.Chemscore.Lipo>
103.6920

> <Gold.Chemscore.Internal_Hbond>
0.0000

> <Gold.Chemscore.DEClash>
0.0044

> <Gold.Chemscore.DEInternal>
2.2780

> <Gold.Chemscore.Rot>
3.1346

> <Gold.Chemscore.Internal.Correction>
   9.000000E+99

> <Gold.Chemscore.Hbonds>
donor molecule, donor type, donor heavy atom, donor atom, acceptor molecule, acceptor atom, score
      P1  H  6896  6909       L1     1  0.45

> <Gold.Chemscore.Hbond.Weighted>
-8.9460

> <Gold.Chemscore.Metal.Weighted>
-0.0000

> <Gold.Chemscore.Lipo.Weighted>
-12.1320

> <Gold.Chemscore.Internal_Hbond.Weighted>
0.0000

> <Gold.Chemscore.DEClash.Weighted>
0.0044

> <Gold.Chemscore.DEInternal.Weighted>
2.2780

> <Gold.Chemscore.Rot.Weighted>
8.0246

> <Gold.Chemscore.Internal.Correction.Weighted>
   9.000000E+99

> <Gold.Protein.RotatedTorsions>
[ 6907 6896 6895 6894 ] final   -4.10 input  -60.11 | X-H torsion
[ 7974 7965 7964 7962 ] final  -28.26 input  175.53 | X-H torsion
[ 8008 7997 7996 7995 ] final  -51.95 input   59.86 | X-H torsion
[ 10167 10162 10161 10158 ] final  -44.27 input  -65.29 | X-H torsion
[ 10718 10713 10712 10709 ] final -172.59 input   66.30 | X-H torsion
[ 10763 10752 10751 10750 ] final -173.31 input  -60.55 | X-H torsion
[ 11005 11000 10999 10996 ] final  103.30 input  -57.11 | X-H torsion

> <Gold.Protein.ActiveResidues>
 VAL166  LYS551  ARG553  GLY616  TRP617  ASP618  TYR619  PRO620  LYS621  CYS622 
 ASP623  PHE694  ASN695  SER759  ASP760  ASP761  ALA762  ILE779  LEU786  VAL792 
 PHE793  MET794  SER795  GLU796  ALA797  LYS798  CYS799  TRP800  GLU811  SER814 

> <Gold.Protein.RotatedAtoms>
  151.5032  135.1062  159.9834 H   0  0  0  0  0  0  0  0  0  0  0  0  # atno 6907 bound_to 6896
  152.4693  133.7989  159.6953 H   0  0  0  0  0  0  0  0  0  0  0  0  # atno 6908 bound_to 6896
  150.8693  133.7465  159.2992 H   0  0  0  0  0  0  0  0  0  0  0  0  # atno 6909 bound_to 6896
  146.1300  140.5260  142.8697 H   0  0  0  0  0  0  0  0  0  0  0  0  # atno 7974 bound_to 7965
  154.4095  140.1235  156.4913 H   0  0  0  0  0  0  0  0  0  0  0  0  # atno 8008 bound_to 7997
  155.6987  140.3495  155.4904 H   0  0  0  0  0  0  0  0  0  0  0  0  # atno 8009 bound_to 7997
  155.9404  140.1086  157.1050 H   0  0  0  0  0  0  0  0  0  0  0  0  # atno 8010 bound_to 7997
  140.6903  143.2939  151.3471 H   0  0  0  0  0  0  0  0  0  0  0  0  # atno 10167 bound_to 10162
  156.7578  130.9402  151.3117 H   0  0  0  0  0  0  0  0  0  0  0  0  # atno 10718 bound_to 10713
  154.6094  135.2863  155.0449 H   0  0  0  0  0  0  0  0  0  0  0  0  # atno 10763 bound_to 10752
  154.1685  135.6476  153.5007 H   0  0  0  0  0  0  0  0  0  0  0  0  # atno 10764 bound_to 10752
  153.0189  135.5395  154.6842 H   0  0  0  0  0  0  0  0  0  0  0  0  # atno 10765 bound_to 10752
  139.8783  134.9258  156.5189 H   0  0  0  0  0  0  0  0  0  0  0  0  # atno 11005 bound_to 11000
  144.7681  140.5576  143.6689 LP  0  0  0  0  0  0  0  0  0  0  0  0  # atno 17320 bound_to 7965
  145.5281  139.1475  143.3515 LP  0  0  0  0  0  0  0  0  0  0  0  0  # atno 17321 bound_to 7965
  139.6300  144.0740  152.2467 LP  0  0  0  0  0  0  0  0  0  0  0  0  # atno 17342 bound_to 10162
  140.0212  144.6152  150.7565 LP  0  0  0  0  0  0  0  0  0  0  0  0  # atno 17343 bound_to 10162
  157.6748  130.9084  150.0125 LP  0  0  0  0  0  0  0  0  0  0  0  0  # atno 17370 bound_to 10713
  156.1359  130.3642  149.9658 LP  0  0  0  0  0  0  0  0  0  0  0  0  # atno 17371 bound_to 10713
  140.8465  133.8164  155.9126 LP  0  0  0  0  0  0  0  0  0  0  0  0  # atno 17394 bound_to 11000
  140.9186  134.2170  157.4941 LP  0  0  0  0  0  0  0  0  0  0  0  0  # atno 17395 bound_to 11000

$$$$
