AV-unprocessed.smi:305|AV-procd|sdf|2280|dock4
  -GOLD-   2262022173D 1   1.00000     0.00000
 Structure written by MMmdl.
 47 49  0  0  0  0  0  0  0  0  1 V2000
  150.1705  133.3271  155.2062 C   0  0  0  0  0  0  0  0  0  0  0  0
  148.8124  134.0072  155.0201 C   0  0  0  0  0  0  0  0  0  0  0  0
  148.4608  134.6707  156.2223 O   0  0  0  0  0  0  0  0  0  0  0  0
  147.1819  135.2777  156.1560 C   0  0  0  0  0  0  0  0  0  0  0  0
  147.0250  136.2338  157.3453 C   0  0  0  0  0  0  0  0  0  0  0  0
  148.2617  136.9535  157.6273 N   0  0  0  0  0  0  0  0  0  0  0  0
  148.9166  137.0646  158.8117 C   0  0  0  0  0  0  0  0  0  0  0  0
  148.4254  136.4531  159.9851 N   0  0  0  0  0  0  0  0  0  0  0  0
  148.2194  137.1893  161.0968 N   0  0  0  0  0  0  0  0  0  0  0  0
  147.7714  136.3307  161.9968 C   0  0  0  0  0  0  0  0  0  0  0  0
  147.4217  136.8215  163.3724 C   0  0  0  0  0  0  0  0  0  0  0  0
  147.6906  135.0025  161.4862 C   0  0  0  0  0  0  0  0  0  0  0  0
  147.2333  133.7663  162.2103 C   0  0  0  0  0  0  0  0  0  0  0  0
  148.1206  135.1205  160.1922 C   0  0  0  0  0  0  0  0  0  0  0  0
  148.2670  134.0878  159.1208 C   0  0  0  0  0  0  0  0  0  0  0  0
  150.0475  137.7749  158.7653 N   0  0  0  0  0  0  0  0  0  0  0  0
  150.1111  138.1629  157.4341 C   0  0  0  0  0  0  0  0  0  0  0  0
  149.0495  137.6818  156.7374 C   0  0  0  0  0  0  0  0  0  0  0  0
  148.8607  137.9405  155.3051 C   0  0  0  0  0  0  0  0  0  0  0  0
  147.9049  137.5145  154.6605 O   0  0  0  0  0  0  0  0  0  0  0  0
  149.8466  138.7003  154.7690 N   0  0  0  0  0  0  0  0  0  0  0  0
  150.9394  139.2175  155.4101 C   0  0  0  0  0  0  0  0  0  0  0  0
  151.7536  139.8979  154.7859 O   0  0  0  0  0  0  0  0  0  0  0  0
  151.0807  138.9488  156.7480 N   0  0  0  0  0  0  0  0  0  0  0  0
  152.2315  139.4766  157.4827 C   0  0  0  0  0  0  0  0  0  0  0  0
  149.7648  138.9104  153.7850 H   0  0  0  0  0  0  0  0  0  0  0  0
  150.4732  132.8071  154.2970 H   0  0  0  0  0  0  0  0  0  0  0  0
  150.1344  132.5957  156.0139 H   0  0  0  0  0  0  0  0  0  0  0  0
  150.9436  134.0567  155.4475 H   0  0  0  0  0  0  0  0  0  0  0  0
  148.8640  134.7219  154.1974 H   0  0  0  0  0  0  0  0  0  0  0  0
  148.0564  133.2631  154.7656 H   0  0  0  0  0  0  0  0  0  0  0  0
  147.0754  135.8209  155.2161 H   0  0  0  0  0  0  0  0  0  0  0  0
  146.4054  134.5121  156.1806 H   0  0  0  0  0  0  0  0  0  0  0  0
  146.2263  136.9497  157.1498 H   0  0  0  0  0  0  0  0  0  0  0  0
  146.7205  135.6886  158.2384 H   0  0  0  0  0  0  0  0  0  0  0  0
  146.4249  136.4892  163.6624 H   0  0  0  0  0  0  0  0  0  0  0  0
  147.4351  137.9107  163.4296 H   0  0  0  0  0  0  0  0  0  0  0  0
  148.1266  136.4415  164.1119 H   0  0  0  0  0  0  0  0  0  0  0  0
  147.8691  132.9090  161.9882 H   0  0  0  0  0  0  0  0  0  0  0  0
  146.2154  133.4931  161.9317 H   0  0  0  0  0  0  0  0  0  0  0  0
  147.2461  133.8982  163.2922 H   0  0  0  0  0  0  0  0  0  0  0  0
  147.7758  133.1564  159.4018 H   0  0  0  0  0  0  0  0  0  0  0  0
  149.3191  133.8706  158.9360 H   0  0  0  0  0  0  0  0  0  0  0  0
  147.8221  134.4286  158.1859 H   0  0  0  0  0  0  0  0  0  0  0  0
  153.1645  139.1673  157.0098 H   0  0  0  0  0  0  0  0  0  0  0  0
  152.2642  139.1310  158.5159 H   0  0  0  0  0  0  0  0  0  0  0  0
  152.2033  140.5670  157.5013 H   0  0  0  0  0  0  0  0  0  0  0  0
  1  2  1  0  0  0  0
  1 27  1  0  0  0  0
  1 28  1  0  0  0  0
  1 29  1  0  0  0  0
  2  3  1  0  0  0  0
  2 30  1  0  0  0  0
  2 31  1  0  0  0  0
  3  4  1  0  0  0  0
  4  5  1  0  0  0  0
  4 32  1  0  0  0  0
  4 33  1  0  0  0  0
  5  6  1  0  0  0  0
  5 34  1  0  0  0  0
  5 35  1  0  0  0  0
  6 18  1  0  0  0  0
  6  7  1  0  0  0  0
  7  8  1  0  0  0  0
  7 16  2  0  0  0  0
  8 14  1  0  0  0  0
  8  9  1  0  0  0  0
  9 10  2  0  0  0  0
 10 11  1  0  0  0  0
 10 12  1  0  0  0  0
 11 36  1  0  0  0  0
 11 37  1  0  0  0  0
 11 38  1  0  0  0  0
 12 13  1  0  0  0  0
 12 14  2  0  0  0  0
 13 39  1  0  0  0  0
 13 40  1  0  0  0  0
 13 41  1  0  0  0  0
 14 15  1  0  0  0  0
 15 42  1  0  0  0  0
 15 43  1  0  0  0  0
 15 44  1  0  0  0  0
 16 17  1  0  0  0  0
 17 24  1  0  0  0  0
 17 18  2  0  0  0  0
 18 19  1  0  0  0  0
 19 20  2  0  0  0  0
 19 21  1  0  0  0  0
 21 26  1  0  0  0  0
 21 22  1  0  0  0  0
 22 23  2  0  0  0  0
 22 24  1  0  0  0  0
 24 25  1  0  0  0  0
 25 45  1  0  0  0  0
 25 46  1  0  0  0  0
 25 47  1  0  0  0  0
M  END
> <s_m_source_file>
AV-unprocessed.smi

> <i_m_source_file_index>
305

> <i_lp_mmshare_version>
43012

> <i_f3d_flags>
0

> <s_epik_input>
W0NIM11uMWMoPU8pW25IXWMoPU8pYyhjMTIpbihbQ0gyXVtDSDJdT1tDSDJdW0NIM10pYyhuMiktbjNuYyhbQ0gzXSljKFtDSDNdKWMzW0NIM10=

> <s_epik_cmdline>
J2VwaWtfcHl0aG9uJywgJy1waCcsICc3LjAnLCAnLXRuJywgJzgnLCAnLW1hJywgJzIwMCcsICctbWV0YWxfYmluZGluZycsICctaW1hZScsICc8aW5maWxlLm1hZT4nLCAnLW9tYWUnLCAnPG91dGZpbGUubWFlPic=

> <r_lp_tautomer_probability>
1

> <r_epik_Ionization_Penalty>
0.00243297

> <r_epik_Ionization_Penalty_Charging>
0.000715499

> <r_epik_Ionization_Penalty_Neutral>
0.00171747

> <r_epik_State_Penalty>
-0

> <r_epik_Charging_Adjusted_Penalty>
0.000715499

> <i_epik_Tot_Q>
0

> <i_epik_Tot_abs_Q>
0

> <r_epik_Metal_State_Penalty>
0.258225

> <b_epik_Metal_Only>
0

> <s_lp_Force_Field>
OPLS_2005

> <r_lp_Energy>
25.4323

> <b_lp_Chiralities_Consistent>
1

> <s_lp_Variant>
AV-unprocessed.smi:305-1

> <Gold.Version>
5.8.1

> <Gold.Id.Protein>
6NUR|6NUR_protein|mol2

> <Gold.PLP.Fitness>
37.7298

> <Gold.PLP.PLP>
-32.0125

> <Gold.PLP.part.hbond>
-2.9054

> <Gold.PLP.part.metal>
0.0000

> <Gold.PLP.part.buried>
-4.9710

> <Gold.PLP.part.nonpolar>
-24.7599

> <Gold.PLP.part.repulsive>
0.2444

> <Gold.PLP.ligand.clash>
0.0000

> <Gold.PLP.ligand.torsion>
1.2279

> <Gold.PLP.Chemscore.Hbond>
2.5616

> <Gold.PLP.Chemscore.CHOScore>
0.0000

> <Gold.PLP.Chemscore.Metal>
0.0000

> <Gold.Chemscore.Hbonds>
donor molecule, donor type, donor heavy atom, donor atom, acceptor molecule, acceptor atom, score
      P1  H  6931  6943       L1     9  1.00
      P1  H  6934  6947       L1     9  0.51
      P1  H  7989  7998       L1    23  1.00

> <Gold.PLP.Chemscore.Internal.Correction>
0.4884

> <Gold.Rescore>
     Score         DG    S(hbond)    S(metal)    S(lipo)     H(rot)  DE(clash)    DE(int)     intcor
     11.85     -15.79       2.24        0.00      60.17       1.65       0.13       3.81       ----

> <Gold.Chemscore.Fitness>
11.8459

> <Gold.Chemscore.DG>
-15.7882

> <Gold.Chemscore.ZeroCoef>
-5.4800

> <Gold.Chemscore.Hbond>
2.2410

> <Gold.Chemscore.Metal>
0.0000

> <Gold.Chemscore.Lipo>
60.1701

> <Gold.Chemscore.Internal_Hbond>
0.0000

> <Gold.Chemscore.DEClash>
0.1303

> <Gold.Chemscore.DEInternal>
3.8119

> <Gold.Chemscore.Rot>
1.6471

> <Gold.Chemscore.Internal.Correction>
   9.000000E+99

> <Gold.Chemscore.Hbonds>
donor molecule, donor type, donor heavy atom, donor atom, acceptor molecule, acceptor atom, score
      P1  H  6931  6943       L1     9  0.51
      P1  H  6934  6947       L1     9  0.46
      P1  H  7989  7998       L1    23  0.94

> <Gold.Chemscore.Hbond.Weighted>
-7.4849

> <Gold.Chemscore.Metal.Weighted>
-0.0000

> <Gold.Chemscore.Lipo.Weighted>
-7.0399

> <Gold.Chemscore.Internal_Hbond.Weighted>
0.0000

> <Gold.Chemscore.DEClash.Weighted>
0.1303

> <Gold.Chemscore.DEInternal.Weighted>
3.8119

> <Gold.Chemscore.Rot.Weighted>
4.2167

> <Gold.Chemscore.Internal.Correction.Weighted>
   9.000000E+99

> <Gold.Protein.RotatedTorsions>
[ 6907 6896 6895 6894 ] final  170.07 input  -60.11 | X-H torsion
[ 7974 7965 7964 7962 ] final  175.76 input  175.53 | X-H torsion
[ 8008 7997 7996 7995 ] final  -59.44 input   59.86 | X-H torsion
[ 10167 10162 10161 10158 ] final -137.60 input  -65.29 | X-H torsion
[ 10718 10713 10712 10709 ] final  -22.72 input   66.30 | X-H torsion
[ 10763 10752 10751 10750 ] final  -28.72 input  -60.55 | X-H torsion
[ 11005 11000 10999 10996 ] final  -20.21 input  -57.11 | X-H torsion

> <Gold.Protein.ActiveResidues>
 VAL166  LYS551  ARG553  GLY616  TRP617  ASP618  TYR619  PRO620  LYS621  CYS622 
 ASP623  PHE694  ASN695  SER759  ASP760  ASP761  ALA762  ILE779  LEU786  VAL792 
 PHE793  MET794  SER795  GLU796  ALA797  LYS798  CYS799  TRP800  GLU811  SER814 

> <Gold.Protein.RotatedAtoms>
  151.8219  133.3396  159.3586 H   0  0  0  0  0  0  0  0  0  0  0  0  # atno 6907 bound_to 6896
  150.7292  134.5566  159.5830 H   0  0  0  0  0  0  0  0  0  0  0  0  # atno 6908 bound_to 6896
  152.3000  134.7623  160.0411 H   0  0  0  0  0  0  0  0  0  0  0  0  # atno 6909 bound_to 6896
  144.7196  139.9995  143.6440 H   0  0  0  0  0  0  0  0  0  0  0  0  # atno 7974 bound_to 7965
  154.4352  140.1062  156.6115 H   0  0  0  0  0  0  0  0  0  0  0  0  # atno 8008 bound_to 7997
  155.5804  140.3490  155.4520 H   0  0  0  0  0  0  0  0  0  0  0  0  # atno 8009 bound_to 7997
  156.0323  140.1263  157.0234 H   0  0  0  0  0  0  0  0  0  0  0  0  # atno 8010 bound_to 7997
  139.8561  143.7136  152.2654 H   0  0  0  0  0  0  0  0  0  0  0  0  # atno 10167 bound_to 10162
  156.5008  130.4587  149.6702 H   0  0  0  0  0  0  0  0  0  0  0  0  # atno 10718 bound_to 10713
  153.7529  135.6924  153.4942 H   0  0  0  0  0  0  0  0  0  0  0  0  # atno 10763 bound_to 10752
  153.1991  135.4443  155.0243 H   0  0  0  0  0  0  0  0  0  0  0  0  # atno 10764 bound_to 10752
  154.8181  135.3408  154.7049 H   0  0  0  0  0  0  0  0  0  0  0  0  # atno 10765 bound_to 10752
  140.8442  133.7904  155.9894 H   0  0  0  0  0  0  0  0  0  0  0  0  # atno 11005 bound_to 11000
  146.0347  139.3366  143.0734 LP  0  0  0  0  0  0  0  0  0  0  0  0  # atno 17320 bound_to 7965
  145.8410  140.9581  143.0799 LP  0  0  0  0  0  0  0  0  0  0  0  0  # atno 17321 bound_to 7965
  139.7418  144.7557  151.0641 LP  0  0  0  0  0  0  0  0  0  0  0  0  # atno 17342 bound_to 10162
  140.7781  143.4963  150.9828 LP  0  0  0  0  0  0  0  0  0  0  0  0  # atno 17343 bound_to 10162
  156.3335  130.7344  151.2277 LP  0  0  0  0  0  0  0  0  0  0  0  0  # atno 17370 bound_to 10713
  157.7463  131.0423  150.4689 LP  0  0  0  0  0  0  0  0  0  0  0  0  # atno 17371 bound_to 10713
  140.8862  134.2551  157.5118 LP  0  0  0  0  0  0  0  0  0  0  0  0  # atno 17394 bound_to 11000
  139.8703  134.9639  156.4478 LP  0  0  0  0  0  0  0  0  0  0  0  0  # atno 17395 bound_to 11000

$$$$
