#       Name:                AV-unprocessed.smi:1526
#       Creating user name   scv26
#       Creation time:       Fri Mar 27 06:29:23 2020


#       File generated by GOLD software.
#

@<TRIPOS>MOLECULE
AV-unprocessed.smi:1526
    40    41     1
SMALL
NO_CHARGES


@<TRIPOS>ATOM
      1 ****         0.0502   0.5021   3.5687 O.2            1 S1                 0.0000
      2 ****         0.4118   0.4378   2.3945 C.2            1 S1                 0.0000
      3 ****         1.8281   0.9098   2.0207 C.3            1 S1                 0.0000
      4 ****         2.1311   0.8861   0.5774 N.am           1 S1                 0.0000
      5 ****         2.7706  -0.2658   0.0782 C.2            1 S1                 0.0000
      6 ****         3.0893  -0.4009  -1.2240 C.2            1 S1                 0.0000
      7 ****         3.7382  -1.5947  -1.7200 N.pl3          1 S1                 1.0000
      8 ****         4.0130  -1.6623  -2.9137 O.2            1 S1                 0.0000
      9 ****         3.9935  -2.5033  -0.9354 O.2            1 S1                -1.0000
     10 ****         2.7538   0.6915  -2.1168 C.2            1 S1                 0.0000
     11 ****         2.1382   1.7942  -1.6466 C.2            1 S1                 0.0000
     12 ****         1.7860   1.9358  -0.2301 C.2            1 S1                 0.0000
     13 ****         1.2098   2.9336   0.2028 O.2            1 S1                 0.0000
     14 ****        -0.3820  -0.0270   1.4169 N.am           1 S1                 0.0000
     15 ****        -1.7508  -0.4835   1.6004 C.3            1 S1                 0.0000
     16 ****        -2.3595  -0.8584   0.2549 C.3            1 S1                 0.0000
     17 ****        -2.5905   0.2272  -0.8082 C.3            1 S1                 0.0000
     18 ****        -3.8548  -0.5246  -1.2331 C.3            1 S1                 0.0000
     19 ****        -3.8609  -1.1662   0.1574 C.3            1 S1                 0.0000
     20 ****         1.9739   1.9143   2.4216 H              1 S1                 0.0000
     21 ****         2.5423   0.2884   2.5629 H              1 S1                 0.0000
     22 ****         2.9714  -1.0238   0.8220 H              1 S1                 0.0000
     23 ****         2.9935   0.6334  -3.1683 H              1 S1                 0.0000
     24 ****         1.8970   2.5960  -2.3291 H              1 S1                 0.0000
     25 ****        -0.0162  -0.0510   0.4764 H              1 S1                 0.0000
     26 ****        -1.7587  -1.3406   2.2750 H              1 S1                 0.0000
     27 ****        -2.3340   0.3049   2.0789 H              1 S1                 0.0000
     28 ****        -1.8061  -1.6817  -0.2030 H              1 S1                 0.0000
     29 ****        -2.8073   1.2054  -0.3754 H              1 S1                 0.0000
     30 ****        -1.8148   0.2896  -1.5722 H              1 S1                 0.0000
     31 ****        -4.7149   0.1106  -1.4472 H              1 S1                 0.0000
     32 ****        -3.6710  -1.2450  -2.0318 H              1 S1                 0.0000
     33 ****        -4.1115  -2.2274   0.1705 H              1 S1                 0.0000
     34 ****        -4.4577  -0.6035   0.8773 H              1 S1                 0.0000
     35 ****         0.6737   0.8574   4.2651 LP             1 S1                 0.0000
     36 ****        -0.8672   0.1990   3.8266 LP             1 S1                 0.0000
     37 ****         3.7882  -0.9014  -3.5224 LP             1 S1                 0.0000
     38 ****         4.4617  -2.4784  -3.2781 LP             1 S1                 0.0000
     39 ****         0.9788   2.9957   1.1737 LP             1 S1                 0.0000
     40 ****         0.9727   3.6821  -0.4165 LP             1 S1                 0.0000
@<TRIPOS>BOND
    1    1    2 2     
    2    2    3 1     
    3    2   14 am    
    4    3    4 1     
    5    3   20 1     
    6    3   21 1     
    7    4   12 am    
    8    4    5 1     
    9    5    6 2     
   10    5   22 1     
   11    6    7 1     
   12    6   10 1     
   13    7    8 2     
   14    7    9 1     
   15   10   11 2     
   16   10   23 1     
   17   11   12 1     
   18   11   24 1     
   19   12   13 2     
   20   14   15 1     
   21   14   25 1     
   22   15   16 1     
   23   15   26 1     
   24   15   27 1     
   25   16   19 1     
   26   16   17 1     
   27   16   28 1     
   28   17   18 1     
   29   17   29 1     
   30   17   30 1     
   31   18   19 1     
   32   18   31 1     
   33   18   32 1     
   34   19   33 1     
   35   19   34 1     
   36    1   35 1     
   37    1   36 1     
   38    8   37 1     
   39    8   38 1     
   40   13   39 1     
   41   13   40 1     
@<TRIPOS>SUBSTRUCTURE
      1 S1             1
@<TRIPOS>SET
LONE_PAIRS      STATIC     ATOMS    <user>   **** ""
7 35 36 37 38 9 39 40
DONOR_HYDROGENS      STATIC     ATOMS    <user>   **** ""
1 25
ATOM$BLUE        STATIC     ATOMS    COLORGROUP SYSTEM
7 35 36 37 38 9 39 40
ATOM$RED        STATIC     ATOMS    COLORGROUP SYSTEM
1 25
