AV-unprocessed.smi:1964|AV-procd|sdf|7930|dock9
  -GOLD-   2272010103D 1   1.00000     0.00000
 Structure written by MMmdl.
 46 48  0  0  0  0  0  0  0  0  1 V2000
  152.3394  140.2367  159.8798 C   0  0  0  0  0  0  0  0  0  0  0  0
  152.2549  140.6283  158.3942 C   0  0  2  0  0  0  0  0  0  0  0  0
  151.4030  141.8988  158.1930 C   0  0  0  0  0  0  0  0  0  0  0  0
  151.3702  142.3303  156.7181 C   0  0  0  0  0  0  0  0  0  0  0  0
  150.8722  141.1930  155.8140 C   0  0  0  0  0  0  0  0  0  0  0  0
  151.7125  139.9186  156.0066 C   0  0  0  0  0  0  0  0  0  0  0  0
  151.7687  139.4721  157.4816 C   0  0  2  0  0  0  0  0  0  0  0  0
  150.4593  138.9651  157.8965 N   0  0  0  0  0  0  0  0  0  0  0  0
  150.2311  137.8614  158.6248 C   0  0  0  0  0  0  0  0  0  0  0  0
  151.1248  137.1098  159.0167 O   0  0  0  0  0  0  0  0  0  0  0  0
  148.7595  137.5727  158.9555 C   0  0  0  0  0  0  0  0  0  0  0  0
  148.5485  136.2269  159.5314 N   0  0  0  0  0  0  0  0  0  0  0  0
  148.8784  135.0971  158.7397 C   0  0  0  0  0  0  0  0  0  0  0  0
  149.3552  135.2307  157.6110 O   0  0  0  0  0  0  0  0  0  0  0  0
  148.5992  133.7990  159.3487 C   0  0  0  0  0  0  0  0  0  0  0  0
  148.8852  132.6398  158.5700 C   0  0  0  0  0  0  0  0  0  0  0  0
  149.1372  131.7096  157.9288 N   0  0  0  0  0  0  0  0  0  0  0  0
  148.0857  133.7113  160.5929 C   0  0  0  0  0  0  0  0  0  0  0  0
  147.8098  134.8212  161.3611 N   0  0  0  0  0  0  0  0  0  0  0  0
  147.1219  134.7102  162.6164 C   0  0  0  0  0  0  0  0  0  0  0  0
  145.9113  133.8068  162.7494 C   0  0  0  0  0  0  0  0  0  0  0  0
  145.7373  135.3059  162.7489 C   0  0  0  0  0  0  0  0  0  0  0  0
  147.9851  136.1163  160.8257 C   0  0  0  0  0  0  0  0  0  0  0  0
  147.6483  137.1195  161.4595 O   0  0  0  0  0  0  0  0  0  0  0  0
  151.3541  140.0432  160.3050 H   0  0  0  0  0  0  0  0  0  0  0  0
  152.7978  141.0322  160.4672 H   0  0  0  0  0  0  0  0  0  0  0  0
  152.9431  139.3389  160.0152 H   0  0  0  0  0  0  0  0  0  0  0  0
  153.2712  140.8716  158.0807 H   0  0  0  0  0  0  0  0  0  0  0  0
  150.3855  141.7255  158.5459 H   0  0  0  0  0  0  0  0  0  0  0  0
  151.8017  142.7131  158.7989 H   0  0  0  0  0  0  0  0  0  0  0  0
  150.7303  143.2054  156.6013 H   0  0  0  0  0  0  0  0  0  0  0  0
  152.3696  142.6346  156.4044 H   0  0  0  0  0  0  0  0  0  0  0  0
  149.8247  140.9829  156.0333 H   0  0  0  0  0  0  0  0  0  0  0  0
  150.9094  141.5067  154.7704 H   0  0  0  0  0  0  0  0  0  0  0  0
  151.3191  139.1143  155.3835 H   0  0  0  0  0  0  0  0  0  0  0  0
  152.7269  140.1056  155.6519 H   0  0  0  0  0  0  0  0  0  0  0  0
  152.4998  138.6638  157.5423 H   0  0  0  0  0  0  0  0  0  0  0  0
  149.6591  139.5154  157.6197 H   0  0  0  0  0  0  0  0  0  0  0  0
  148.3878  138.3378  159.6397 H   0  0  0  0  0  0  0  0  0  0  0  0
  148.1720  137.7212  158.0486 H   0  0  0  0  0  0  0  0  0  0  0  0
  147.8866  132.7335  161.0080 H   0  0  0  0  0  0  0  0  0  0  0  0
  147.7551  134.7843  163.4990 H   0  0  0  0  0  0  0  0  0  0  0  0
  145.5701  133.2678  161.8675 H   0  0  0  0  0  0  0  0  0  0  0  0
  145.7788  133.2839  163.6943 H   0  0  0  0  0  0  0  0  0  0  0  0
  145.4865  135.7841  163.6935 H   0  0  0  0  0  0  0  0  0  0  0  0
  145.2841  135.7533  161.8663 H   0  0  0  0  0  0  0  0  0  0  0  0
  1  2  1  0  0  0  0
  1 25  1  0  0  0  0
  1 26  1  0  0  0  0
  1 27  1  0  0  0  0
  2  7  1  0  0  0  0
  2  3  1  0  0  0  0
  2 28  1  0  0  0  0
  3  4  1  0  0  0  0
  3 29  1  0  0  0  0
  3 30  1  0  0  0  0
  4  5  1  0  0  0  0
  4 31  1  0  0  0  0
  4 32  1  0  0  0  0
  5  6  1  0  0  0  0
  5 33  1  0  0  0  0
  5 34  1  0  0  0  0
  6  7  1  0  0  0  0
  6 35  1  0  0  0  0
  6 36  1  0  0  0  0
  7  8  1  0  0  0  0
  7 37  1  0  0  0  0
  8  9  1  0  0  0  0
  8 38  1  0  0  0  0
  9 10  2  0  0  0  0
  9 11  1  0  0  0  0
 11 12  1  0  0  0  0
 11 39  1  0  0  0  0
 11 40  1  0  0  0  0
 12 23  1  0  0  0  0
 12 13  1  0  0  0  0
 13 14  2  0  0  0  0
 13 15  1  0  0  0  0
 15 16  1  0  0  0  0
 15 18  2  0  0  0  0
 16 17  3  0  0  0  0
 18 19  1  0  0  0  0
 18 41  1  0  0  0  0
 19 20  1  0  0  0  0
 19 23  1  0  0  0  0
 20 22  1  0  0  0  0
 20 21  1  0  0  0  0
 20 42  1  0  0  0  0
 21 22  1  0  0  0  0
 21 43  1  0  0  0  0
 21 44  1  0  0  0  0
 22 45  1  0  0  0  0
 22 46  1  0  0  0  0
 23 24  2  0  0  0  0
M  END
> <s_m_source_file>
AV-unprocessed.smi

> <i_m_source_file_index>
1964

> <i_lp_mmshare_version>
43012

> <i_f3d_flags>
0

> <s_epik_input>
W0NIM11bQ0BASF0xW0NIMl1bQ0gyXVtDSDJdW0NIMl1bQ0BIXTFbTkhdQyg9TylbQ0gyXW4yYyg9TyljKEMjTilbY0hdbihjMj1PKVtDSF0zW0NIMl1bQ0gyXTM=

> <s_epik_cmdline>
J2VwaWtfcHl0aG9uJywgJy1waCcsICc3LjAnLCAnLXRuJywgJzgnLCAnLW1hJywgJzIwMCcsICctbWV0YWxfYmluZGluZycsICctaW1hZScsICc8aW5maWxlLm1hZT4nLCAnLW9tYWUnLCAnPG91dGZpbGUubWFlPic=

> <r_lp_tautomer_probability>
1

> <r_epik_Ionization_Penalty>
1.91372e-08

> <r_epik_Ionization_Penalty_Charging>
9.0283e-11

> <r_epik_Ionization_Penalty_Neutral>
1.90469e-08

> <r_epik_State_Penalty>
-0

> <r_epik_Charging_Adjusted_Penalty>
9.0283e-11

> <i_epik_Tot_Q>
0

> <i_epik_Tot_abs_Q>
0

> <r_epik_Metal_State_Penalty>
-0

> <b_epik_Metal_Only>
0

> <s_lp_Force_Field>
OPLS_2005

> <r_lp_Energy>
35.1398

> <b_lp_Chiralities_Consistent>
1

> <s_lp_Variant>
AV-unprocessed.smi:1964-3

> <Gold.Version>
5.8.1

> <Gold.Id.Protein>
6NUR|6NUR_protein|mol2

> <Gold.PLP.Fitness>
43.9125

> <Gold.PLP.PLP>
-36.9008

> <Gold.PLP.part.hbond>
-2.8177

> <Gold.PLP.part.metal>
0.0000

> <Gold.PLP.part.buried>
-3.8846

> <Gold.PLP.part.nonpolar>
-30.5107

> <Gold.PLP.part.repulsive>
0.0602

> <Gold.PLP.ligand.clash>
0.0000

> <Gold.PLP.ligand.torsion>
0.5188

> <Gold.PLP.Chemscore.Hbond>
2.6106

> <Gold.PLP.Chemscore.CHOScore>
0.0000

> <Gold.PLP.Chemscore.Metal>
0.0000

> <Gold.Chemscore.Hbonds>
donor molecule, donor type, donor heavy atom, donor atom, acceptor molecule, acceptor atom, score
      P1  H  6896  6908       L1    10  0.65
      P1  H  6931  6943       L1    24  1.00
      P1  H  6934  6947       L1    24  0.82

> <Gold.PLP.Chemscore.Internal.Correction>
0.2174

> <Gold.Rescore>
     Score         DG    S(hbond)    S(metal)    S(lipo)     H(rot)  DE(clash)    DE(int)     intcor
     15.91     -18.43       2.33        0.00      81.42       1.70       0.07       2.45       ----

> <Gold.Chemscore.Fitness>
15.9143

> <Gold.Chemscore.DG>
-18.4344

> <Gold.Chemscore.ZeroCoef>
-5.4800

> <Gold.Chemscore.Hbond>
2.3325

> <Gold.Chemscore.Metal>
0.0000

> <Gold.Chemscore.Lipo>
81.4160

> <Gold.Chemscore.Internal_Hbond>
0.0000

> <Gold.Chemscore.DEClash>
0.0676

> <Gold.Chemscore.DEInternal>
2.4525

> <Gold.Chemscore.Rot>
1.7038

> <Gold.Chemscore.Internal.Correction>
   9.000000E+99

> <Gold.Chemscore.Hbonds>
donor molecule, donor type, donor heavy atom, donor atom, acceptor molecule, acceptor atom, score
      P1  H  6896  6908       L1    10  0.63
      P1  H  6931  6943       L1    24  0.86
      P1  H  6934  6947       L1    24  0.76

> <Gold.Chemscore.Hbond.Weighted>
-7.7905

> <Gold.Chemscore.Metal.Weighted>
-0.0000

> <Gold.Chemscore.Lipo.Weighted>
-9.5257

> <Gold.Chemscore.Internal_Hbond.Weighted>
0.0000

> <Gold.Chemscore.DEClash.Weighted>
0.0676

> <Gold.Chemscore.DEInternal.Weighted>
2.4525

> <Gold.Chemscore.Rot.Weighted>
4.3618

> <Gold.Chemscore.Internal.Correction.Weighted>
   9.000000E+99

> <Gold.Protein.RotatedTorsions>
[ 6907 6896 6895 6894 ] final -143.42 input  -60.11 | X-H torsion
[ 7974 7965 7964 7962 ] final  -41.82 input  175.53 | X-H torsion
[ 8008 7997 7996 7995 ] final   89.20 input   59.86 | X-H torsion
[ 10167 10162 10161 10158 ] final   33.48 input  -65.29 | X-H torsion
[ 10718 10713 10712 10709 ] final   38.59 input   66.30 | X-H torsion
[ 10763 10752 10751 10750 ] final   45.92 input  -60.55 | X-H torsion
[ 11005 11000 10999 10996 ] final  -52.00 input  -57.11 | X-H torsion

> <Gold.Protein.ActiveResidues>
 VAL166  LYS551  ARG553  GLY616  TRP617  ASP618  TYR619  PRO620  LYS621  CYS622 
 ASP623  PHE694  ASN695  SER759  ASP760  ASP761  ALA762  ILE779  LEU786  VAL792 
 PHE793  MET794  SER795  GLU796  ALA797  LYS798  CYS799  TRP800  GLU811  SER814 

> <Gold.Protein.RotatedAtoms>
  151.1002  133.5249  159.2610 H   0  0  0  0  0  0  0  0  0  0  0  0  # atno 6907 bound_to 6896
  151.2083  135.0470  159.8910 H   0  0  0  0  0  0  0  0  0  0  0  0  # atno 6908 bound_to 6896
  152.5442  134.0821  159.8293 H   0  0  0  0  0  0  0  0  0  0  0  0  # atno 6909 bound_to 6896
  146.0174  140.6891  142.9195 H   0  0  0  0  0  0  0  0  0  0  0  0  # atno 7974 bound_to 7965
  155.9971  140.3363  155.6809 H   0  0  0  0  0  0  0  0  0  0  0  0  # atno 8008 bound_to 7997
  155.6341  140.0688  157.2657 H   0  0  0  0  0  0  0  0  0  0  0  0  # atno 8009 bound_to 7997
  154.4237  140.1754  156.1491 H   0  0  0  0  0  0  0  0  0  0  0  0  # atno 8010 bound_to 7997
  140.4403  144.1197  150.6173 H   0  0  0  0  0  0  0  0  0  0  0  0  # atno 10167 bound_to 10162
  157.3606  130.7647  149.7044 H   0  0  0  0  0  0  0  0  0  0  0  0  # atno 10718 bound_to 10713
  152.9817  135.6024  154.3514 H   0  0  0  0  0  0  0  0  0  0  0  0  # atno 10763 bound_to 10752
  154.3204  135.2770  155.2524 H   0  0  0  0  0  0  0  0  0  0  0  0  # atno 10764 bound_to 10752
  154.4694  135.5945  153.6366 H   0  0  0  0  0  0  0  0  0  0  0  0  # atno 10765 bound_to 10752
  141.0901  133.6634  156.3960 H   0  0  0  0  0  0  0  0  0  0  0  0  # atno 11005 bound_to 11000
  144.6976  140.3506  143.7182 LP  0  0  0  0  0  0  0  0  0  0  0  0  # atno 17320 bound_to 7965
  145.7247  139.1719  143.2465 LP  0  0  0  0  0  0  0  0  0  0  0  0  # atno 17321 bound_to 7965
  140.4326  143.2561  151.9576 LP  0  0  0  0  0  0  0  0  0  0  0  0  # atno 17342 bound_to 10162
  139.4789  144.5730  151.8058 LP  0  0  0  0  0  0  0  0  0  0  0  0  # atno 17343 bound_to 10162
  155.9737  130.4115  150.3984 LP  0  0  0  0  0  0  0  0  0  0  0  0  # atno 17370 bound_to 10713
  157.2060  131.0449  151.2625 LP  0  0  0  0  0  0  0  0  0  0  0  0  # atno 17371 bound_to 10713
  140.5271  134.6248  157.5338 LP  0  0  0  0  0  0  0  0  0  0  0  0  # atno 17394 bound_to 11000
  139.9726  134.7268  156.0012 LP  0  0  0  0  0  0  0  0  0  0  0  0  # atno 17395 bound_to 11000

$$$$
