#       Name:                AV-unprocessed.smi:994
#       Creating user name   scv26
#       Creation time:       Fri Mar 27 02:23:54 2020


#       File generated by GOLD software.
#

@<TRIPOS>MOLECULE
AV-unprocessed.smi:994
    44    45     1
SMALL
NO_CHARGES


@<TRIPOS>ATOM
      1 ****         0.6736   1.4060  -0.0257 O.2            1 S1                 0.0000
      2 ****         0.2731   0.4446   0.6320 C.2            1 S1                 0.0000
      3 ****         1.0918  -0.4631   1.1879 N.am           1 S1                 0.0000
      4 ****         2.5533  -0.4689   1.1193 C.3            1 S1                 0.0000
      5 ****         3.0653  -1.2822  -0.0892 C.3            1 S1                 0.0000
      6 ****         2.6810  -0.7292  -1.4393 C.2            1 S1                 0.0000
      7 ****         3.2365   0.2907  -2.1894 C.2            1 S1                 0.0000
      8 ****         2.4752   0.4209  -3.3395 N.pl3          1 S1                 0.0000
      9 ****         1.5050  -0.4882  -3.2639 C.2            1 S1                 0.0000
     10 ****         1.5896  -1.2093  -2.1479 N.pl3          1 S1                 1.0000
     11 ****         3.1305  -0.9519   2.4520 C.2            1 S1                 0.0000
     12 ****         2.8034  -2.0976   2.8334 O.co2          1 S1                 0.0000
     13 ****         3.8922  -0.1718   3.0640 O.co2          1 S1                -1.0000
     14 ****        -1.2305   0.2195   0.8332 C.3            1 S1                 0.0000
     15 ****        -1.9349  -0.0166  -0.5200 C.3            1 S1                 0.0000
     16 ****        -3.4451  -0.2352  -0.3328 C.3            1 S1                 0.0000
     17 ****        -4.0890   0.9405   0.4193 C.3            1 S1                 0.0000
     18 ****        -3.3880   1.1924   1.7639 C.3            1 S1                 0.0000
     19 ****        -1.8777   1.4090   1.5739 C.3            1 S1                 0.0000
     20 ****         2.6177   1.0900  -4.0828 H              1 S1                 0.0000
     21 ****         0.6730  -1.2113   1.7222 H              1 S1                 0.0000
     22 ****         2.8974   0.5598   0.9922 H              1 S1                 0.0000
     23 ****         4.1550  -1.3177  -0.0564 H              1 S1                 0.0000
     24 ****         2.7297  -2.3183  -0.0224 H              1 S1                 0.0000
     25 ****         4.0837   0.9350  -2.0055 H              1 S1                 0.0000
     26 ****         0.7406  -0.6225  -4.0153 H              1 S1                 0.0000
     27 ****        -1.3641  -0.6740   1.4464 H              1 S1                 0.0000
     28 ****        -1.7758   0.8368  -1.1813 H              1 S1                 0.0000
     29 ****        -1.5015  -0.8816  -1.0239 H              1 S1                 0.0000
     30 ****        -3.9252  -0.3625  -1.3034 H              1 S1                 0.0000
     31 ****        -3.6150  -1.1601   0.2199 H              1 S1                 0.0000
     32 ****        -4.0346   1.8403  -0.1946 H              1 S1                 0.0000
     33 ****        -5.1485   0.7415   0.5829 H              1 S1                 0.0000
     34 ****        -3.8286   2.0602   2.2558 H              1 S1                 0.0000
     35 ****        -3.5545   0.3434   2.4281 H              1 S1                 0.0000
     36 ****        -1.4044   1.5471   2.5469 H              1 S1                 0.0000
     37 ****        -1.7157   2.3345   1.0187 H              1 S1                 0.0000
     38 ****         0.9661  -1.9499  -1.8592 H              1 S1                 0.0000
     39 ****         1.6542   1.5407  -0.1681 LP             1 S1                 0.0000
     40 ****         0.0181   2.0518  -0.4172 LP             1 S1                 0.0000
     41 ****         3.1593  -2.4582   3.6956 LP             1 S1                 0.0000
     42 ****         2.1860  -2.6528   2.2761 LP             1 S1                 0.0000
     43 ****         4.2955  -0.4485   3.9362 LP             1 S1                 0.0000
     44 ****         4.0980   0.7288   2.6813 LP             1 S1                 0.0000
@<TRIPOS>BOND
    1    1    2 2     
    2    2    3 am    
    3    2   14 1     
    4    3    4 1     
    5    3   21 1     
    6    4    5 1     
    7    4   11 1     
    8    4   22 1     
    9    5    6 1     
   10    5   23 1     
   11    5   24 1     
   12    6   10 1     
   13    6    7 2     
   14    7    8 1     
   15    7   25 1     
   16    8   20 1     
   17    8    9 1     
   18    9   10 2     
   19    9   26 1     
   20   10   38 1     
   21   11   12 ar    
   22   11   13 ar    
   23   14   19 1     
   24   14   15 1     
   25   14   27 1     
   26   15   16 1     
   27   15   28 1     
   28   15   29 1     
   29   16   17 1     
   30   16   30 1     
   31   16   31 1     
   32   17   18 1     
   33   17   32 1     
   34   17   33 1     
   35   18   19 1     
   36   18   34 1     
   37   18   35 1     
   38   19   36 1     
   39   19   37 1     
   40    1   39 1     
   41    1   40 1     
   42   12   41 1     
   43   12   42 1     
   44   13   43 1     
   45   13   44 1     
@<TRIPOS>SUBSTRUCTURE
      1 S1             1
@<TRIPOS>SET
LONE_PAIRS      STATIC     ATOMS    <user>   **** ""
6 39 40 41 42 43 44
DONOR_HYDROGENS      STATIC     ATOMS    <user>   **** ""
3 21 20 38
ATOM$BLUE        STATIC     ATOMS    COLORGROUP SYSTEM
6 39 40 41 42 43 44
ATOM$RED        STATIC     ATOMS    COLORGROUP SYSTEM
3 21 20 38
