AV-unprocessed.smi:696|AV-procd|sdf|3386|dock3
  -GOLD-   22720 0363D 1   1.00000     0.00000
 Structure written by MMmdl.
 38 39  0  0  0  0  0  0  0  0  1 V2000
  150.8962  140.2647  156.3634 O   0  0  0  0  0  0  0  0  0  0  0  0
  150.4336  141.3917  156.5443 C   0  0  0  0  0  0  0  0  0  0  0  0
  149.5930  141.9864  155.6832 N   0  0  0  0  0  0  0  0  0  0  0  0
  149.1209  141.4004  154.4339 C   0  0  0  0  0  0  0  0  0  0  0  0
  147.5792  141.3813  154.3643 C   0  0  0  0  0  0  0  0  0  0  0  0
  146.9753  140.2055  153.6068 C   0  0  0  0  0  0  0  0  0  0  0  0
  146.0742  139.3872  154.0250 N   0  0  0  0  0  0  0  0  0  0  0  0
  145.9344  138.5711  152.9507 N   0  0  0  0  0  0  0  0  0  0  0  0
  146.7225  138.8818  151.9152 C   0  0  0  0  0  0  0  0  0  0  0  0
  146.7983  138.3141  150.8281 O   0  0  0  0  0  0  0  0  0  0  0  0
  147.4047  139.9426  152.3278 N   0  0  0  0  0  0  0  0  0  0  0  0
  150.8141  142.1906  157.8002 C   0  0  0  0  0  0  0  0  0  0  0  0
  151.3057  143.6023  157.4026 C   0  0  0  0  0  0  0  0  0  0  0  0
  151.2945  144.5956  158.5772 C   0  0  0  0  0  0  0  0  0  0  0  0
  152.5684  144.6140  159.4412 C   0  0  0  0  0  0  0  0  0  0  0  0
  153.2396  143.2554  159.7105 C   0  0  0  0  0  0  0  0  0  0  0  0
  152.2787  142.0786  159.9449 C   0  0  0  0  0  0  0  0  0  0  0  0
  151.8381  141.3954  158.6378 C   0  0  0  0  0  0  0  0  0  0  0  0
  145.2734  137.8086  152.9936 H   0  0  0  0  0  0  0  0  0  0  0  0
  148.1046  140.4587  151.8149 H   0  0  0  0  0  0  0  0  0  0  0  0
  149.2611  142.9133  155.9080 H   0  0  0  0  0  0  0  0  0  0  0  0
  149.5277  141.9956  153.6155 H   0  0  0  0  0  0  0  0  0  0  0  0
  149.5292  140.3938  154.3241 H   0  0  0  0  0  0  0  0  0  0  0  0
  147.1655  141.3780  155.3733 H   0  0  0  0  0  0  0  0  0  0  0  0
  147.2291  142.3013  153.8949 H   0  0  0  0  0  0  0  0  0  0  0  0
  149.9081  142.3035  158.3984 H   0  0  0  0  0  0  0  0  0  0  0  0
  152.2945  143.5616  156.9432 H   0  0  0  0  0  0  0  0  0  0  0  0
  150.6407  143.9998  156.6340 H   0  0  0  0  0  0  0  0  0  0  0  0
  151.1434  145.6026  158.1864 H   0  0  0  0  0  0  0  0  0  0  0  0
  150.4265  144.4041  159.2092 H   0  0  0  0  0  0  0  0  0  0  0  0
  153.3061  145.2680  158.9748 H   0  0  0  0  0  0  0  0  0  0  0  0
  152.3233  145.0856  160.3935 H   0  0  0  0  0  0  0  0  0  0  0  0
  153.9154  143.0126  158.8896 H   0  0  0  0  0  0  0  0  0  0  0  0
  153.8822  143.3679  160.5845 H   0  0  0  0  0  0  0  0  0  0  0  0
  152.8035  141.3332  160.5434 H   0  0  0  0  0  0  0  0  0  0  0  0
  151.4183  142.3854  160.5407 H   0  0  0  0  0  0  0  0  0  0  0  0
  151.3977  140.4308  158.8954 H   0  0  0  0  0  0  0  0  0  0  0  0
  152.7198  141.1623  158.0383 H   0  0  0  0  0  0  0  0  0  0  0  0
  1  2  2  0  0  0  0
  2  3  1  0  0  0  0
  2 12  1  0  0  0  0
  3  4  1  0  0  0  0
  3 21  1  0  0  0  0
  4  5  1  0  0  0  0
  4 22  1  0  0  0  0
  4 23  1  0  0  0  0
  5  6  1  0  0  0  0
  5 24  1  0  0  0  0
  5 25  1  0  0  0  0
  6 11  1  0  0  0  0
  6  7  2  0  0  0  0
  7  8  1  0  0  0  0
  8 19  1  0  0  0  0
  8  9  1  0  0  0  0
  9 10  2  0  0  0  0
  9 11  1  0  0  0  0
 11 20  1  0  0  0  0
 12 18  1  0  0  0  0
 12 13  1  0  0  0  0
 12 26  1  0  0  0  0
 13 14  1  0  0  0  0
 13 27  1  0  0  0  0
 13 28  1  0  0  0  0
 14 15  1  0  0  0  0
 14 29  1  0  0  0  0
 14 30  1  0  0  0  0
 15 16  1  0  0  0  0
 15 31  1  0  0  0  0
 15 32  1  0  0  0  0
 16 17  1  0  0  0  0
 16 33  1  0  0  0  0
 16 34  1  0  0  0  0
 17 18  1  0  0  0  0
 17 35  1  0  0  0  0
 17 36  1  0  0  0  0
 18 37  1  0  0  0  0
 18 38  1  0  0  0  0
M  END
> <s_m_source_file>
AV-unprocessed.smi

> <i_m_source_file_index>
696

> <i_lp_mmshare_version>
43012

> <i_f3d_flags>
0

> <s_epik_input>
W0NIMl0xW0NIMl1bQ0gyXVtDSDJdW0NIMl1bQ0gyXVtDSF0xQyg9TylbTkhdW0NIMl1bQ0gyXWMybltuSF1jKD1PKVtuSF0y

> <s_epik_cmdline>
J2VwaWtfcHl0aG9uJywgJy1waCcsICc3LjAnLCAnLXRuJywgJzgnLCAnLW1hJywgJzIwMCcsICctbWV0YWxfYmluZGluZycsICctaW1hZScsICc8aW5maWxlLm1hZT4nLCAnLW9tYWUnLCAnPG91dGZpbGUubWFlPic=

> <r_lp_tautomer_probability>
1

> <r_epik_Ionization_Penalty>
0.000812647

> <r_epik_Ionization_Penalty_Charging>
0.000812608

> <r_epik_Ionization_Penalty_Neutral>
3.92257e-08

> <r_epik_State_Penalty>
-0

> <r_epik_Charging_Adjusted_Penalty>
0.000812608

> <i_epik_Tot_Q>
0

> <i_epik_Tot_abs_Q>
0

> <r_epik_Metal_State_Penalty>
0.511782

> <b_epik_Metal_Only>
0

> <s_lp_Force_Field>
OPLS_2005

> <r_lp_Energy>
36.4871

> <b_lp_Chiralities_Consistent>
1

> <s_lp_Variant>
AV-unprocessed.smi:696-1

> <Gold.Version>
5.8.1

> <Gold.Id.Protein>
6NUR|6NUR_protein|mol2

> <Gold.PLP.Fitness>
47.0286

> <Gold.PLP.PLP>
-39.6232

> <Gold.PLP.part.hbond>
-3.8022

> <Gold.PLP.part.metal>
0.0000

> <Gold.PLP.part.buried>
-5.4453

> <Gold.PLP.part.nonpolar>
-33.3766

> <Gold.PLP.part.repulsive>
1.4686

> <Gold.PLP.ligand.clash>
0.0000

> <Gold.PLP.ligand.torsion>
0.3529

> <Gold.PLP.Chemscore.Hbond>
2.6880

> <Gold.PLP.Chemscore.CHOScore>
0.0000

> <Gold.PLP.Chemscore.Metal>
0.0000

> <Gold.Chemscore.Hbonds>
donor molecule, donor type, donor heavy atom, donor atom, acceptor molecule, acceptor atom, score
      L1  H     3    21       P1  8028  1.00
      L1  H    11    20       P1  7957  0.69
      P1  H  7954  7966       L1    10  1.00

> <Gold.PLP.Chemscore.Internal.Correction>
0.0473

> <Gold.Rescore>
     Score         DG    S(hbond)    S(metal)    S(lipo)     H(rot)  DE(clash)    DE(int)     intcor
     18.38     -20.32       2.97        0.00      92.03       2.28       1.53       0.40       ----

> <Gold.Chemscore.Fitness>
18.3846

> <Gold.Chemscore.DG>
-20.3157

> <Gold.Chemscore.ZeroCoef>
-5.4800

> <Gold.Chemscore.Hbond>
2.9654

> <Gold.Chemscore.Metal>
0.0000

> <Gold.Chemscore.Lipo>
92.0347

> <Gold.Chemscore.Internal_Hbond>
0.0000

> <Gold.Chemscore.DEClash>
1.5286

> <Gold.Chemscore.DEInternal>
0.4025

> <Gold.Chemscore.Rot>
2.2801

> <Gold.Chemscore.Internal.Correction>
   9.000000E+99

> <Gold.Chemscore.Hbonds>
donor molecule, donor type, donor heavy atom, donor atom, acceptor molecule, acceptor atom, score
      L1  H     3    21       P1  8028  0.99
      L1  H    11    20       P1  7957  0.68
      P1  H  7954  7966       L1    10  0.97

> <Gold.Chemscore.Hbond.Weighted>
-9.9046

> <Gold.Chemscore.Metal.Weighted>
-0.0000

> <Gold.Chemscore.Lipo.Weighted>
-10.7681

> <Gold.Chemscore.Internal_Hbond.Weighted>
0.0000

> <Gold.Chemscore.DEClash.Weighted>
1.5286

> <Gold.Chemscore.DEInternal.Weighted>
0.4025

> <Gold.Chemscore.Rot.Weighted>
5.8370

> <Gold.Chemscore.Internal.Correction.Weighted>
   9.000000E+99

> <Gold.Protein.RotatedTorsions>
[ 6907 6896 6895 6894 ] final   72.60 input  -60.11 | X-H torsion
[ 7974 7965 7964 7962 ] final   43.43 input  175.53 | X-H torsion
[ 8008 7997 7996 7995 ] final  -57.28 input   59.86 | X-H torsion
[ 10167 10162 10161 10158 ] final   89.42 input  -65.29 | X-H torsion
[ 10718 10713 10712 10709 ] final  -91.01 input   66.30 | X-H torsion
[ 10763 10752 10751 10750 ] final   77.75 input  -60.55 | X-H torsion
[ 11005 11000 10999 10996 ] final -137.52 input  -57.11 | X-H torsion

> <Gold.Protein.ActiveResidues>
 VAL166  LYS551  ARG553  GLY616  TRP617  ASP618  TYR619  PRO620  LYS621  CYS622 
 ASP623  PHE694  ASN695  SER759  ASP760  ASP761  ALA762  ILE779  LEU786  VAL792 
 PHE793  MET794  SER795  GLU796  ALA797  LYS798  CYS799  TRP800  GLU811  SER814 

> <Gold.Protein.RotatedAtoms>
  152.4877  134.4547  159.9585 H   0  0  0  0  0  0  0  0  0  0  0  0  # atno 6907 bound_to 6896
  151.4541  133.3604  159.2807 H   0  0  0  0  0  0  0  0  0  0  0  0  # atno 6908 bound_to 6896
  150.9001  134.8437  159.7415 H   0  0  0  0  0  0  0  0  0  0  0  0  # atno 6909 bound_to 6896
  146.0656  139.5188  142.9630 H   0  0  0  0  0  0  0  0  0  0  0  0  # atno 7974 bound_to 7965
  154.4262  140.1110  156.5773 H   0  0  0  0  0  0  0  0  0  0  0  0  # atno 8008 bound_to 7997
  155.6150  140.3494  155.4615 H   0  0  0  0  0  0  0  0  0  0  0  0  # atno 8009 bound_to 7997
  156.0069  140.1211  157.0481 H   0  0  0  0  0  0  0  0  0  0  0  0  # atno 8010 bound_to 7997
  139.8575  144.6561  150.9097 H   0  0  0  0  0  0  0  0  0  0  0  0  # atno 10167 bound_to 10162
  155.9991  130.4931  150.5409 H   0  0  0  0  0  0  0  0  0  0  0  0  # atno 10718 bound_to 10713
  153.0822  135.4902  154.8525 H   0  0  0  0  0  0  0  0  0  0  0  0  # atno 10763 bound_to 10752
  154.7165  135.3030  154.9118 H   0  0  0  0  0  0  0  0  0  0  0  0  # atno 10764 bound_to 10752
  153.9795  135.6791  153.4802 H   0  0  0  0  0  0  0  0  0  0  0  0  # atno 10765 bound_to 10752
  140.8703  134.2059  157.4655 H   0  0  0  0  0  0  0  0  0  0  0  0  # atno 11005 bound_to 11000
  145.6483  141.0269  143.1774 LP  0  0  0  0  0  0  0  0  0  0  0  0  # atno 17320 bound_to 7965
  144.7200  139.8062  143.7385 LP  0  0  0  0  0  0  0  0  0  0  0  0  # atno 17321 bound_to 7965
  140.7779  143.3773  151.1539 LP  0  0  0  0  0  0  0  0  0  0  0  0  # atno 17342 bound_to 10162
  139.7406  143.8930  152.3048 LP  0  0  0  0  0  0  0  0  0  0  0  0  # atno 17343 bound_to 10162
  157.3346  131.0705  151.1835 LP  0  0  0  0  0  0  0  0  0  0  0  0  # atno 17370 bound_to 10713
  157.2704  130.6701  149.6017 LP  0  0  0  0  0  0  0  0  0  0  0  0  # atno 17371 bound_to 10713
  139.8712  134.9771  156.4947 LP  0  0  0  0  0  0  0  0  0  0  0  0  # atno 17394 bound_to 11000
  140.8580  133.8081  155.9236 LP  0  0  0  0  0  0  0  0  0  0  0  0  # atno 17395 bound_to 11000

$$$$
