AV-unprocessed.smi:1610|AV-procd|sdf|6470|dock8
  -GOLD-   22720 7123D 1   1.00000     0.00000
 Structure written by MMmdl.
 44 45  0  0  0  0  0  0  0  0  1 V2000
  149.3202  132.9055  155.2877 C   0  0  0  0  0  0  0  0  0  0  0  0
  150.3863  133.2529  156.7460 S   0  0  0  0  0  0  0  0  0  0  0  0
  149.7810  132.6325  157.9344 O   0  0  0  0  0  0  0  0  0  0  0  0
  151.7796  132.9570  156.3804 O   0  0  0  0  0  0  0  0  0  0  0  0
  150.2535  134.9642  156.9186 N   0  0  0  0  0  0  0  0  0  0  0  0
  151.1887  135.8677  156.2460 C   0  0  0  0  0  0  0  0  0  0  0  0
  151.6863  136.9488  157.2272 C   0  0  0  0  0  0  0  0  0  0  0  0
  152.5341  138.0049  156.4948 C   0  0  0  0  0  0  0  0  0  0  0  0
  151.7382  138.5779  155.3945 N   0  0  0  0  0  0  0  0  0  0  0  0
  151.1726  139.8115  155.3696 C   0  0  0  0  0  0  0  0  0  0  0  0
  150.4698  140.2127  154.4406 O   0  0  0  0  0  0  0  0  0  0  0  0
  151.4626  140.5866  156.4286 N   0  0  0  0  0  0  0  0  0  0  0  0
  150.9885  141.9512  156.6259 C   0  0  0  0  0  0  0  0  0  0  0  0
  150.1662  142.0814  157.9181 C   0  0  0  0  0  0  0  0  0  0  0  0
  150.7161  143.1525  158.8386 C   0  0  0  0  0  0  0  0  0  0  0  0
  152.0051  143.0321  159.3975 C   0  0  0  0  0  0  0  0  0  0  0  0
  152.4729  144.0515  160.2488 C   0  0  0  0  0  0  0  0  0  0  0  0
  151.6288  145.1502  160.5058 C   0  0  0  0  0  0  0  0  0  0  0  0
  150.3923  145.2754  159.9774 N   0  0  0  0  0  0  0  0  0  0  0  0
  149.9513  144.2934  159.1619 C   0  0  0  0  0  0  0  0  0  0  0  0
  151.4285  137.5638  154.3777 C   0  0  0  0  0  0  0  0  0  0  0  0
  150.5218  136.4883  155.0026 C   0  0  0  0  0  0  0  0  0  0  0  0
  149.3476  131.8386  155.0672 H   0  0  0  0  0  0  0  0  0  0  0  0
  149.6872  133.4621  154.4258 H   0  0  0  0  0  0  0  0  0  0  0  0
  148.2938  133.2013  155.5028 H   0  0  0  0  0  0  0  0  0  0  0  0
  149.9071  135.2777  157.8251 H   0  0  0  0  0  0  0  0  0  0  0  0
  152.0513  135.2918  155.9086 H   0  0  0  0  0  0  0  0  0  0  0  0
  150.8362  137.4392  157.7041 H   0  0  0  0  0  0  0  0  0  0  0  0
  152.2699  136.4912  158.0267 H   0  0  0  0  0  0  0  0  0  0  0  0
  152.8990  138.7422  157.2097 H   0  0  0  0  0  0  0  0  0  0  0  0
  153.4293  137.5385  156.0811 H   0  0  0  0  0  0  0  0  0  0  0  0
  152.0554  140.2007  157.1490 H   0  0  0  0  0  0  0  0  0  0  0  0
  151.8575  142.6082  156.6697 H   0  0  0  0  0  0  0  0  0  0  0  0
  150.4009  142.2705  155.7633 H   0  0  0  0  0  0  0  0  0  0  0  0
  149.1276  142.3203  157.6850 H   0  0  0  0  0  0  0  0  0  0  0  0
  150.1505  141.1289  158.4495 H   0  0  0  0  0  0  0  0  0  0  0  0
  152.6244  142.1743  159.1798 H   0  0  0  0  0  0  0  0  0  0  0  0
  153.4547  143.9927  160.6948 H   0  0  0  0  0  0  0  0  0  0  0  0
  151.9558  145.9495  161.1542 H   0  0  0  0  0  0  0  0  0  0  0  0
  148.9581  144.4214  158.7573 H   0  0  0  0  0  0  0  0  0  0  0  0
  150.9512  137.9854  153.4921 H   0  0  0  0  0  0  0  0  0  0  0  0
  152.3558  137.1114  154.0235 H   0  0  0  0  0  0  0  0  0  0  0  0
  150.3015  135.7125  154.2684 H   0  0  0  0  0  0  0  0  0  0  0  0
  149.5658  136.9378  155.2763 H   0  0  0  0  0  0  0  0  0  0  0  0
  1  2  1  0  0  0  0
  1 23  1  0  0  0  0
  1 24  1  0  0  0  0
  1 25  1  0  0  0  0
  2  3  2  0  0  0  0
  2  4  2  0  0  0  0
  2  5  1  0  0  0  0
  5  6  1  0  0  0  0
  5 26  1  0  0  0  0
  6 22  1  0  0  0  0
  6  7  1  0  0  0  0
  6 27  1  0  0  0  0
  7  8  1  0  0  0  0
  7 28  1  0  0  0  0
  7 29  1  0  0  0  0
  8  9  1  0  0  0  0
  8 30  1  0  0  0  0
  8 31  1  0  0  0  0
  9 10  1  0  0  0  0
  9 21  1  0  0  0  0
 10 11  2  0  0  0  0
 10 12  1  0  0  0  0
 12 13  1  0  0  0  0
 12 32  1  0  0  0  0
 13 14  1  0  0  0  0
 13 33  1  0  0  0  0
 13 34  1  0  0  0  0
 14 15  1  0  0  0  0
 14 35  1  0  0  0  0
 14 36  1  0  0  0  0
 15 20  1  0  0  0  0
 15 16  2  0  0  0  0
 16 17  1  0  0  0  0
 16 37  1  0  0  0  0
 17 18  2  0  0  0  0
 17 38  1  0  0  0  0
 18 19  1  0  0  0  0
 18 39  1  0  0  0  0
 19 20  2  0  0  0  0
 20 40  1  0  0  0  0
 21 22  1  0  0  0  0
 21 41  1  0  0  0  0
 21 42  1  0  0  0  0
 22 43  1  0  0  0  0
 22 44  1  0  0  0  0
M  END
> <s_m_source_file>
AV-unprocessed.smi

> <i_m_source_file_index>
1610

> <i_lp_mmshare_version>
43012

> <i_f3d_flags>
0

> <s_epik_input>
W0NIM11TKD1PKSg9TylbTkhdW0NIXTFbQ0gyXVtDSDJdTihbQ0gyXVtDSDJdMSlDKD1PKVtOSF1bQ0gyXVtDSDJdYzJbY0hdW2NIXVtjSF1uW2NIXTI=

> <s_epik_cmdline>
J2VwaWtfcHl0aG9uJywgJy1waCcsICc3LjAnLCAnLXRuJywgJzgnLCAnLW1hJywgJzIwMCcsICctbWV0YWxfYmluZGluZycsICctaW1hZScsICc8aW5maWxlLm1hZT4nLCAnLW9tYWUnLCAnPG91dGZpbGUubWFlPic=

> <r_epik_Ionization_Penalty>
0.0145188

> <r_epik_Ionization_Penalty_Charging>
0

> <r_epik_Ionization_Penalty_Neutral>
0.0145188

> <r_epik_State_Penalty>
0.0113046

> <r_epik_Charging_Adjusted_Penalty>
0.0113046

> <i_epik_Tot_Q>
0

> <i_epik_Tot_abs_Q>
0

> <r_epik_Metal_State_Penalty>
0.0179141

> <b_epik_Metal_Only>
0

> <s_lp_Force_Field>
OPLS_2005

> <r_lp_Energy>
22.3117

> <b_lp_Chiralities_Consistent>
1

> <s_lp_Variant>
AV-unprocessed.smi:1610-1

> <Gold.Version>
5.8.1

> <Gold.Id.Protein>
6NUR|6NUR_protein|mol2

> <Gold.PLP.Fitness>
43.9395

> <Gold.PLP.PLP>
-36.7893

> <Gold.PLP.part.hbond>
-2.4619

> <Gold.PLP.part.metal>
0.0000

> <Gold.PLP.part.buried>
-4.3454

> <Gold.PLP.part.nonpolar>
-30.7851

> <Gold.PLP.part.repulsive>
0.5645

> <Gold.PLP.ligand.clash>
0.0000

> <Gold.PLP.ligand.torsion>
1.0963

> <Gold.PLP.Chemscore.Hbond>
1.7500

> <Gold.PLP.Chemscore.CHOScore>
1.0000

> <Gold.PLP.Chemscore.Metal>
0.0000

> <Gold.Chemscore.Hbonds>
donor molecule, donor type, donor heavy atom, donor atom, acceptor molecule, acceptor atom, score
      P1  H  6896  6907       L1     3  0.75
      P1  H  7989  7998       L1    11  1.00
      L1  C    20    40       P1  8029  1.00

> <Gold.PLP.Chemscore.Internal.Correction>
1.0928

> <Gold.Rescore>
     Score         DG    S(hbond)    S(metal)    S(lipo)     H(rot)  DE(clash)    DE(int)     intcor
     14.11     -15.27       0.90        0.00      95.85       1.73       0.06       1.09       ----

> <Gold.Chemscore.Fitness>
14.1121

> <Gold.Chemscore.DG>
-15.2670

> <Gold.Chemscore.ZeroCoef>
-5.4800

> <Gold.Chemscore.Hbond>
0.8967

> <Gold.Chemscore.Metal>
0.0000

> <Gold.Chemscore.Lipo>
95.8527

> <Gold.Chemscore.Internal_Hbond>
0.0000

> <Gold.Chemscore.DEClash>
0.0643

> <Gold.Chemscore.DEInternal>
1.0906

> <Gold.Chemscore.Rot>
1.7276

> <Gold.Chemscore.Internal.Correction>
   9.000000E+99

> <Gold.Chemscore.Hbonds>
donor molecule, donor type, donor heavy atom, donor atom, acceptor molecule, acceptor atom, score
      P1  H  6896  6907       L1     3  0.09
      P1  H  7989  7998       L1    11  0.25

> <Gold.Chemscore.Hbond.Weighted>
-2.9949

> <Gold.Chemscore.Metal.Weighted>
-0.0000

> <Gold.Chemscore.Lipo.Weighted>
-11.2148

> <Gold.Chemscore.Internal_Hbond.Weighted>
0.0000

> <Gold.Chemscore.DEClash.Weighted>
0.0643

> <Gold.Chemscore.DEInternal.Weighted>
1.0906

> <Gold.Chemscore.Rot.Weighted>
4.4226

> <Gold.Chemscore.Internal.Correction.Weighted>
   9.000000E+99

> <Gold.Protein.RotatedTorsions>
[ 6907 6896 6895 6894 ] final -132.56 input  -60.11 | X-H torsion
[ 7974 7965 7964 7962 ] final   -9.55 input  175.53 | X-H torsion
[ 8008 7997 7996 7995 ] final  -12.16 input   59.86 | X-H torsion
[ 10167 10162 10161 10158 ] final -104.46 input  -65.29 | X-H torsion
[ 10718 10713 10712 10709 ] final -159.35 input   66.30 | X-H torsion
[ 10763 10752 10751 10750 ] final -123.76 input  -60.55 | X-H torsion
[ 11005 11000 10999 10996 ] final -105.03 input  -57.11 | X-H torsion

> <Gold.Protein.ActiveResidues>
 VAL166  LYS551  ARG553  GLY616  TRP617  ASP618  TYR619  PRO620  LYS621  CYS622 
 ASP623  PHE694  ASN695  SER759  ASP760  ASP761  ALA762  ILE779  LEU786  VAL792 
 PHE793  MET794  SER795  GLU796  ALA797  LYS798  CYS799  TRP800  GLU811  SER814 

> <Gold.Protein.RotatedAtoms>
  150.9638  133.6417  159.2749 H   0  0  0  0  0  0  0  0  0  0  0  0  # atno 6907 bound_to 6896
  151.3730  135.0925  159.9481 H   0  0  0  0  0  0  0  0  0  0  0  0  # atno 6908 bound_to 6896
  152.5158  133.9188  159.7579 H   0  0  0  0  0  0  0  0  0  0  0  0  # atno 6909 bound_to 6896
  146.2248  140.2632  142.8353 H   0  0  0  0  0  0  0  0  0  0  0  0  # atno 7974 bound_to 7965
  154.5401  140.2283  155.8655 H   0  0  0  0  0  0  0  0  0  0  0  0  # atno 8008 bound_to 7997
  156.1850  140.3091  155.9184 H   0  0  0  0  0  0  0  0  0  0  0  0  # atno 8009 bound_to 7997
  155.3274  140.0443  157.3032 H   0  0  0  0  0  0  0  0  0  0  0  0  # atno 8010 bound_to 7997
  140.2090  143.3761  152.1066 H   0  0  0  0  0  0  0  0  0  0  0  0  # atno 10167 bound_to 10162
  156.5668  130.8671  151.2826 H   0  0  0  0  0  0  0  0  0  0  0  0  # atno 10718 bound_to 10713
  154.8713  135.4087  154.2996 H   0  0  0  0  0  0  0  0  0  0  0  0  # atno 10763 bound_to 10752
  153.3858  135.7013  153.6537 H   0  0  0  0  0  0  0  0  0  0  0  0  # atno 10764 bound_to 10752
  153.5340  135.3661  155.2660 H   0  0  0  0  0  0  0  0  0  0  0  0  # atno 10765 bound_to 10752
  141.1073  133.8773  157.1684 H   0  0  0  0  0  0  0  0  0  0  0  0  # atno 11005 bound_to 11000
  144.9323  140.7989  143.5681 LP  0  0  0  0  0  0  0  0  0  0  0  0  # atno 17320 bound_to 7965
  145.2577  139.2005  143.4908 LP  0  0  0  0  0  0  0  0  0  0  0  0  # atno 17321 bound_to 7965
  139.5187  144.7009  151.5495 LP  0  0  0  0  0  0  0  0  0  0  0  0  # atno 17342 bound_to 10162
  140.6337  143.9027  150.6628 LP  0  0  0  0  0  0  0  0  0  0  0  0  # atno 17343 bound_to 10162
  157.7357  130.9766  150.2095 LP  0  0  0  0  0  0  0  0  0  0  0  0  # atno 17370 bound_to 10713
  156.2750  130.3726  149.7993 LP  0  0  0  0  0  0  0  0  0  0  0  0  # atno 17371 bound_to 10713
  139.9949  135.0051  157.0059 LP  0  0  0  0  0  0  0  0  0  0  0  0  # atno 17394 bound_to 11000
  140.4870  134.1232  155.7226 LP  0  0  0  0  0  0  0  0  0  0  0  0  # atno 17395 bound_to 11000

$$$$
