AV-unprocessed.smi:1021|AV-procd|sdf|4456|dock8
  -GOLD-   22720 2423D 1   1.00000     0.00000
 Structure written by MMmdl.
 43 45  0  0  0  0  0  0  0  0  2 V2000
  149.6721  139.6607  153.7855 O   0  0  0  0  0  0  0  0  0  0  0  0
  148.6277  140.2249  154.5496 C   0  0  0  0  0  0  0  0  0  0  0  0
  149.1687  141.3338  155.4628 C   0  0  0  0  0  0  0  0  0  0  0  0
  150.5846  141.0462  155.9859 C   0  0  0  0  0  0  0  0  0  0  0  0
  150.9363  141.9321  157.1362 C   0  0  0  0  0  0  0  0  0  0  0  0
  150.8974  143.2943  157.1301 N   0  3  0  0  0  0  0  0  0  0  0  0
  151.3011  143.7847  158.3724 C   0  0  0  0  0  0  0  0  0  0  0  0
  151.4193  145.0885  158.8439 C   0  0  0  0  0  0  0  0  0  0  0  0
  151.8639  145.2428  160.1733 C   0  0  0  0  0  0  0  0  0  0  0  0
  152.1727  144.1272  160.9788 C   0  0  0  0  0  0  0  0  0  0  0  0
  152.0498  142.8100  160.4895 C   0  0  0  0  0  0  0  0  0  0  0  0
  151.6078  142.6668  159.1746 C   0  0  0  0  0  0  0  0  0  0  0  0
  151.3672  141.5460  158.3728 N   0  0  0  0  0  0  0  0  0  0  0  0
  151.5913  140.2043  158.9340 C   0  0  0  0  0  0  0  0  0  0  0  0
  153.0861  139.8326  159.0149 C   0  0  2  0  0  0  0  0  0  0  0  0
  153.4139  139.0764  157.8680 O   0  0  0  0  0  0  0  0  0  0  0  0
  153.4304  139.1068  160.3083 C   0  0  0  0  0  0  0  0  0  0  0  0
  152.9483  137.7982  160.5273 C   0  0  0  0  0  0  0  0  0  0  0  0
  153.2830  137.1060  161.7071 C   0  0  0  0  0  0  0  0  0  0  0  0
  154.1010  137.7184  162.6756 C   0  0  0  0  0  0  0  0  0  0  0  0
  154.4244  137.0516  163.8087 F   0  0  0  0  0  0  0  0  0  0  0  0
  154.5840  139.0239  162.4639 C   0  0  0  0  0  0  0  0  0  0  0  0
  154.2505  139.7165  161.2838 C   0  0  0  0  0  0  0  0  0  0  0  0
  149.3687  139.5512  152.8969 H   0  0  0  0  0  0  0  0  0  0  0  0
  147.8555  140.6112  153.8838 H   0  0  0  0  0  0  0  0  0  0  0  0
  148.1724  139.4356  155.1479 H   0  0  0  0  0  0  0  0  0  0  0  0
  149.1811  142.2678  154.9002 H   0  0  0  0  0  0  0  0  0  0  0  0
  148.4854  141.4911  156.2983 H   0  0  0  0  0  0  0  0  0  0  0  0
  150.6688  140.0065  156.3038 H   0  0  0  0  0  0  0  0  0  0  0  0
  151.3152  141.1853  155.1901 H   0  0  0  0  0  0  0  0  0  0  0  0
  151.1843  145.9445  158.2283 H   0  0  0  0  0  0  0  0  0  0  0  0
  151.9706  146.2367  160.5833 H   0  0  0  0  0  0  0  0  0  0  0  0
  152.5111  144.2846  161.9927 H   0  0  0  0  0  0  0  0  0  0  0  0
  152.2887  141.9616  161.1135 H   0  0  0  0  0  0  0  0  0  0  0  0
  151.1326  140.1671  159.9227 H   0  0  0  0  0  0  0  0  0  0  0  0
  151.0455  139.4884  158.3179 H   0  0  0  0  0  0  0  0  0  0  0  0
  153.6876  140.7406  158.9607 H   0  0  0  0  0  0  0  0  0  0  0  0
  152.7166  139.1709  157.2369 H   0  0  0  0  0  0  0  0  0  0  0  0
  152.3272  137.3175  159.7858 H   0  0  0  0  0  0  0  0  0  0  0  0
  152.9138  136.1039  161.8685 H   0  0  0  0  0  0  0  0  0  0  0  0
  155.2131  139.4936  163.2056 H   0  0  0  0  0  0  0  0  0  0  0  0
  154.6351  140.7137  161.1275 H   0  0  0  0  0  0  0  0  0  0  0  0
  150.6143  143.8463  156.3305 H   0  0  0  0  0  0  0  0  0  0  0  0
  1  2  1  0  0  0  0
  1 24  1  0  0  0  0
  2  3  1  0  0  0  0
  2 25  1  0  0  0  0
  2 26  1  0  0  0  0
  3  4  1  0  0  0  0
  3 27  1  0  0  0  0
  3 28  1  0  0  0  0
  4  5  1  0  0  0  0
  4 29  1  0  0  0  0
  4 30  1  0  0  0  0
  5 13  1  0  0  0  0
  5  6  2  0  0  0  0
  6  7  1  0  0  0  0
  6 43  1  0  0  0  0
  7 12  2  0  0  0  0
  7  8  1  0  0  0  0
  8  9  2  0  0  0  0
  8 31  1  0  0  0  0
  9 10  1  0  0  0  0
  9 32  1  0  0  0  0
 10 11  2  0  0  0  0
 10 33  1  0  0  0  0
 11 12  1  0  0  0  0
 11 34  1  0  0  0  0
 12 13  1  0  0  0  0
 13 14  1  0  0  0  0
 14 15  1  0  0  0  0
 14 35  1  0  0  0  0
 14 36  1  0  0  0  0
 15 16  1  0  0  0  0
 15 17  1  0  0  0  0
 15 37  1  0  0  0  0
 16 38  1  0  0  0  0
 17 23  1  0  0  0  0
 17 18  2  0  0  0  0
 18 19  1  0  0  0  0
 18 39  1  0  0  0  0
 19 20  2  0  0  0  0
 19 40  1  0  0  0  0
 20 21  1  0  0  0  0
 20 22  1  0  0  0  0
 22 23  2  0  0  0  0
 22 41  1  0  0  0  0
 23 42  1  0  0  0  0
M  CHG  1   6   1
M  END
> <s_m_source_file>
AV-unprocessed.smi

> <i_m_source_file_index>
1021

> <i_lp_mmshare_version>
43012

> <i_f3d_flags>
0

> <s_epik_input>
W09IXVtDSDJdW0NIMl1bQ0gyXWMobjEpbihjKGMxMilbY0hdW2NIXVtjSF1bY0hdMilbQ0gyXVtDQEhdKFtPSF0pYzNbY0hdW2NIXWMoRilbY0hdW2NIXTM=

> <s_epik_cmdline>
J2VwaWtfcHl0aG9uJywgJy1waCcsICc3LjAnLCAnLXRuJywgJzgnLCAnLW1hJywgJzIwMCcsICctbWV0YWxfYmluZGluZycsICctaW1hZScsICc8aW5maWxlLm1hZT4nLCAnLW9tYWUnLCAnPG91dGZpbGUubWFlPic=

> <r_epik_Ionization_Penalty>
0.786441

> <r_epik_Ionization_Penalty_Charging>
0.786439

> <r_epik_Ionization_Penalty_Neutral>
1.96029e-06

> <r_epik_State_Penalty>
0.816472

> <r_epik_Charging_Adjusted_Penalty>
1.60291

> <i_epik_Tot_Q>
1

> <i_epik_Tot_abs_Q>
1

> <r_epik_Metal_State_Penalty>
4.73733

> <b_epik_Metal_Only>
0

> <s_lp_Force_Field>
OPLS_2005

> <r_lp_Energy>
17.0058

> <b_lp_Chiralities_Consistent>
1

> <s_lp_Variant>
AV-unprocessed.smi:1021-3

> <Gold.Version>
5.8.1

> <Gold.Id.Protein>
6NUR|6NUR_protein|mol2

> <Gold.PLP.Fitness>
66.5449

> <Gold.PLP.PLP>
-56.0659

> <Gold.PLP.part.hbond>
-3.5730

> <Gold.PLP.part.metal>
0.0000

> <Gold.PLP.part.buried>
-6.8172

> <Gold.PLP.part.nonpolar>
-46.1635

> <Gold.PLP.part.repulsive>
0.0083

> <Gold.PLP.ligand.clash>
0.0000

> <Gold.PLP.ligand.torsion>
1.0762

> <Gold.PLP.Chemscore.Hbond>
4.1926

> <Gold.PLP.Chemscore.CHOScore>
0.0000

> <Gold.PLP.Chemscore.Metal>
0.0000

> <Gold.Chemscore.Hbonds>
donor molecule, donor type, donor heavy atom, donor atom, acceptor molecule, acceptor atom, score
      L1  H     1    24       P1  7957  0.91
      L1  H     6    43       P1  8028  1.49
      P1  H  7989  7998       L1     1  0.27
      P1  H  7997  8008       L1    16  0.83

> <Gold.PLP.Chemscore.Internal.Correction>
0.0537

> <Gold.Rescore>
     Score         DG    S(hbond)    S(metal)    S(lipo)     H(rot)  DE(clash)    DE(int)     intcor
     21.86     -23.01       2.76        0.00     140.16       3.16       0.05       1.10       ----

> <Gold.Chemscore.Fitness>
21.8624

> <Gold.Chemscore.DG>
-23.0117

> <Gold.Chemscore.ZeroCoef>
-5.4800

> <Gold.Chemscore.Hbond>
2.7615

> <Gold.Chemscore.Metal>
0.0000

> <Gold.Chemscore.Lipo>
140.1624

> <Gold.Chemscore.Internal_Hbond>
0.0000

> <Gold.Chemscore.DEClash>
0.0492

> <Gold.Chemscore.DEInternal>
1.1002

> <Gold.Chemscore.Rot>
3.1604

> <Gold.Chemscore.Internal.Correction>
   9.000000E+99

> <Gold.Chemscore.Hbonds>
donor molecule, donor type, donor heavy atom, donor atom, acceptor molecule, acceptor atom, score
      L1  H     1    24       P1  7957  0.90
      L1  H     6    43       P1  8028  0.68
      P1  H  7989  7998       L1     1  0.08
      P1  H  7997  8008       L1    16  0.17

> <Gold.Chemscore.Hbond.Weighted>
-9.2234

> <Gold.Chemscore.Metal.Weighted>
-0.0000

> <Gold.Chemscore.Lipo.Weighted>
-16.3990

> <Gold.Chemscore.Internal_Hbond.Weighted>
0.0000

> <Gold.Chemscore.DEClash.Weighted>
0.0492

> <Gold.Chemscore.DEInternal.Weighted>
1.1002

> <Gold.Chemscore.Rot.Weighted>
8.0907

> <Gold.Chemscore.Internal.Correction.Weighted>
   9.000000E+99

> <Gold.Protein.RotatedTorsions>
[ 6907 6896 6895 6894 ] final -124.07 input  -60.11 | X-H torsion
[ 7974 7965 7964 7962 ] final  170.04 input  175.53 | X-H torsion
[ 8008 7997 7996 7995 ] final -110.64 input   59.86 | X-H torsion
[ 10167 10162 10161 10158 ] final -130.23 input  -65.29 | X-H torsion
[ 10718 10713 10712 10709 ] final  136.89 input   66.30 | X-H torsion
[ 10763 10752 10751 10750 ] final   33.51 input  -60.55 | X-H torsion
[ 11005 11000 10999 10996 ] final  129.29 input  -57.11 | X-H torsion

> <Gold.Protein.ActiveResidues>
 VAL166  LYS551  ARG553  GLY616  TRP617  ASP618  TYR619  PRO620  LYS621  CYS622 
 ASP623  PHE694  ASN695  SER759  ASP760  ASP761  ALA762  ILE779  LEU786  VAL792 
 PHE793  MET794  SER795  GLU796  ALA797  LYS798  CYS799  TRP800  GLU811  SER814 

> <Gold.Protein.RotatedAtoms>
  150.8732  133.7476  159.2954 H   0  0  0  0  0  0  0  0  0  0  0  0  # atno 6907 bound_to 6896
  151.5081  135.1062  159.9856 H   0  0  0  0  0  0  0  0  0  0  0  0  # atno 6908 bound_to 6896
  152.4710  133.7984  159.6995 H   0  0  0  0  0  0  0  0  0  0  0  0  # atno 6909 bound_to 6896
  144.7336  139.9143  143.6417 H   0  0  0  0  0  0  0  0  0  0  0  0  # atno 7974 bound_to 7965
  154.9776  140.0396  157.2263 H   0  0  0  0  0  0  0  0  0  0  0  0  # atno 8008 bound_to 7997
  154.7743  140.2807  155.6090 H   0  0  0  0  0  0  0  0  0  0  0  0  # atno 8009 bound_to 7997
  156.2926  140.2604  156.2553 H   0  0  0  0  0  0  0  0  0  0  0  0  # atno 8010 bound_to 7997
  139.9314  143.6267  152.2528 H   0  0  0  0  0  0  0  0  0  0  0  0  # atno 10167 bound_to 10162
  157.4419  131.1058  151.0134 H   0  0  0  0  0  0  0  0  0  0  0  0  # atno 10718 bound_to 10713
  153.0208  135.6385  154.1523 H   0  0  0  0  0  0  0  0  0  0  0  0  # atno 10763 bound_to 10752
  154.1258  135.2843  155.3199 H   0  0  0  0  0  0  0  0  0  0  0  0  # atno 10764 bound_to 10752
  154.6230  135.5518  153.7658 H   0  0  0  0  0  0  0  0  0  0  0  0  # atno 10765 bound_to 10752
  139.9607  134.9603  156.9127 H   0  0  0  0  0  0  0  0  0  0  0  0  # atno 11005 bound_to 11000
  146.0977  139.3970  143.0366 LP  0  0  0  0  0  0  0  0  0  0  0  0  # atno 17320 bound_to 7965
  145.7622  140.9930  143.1194 LP  0  0  0  0  0  0  0  0  0  0  0  0  # atno 17321 bound_to 7965
  139.6779  144.7657  151.1663 LP  0  0  0  0  0  0  0  0  0  0  0  0  # atno 17342 bound_to 10162
  140.7636  143.5768  150.8937 LP  0  0  0  0  0  0  0  0  0  0  0  0  # atno 17343 bound_to 10162
  157.0994  130.5975  149.5457 LP  0  0  0  0  0  0  0  0  0  0  0  0  # atno 17370 bound_to 10713
  155.9952  130.5018  150.7449 LP  0  0  0  0  0  0  0  0  0  0  0  0  # atno 17371 bound_to 10713
  140.5506  134.0631  155.7368 LP  0  0  0  0  0  0  0  0  0  0  0  0  # atno 17394 bound_to 11000
  141.1284  133.9344  157.2587 LP  0  0  0  0  0  0  0  0  0  0  0  0  # atno 17395 bound_to 11000

$$$$
