AV-unprocessed.smi:1452|AV-procd|sdf|5904|dock10
  -GOLD-   22720 5593D 1   1.00000     0.00000
 Structure written by MMmdl.
 40 42  0  0  0  0  0  0  0  0  2 V2000
  146.2621  138.3011  154.4078 O   0  0  0  0  0  0  0  0  0  0  0  0
  147.0987  137.6763  153.7584 C   0  0  0  0  0  0  0  0  0  0  0  0
  148.3917  138.0621  153.7283 N   0  0  0  0  0  0  0  0  0  0  0  0
  149.0581  139.1557  154.3553 C   0  0  0  0  0  0  0  0  0  0  0  0
  150.4022  138.8996  154.7087 C   0  0  0  0  0  0  0  0  0  0  0  0
  151.1665  139.9125  155.3198 C   0  0  0  0  0  0  0  0  0  0  0  0
  150.5678  141.1619  155.5590 C   0  0  0  0  0  0  0  0  0  0  0  0
  149.2272  141.3388  155.1725 C   0  0  0  0  0  0  0  0  0  0  0  0
  148.4929  140.3687  154.5873 N   0  0  0  0  0  0  0  0  0  0  0  0
  146.7939  136.5803  153.0437 N   0  0  0  0  0  0  0  0  0  0  0  0
  145.4809  135.9452  152.9666 C   0  0  1  0  0  0  0  0  0  0  0  0
  144.6163  136.4998  151.8174 C   0  0  0  0  0  0  0  0  0  0  0  0
  143.9586  135.2651  151.1929 C   0  0  0  0  0  0  0  0  0  0  0  0
  144.9752  134.2230  151.3773 N   0  3  2  0  0  0  0  0  0  0  0  0
  144.6017  132.8184  151.1161 C   0  0  0  0  0  0  0  0  0  0  0  0
  145.8756  131.9504  151.2008 C   0  0  0  0  0  0  0  0  0  0  0  0
  146.6471  132.1705  152.5218 C   0  0  0  0  0  0  0  0  0  0  0  0
  146.8928  133.6692  152.7995 C   0  0  0  0  0  0  0  0  0  0  0  0
  145.5511  134.4202  152.7184 C   0  0  1  0  0  0  0  0  0  0  0  0
  148.9715  137.5318  153.0939 H   0  0  0  0  0  0  0  0  0  0  0  0
  150.8492  137.9349  154.5155 H   0  0  0  0  0  0  0  0  0  0  0  0
  152.1943  139.7330  155.5985 H   0  0  0  0  0  0  0  0  0  0  0  0
  151.1216  141.9638  156.0246 H   0  0  0  0  0  0  0  0  0  0  0  0
  148.7308  142.2839  155.3359 H   0  0  0  0  0  0  0  0  0  0  0  0
  147.5464  136.1335  152.5383 H   0  0  0  0  0  0  0  0  0  0  0  0
  144.9444  136.1162  153.9019 H   0  0  0  0  0  0  0  0  0  0  0  0
  143.8846  137.2329  152.1584 H   0  0  0  0  0  0  0  0  0  0  0  0
  145.2451  136.9875  151.0706 H   0  0  0  0  0  0  0  0  0  0  0  0
  143.0516  134.9962  151.7369 H   0  0  0  0  0  0  0  0  0  0  0  0
  143.7049  135.4075  150.1421 H   0  0  0  0  0  0  0  0  0  0  0  0
  143.8547  132.4866  151.8387 H   0  0  0  0  0  0  0  0  0  0  0  0
  144.1545  132.7340  150.1250 H   0  0  0  0  0  0  0  0  0  0  0  0
  145.6185  130.8966  151.0889 H   0  0  0  0  0  0  0  0  0  0  0  0
  146.5305  132.1953  150.3635 H   0  0  0  0  0  0  0  0  0  0  0  0
  146.0754  131.7413  153.3456 H   0  0  0  0  0  0  0  0  0  0  0  0
  147.5962  131.6342  152.4955 H   0  0  0  0  0  0  0  0  0  0  0  0
  147.3422  133.7934  153.7851 H   0  0  0  0  0  0  0  0  0  0  0  0
  147.6000  134.0722  152.0730 H   0  0  0  0  0  0  0  0  0  0  0  0
  144.8688  133.9624  153.4381 H   0  0  0  0  0  0  0  0  0  0  0  0
  145.7108  134.4489  150.7232 H   0  0  0  0  0  0  0  0  0  0  0  0
  1  2  2  0  0  0  0
  2  3  1  0  0  0  0
  2 10  1  0  0  0  0
  3  4  1  0  0  0  0
  3 20  1  0  0  0  0
  4  9  1  0  0  0  0
  4  5  2  0  0  0  0
  5  6  1  0  0  0  0
  5 21  1  0  0  0  0
  6  7  2  0  0  0  0
  6 22  1  0  0  0  0
  7  8  1  0  0  0  0
  7 23  1  0  0  0  0
  8  9  2  0  0  0  0
  8 24  1  0  0  0  0
 10 11  1  0  0  0  0
 10 25  1  0  0  0  0
 11 19  1  0  0  0  0
 11 12  1  0  0  0  0
 11 26  1  0  0  0  0
 12 13  1  0  0  0  0
 12 27  1  0  0  0  0
 12 28  1  0  0  0  0
 13 14  1  0  0  0  0
 13 29  1  0  0  0  0
 13 30  1  0  0  0  0
 14 19  1  0  0  0  0
 14 15  1  0  0  0  0
 14 40  1  0  0  0  0
 15 16  1  0  0  0  0
 15 31  1  0  0  0  0
 15 32  1  0  0  0  0
 16 17  1  0  0  0  0
 16 33  1  0  0  0  0
 16 34  1  0  0  0  0
 17 18  1  0  0  0  0
 17 35  1  0  0  0  0
 17 36  1  0  0  0  0
 18 19  1  0  0  0  0
 18 37  1  0  0  0  0
 18 38  1  0  0  0  0
 19 39  1  0  0  0  0
M  CHG  1  14   1
M  END
> <s_m_source_file>
AV-unprocessed.smi

> <i_m_source_file_index>
1452

> <i_lp_mmshare_version>
43012

> <i_f3d_flags>
0

> <s_epik_input>
W0NIMl0xW0NIMl1bQ0gyXVtDSDJdW0NASF0oTjEyKVtDQEBIXShbQ0gyXVtDSDJdMilbTkhdQyg9TylbTkhdYzNbY0hdW2NIXVtjSF1bY0hdbjM=

> <s_epik_cmdline>
J2VwaWtfcHl0aG9uJywgJy1waCcsICc3LjAnLCAnLXRuJywgJzgnLCAnLW1hJywgJzIwMCcsICctbWV0YWxfYmluZGluZycsICctaW1hZScsICc8aW5maWxlLm1hZT4nLCAnLW9tYWUnLCAnPG91dGZpbGUubWFlPic=

> <r_epik_Ionization_Penalty>
0.00100813

> <r_epik_Ionization_Penalty_Charging>
0.000974069

> <r_epik_Ionization_Penalty_Neutral>
3.40643e-05

> <r_epik_State_Penalty>
0.000633842

> <r_epik_Charging_Adjusted_Penalty>
0.00160791

> <i_epik_Tot_Q>
1

> <i_epik_Tot_abs_Q>
1

> <r_epik_Metal_State_Penalty>
-0

> <b_epik_Metal_Only>
0

> <s_lp_Force_Field>
OPLS_2005

> <r_lp_Energy>
45.5748

> <b_lp_Chiralities_Consistent>
1

> <s_lp_Variant>
AV-unprocessed.smi:1452-2

> <Gold.Version>
5.8.1

> <Gold.Id.Protein>
6NUR|6NUR_protein|mol2

> <Gold.PLP.Fitness>
34.7511

> <Gold.PLP.PLP>
-27.2291

> <Gold.PLP.part.hbond>
-1.8470

> <Gold.PLP.part.metal>
0.0000

> <Gold.PLP.part.buried>
-0.5815

> <Gold.PLP.part.nonpolar>
-24.6054

> <Gold.PLP.part.repulsive>
0.2265

> <Gold.PLP.ligand.clash>
0.0000

> <Gold.PLP.ligand.torsion>
0.5953

> <Gold.PLP.Chemscore.Hbond>
1.9040

> <Gold.PLP.Chemscore.CHOScore>
1.0000

> <Gold.PLP.Chemscore.Metal>
0.0000

> <Gold.Chemscore.Hbonds>
donor molecule, donor type, donor heavy atom, donor atom, acceptor molecule, acceptor atom, score
      L1  H     3    20       P1  7948  0.91
      L1  H    10    25       P1  7948  1.00
      L1  C     8    24       P1  8028  1.00

> <Gold.PLP.Chemscore.Internal.Correction>
0.0005

> <Gold.Rescore>
     Score         DG    S(hbond)    S(metal)    S(lipo)     H(rot)  DE(clash)    DE(int)     intcor
     15.97     -17.30       1.90        0.00      68.78       1.00       0.01       1.31       ----

> <Gold.Chemscore.Fitness>
15.9737

> <Gold.Chemscore.DG>
-17.2987

> <Gold.Chemscore.ZeroCoef>
-5.4800

> <Gold.Chemscore.Hbond>
1.8958

> <Gold.Chemscore.Metal>
0.0000

> <Gold.Chemscore.Lipo>
68.7761

> <Gold.Chemscore.Internal_Hbond>
0.0000

> <Gold.Chemscore.DEClash>
0.0137

> <Gold.Chemscore.DEInternal>
1.3113

> <Gold.Chemscore.Rot>
1.0000

> <Gold.Chemscore.Internal.Correction>
   9.000000E+99

> <Gold.Chemscore.Hbonds>
donor molecule, donor type, donor heavy atom, donor atom, acceptor molecule, acceptor atom, score
      L1  H     3    20       P1  7948  0.88
      L1  H    10    25       P1  7948  0.91

> <Gold.Chemscore.Hbond.Weighted>
-6.3318

> <Gold.Chemscore.Metal.Weighted>
-0.0000

> <Gold.Chemscore.Lipo.Weighted>
-8.0468

> <Gold.Chemscore.Internal_Hbond.Weighted>
0.0000

> <Gold.Chemscore.DEClash.Weighted>
0.0137

> <Gold.Chemscore.DEInternal.Weighted>
1.3113

> <Gold.Chemscore.Rot.Weighted>
2.5600

> <Gold.Chemscore.Internal.Correction.Weighted>
   9.000000E+99

> <Gold.Protein.RotatedTorsions>
[ 6907 6896 6895 6894 ] final  172.89 input  -60.11 | X-H torsion
[ 7974 7965 7964 7962 ] final -139.96 input  175.53 | X-H torsion
[ 8008 7997 7996 7995 ] final  107.72 input   59.86 | X-H torsion
[ 10167 10162 10161 10158 ] final  120.09 input  -65.29 | X-H torsion
[ 10718 10713 10712 10709 ] final   14.32 input   66.30 | X-H torsion
[ 10763 10752 10751 10750 ] final  -14.65 input  -60.55 | X-H torsion
[ 11005 11000 10999 10996 ] final  -36.52 input  -57.11 | X-H torsion

> <Gold.Protein.ActiveResidues>
 VAL166  LYS551  ARG553  GLY616  TRP617  ASP618  TYR619  PRO620  LYS621  CYS622 
 ASP623  PHE694  ASN695  SER759  ASP760  ASP761  ALA762  ILE779  LEU786  VAL792 
 PHE793  MET794  SER795  GLU796  ALA797  LYS798  CYS799  TRP800  GLU811  SER814 

> <Gold.Protein.RotatedAtoms>
  151.7770  133.3346  159.3460 H   0  0  0  0  0  0  0  0  0  0  0  0  # atno 6907 bound_to 6896
  150.7440  134.5966  159.6024 H   0  0  0  0  0  0  0  0  0  0  0  0  # atno 6908 bound_to 6896
  152.3302  134.7271  160.0343 H   0  0  0  0  0  0  0  0  0  0  0  0  # atno 6909 bound_to 6896
  144.8635  140.6257  143.5313 H   0  0  0  0  0  0  0  0  0  0  0  0  # atno 7974 bound_to 7965
  156.1846  140.3089  155.9214 H   0  0  0  0  0  0  0  0  0  0  0  0  # atno 8008 bound_to 7997
  155.3308  140.0460  157.3059 H   0  0  0  0  0  0  0  0  0  0  0  0  # atno 8009 bound_to 7997
  154.5381  140.2253  155.8697 H   0  0  0  0  0  0  0  0  0  0  0  0  # atno 8010 bound_to 7997
  139.6004  144.7055  151.3076 H   0  0  0  0  0  0  0  0  0  0  0  0  # atno 10167 bound_to 10162
  157.0374  130.6217  149.5745 H   0  0  0  0  0  0  0  0  0  0  0  0  # atno 10718 bound_to 10713
  153.5315  135.7014  153.5681 H   0  0  0  0  0  0  0  0  0  0  0  0  # atno 10763 bound_to 10752
  153.3686  135.3950  155.1772 H   0  0  0  0  0  0  0  0  0  0  0  0  # atno 10764 bound_to 10752
  154.8684  135.3806  154.4812 H   0  0  0  0  0  0  0  0  0  0  0  0  # atno 10765 bound_to 10752
  140.9881  133.7020  156.1801 H   0  0  0  0  0  0  0  0  0  0  0  0  # atno 11005 bound_to 11000
  145.4266  139.1555  143.4045 LP  0  0  0  0  0  0  0  0  0  0  0  0  # atno 17320 bound_to 7965
  146.2878  140.4380  142.8751 LP  0  0  0  0  0  0  0  0  0  0  0  0  # atno 17321 bound_to 7965
  140.7245  143.7042  150.7820 LP  0  0  0  0  0  0  0  0  0  0  0  0  # atno 17342 bound_to 10162
  140.0618  143.5148  152.2624 LP  0  0  0  0  0  0  0  0  0  0  0  0  # atno 17343 bound_to 10162
  156.0049  130.5134  150.7795 LP  0  0  0  0  0  0  0  0  0  0  0  0  # atno 17370 bound_to 10713
  157.5131  131.0927  151.0173 LP  0  0  0  0  0  0  0  0  0  0  0  0  # atno 17371 bound_to 10713
  140.7083  134.4489  157.5583 LP  0  0  0  0  0  0  0  0  0  0  0  0  # atno 17394 bound_to 11000
  139.8979  134.8625  156.2022 LP  0  0  0  0  0  0  0  0  0  0  0  0  # atno 17395 bound_to 11000

$$$$
