AV-unprocessed.smi:2780|AV-procd|sdf|10713|dock3
  -GOLD-   2272015153D 1   1.00000     0.00000
 Structure written by MMmdl.
 47 49  0  0  0  0  0  0  0  0  2 V2000
  152.0751  145.0252  156.8454 C   0  0  0  0  0  0  0  0  0  0  0  0
  152.0706  144.4692  158.2600 C   0  0  0  0  0  0  0  0  0  0  0  0
  152.0069  145.2936  159.3244 C   0  0  0  0  0  0  0  0  0  0  0  0
  152.0564  144.8434  160.7739 C   0  0  0  0  0  0  0  0  0  0  0  0
  152.0021  143.3152  160.9346 C   0  0  0  0  0  0  0  0  0  0  0  0
  152.7844  142.6038  159.8169 C   0  0  1  0  0  0  0  0  0  0  0  0
  152.9418  141.0976  160.0887 C   0  0  0  0  0  0  0  0  0  0  0  0
  152.1957  142.9479  158.4193 C   0  0  1  0  0  0  0  0  0  0  0  0
  150.8604  142.2132  158.1287 C   0  0  0  0  0  0  0  0  0  0  0  0
  150.3805  142.4141  156.7475 N   0  3  0  0  0  0  0  0  0  0  0  0
  149.7173  141.2331  156.1631 C   0  0  0  0  0  0  0  0  0  0  0  0
  149.4102  141.4529  154.6757 C   0  0  0  0  0  0  0  0  0  0  0  0
  148.3891  140.5365  154.2013 N   0  0  0  0  0  0  0  0  0  0  0  0
  148.5036  139.2259  153.9366 C   0  0  0  0  0  0  0  0  0  0  0  0
  147.3843  138.6337  153.5236 N   0  0  0  0  0  0  0  0  0  0  0  0
  146.4398  139.6407  153.5201 N   0  0  0  0  0  0  0  0  0  0  0  0
  147.0869  140.7432  153.9156 C   0  0  0  0  0  0  0  0  0  0  0  0
  146.4266  142.0743  154.0861 C   0  0  0  0  0  0  0  0  0  0  0  0
  146.4338  142.7898  155.4191 C   0  0  0  0  0  0  0  0  0  0  0  0
  145.1486  142.2150  154.8835 C   0  0  0  0  0  0  0  0  0  0  0  0
  152.8863  144.5863  156.2642 H   0  0  0  0  0  0  0  0  0  0  0  0
  152.2210  146.1060  156.8509 H   0  0  0  0  0  0  0  0  0  0  0  0
  151.1335  144.8307  156.3348 H   0  0  0  0  0  0  0  0  0  0  0  0
  151.9476  146.3614  159.1699 H   0  0  0  0  0  0  0  0  0  0  0  0
  152.9854  145.2230  161.2004 H   0  0  0  0  0  0  0  0  0  0  0  0
  151.2420  145.3095  161.3290 H   0  0  0  0  0  0  0  0  0  0  0  0
  152.3987  143.0419  161.9133 H   0  0  0  0  0  0  0  0  0  0  0  0
  150.9640  142.9822  160.9279 H   0  0  0  0  0  0  0  0  0  0  0  0
  153.7975  143.0105  159.8358 H   0  0  0  0  0  0  0  0  0  0  0  0
  151.9810  140.6063  160.2412 H   0  0  0  0  0  0  0  0  0  0  0  0
  153.5330  140.9284  160.9891 H   0  0  0  0  0  0  0  0  0  0  0  0
  153.4526  140.5988  159.2646 H   0  0  0  0  0  0  0  0  0  0  0  0
  152.9276  142.6087  157.6847 H   0  0  0  0  0  0  0  0  0  0  0  0
  150.9758  141.1392  158.2677 H   0  0  0  0  0  0  0  0  0  0  0  0
  150.0873  142.5428  158.8235 H   0  0  0  0  0  0  0  0  0  0  0  0
  149.7271  143.1845  156.7467 H   0  0  0  0  0  0  0  0  0  0  0  0
  150.3632  140.3637  156.2889 H   0  0  0  0  0  0  0  0  0  0  0  0
  148.7955  141.0307  156.7104 H   0  0  0  0  0  0  0  0  0  0  0  0
  149.0605  142.4722  154.5059 H   0  0  0  0  0  0  0  0  0  0  0  0
  150.3112  141.3268  154.0747 H   0  0  0  0  0  0  0  0  0  0  0  0
  149.4329  138.6873  154.0517 H   0  0  0  0  0  0  0  0  0  0  0  0
  146.5351  142.6754  153.1854 H   0  0  0  0  0  0  0  0  0  0  0  0
  146.8937  142.2843  156.2660 H   0  0  0  0  0  0  0  0  0  0  0  0
  146.5449  143.8721  155.4064 H   0  0  0  0  0  0  0  0  0  0  0  0
  144.4005  142.9125  154.5129 H   0  0  0  0  0  0  0  0  0  0  0  0
  144.7564  141.3314  155.3825 H   0  0  0  0  0  0  0  0  0  0  0  0
  151.1700  142.6602  156.1673 H   0  0  0  0  0  0  0  0  0  0  0  0
  1  2  1  0  0  0  0
  1 21  1  0  0  0  0
  1 22  1  0  0  0  0
  1 23  1  0  0  0  0
  2  8  1  0  0  0  0
  2  3  2  0  0  0  0
  3  4  1  0  0  0  0
  3 24  1  0  0  0  0
  4  5  1  0  0  0  0
  4 25  1  0  0  0  0
  4 26  1  0  0  0  0
  5  6  1  0  0  0  0
  5 27  1  0  0  0  0
  5 28  1  0  0  0  0
  6  7  1  0  0  0  0
  6  8  1  0  0  0  0
  6 29  1  0  0  0  0
  7 30  1  0  0  0  0
  7 31  1  0  0  0  0
  7 32  1  0  0  0  0
  8  9  1  0  0  0  0
  8 33  1  0  0  0  0
  9 10  1  0  0  0  0
  9 34  1  0  0  0  0
  9 35  1  0  0  0  0
 10 11  1  0  0  0  0
 10 36  1  0  0  0  0
 10 47  1  0  0  0  0
 11 12  1  0  0  0  0
 11 37  1  0  0  0  0
 11 38  1  0  0  0  0
 12 13  1  0  0  0  0
 12 39  1  0  0  0  0
 12 40  1  0  0  0  0
 13 17  1  0  0  0  0
 13 14  1  0  0  0  0
 14 15  2  0  0  0  0
 14 41  1  0  0  0  0
 15 16  1  0  0  0  0
 16 17  2  0  0  0  0
 17 18  1  0  0  0  0
 18 20  1  0  0  0  0
 18 19  1  0  0  0  0
 18 42  1  0  0  0  0
 19 20  1  0  0  0  0
 19 43  1  0  0  0  0
 19 44  1  0  0  0  0
 20 45  1  0  0  0  0
 20 46  1  0  0  0  0
M  CHG  1  10   1
M  END
> <s_m_source_file>
AV-unprocessed.smi

> <i_m_source_file_index>
2780

> <i_lp_mmshare_version>
43012

> <i_f3d_flags>
0

> <s_epik_input>
W0NIM11DMT1bQ0hdW0NIMl1bQ0gyXVtDQEBIXShbQ0gzXSlbQ0BIXTFbQ0gyXVtOSF1bQ0gyXVtDSDJdbjJbY0hdbm5jMltDSF0zW0NIMl1bQ0gyXTM=

> <s_epik_cmdline>
J2VwaWtfcHl0aG9uJywgJy1waCcsICc3LjAnLCAnLXRuJywgJzgnLCAnLW1hJywgJzIwMCcsICctbWV0YWxfYmluZGluZycsICctaW1hZScsICc8aW5maWxlLm1hZT4nLCAnLW9tYWUnLCAnPG91dGZpbGUubWFlPic=

> <r_lp_tautomer_probability>
1

> <r_epik_Ionization_Penalty>
0.00176214

> <r_epik_Ionization_Penalty_Charging>
0.00175191

> <r_epik_Ionization_Penalty_Neutral>
1.02377e-05

> <r_epik_State_Penalty>
-0

> <r_epik_Charging_Adjusted_Penalty>
0.00175191

> <i_epik_Tot_Q>
1

> <i_epik_Tot_abs_Q>
1

> <r_epik_Metal_State_Penalty>
-0

> <b_epik_Metal_Only>
0

> <s_lp_Force_Field>
OPLS_2005

> <r_lp_Energy>
21.6978

> <b_lp_Chiralities_Consistent>
1

> <s_lp_Variant>
AV-unprocessed.smi:2780-1

> <Gold.Version>
5.8.1

> <Gold.Id.Protein>
6NUR|6NUR_protein|mol2

> <Gold.PLP.Fitness>
49.3047

> <Gold.PLP.PLP>
-44.3172

> <Gold.PLP.part.hbond>
-1.0000

> <Gold.PLP.part.metal>
0.0000

> <Gold.PLP.part.buried>
-2.9174

> <Gold.PLP.part.nonpolar>
-41.8189

> <Gold.PLP.part.repulsive>
0.4518

> <Gold.PLP.ligand.clash>
0.0000

> <Gold.PLP.ligand.torsion>
0.6277

> <Gold.PLP.Chemscore.Hbond>
2.0000

> <Gold.PLP.Chemscore.CHOScore>
0.0000

> <Gold.PLP.Chemscore.Metal>
0.0000

> <Gold.Chemscore.Hbonds>
donor molecule, donor type, donor heavy atom, donor atom, acceptor molecule, acceptor atom, score
      L1  H    10    36       P1  8028  1.72

> <Gold.PLP.Chemscore.Internal.Correction>
0.2429

> <Gold.Rescore>
     Score         DG    S(hbond)    S(metal)    S(lipo)     H(rot)  DE(clash)    DE(int)     intcor
     16.77     -19.56       0.99        0.00     135.50       1.98       2.00       0.78       ----

> <Gold.Chemscore.Fitness>
16.7711

> <Gold.Chemscore.DG>
-19.5567

> <Gold.Chemscore.ZeroCoef>
-5.4800

> <Gold.Chemscore.Hbond>
0.9855

> <Gold.Chemscore.Metal>
0.0000

> <Gold.Chemscore.Lipo>
135.5003

> <Gold.Chemscore.Internal_Hbond>
0.0000

> <Gold.Chemscore.DEClash>
2.0024

> <Gold.Chemscore.DEInternal>
0.7832

> <Gold.Chemscore.Rot>
1.9799

> <Gold.Chemscore.Internal.Correction>
   9.000000E+99

> <Gold.Chemscore.Hbonds>
donor molecule, donor type, donor heavy atom, donor atom, acceptor molecule, acceptor atom, score
      L1  H    10    36       P1  8028  0.81

> <Gold.Chemscore.Hbond.Weighted>
-3.2917

> <Gold.Chemscore.Metal.Weighted>
-0.0000

> <Gold.Chemscore.Lipo.Weighted>
-15.8535

> <Gold.Chemscore.Internal_Hbond.Weighted>
0.0000

> <Gold.Chemscore.DEClash.Weighted>
2.0024

> <Gold.Chemscore.DEInternal.Weighted>
0.7832

> <Gold.Chemscore.Rot.Weighted>
5.0685

> <Gold.Chemscore.Internal.Correction.Weighted>
   9.000000E+99

> <Gold.Protein.RotatedTorsions>
[ 6907 6896 6895 6894 ] final   53.09 input  -60.11 | X-H torsion
[ 7974 7965 7964 7962 ] final  -19.24 input  175.53 | X-H torsion
[ 8008 7997 7996 7995 ] final   87.29 input   59.86 | X-H torsion
[ 10167 10162 10161 10158 ] final   12.24 input  -65.29 | X-H torsion
[ 10718 10713 10712 10709 ] final   45.15 input   66.30 | X-H torsion
[ 10763 10752 10751 10750 ] final  161.06 input  -60.55 | X-H torsion
[ 11005 11000 10999 10996 ] final -156.19 input  -57.11 | X-H torsion

> <Gold.Protein.ActiveResidues>
 VAL166  LYS551  ARG553  GLY616  TRP617  ASP618  TYR619  PRO620  LYS621  CYS622 
 ASP623  PHE694  ASN695  SER759  ASP760  ASP761  ALA762  ILE779  LEU786  VAL792 
 PHE793  MET794  SER795  GLU796  ALA797  LYS798  CYS799  TRP800  GLU811  SER814 

> <Gold.Protein.RotatedAtoms>
  152.3301  134.7270  160.0291 H   0  0  0  0  0  0  0  0  0  0  0  0  # atno 6907 bound_to 6896
  151.7690  133.3334  159.3447 H   0  0  0  0  0  0  0  0  0  0  0  0  # atno 6908 bound_to 6896
  150.7418  134.5968  159.6060 H   0  0  0  0  0  0  0  0  0  0  0  0  # atno 6909 bound_to 6896
  146.1851  140.4034  142.8479 H   0  0  0  0  0  0  0  0  0  0  0  0  # atno 7974 bound_to 7965
  155.9735  140.3383  155.6598 H   0  0  0  0  0  0  0  0  0  0  0  0  # atno 8008 bound_to 7997
  155.6643  140.0719  157.2561 H   0  0  0  0  0  0  0  0  0  0  0  0  # atno 8009 bound_to 7997
  154.4173  140.1703  156.1797 H   0  0  0  0  0  0  0  0  0  0  0  0  # atno 8010 bound_to 7997
  140.6080  143.8466  150.7035 H   0  0  0  0  0  0  0  0  0  0  0  0  # atno 10167 bound_to 10162
  157.4344  130.8044  149.7634 H   0  0  0  0  0  0  0  0  0  0  0  0  # atno 10718 bound_to 10713
  154.2571  135.2769  155.2793 H   0  0  0  0  0  0  0  0  0  0  0  0  # atno 10763 bound_to 10752
  154.5415  135.5701  153.6847 H   0  0  0  0  0  0  0  0  0  0  0  0  # atno 10764 bound_to 10752
  152.9969  135.6252  154.2721 H   0  0  0  0  0  0  0  0  0  0  0  0  # atno 10765 bound_to 10752
  140.6782  134.4173  157.5228 H   0  0  0  0  0  0  0  0  0  0  0  0  # atno 11005 bound_to 11000
  144.8384  140.6818  143.6246 LP  0  0  0  0  0  0  0  0  0  0  0  0  # atno 17320 bound_to 7965
  145.3961  139.1607  143.4203 LP  0  0  0  0  0  0  0  0  0  0  0  0  # atno 17321 bound_to 7965
  140.2028  143.3945  152.1778 LP  0  0  0  0  0  0  0  0  0  0  0  0  # atno 17342 bound_to 10162
  139.5340  144.7190  151.4958 LP  0  0  0  0  0  0  0  0  0  0  0  0  # atno 17343 bound_to 10162
  155.9925  130.3930  150.2939 LP  0  0  0  0  0  0  0  0  0  0  0  0  # atno 17370 bound_to 10713
  157.1099  131.0218  151.3052 LP  0  0  0  0  0  0  0  0  0  0  0  0  # atno 17371 bound_to 10713
  139.8960  134.8670  156.2107 LP  0  0  0  0  0  0  0  0  0  0  0  0  # atno 17394 bound_to 11000
  141.0338  133.6974  156.1477 LP  0  0  0  0  0  0  0  0  0  0  0  0  # atno 17395 bound_to 11000

$$$$
