#       Name:                AV-unprocessed.smi:1041
#       Creating user name   scv26
#       Creation time:       Fri Mar 27 02:55:48 2020


#       File generated by GOLD software.
#

@<TRIPOS>MOLECULE
AV-unprocessed.smi:1041
    60    61     1
SMALL
NO_CHARGES


@<TRIPOS>ATOM
      1 ****        -3.7100  -3.9750  -3.3049 C.3            1 S1                 0.0000
      2 ****        -3.2045  -3.1411  -2.2768 O.3            1 S1                 0.0000
      3 ****        -4.0224  -2.0061  -2.0445 C.3            1 S1                 0.0000
      4 ****        -3.4019  -1.1686  -0.9160 C.3            1 S1                 0.0000
      5 ****        -2.0701  -0.6220  -1.2815 N.4            1 S1                 1.0000
      6 ****        -1.2407  -0.3206  -0.0874 C.3            1 S1                 0.0000
      7 ****         0.1788   0.1046  -0.4919 C.3            1 S1                 0.0000
      8 ****         0.1534   1.3207  -1.4414 C.3            1 S1                 0.0000
      9 ****         1.5596   1.7737  -1.8864 C.3            1 S1                 0.0000
     10 ****         2.3649   2.1458  -0.7305 N.am           1 S1                 0.0000
     11 ****         3.4276   1.4722  -0.2659 C.2            1 S1                 0.0000
     12 ****         4.0005   0.5785  -0.8883 O.2            1 S1                 0.0000
     13 ****         3.8588   1.8235   1.1572 C.3            1 S1                 0.0000
     14 ****         2.8679   1.3649   2.2278 C.2            1 S1                 0.0000
     15 ****         2.8775   0.1137   2.7706 C.2            1 S1                 0.0000
     16 ****         3.8986  -0.9447   2.3922 C.3            1 S1                 0.0000
     17 ****         1.9120  -0.2768   3.7139 N.2            1 S1                 0.0000
     18 ****         0.9979   0.5476   4.0580 C.2            1 S1                 0.0000
     19 ****        -0.0403   0.1194   5.0730 C.3            1 S1                 0.0000
     20 ****         0.8909   1.8272   3.5616 N.pl3          1 S1                -1.0000
     21 ****         1.8009   2.2877   2.6574 C.2            1 S1                 0.0000
     22 ****         1.7395   3.4248   2.1911 O.2            1 S1                 0.0000
     23 ****        -0.7397   0.9888  -2.6482 C.3            1 S1                 0.0000
     24 ****        -2.1427   0.5443  -2.2016 C.3            1 S1                 0.0000
     25 ****        -3.0492  -4.8311  -3.4398 H              1 S1                 0.0000
     26 ****        -3.7662  -3.4405  -4.2543 H              1 S1                 0.0000
     27 ****        -4.7027  -4.3525  -3.0559 H              1 S1                 0.0000
     28 ****        -4.1430  -1.4233  -2.9577 H              1 S1                 0.0000
     29 ****        -5.0183  -2.3342  -1.7433 H              1 S1                 0.0000
     30 ****        -4.0682  -0.3514  -0.6355 H              1 S1                 0.0000
     31 ****        -3.3114  -1.8058  -0.0350 H              1 S1                 0.0000
     32 ****        -1.7162   0.4649   0.5022 H              1 S1                 0.0000
     33 ****        -1.1774  -1.2022   0.5519 H              1 S1                 0.0000
     34 ****         0.7413   0.3324   0.4131 H              1 S1                 0.0000
     35 ****         0.6922  -0.7303  -0.9708 H              1 S1                 0.0000
     36 ****        -0.3061   2.1528  -0.9049 H              1 S1                 0.0000
     37 ****         2.0406   0.9917  -2.4758 H              1 S1                 0.0000
     38 ****         1.4817   2.6460  -2.5357 H              1 S1                 0.0000
     39 ****         1.9905   2.8760  -0.1407 H              1 S1                 0.0000
     40 ****         4.8328   1.3728   1.3475 H              1 S1                 0.0000
     41 ****         4.0316   2.8983   1.2258 H              1 S1                 0.0000
     42 ****         4.9063  -0.6107   2.6398 H              1 S1                 0.0000
     43 ****         3.8533  -1.1563   1.3240 H              1 S1                 0.0000
     44 ****         3.7157  -1.8786   2.9252 H              1 S1                 0.0000
     45 ****         0.1565   0.5944   6.0344 H              1 S1                 0.0000
     46 ****        -0.0275  -0.9622   5.2147 H              1 S1                 0.0000
     47 ****        -1.0393   0.4062   4.7429 H              1 S1                 0.0000
     48 ****        -0.8229   1.8587  -3.3007 H              1 S1                 0.0000
     49 ****        -0.2794   0.1992  -3.2441 H              1 S1                 0.0000
     50 ****        -2.7288   0.2962  -3.0854 H              1 S1                 0.0000
     51 ****        -2.6557   1.3695  -1.7049 H              1 S1                 0.0000
     52 ****        -1.5880  -1.3601  -1.7750 H              1 S1                 0.0000
     53 ****        -2.2907  -2.8297  -2.5372 LP             1 S1                 0.0000
     54 ****        -3.1472  -3.6731  -1.4319 LP             1 S1                 0.0000
     55 ****         3.6776   0.3163  -1.7977 LP             1 S1                 0.0000
     56 ****         4.7891   0.1144  -0.4847 LP             1 S1                 0.0000
     57 ****         1.9399  -1.1933   4.1132 LP             1 S1                 0.0000
     58 ****         0.1446   2.4196   3.8648 LP             1 S1                 0.0000
     59 ****         2.4149   3.7263   1.5181 LP             1 S1                 0.0000
     60 ****         1.0143   4.0473   2.4852 LP             1 S1                 0.0000
@<TRIPOS>BOND
    1    1    2 1     
    2    1   25 1     
    3    1   26 1     
    4    1   27 1     
    5    2    3 1     
    6    3    4 1     
    7    3   28 1     
    8    3   29 1     
    9    4    5 1     
   10    4   30 1     
   11    4   31 1     
   12    5   24 1     
   13    5    6 1     
   14    5   52 1     
   15    6    7 1     
   16    6   32 1     
   17    6   33 1     
   18    7    8 1     
   19    7   34 1     
   20    7   35 1     
   21    8    9 1     
   22    8   23 1     
   23    8   36 1     
   24    9   10 1     
   25    9   37 1     
   26    9   38 1     
   27   10   11 am    
   28   10   39 1     
   29   11   12 2     
   30   11   13 1     
   31   13   14 1     
   32   13   40 1     
   33   13   41 1     
   34   14   21 1     
   35   14   15 2     
   36   15   16 1     
   37   15   17 1     
   38   16   42 1     
   39   16   43 1     
   40   16   44 1     
   41   17   18 2     
   42   18   19 1     
   43   18   20 1     
   44   19   45 1     
   45   19   46 1     
   46   19   47 1     
   47   20   21 1     
   48   21   22 2     
   49   23   24 1     
   50   23   48 1     
   51   23   49 1     
   52   24   50 1     
   53   24   51 1     
   54    2   53 1     
   55    2   54 1     
   56   12   55 1     
   57   12   56 1     
   58   17   57 1     
   59   20   58 1     
   60   22   59 1     
   61   22   60 1     
@<TRIPOS>SUBSTRUCTURE
      1 S1             1
@<TRIPOS>SET
LONE_PAIRS      STATIC     ATOMS    <user>   **** ""
8 53 54 55 56 57 58 59 60
DONOR_HYDROGENS      STATIC     ATOMS    <user>   **** ""
2 52 39
ATOM$BLUE        STATIC     ATOMS    COLORGROUP SYSTEM
8 53 54 55 56 57 58 59 60
ATOM$RED        STATIC     ATOMS    COLORGROUP SYSTEM
2 52 39
