AV-unprocessed.smi:3056|AV-procd|sdf|11658|dock9
  -GOLD-   2272017 63D 1   1.00000     0.00000
 Structure written by MMmdl.
 47 48  0  0  0  0  0  0  0  0  1 V2000
  151.8848  145.2797  160.0421 C   0  0  0  0  0  0  0  0  0  0  0  0
  152.4109  143.9111  160.3651 C   0  0  0  0  0  0  0  0  0  0  0  0
  152.4660  143.2723  161.6358 C   0  0  0  0  0  0  0  0  0  0  0  0
  152.9862  142.0578  161.5775 N   0  0  0  0  0  0  0  0  0  0  0  0
  153.2910  141.8766  160.2722 N   0  0  0  0  0  0  0  0  0  0  0  0
  153.8707  140.6186  159.8060 C   0  0  1  0  0  0  0  0  0  0  0  0
  155.0020  140.1210  160.7277 C   0  0  0  0  0  0  0  0  0  0  0  0
  152.8102  139.5270  159.4956 C   0  0  2  0  0  0  0  0  0  0  0  0
  153.3767  138.3899  158.6207 C   0  0  0  0  0  0  0  0  0  0  0  0
  151.6513  140.1294  158.8406 N   0  0  0  0  0  0  0  0  0  0  0  0
  150.7475  139.1394  158.2412 C   0  0  0  0  0  0  0  0  0  0  0  0
  149.5135  139.8072  157.6240 C   0  0  0  0  0  0  0  0  0  0  0  0
  148.4160  139.5511  158.1200 O   0  0  0  0  0  0  0  0  0  0  0  0
  149.6563  140.6436  156.5666 N   0  0  0  0  0  0  0  0  0  0  0  0
  150.9104  140.9766  155.8835 C   0  0  0  0  0  0  0  0  0  0  0  0
  150.8260  140.4587  154.4376 C   0  0  0  0  0  0  0  0  0  0  0  0
  149.6946  141.0325  153.7869 O   0  0  0  0  0  0  0  0  0  0  0  0
  148.4595  140.7480  154.4421 C   0  0  2  0  0  0  0  0  0  0  0  0
  147.3288  141.3955  153.6356 C   0  0  0  0  0  0  0  0  0  0  0  0
  148.5216  141.2771  155.8891 C   0  0  0  0  0  0  0  0  0  0  0  0
  152.9466  142.9812  159.5200 C   0  0  0  0  0  0  0  0  0  0  0  0
  151.1512  145.6144  160.7758 H   0  0  0  0  0  0  0  0  0  0  0  0
  151.3973  145.3054  159.0673 H   0  0  0  0  0  0  0  0  0  0  0  0
  152.6830  146.0216  160.0227 H   0  0  0  0  0  0  0  0  0  0  0  0
  152.1419  143.6525  162.5932 H   0  0  0  0  0  0  0  0  0  0  0  0
  154.3529  140.8522  158.8556 H   0  0  0  0  0  0  0  0  0  0  0  0
  155.4866  139.2392  160.3083 H   0  0  0  0  0  0  0  0  0  0  0  0
  154.6366  139.8548  161.7199 H   0  0  0  0  0  0  0  0  0  0  0  0
  155.7675  140.8872  160.8530 H   0  0  0  0  0  0  0  0  0  0  0  0
  152.4945  139.1066  160.4519 H   0  0  0  0  0  0  0  0  0  0  0  0
  154.3031  138.0011  159.0442 H   0  0  0  0  0  0  0  0  0  0  0  0
  153.5943  138.7298  157.6074 H   0  0  0  0  0  0  0  0  0  0  0  0
  152.6877  137.5494  158.5449 H   0  0  0  0  0  0  0  0  0  0  0  0
  151.1610  140.6997  159.5152 H   0  0  0  0  0  0  0  0  0  0  0  0
  151.2532  138.5441  157.4820 H   0  0  0  0  0  0  0  0  0  0  0  0
  150.4203  138.4400  159.0123 H   0  0  0  0  0  0  0  0  0  0  0  0
  151.0427  142.0592  155.8863 H   0  0  0  0  0  0  0  0  0  0  0  0
  151.7985  140.5705  156.3633 H   0  0  0  0  0  0  0  0  0  0  0  0
  151.7258  140.7317  153.8861 H   0  0  0  0  0  0  0  0  0  0  0  0
  150.7566  139.3699  154.4181 H   0  0  0  0  0  0  0  0  0  0  0  0
  148.3048  139.6675  154.4535 H   0  0  0  0  0  0  0  0  0  0  0  0
  146.3581  141.1935  154.0890 H   0  0  0  0  0  0  0  0  0  0  0  0
  147.3060  141.0081  152.6167 H   0  0  0  0  0  0  0  0  0  0  0  0
  147.4536  142.4771  153.5784 H   0  0  0  0  0  0  0  0  0  0  0  0
  147.5717  141.0905  156.3917 H   0  0  0  0  0  0  0  0  0  0  0  0
  148.6575  142.3597  155.8940 H   0  0  0  0  0  0  0  0  0  0  0  0
  153.1071  143.0126  158.4524 H   0  0  0  0  0  0  0  0  0  0  0  0
  1  2  1  0  0  0  0
  1 22  1  0  0  0  0
  1 23  1  0  0  0  0
  1 24  1  0  0  0  0
  2 21  2  0  0  0  0
  2  3  1  0  0  0  0
  3  4  2  0  0  0  0
  3 25  1  0  0  0  0
  4  5  1  0  0  0  0
  5  6  1  0  0  0  0
  5 21  1  0  0  0  0
  6  7  1  0  0  0  0
  6  8  1  0  0  0  0
  6 26  1  0  0  0  0
  7 27  1  0  0  0  0
  7 28  1  0  0  0  0
  7 29  1  0  0  0  0
  8  9  1  0  0  0  0
  8 10  1  0  0  0  0
  8 30  1  0  0  0  0
  9 31  1  0  0  0  0
  9 32  1  0  0  0  0
  9 33  1  0  0  0  0
 10 11  1  0  0  0  0
 10 34  1  0  0  0  0
 11 12  1  0  0  0  0
 11 35  1  0  0  0  0
 11 36  1  0  0  0  0
 12 13  2  0  0  0  0
 12 14  1  0  0  0  0
 14 20  1  0  0  0  0
 14 15  1  0  0  0  0
 15 16  1  0  0  0  0
 15 37  1  0  0  0  0
 15 38  1  0  0  0  0
 16 17  1  0  0  0  0
 16 39  1  0  0  0  0
 16 40  1  0  0  0  0
 17 18  1  0  0  0  0
 18 19  1  0  0  0  0
 18 20  1  0  0  0  0
 18 41  1  0  0  0  0
 19 42  1  0  0  0  0
 19 43  1  0  0  0  0
 19 44  1  0  0  0  0
 20 45  1  0  0  0  0
 20 46  1  0  0  0  0
 21 47  1  0  0  0  0
M  END
> <s_m_source_file>
AV-unprocessed.smi

> <i_m_source_file_index>
3056

> <i_lp_mmshare_version>
43012

> <i_f3d_flags>
0

> <s_epik_input>
W0NIM11jMVtjSF1ubihbY0hdMSlbQ0BIXShbQ0gzXSlbQ0BIXShbQ0gzXSlbTkhdW0NIMl1DKD1PKU4yW0NIMl1bQ0gyXU9bQ0BASF0oW0NIM10pW0NIMl0y

> <s_epik_cmdline>
J2VwaWtfcHl0aG9uJywgJy1waCcsICc3LjAnLCAnLXRuJywgJzgnLCAnLW1hJywgJzIwMCcsICctbWV0YWxfYmluZGluZycsICctaW1hZScsICc8aW5maWxlLm1hZT4nLCAnLW9tYWUnLCAnPG91dGZpbGUubWFlPic=

> <r_lp_tautomer_probability>
1

> <r_epik_Ionization_Penalty>
0.667689

> <r_epik_Ionization_Penalty_Charging>
0

> <r_epik_Ionization_Penalty_Neutral>
0.667689

> <r_epik_State_Penalty>
0.684601

> <r_epik_Charging_Adjusted_Penalty>
0.684601

> <i_epik_Tot_Q>
0

> <i_epik_Tot_abs_Q>
0

> <r_epik_Metal_State_Penalty>
0.681448

> <b_epik_Metal_Only>
0

> <s_lp_Force_Field>
OPLS_2005

> <r_lp_Energy>
30.4655

> <b_lp_Chiralities_Consistent>
1

> <s_lp_Variant>
AV-unprocessed.smi:3056-14

> <Gold.Version>
5.8.1

> <Gold.Id.Protein>
6NUR|6NUR_protein|mol2

> <Gold.PLP.Fitness>
42.8876

> <Gold.PLP.PLP>
-42.0082

> <Gold.PLP.part.hbond>
-3.0000

> <Gold.PLP.part.metal>
0.0000

> <Gold.PLP.part.buried>
-2.2140

> <Gold.PLP.part.nonpolar>
-36.9372

> <Gold.PLP.part.repulsive>
1.4543

> <Gold.PLP.ligand.clash>
0.0000

> <Gold.PLP.ligand.torsion>
0.9152

> <Gold.PLP.Chemscore.Hbond>
0.8437

> <Gold.PLP.Chemscore.CHOScore>
0.0000

> <Gold.PLP.Chemscore.Metal>
0.0000

> <Gold.Chemscore.Hbonds>
donor molecule, donor type, donor heavy atom, donor atom, acceptor molecule, acceptor atom, score
      P1  H  8011  8017       L1    17  0.93

> <Gold.PLP.Chemscore.Internal.Correction>
0.1787

> <Gold.Rescore>
     Score         DG    S(hbond)    S(metal)    S(lipo)     H(rot)  DE(clash)    DE(int)     intcor
     13.45     -16.99       0.75        0.00     113.65       1.68       2.45       1.09       ----

> <Gold.Chemscore.Fitness>
13.4473

> <Gold.Chemscore.DG>
-16.9893

> <Gold.Chemscore.ZeroCoef>
-5.4800

> <Gold.Chemscore.Hbond>
0.7519

> <Gold.Chemscore.Metal>
0.0000

> <Gold.Chemscore.Lipo>
113.6500

> <Gold.Chemscore.Internal_Hbond>
0.0000

> <Gold.Chemscore.DEClash>
2.4504

> <Gold.Chemscore.DEInternal>
1.0916

> <Gold.Chemscore.Rot>
1.6793

> <Gold.Chemscore.Internal.Correction>
   9.000000E+99

> <Gold.Chemscore.Hbonds>
donor molecule, donor type, donor heavy atom, donor atom, acceptor molecule, acceptor atom, score
      P1  H  8011  8017       L1    17  0.84

> <Gold.Chemscore.Hbond.Weighted>
-2.5113

> <Gold.Chemscore.Metal.Weighted>
-0.0000

> <Gold.Chemscore.Lipo.Weighted>
-13.2970

> <Gold.Chemscore.Internal_Hbond.Weighted>
0.0000

> <Gold.Chemscore.DEClash.Weighted>
2.4504

> <Gold.Chemscore.DEInternal.Weighted>
1.0916

> <Gold.Chemscore.Rot.Weighted>
4.2990

> <Gold.Chemscore.Internal.Correction.Weighted>
   9.000000E+99

> <Gold.Protein.RotatedTorsions>
[ 6907 6896 6895 6894 ] final -143.10 input  -60.11 | X-H torsion
[ 7974 7965 7964 7962 ] final   35.06 input  175.53 | X-H torsion
[ 8008 7997 7996 7995 ] final  -32.19 input   59.86 | X-H torsion
[ 10167 10162 10161 10158 ] final   22.04 input  -65.29 | X-H torsion
[ 10718 10713 10712 10709 ] final  142.41 input   66.30 | X-H torsion
[ 10763 10752 10751 10750 ] final  -20.24 input  -60.55 | X-H torsion
[ 11005 11000 10999 10996 ] final  100.52 input  -57.11 | X-H torsion

> <Gold.Protein.ActiveResidues>
 VAL166  LYS551  ARG553  GLY616  TRP617  ASP618  TYR619  PRO620  LYS621  CYS622 
 ASP623  PHE694  ASN695  SER759  ASP760  ASP761  ALA762  ILE779  LEU786  VAL792 
 PHE793  MET794  SER795  GLU796  ALA797  LYS798  CYS799  TRP800  GLU811  SER814 

> <Gold.Protein.RotatedAtoms>
  151.0959  133.5280  159.2612 H   0  0  0  0  0  0  0  0  0  0  0  0  # atno 6907 bound_to 6896
  151.2130  135.0488  159.8929 H   0  0  0  0  0  0  0  0  0  0  0  0  # atno 6908 bound_to 6896
  152.5438  134.0772  159.8273 H   0  0  0  0  0  0  0  0  0  0  0  0  # atno 6909 bound_to 6896
  146.1310  139.6191  142.9227 H   0  0  0  0  0  0  0  0  0  0  0  0  # atno 7974 bound_to 7965
  154.4188  140.1744  156.1687 H   0  0  0  0  0  0  0  0  0  0  0  0  # atno 8008 bound_to 7997
  155.9778  140.3380  155.6611 H   0  0  0  0  0  0  0  0  0  0  0  0  # atno 8009 bound_to 7997
  155.6540  140.0693  157.2568 H   0  0  0  0  0  0  0  0  0  0  0  0  # atno 8010 bound_to 7997
  140.5380  143.9727  150.6502 H   0  0  0  0  0  0  0  0  0  0  0  0  # atno 10167 bound_to 10162
  157.3809  131.0992  151.0740 H   0  0  0  0  0  0  0  0  0  0  0  0  # atno 10718 bound_to 10713
  153.6173  135.6994  153.5324 H   0  0  0  0  0  0  0  0  0  0  0  0  # atno 10763 bound_to 10752
  153.2967  135.4141  155.1215 H   0  0  0  0  0  0  0  0  0  0  0  0  # atno 10764 bound_to 10752
  154.8551  135.3638  154.5713 H   0  0  0  0  0  0  0  0  0  0  0  0  # atno 10765 bound_to 10752
  139.8771  134.9143  156.4768 H   0  0  0  0  0  0  0  0  0  0  0  0  # atno 11005 bound_to 11000
  145.5261  141.0429  143.2408 LP  0  0  0  0  0  0  0  0  0  0  0  0  # atno 17320 bound_to 7965
  144.7690  139.6778  143.7202 LP  0  0  0  0  0  0  0  0  0  0  0  0  # atno 17321 bound_to 7965
  140.3120  143.3192  152.0869 LP  0  0  0  0  0  0  0  0  0  0  0  0  # atno 17342 bound_to 10162
  139.4978  144.6630  151.6421 LP  0  0  0  0  0  0  0  0  0  0  0  0  # atno 17343 bound_to 10162
  157.1809  130.6309  149.5671 LP  0  0  0  0  0  0  0  0  0  0  0  0  # atno 17370 bound_to 10713
  155.9775  130.4754  150.6600 LP  0  0  0  0  0  0  0  0  0  0  0  0  # atno 17371 bound_to 10713
  140.8756  133.7956  155.9411 LP  0  0  0  0  0  0  0  0  0  0  0  0  # atno 17394 bound_to 11000
  140.8907  134.2498  157.5095 LP  0  0  0  0  0  0  0  0  0  0  0  0  # atno 17395 bound_to 11000

$$$$
