#       Name:                AV-unprocessed.smi:2146
#       Creating user name   scv26
#       Creation time:       Fri Mar 27 11:51:25 2020


#       File generated by GOLD software.
#

@<TRIPOS>MOLECULE
AV-unprocessed.smi:2146
    51    52     1
SMALL
NO_CHARGES


@<TRIPOS>ATOM
      1 ****        -0.9285   2.3709  -1.9871 C.3            1 S1                 0.0000
      2 ****        -1.5398   1.7692  -0.6970 C.3            1 S1                 0.0000
      3 ****        -0.9914   0.3385  -0.4625 C.3            1 S1                 0.0000
      4 ****         0.4653   0.3091  -0.3929 N.am           1 S1                 0.0000
      5 ****         1.1898  -0.7800  -0.0993 C.2            1 S1                 0.0000
      6 ****         0.6826  -1.8733   0.1558 O.2            1 S1                 0.0000
      7 ****         2.7136  -0.5861  -0.0915 C.3            1 S1                 0.0000
      8 ****         3.4680  -1.8189   0.1931 N.am           1 S1                 0.0000
      9 ****         3.8789  -2.0241   1.5249 C.2            1 S1                 0.0000
     10 ****         4.5656  -3.1132   1.9211 C.2            1 S1                 0.0000
     11 ****         5.0447  -3.2805   3.3549 C.3            1 S1                 0.0000
     12 ****         6.1688  -3.9957   3.4043 F              1 S1                 0.0000
     13 ****         5.2754  -2.0982   3.9274 F              1 S1                 0.0000
     14 ****         4.1176  -3.9145   4.0715 F              1 S1                 0.0000
     15 ****         4.9004  -4.0748   0.8892 C.2            1 S1                 0.0000
     16 ****         4.5198  -3.8914  -0.3902 C.2            1 S1                 0.0000
     17 ****         3.7533  -2.7128  -0.8008 C.2            1 S1                 0.0000
     18 ****         3.3908  -2.5393  -1.9645 O.2            1 S1                 0.0000
     19 ****        -3.0408   1.7649  -0.6999 N.4            1 S1                 1.0000
     20 ****        -3.6185   1.5756   0.6598 C.3            1 S1                 0.0000
     21 ****        -5.1530   1.4996   0.6075 C.3            1 S1                 0.0000
     22 ****        -5.6651   2.6845   0.0175 O.3            1 S1                 0.0000
     23 ****        -5.2150   2.8334  -1.3202 C.3            1 S1                 0.0000
     24 ****        -3.6806   2.9438  -1.3487 C.3            1 S1                 0.0000
     25 ****         0.1604   2.3315  -1.9800 H              1 S1                 0.0000
     26 ****        -1.1789   3.4251  -2.1055 H              1 S1                 0.0000
     27 ****        -1.2673   1.8361  -2.8752 H              1 S1                 0.0000
     28 ****        -1.2144   2.4021   0.1303 H              1 S1                 0.0000
     29 ****        -1.3697  -0.0856   0.4663 H              1 S1                 0.0000
     30 ****        -1.3196  -0.3222  -1.2667 H              1 S1                 0.0000
     31 ****         0.9548   1.1709  -0.5882 H              1 S1                 0.0000
     32 ****         3.0204  -0.1687  -1.0524 H              1 S1                 0.0000
     33 ****         2.9576   0.1841   0.6417 H              1 S1                 0.0000
     34 ****         3.5971  -1.2364   2.2084 H              1 S1                 0.0000
     35 ****         5.4613  -4.9611   1.1471 H              1 S1                 0.0000
     36 ****         4.7837  -4.6308  -1.1320 H              1 S1                 0.0000
     37 ****        -3.2511   0.6630   1.1242 H              1 S1                 0.0000
     38 ****        -3.3139   2.4021   1.3037 H              1 S1                 0.0000
     39 ****        -5.4832   0.6222   0.0486 H              1 S1                 0.0000
     40 ****        -5.5582   1.4059   1.6152 H              1 S1                 0.0000
     41 ****        -5.5569   1.9941  -1.9281 H              1 S1                 0.0000
     42 ****        -5.6625   3.7332  -1.7429 H              1 S1                 0.0000
     43 ****        -3.3614   3.8575  -0.8447 H              1 S1                 0.0000
     44 ****        -3.3824   3.0235  -2.3934 H              1 S1                 0.0000
     45 ****        -3.3194   0.9650  -1.2504 H              1 S1                 0.0000
     46 ****        -0.3120  -1.9767   0.1496 LP             1 S1                 0.0000
     47 ****         1.2655  -2.6573   0.3692 LP             1 S1                 0.0000
     48 ****         2.8689  -1.7221  -2.2090 LP             1 S1                 0.0000
     49 ****         3.6183  -3.2155  -2.6651 LP             1 S1                 0.0000
     50 ****        -5.3605   3.4724   0.5529 LP             1 S1                 0.0000
     51 ****        -6.6643   2.6446   0.0220 LP             1 S1                 0.0000
@<TRIPOS>BOND
    1    1    2 1     
    2    1   25 1     
    3    1   26 1     
    4    1   27 1     
    5    2    3 1     
    6    2   19 1     
    7    2   28 1     
    8    3    4 1     
    9    3   29 1     
   10    3   30 1     
   11    4    5 am    
   12    4   31 1     
   13    5    6 2     
   14    5    7 1     
   15    7    8 1     
   16    7   32 1     
   17    7   33 1     
   18    8   17 am    
   19    8    9 1     
   20    9   10 2     
   21    9   34 1     
   22   10   11 1     
   23   10   15 1     
   24   11   12 1     
   25   11   13 1     
   26   11   14 1     
   27   15   16 2     
   28   15   35 1     
   29   16   17 1     
   30   16   36 1     
   31   17   18 2     
   32   19   24 1     
   33   19   20 1     
   34   19   45 1     
   35   20   21 1     
   36   20   37 1     
   37   20   38 1     
   38   21   22 1     
   39   21   39 1     
   40   21   40 1     
   41   22   23 1     
   42   23   24 1     
   43   23   41 1     
   44   23   42 1     
   45   24   43 1     
   46   24   44 1     
   47    6   46 1     
   48    6   47 1     
   49   18   48 1     
   50   18   49 1     
   51   22   50 1     
   52   22   51 1     
@<TRIPOS>SUBSTRUCTURE
      1 S1             1
@<TRIPOS>SET
LONE_PAIRS      STATIC     ATOMS    <user>   **** ""
6 46 47 48 49 50 51
DONOR_HYDROGENS      STATIC     ATOMS    <user>   **** ""
2 31 45
ATOM$BLUE        STATIC     ATOMS    COLORGROUP SYSTEM
6 46 47 48 49 50 51
ATOM$RED        STATIC     ATOMS    COLORGROUP SYSTEM
2 31 45
