AV-unprocessed.smi:160|AV-procd|sdf|1346|dock3
  -GOLD-   2262019 43D 1   1.00000     0.00000
 Structure written by MMmdl.
 29 30  0  0  0  0  0  0  0  0  1 V2000
  154.7555  137.1478  158.6162 N   0  0  0  0  0  0  0  0  0  0  0  0
  154.2362  136.6010  157.5120 C   0  0  0  0  0  0  0  0  0  0  0  0
  154.5035  135.4543  157.1562 O   0  0  0  0  0  0  0  0  0  0  0  0
  153.2994  137.4699  156.7192 C   0  0  0  0  0  0  0  0  0  0  0  0
  152.5169  136.9467  155.7290 N   0  0  0  0  0  0  0  0  0  0  0  0
  151.8971  138.0557  155.3462 C   0  0  0  0  0  0  0  0  0  0  0  0
  152.2643  139.1492  156.0218 N   0  0  0  0  0  0  0  0  0  0  0  0
  151.7930  140.5635  155.8920 C   0  0  1  0  0  0  0  0  0  0  0  0
  150.8367  140.5948  154.8750 O   0  0  0  0  0  0  0  0  0  0  0  0
  149.6755  141.3011  155.3054 C   0  0  1  0  0  0  0  0  0  0  0  0
  148.4268  140.8333  154.5370 C   0  0  0  0  0  0  0  0  0  0  0  0
  148.5815  141.0872  153.1567 O   0  0  0  0  0  0  0  0  0  0  0  0
  149.6420  141.0765  156.8237 C   0  0  1  0  0  0  0  0  0  0  0  0
  149.0187  139.8454  157.1488 O   0  0  0  0  0  0  0  0  0  0  0  0
  151.1246  141.0976  157.1756 C   0  0  1  0  0  0  0  0  0  0  0  0
  151.4329  140.4038  158.3736 O   0  0  0  0  0  0  0  0  0  0  0  0
  153.1874  138.7798  156.9436 N   0  0  0  0  0  0  0  0  0  0  0  0
  152.6855  141.1234  155.6101 H   0  0  0  0  0  0  0  0  0  0  0  0
  149.8451  142.3654  155.1306 H   0  0  0  0  0  0  0  0  0  0  0  0
  149.0996  141.8719  157.3358 H   0  0  0  0  0  0  0  0  0  0  0  0
  151.4412  142.1353  157.2891 H   0  0  0  0  0  0  0  0  0  0  0  0
  155.3906  136.6154  159.1922 H   0  0  0  0  0  0  0  0  0  0  0  0
  154.5056  138.0940  158.8665 H   0  0  0  0  0  0  0  0  0  0  0  0
  151.1619  138.0717  154.5552 H   0  0  0  0  0  0  0  0  0  0  0  0
  148.2293  139.7743  154.7073 H   0  0  0  0  0  0  0  0  0  0  0  0
  147.5494  141.3870  154.8724 H   0  0  0  0  0  0  0  0  0  0  0  0
  148.9326  140.3115  152.7468 H   0  0  0  0  0  0  0  0  0  0  0  0
  148.3219  140.0202  157.7632 H   0  0  0  0  0  0  0  0  0  0  0  0
  151.5715  139.4922  158.1669 H   0  0  0  0  0  0  0  0  0  0  0  0
  1  2  1  0  0  0  0
  1 22  1  0  0  0  0
  1 23  1  0  0  0  0
  2  3  2  0  0  0  0
  2  4  1  0  0  0  0
  4 17  2  0  0  0  0
  4  5  1  0  0  0  0
  5  6  2  0  0  0  0
  6  7  1  0  0  0  0
  6 24  1  0  0  0  0
  7  8  1  0  0  0  0
  7 17  1  0  0  0  0
  8 18  1  0  0  0  0
  8 15  1  0  0  0  0
  8  9  1  0  0  0  0
  9 10  1  0  0  0  0
 10 19  1  0  0  0  0
 10 11  1  0  0  0  0
 10 13  1  0  0  0  0
 11 12  1  0  0  0  0
 11 25  1  0  0  0  0
 11 26  1  0  0  0  0
 12 27  1  0  0  0  0
 13 20  1  0  0  0  0
 13 14  1  0  0  0  0
 13 15  1  0  0  0  0
 14 28  1  0  0  0  0
 15 21  1  0  0  0  0
 15 16  1  0  0  0  0
 16 29  1  0  0  0  0
M  END
> <s_m_source_file>
AV-unprocessed.smi

> <i_m_source_file_index>
160

> <i_lp_mmshare_version>
43012

> <i_f3d_flags>
0

> <s_epik_input>
W05IMl1DKD1PKWMxbltjSF1uKG4xKVtDQEBIXTJPW0NASF0oW0NIMl1bT0hdKVtDQEBIXShbT0hdKVtDQEhdMltPSF0=

> <s_epik_cmdline>
J2VwaWtfcHl0aG9uJywgJy1waCcsICc3LjAnLCAnLXRuJywgJzgnLCAnLW1hJywgJzIwMCcsICctbWV0YWxfYmluZGluZycsICctaW1hZScsICc8aW5maWxlLm1hZT4nLCAnLW9tYWUnLCAnPG91dGZpbGUubWFlPic=

> <r_lp_tautomer_probability>
1

> <r_epik_Ionization_Penalty>
1.06932e-05

> <r_epik_Ionization_Penalty_Charging>
0

> <r_epik_Ionization_Penalty_Neutral>
1.06932e-05

> <r_epik_State_Penalty>
-0

> <r_epik_Charging_Adjusted_Penalty>
0

> <i_epik_Tot_Q>
0

> <i_epik_Tot_abs_Q>
0

> <r_epik_Metal_State_Penalty>
0.0142097

> <b_epik_Metal_Only>
0

> <s_epik_Chemistry_Notes>
This compound contains an acetal/aminal-like group ( X-CH(R)-Y where X, Y are N, S, or O) that may be acid/base labile, releasing an aldehyde.

> <s_lp_Force_Field>
OPLS_2005

> <r_lp_Energy>
47.6591

> <b_lp_Chiralities_Consistent>
1

> <s_lp_Variant>
AV-unprocessed.smi:160-4

> <Gold.Version>
5.8.1

> <Gold.Id.Protein>
6NUR|6NUR_protein|mol2

> <Gold.PLP.Fitness>
37.9606

> <Gold.PLP.PLP>
-22.8161

> <Gold.PLP.part.hbond>
-5.7593

> <Gold.PLP.part.metal>
0.0000

> <Gold.PLP.part.buried>
-2.4171

> <Gold.PLP.part.nonpolar>
-14.2509

> <Gold.PLP.part.repulsive>
0.1833

> <Gold.PLP.ligand.clash>
0.0000

> <Gold.PLP.ligand.torsion>
0.0747

> <Gold.PLP.Chemscore.Hbond>
5.0960

> <Gold.PLP.Chemscore.CHOScore>
0.0000

> <Gold.PLP.Chemscore.Metal>
0.0000

> <Gold.Chemscore.Hbonds>
donor molecule, donor type, donor heavy atom, donor atom, acceptor molecule, acceptor atom, score
      L1  H    12    27       P1  7957  0.62
      P1  H  7989  7998       L1     9  0.99
      P1  H  7997  8009       L1    17  1.00
      P1  H  8011  8017       L1    12  0.90
      P1  H 10752 10764       L1     5  0.46
      P1  H 10752 10765       L1     3  1.00

> <Gold.PLP.Chemscore.Internal.Correction>
0.0059

> <Gold.Rescore>
     Score         DG    S(hbond)    S(metal)    S(lipo)     H(rot)  DE(clash)    DE(int)     intcor
      7.81      -9.39       3.53        0.00      21.51       4.06       0.10       1.48       ----

> <Gold.Chemscore.Fitness>
7.8103

> <Gold.Chemscore.DG>
-9.3934

> <Gold.Chemscore.ZeroCoef>
-5.4800

> <Gold.Chemscore.Hbond>
3.5302

> <Gold.Chemscore.Metal>
0.0000

> <Gold.Chemscore.Lipo>
21.5056

> <Gold.Chemscore.Internal_Hbond>
0.0000

> <Gold.Chemscore.DEClash>
0.0998

> <Gold.Chemscore.DEInternal>
1.4832

> <Gold.Chemscore.Rot>
4.0600

> <Gold.Chemscore.Internal.Correction>
   9.000000E+99

> <Gold.Chemscore.Hbonds>
donor molecule, donor type, donor heavy atom, donor atom, acceptor molecule, acceptor atom, score
      L1  H    12    27       P1  7957  0.62
      P1  H  7989  7998       L1     9  0.56
      P1  H  7997  8009       L1    17  0.34
      P1  H  8011  8017       L1    12  0.17
      P1  H 10752 10764       L1     5  0.45
      P1  H 10752 10765       L1     3  0.76

> <Gold.Chemscore.Hbond.Weighted>
-11.7908

> <Gold.Chemscore.Metal.Weighted>
-0.0000

> <Gold.Chemscore.Lipo.Weighted>
-2.5162

> <Gold.Chemscore.Internal_Hbond.Weighted>
0.0000

> <Gold.Chemscore.DEClash.Weighted>
0.0998

> <Gold.Chemscore.DEInternal.Weighted>
1.4832

> <Gold.Chemscore.Rot.Weighted>
10.3936

> <Gold.Chemscore.Internal.Correction.Weighted>
   9.000000E+99

> <Gold.Protein.RotatedTorsions>
[ 6907 6896 6895 6894 ] final  174.95 input  -60.11 | X-H torsion
[ 7974 7965 7964 7962 ] final -122.50 input  175.53 | X-H torsion
[ 8008 7997 7996 7995 ] final  173.23 input   59.86 | X-H torsion
[ 10167 10162 10161 10158 ] final  150.28 input  -65.29 | X-H torsion
[ 10718 10713 10712 10709 ] final  -67.36 input   66.30 | X-H torsion
[ 10763 10752 10751 10750 ] final  -70.46 input  -60.55 | X-H torsion
[ 11005 11000 10999 10996 ] final  -98.19 input  -57.11 | X-H torsion

> <Gold.Protein.ActiveResidues>
 VAL166  LYS551  ARG553  GLY616  TRP617  ASP618  TYR619  PRO620  LYS621  CYS622 
 ASP623  PHE694  ASN695  SER759  ASP760  ASP761  ALA762  ILE779  LEU786  VAL792 
 PHE793  MET794  SER795  GLU796  ALA797  LYS798  CYS799  TRP800  GLU811  SER814 

> <Gold.Protein.RotatedAtoms>
  151.7440  133.3323  159.3373 H   0  0  0  0  0  0  0  0  0  0  0  0  # atno 6907 bound_to 6896
  150.7562  134.6252  159.6166 H   0  0  0  0  0  0  0  0  0  0  0  0  # atno 6908 bound_to 6896
  152.3512  134.7005  160.0287 H   0  0  0  0  0  0  0  0  0  0  0  0  # atno 6909 bound_to 6896
  145.0288  140.8050  143.4336 H   0  0  0  0  0  0  0  0  0  0  0  0  # atno 7974 bound_to 7965
  156.1096  140.1465  156.9356 H   0  0  0  0  0  0  0  0  0  0  0  0  # atno 8008 bound_to 7997
  154.4758  140.0895  156.7301 H   0  0  0  0  0  0  0  0  0  0  0  0  # atno 8009 bound_to 7997
  155.4619  140.3438  155.4316 H   0  0  0  0  0  0  0  0  0  0  0  0  # atno 8010 bound_to 7997
  139.4852  144.5535  151.7359 H   0  0  0  0  0  0  0  0  0  0  0  0  # atno 10167 bound_to 10162
  156.0562  130.4276  150.1843 H   0  0  0  0  0  0  0  0  0  0  0  0  # atno 10718 bound_to 10713
  154.4180  135.5993  153.5992 H   0  0  0  0  0  0  0  0  0  0  0  0  # atno 10763 bound_to 10752
  152.9792  135.5945  154.3990 H   0  0  0  0  0  0  0  0  0  0  0  0  # atno 10764 bound_to 10752
  154.3811  135.2841  155.2189 H   0  0  0  0  0  0  0  0  0  0  0  0  # atno 10765 bound_to 10752
  141.1353  133.8227  157.0806 H   0  0  0  0  0  0  0  0  0  0  0  0  # atno 11005 bound_to 11000
  145.1798  139.2358  143.5298 LP  0  0  0  0  0  0  0  0  0  0  0  0  # atno 17320 bound_to 7965
  146.3496  140.1569  142.8591 LP  0  0  0  0  0  0  0  0  0  0  0  0  # atno 17321 bound_to 7965
  140.5092  144.1050  150.5991 LP  0  0  0  0  0  0  0  0  0  0  0  0  # atno 17342 bound_to 10162
  140.3970  143.2723  151.9992 LP  0  0  0  0  0  0  0  0  0  0  0  0  # atno 17343 bound_to 10162
  156.9919  130.9896  151.3413 LP  0  0  0  0  0  0  0  0  0  0  0  0  # atno 17370 bound_to 10713
  157.5533  130.8197  149.8173 LP  0  0  0  0  0  0  0  0  0  0  0  0  # atno 17371 bound_to 10713
  140.0454  134.9833  157.1038 LP  0  0  0  0  0  0  0  0  0  0  0  0  # atno 17394 bound_to 11000
  140.4071  134.2020  155.7163 LP  0  0  0  0  0  0  0  0  0  0  0  0  # atno 17395 bound_to 11000

$$$$
