AV-unprocessed.smi:2182|AV-procd|sdf|8864|dock2
  -GOLD-   2272012 63D 1   1.00000     0.00000
 Structure written by MMmdl.
 41 43  0  0  0  0  0  0  0  0  1 V2000
  153.7000  138.9098  154.8756 N   0  0  0  0  0  0  0  0  0  0  0  0
  152.5753  138.6391  154.8381 C   0  0  0  0  0  0  0  0  0  0  0  0
  151.1875  138.3134  154.8221 C   0  0  0  0  0  0  0  0  0  0  0  0
  150.2585  139.1826  154.3736 C   0  0  0  0  0  0  0  0  0  0  0  0
  148.9144  138.8806  154.3425 N   0  0  0  0  0  0  0  0  0  0  0  0
  147.9308  139.8723  154.0110 C   0  0  0  0  0  0  0  0  0  0  0  0
  148.3148  141.3380  153.9550 C   0  0  0  0  0  0  0  0  0  0  0  0
  147.4572  140.8261  155.0861 C   0  0  0  0  0  0  0  0  0  0  0  0
  148.4507  137.6533  154.8641 C   0  0  0  0  0  0  0  0  0  0  0  0
  147.2443  137.4048  154.9353 O   0  0  0  0  0  0  0  0  0  0  0  0
  149.4140  136.7191  155.3165 N   0  0  0  0  0  0  0  0  0  0  0  0
  148.9439  135.4225  155.8525 C   0  0  0  0  0  0  0  0  0  0  0  0
  148.9710  134.2847  154.8199 C   0  0  0  0  0  0  0  0  0  0  0  0
  149.7948  133.3722  154.8996 O   0  0  0  0  0  0  0  0  0  0  0  0
  148.0505  134.3571  153.8470 N   0  0  0  0  0  0  0  0  0  0  0  0
  147.8859  133.3804  152.7759 C   0  0  0  0  0  0  0  0  0  0  0  0
  146.4279  133.2933  152.2913 C   0  0  1  0  0  0  0  0  0  0  0  0
  146.0195  134.3764  151.2929 C   0  0  0  0  0  0  0  0  0  0  0  0
  144.8537  133.7153  150.5939 C   0  0  0  0  0  0  0  0  0  0  0  0
  145.3192  132.2638  150.5078 C   0  0  0  0  0  0  0  0  0  0  0  0
  146.2076  132.0646  151.6053 O   0  0  0  0  0  0  0  0  0  0  0  0
  150.8056  136.9941  155.3203 C   0  0  0  0  0  0  0  0  0  0  0  0
  151.6160  136.1633  155.7341 O   0  0  0  0  0  0  0  0  0  0  0  0
  150.5784  140.1521  154.0192 H   0  0  0  0  0  0  0  0  0  0  0  0
  147.1753  139.5541  153.2946 H   0  0  0  0  0  0  0  0  0  0  0  0
  149.3409  141.6110  154.1942 H   0  0  0  0  0  0  0  0  0  0  0  0
  147.8345  141.9522  153.1960 H   0  0  0  0  0  0  0  0  0  0  0  0
  146.4046  141.1017  155.0835 H   0  0  0  0  0  0  0  0  0  0  0  0
  147.9181  140.7600  156.0698 H   0  0  0  0  0  0  0  0  0  0  0  0
  149.5411  135.1231  156.7156 H   0  0  0  0  0  0  0  0  0  0  0  0
  147.9306  135.5038  156.2488 H   0  0  0  0  0  0  0  0  0  0  0  0
  147.4127  135.1397  153.8525 H   0  0  0  0  0  0  0  0  0  0  0  0
  148.5350  133.6719  151.9498 H   0  0  0  0  0  0  0  0  0  0  0  0
  148.2325  132.4003  153.1077 H   0  0  0  0  0  0  0  0  0  0  0  0
  145.7454  133.3175  153.1424 H   0  0  0  0  0  0  0  0  0  0  0  0
  145.7527  135.3189  151.7721 H   0  0  0  0  0  0  0  0  0  0  0  0
  146.8230  134.5680  150.5802 H   0  0  0  0  0  0  0  0  0  0  0  0
  143.9584  133.7870  151.2132 H   0  0  0  0  0  0  0  0  0  0  0  0
  144.6322  134.1512  149.6193 H   0  0  0  0  0  0  0  0  0  0  0  0
  144.4864  131.5610  150.5387 H   0  0  0  0  0  0  0  0  0  0  0  0
  145.8709  132.0937  149.5827 H   0  0  0  0  0  0  0  0  0  0  0  0
  1  2  3  0  0  0  0
  2  3  1  0  0  0  0
  3 22  1  0  0  0  0
  3  4  2  0  0  0  0
  4  5  1  0  0  0  0
  4 24  1  0  0  0  0
  5  6  1  0  0  0  0
  5  9  1  0  0  0  0
  6  8  1  0  0  0  0
  6  7  1  0  0  0  0
  6 25  1  0  0  0  0
  7  8  1  0  0  0  0
  7 26  1  0  0  0  0
  7 27  1  0  0  0  0
  8 28  1  0  0  0  0
  8 29  1  0  0  0  0
  9 10  2  0  0  0  0
  9 11  1  0  0  0  0
 11 12  1  0  0  0  0
 11 22  1  0  0  0  0
 12 13  1  0  0  0  0
 12 30  1  0  0  0  0
 12 31  1  0  0  0  0
 13 14  2  0  0  0  0
 13 15  1  0  0  0  0
 15 16  1  0  0  0  0
 15 32  1  0  0  0  0
 16 17  1  0  0  0  0
 16 33  1  0  0  0  0
 16 34  1  0  0  0  0
 17 21  1  0  0  0  0
 17 18  1  0  0  0  0
 17 35  1  0  0  0  0
 18 19  1  0  0  0  0
 18 36  1  0  0  0  0
 18 37  1  0  0  0  0
 19 20  1  0  0  0  0
 19 38  1  0  0  0  0
 19 39  1  0  0  0  0
 20 21  1  0  0  0  0
 20 40  1  0  0  0  0
 20 41  1  0  0  0  0
 22 23  2  0  0  0  0
M  END
> <s_m_source_file>
AV-unprocessed.smi

> <i_m_source_file_index>
2182

> <i_lp_mmshare_version>
43012

> <i_f3d_flags>
0

> <s_epik_input>
TiNDYzFbY0hdbihbQ0hdMltDSDJdW0NIMl0yKWMoPU8pbihjMT1PKVtDSDJdQyg9TylbTkhdW0NIMl1bQ0BASF0zW0NIMl1bQ0gyXVtDSDJdTzM=

> <s_epik_cmdline>
J2VwaWtfcHl0aG9uJywgJy1waCcsICc3LjAnLCAnLXRuJywgJzgnLCAnLW1hJywgJzIwMCcsICctbWV0YWxfYmluZGluZycsICctaW1hZScsICc8aW5maWxlLm1hZT4nLCAnLW9tYWUnLCAnPG91dGZpbGUubWFlPic=

> <r_lp_tautomer_probability>
1

> <r_epik_Ionization_Penalty>
2.69429e-08

> <r_epik_Ionization_Penalty_Charging>
8.38654e-11

> <r_epik_Ionization_Penalty_Neutral>
2.6859e-08

> <r_epik_State_Penalty>
-0

> <r_epik_Charging_Adjusted_Penalty>
8.38654e-11

> <i_epik_Tot_Q>
0

> <i_epik_Tot_abs_Q>
0

> <r_epik_Metal_State_Penalty>
-0

> <b_epik_Metal_Only>
0

> <s_lp_Force_Field>
OPLS_2005

> <r_lp_Energy>
43.7942

> <b_lp_Chiralities_Consistent>
1

> <s_lp_Variant>
AV-unprocessed.smi:2182-2

> <Gold.Version>
5.8.1

> <Gold.Id.Protein>
6NUR|6NUR_protein|mol2

> <Gold.PLP.Fitness>
42.3590

> <Gold.PLP.PLP>
-38.6006

> <Gold.PLP.part.hbond>
-3.0000

> <Gold.PLP.part.metal>
0.0000

> <Gold.PLP.part.buried>
-5.4784

> <Gold.PLP.part.nonpolar>
-31.0571

> <Gold.PLP.part.repulsive>
0.3311

> <Gold.PLP.ligand.clash>
0.0000

> <Gold.PLP.ligand.torsion>
1.4132

> <Gold.PLP.Chemscore.Hbond>
2.0000

> <Gold.PLP.Chemscore.CHOScore>
0.1126

> <Gold.PLP.Chemscore.Metal>
0.0000

> <Gold.Chemscore.Hbonds>
donor molecule, donor type, donor heavy atom, donor atom, acceptor molecule, acceptor atom, score
      P1  H  7997  8010       L1     1  0.94
      P1  H 10752 10765       L1    23  1.00

> <Gold.PLP.Chemscore.Internal.Correction>
0.2471

> <Gold.Rescore>
     Score         DG    S(hbond)    S(metal)    S(lipo)     H(rot)  DE(clash)    DE(int)     intcor
     13.78     -14.82       1.98        0.00      68.77       2.08       0.27       0.77       ----

> <Gold.Chemscore.Fitness>
13.7798

> <Gold.Chemscore.DG>
-14.8214

> <Gold.Chemscore.ZeroCoef>
-5.4800

> <Gold.Chemscore.Hbond>
1.9805

> <Gold.Chemscore.Metal>
0.0000

> <Gold.Chemscore.Lipo>
68.7653

> <Gold.Chemscore.Internal_Hbond>
0.0000

> <Gold.Chemscore.DEClash>
0.2709

> <Gold.Chemscore.DEInternal>
0.7706

> <Gold.Chemscore.Rot>
2.0778

> <Gold.Chemscore.Internal.Correction>
   9.000000E+99

> <Gold.Chemscore.Hbonds>
donor molecule, donor type, donor heavy atom, donor atom, acceptor molecule, acceptor atom, score
      P1  H  7997  8010       L1     1  0.91
      P1  H 10752 10765       L1    23  1.00

> <Gold.Chemscore.Hbond.Weighted>
-6.6149

> <Gold.Chemscore.Metal.Weighted>
-0.0000

> <Gold.Chemscore.Lipo.Weighted>
-8.0455

> <Gold.Chemscore.Internal_Hbond.Weighted>
0.0000

> <Gold.Chemscore.DEClash.Weighted>
0.2709

> <Gold.Chemscore.DEInternal.Weighted>
0.7706

> <Gold.Chemscore.Rot.Weighted>
5.3191

> <Gold.Chemscore.Internal.Correction.Weighted>
   9.000000E+99

> <Gold.Protein.RotatedTorsions>
[ 6907 6896 6895 6894 ] final -147.33 input  -60.11 | X-H torsion
[ 7974 7965 7964 7962 ] final   65.65 input  175.53 | X-H torsion
[ 8008 7997 7996 7995 ] final  102.79 input   59.86 | X-H torsion
[ 10167 10162 10161 10158 ] final  173.43 input  -65.29 | X-H torsion
[ 10718 10713 10712 10709 ] final  -13.95 input   66.30 | X-H torsion
[ 10763 10752 10751 10750 ] final -151.12 input  -60.55 | X-H torsion
[ 11005 11000 10999 10996 ] final  -37.40 input  -57.11 | X-H torsion

> <Gold.Protein.ActiveResidues>
 VAL166  LYS551  ARG553  GLY616  TRP617  ASP618  TYR619  PRO620  LYS621  CYS622 
 ASP623  PHE694  ASN695  SER759  ASP760  ASP761  ALA762  ILE779  LEU786  VAL792 
 PHE793  MET794  SER795  GLU796  ALA797  LYS798  CYS799  TRP800  GLU811  SER814 

> <Gold.Protein.RotatedAtoms>
  151.1542  133.4887  159.2594 H   0  0  0  0  0  0  0  0  0  0  0  0  # atno 6907 bound_to 6896
  151.1522  135.0232  159.8683 H   0  0  0  0  0  0  0  0  0  0  0  0  # atno 6908 bound_to 6896
  152.5463  134.1424  159.8538 H   0  0  0  0  0  0  0  0  0  0  0  0  # atno 6909 bound_to 6896
  145.8360  139.3167  143.0959 H   0  0  0  0  0  0  0  0  0  0  0  0  # atno 7974 bound_to 7965
  156.1425  140.3175  155.8518 H   0  0  0  0  0  0  0  0  0  0  0  0  # atno 8008 bound_to 7997
  155.4126  140.0507  157.3048 H   0  0  0  0  0  0  0  0  0  0  0  0  # atno 8009 bound_to 7997
  154.4988  140.2121  155.9401 H   0  0  0  0  0  0  0  0  0  0  0  0  # atno 8010 bound_to 7997
  139.5108  144.3261  152.0156 H   0  0  0  0  0  0  0  0  0  0  0  0  # atno 10167 bound_to 10162
  156.6229  130.4880  149.6158 H   0  0  0  0  0  0  0  0  0  0  0  0  # atno 10718 bound_to 10713
  154.8077  135.3267  154.7388 H   0  0  0  0  0  0  0  0  0  0  0  0  # atno 10763 bound_to 10752
  153.8043  135.6901  153.4855 H   0  0  0  0  0  0  0  0  0  0  0  0  # atno 10764 bound_to 10752
  153.1834  135.4578  155.0002 H   0  0  0  0  0  0  0  0  0  0  0  0  # atno 10765 bound_to 10752
  140.9949  133.6985  156.1916 H   0  0  0  0  0  0  0  0  0  0  0  0  # atno 11005 bound_to 11000
  145.9518  140.8903  143.0255 LP  0  0  0  0  0  0  0  0  0  0  0  0  # atno 17320 bound_to 7965
  144.6736  140.1691  143.7416 LP  0  0  0  0  0  0  0  0  0  0  0  0  # atno 17321 bound_to 7965
  140.2702  144.3973  150.6154 LP  0  0  0  0  0  0  0  0  0  0  0  0  # atno 17342 bound_to 10162
  140.6094  143.2169  151.6916 LP  0  0  0  0  0  0  0  0  0  0  0  0  # atno 17343 bound_to 10162
  156.2297  130.6787  151.1451 LP  0  0  0  0  0  0  0  0  0  0  0  0  # atno 17370 bound_to 10713
  157.7222  131.0674  150.6085 LP  0  0  0  0  0  0  0  0  0  0  0  0  # atno 17371 bound_to 10713
  140.6982  134.4592  157.5587 LP  0  0  0  0  0  0  0  0  0  0  0  0  # atno 17394 bound_to 11000
  139.9010  134.8557  156.1898 LP  0  0  0  0  0  0  0  0  0  0  0  0  # atno 17395 bound_to 11000

$$$$
