AV-unprocessed.smi:240|AV-procd|sdf|1825|dock3
  -GOLD-   2262020423D 1   1.00000     0.00000
 Structure written by MMmdl.
 55 59  0  0  0  0  0  0  0  0  1 V2000
  149.8662  139.8345  153.9565 O   0  0  0  0  0  0  0  0  0  0  0  0
  150.8407  138.8527  154.2453 C   0  0  1  0  0  0  0  0  0  0  0  0
  151.9291  139.3466  155.1961 C   0  0  0  0  0  0  0  0  0  0  0  0
  152.5971  138.0545  155.6619 C   0  0  0  0  0  0  0  0  0  0  0  0
  151.4726  137.0114  155.7284 C   0  0  0  0  0  0  0  0  0  0  0  0
  150.3004  137.5487  154.8733 C   0  0  1  0  0  0  0  0  0  0  0  0
  148.9461  137.6535  155.6524 C   0  0  2  0  0  0  0  0  0  0  0  0
  148.9088  138.8165  156.6804 C   0  0  0  0  0  0  0  0  0  0  0  0
  147.6557  138.8498  157.3538 O   0  0  0  0  0  0  0  0  0  0  0  0
  147.4179  137.6576  158.0886 C   0  0  0  0  0  0  0  0  0  0  0  0
  147.3548  136.4804  157.1081 C   0  0  0  0  0  0  0  0  0  0  0  0
  148.5882  136.3999  156.3333 N   0  0  0  0  0  0  0  0  0  0  0  0
  148.6110  135.2807  155.5747 C   0  0  0  0  0  0  0  0  0  0  0  0
  149.7068  134.4764  155.5768 N   0  0  0  0  0  0  0  0  0  0  0  0
  149.7140  133.3612  154.8403 C   0  0  0  0  0  0  0  0  0  0  0  0
  148.7524  132.8741  154.0518 N   0  0  0  0  0  0  0  0  0  0  0  0
  147.6557  133.6860  154.0461 C   0  0  0  0  0  0  0  0  0  0  0  0
  147.5050  134.8993  154.7723 C   0  0  0  0  0  0  0  0  0  0  0  0
  146.2534  135.4500  154.5310 N   0  0  0  0  0  0  0  0  0  0  0  0
  145.6923  134.6063  153.7082 C   0  0  0  0  0  0  0  0  0  0  0  0
  146.4654  133.5207  153.3587 N   0  0  0  0  0  0  0  0  0  0  0  0
  146.0907  132.4290  152.4726 C   0  0  0  0  0  0  0  0  0  0  0  0
  145.9533  132.8462  150.9877 C   0  0  1  0  0  0  0  0  0  0  0  0
  147.2449  132.9731  150.4209 O   0  0  0  0  0  0  0  0  0  0  0  0
  145.1485  131.8306  150.1745 C   0  0  0  0  0  0  0  0  0  0  0  0
  143.8084  132.5243  149.9664 C   0  0  0  0  0  0  0  0  0  0  0  0
  144.1877  133.8784  149.8016 O   0  0  0  0  0  0  0  0  0  0  0  0
  145.1731  134.1620  150.7853 C   0  0  0  0  0  0  0  0  0  0  0  0
  149.9028  140.0324  153.0330 H   0  0  0  0  0  0  0  0  0  0  0  0
  151.3218  138.5985  153.2993 H   0  0  0  0  0  0  0  0  0  0  0  0
  152.6296  140.0286  154.7134 H   0  0  0  0  0  0  0  0  0  0  0  0
  151.4939  139.8674  156.0491 H   0  0  0  0  0  0  0  0  0  0  0  0
  153.3383  137.7434  154.9246 H   0  0  0  0  0  0  0  0  0  0  0  0
  153.1123  138.1733  156.6153 H   0  0  0  0  0  0  0  0  0  0  0  0
  151.8203  136.0470  155.3561 H   0  0  0  0  0  0  0  0  0  0  0  0
  151.1745  136.8479  156.7636 H   0  0  0  0  0  0  0  0  0  0  0  0
  150.1500  136.8665  154.0360 H   0  0  0  0  0  0  0  0  0  0  0  0
  148.1587  137.8472  154.9223 H   0  0  0  0  0  0  0  0  0  0  0  0
  149.7093  138.7356  157.4159 H   0  0  0  0  0  0  0  0  0  0  0  0
  149.0341  139.7787  156.1874 H   0  0  0  0  0  0  0  0  0  0  0  0
  148.1997  137.5066  158.8350 H   0  0  0  0  0  0  0  0  0  0  0  0
  146.4742  137.7519  158.6260 H   0  0  0  0  0  0  0  0  0  0  0  0
  147.1981  135.5509  157.6574 H   0  0  0  0  0  0  0  0  0  0  0  0
  146.5040  136.6063  156.4364 H   0  0  0  0  0  0  0  0  0  0  0  0
  150.6190  132.7742  154.8910 H   0  0  0  0  0  0  0  0  0  0  0  0
  144.6899  134.7547  153.3335 H   0  0  0  0  0  0  0  0  0  0  0  0
  146.8360  131.6387  152.5743 H   0  0  0  0  0  0  0  0  0  0  0  0
  145.1511  132.0067  152.8316 H   0  0  0  0  0  0  0  0  0  0  0  0
  147.5869  132.1080  150.2538 H   0  0  0  0  0  0  0  0  0  0  0  0
  145.6088  131.6574  149.2001 H   0  0  0  0  0  0  0  0  0  0  0  0
  145.0452  130.8616  150.6642 H   0  0  0  0  0  0  0  0  0  0  0  0
  143.2663  132.1475  149.0988 H   0  0  0  0  0  0  0  0  0  0  0  0
  143.1711  132.4226  150.8465 H   0  0  0  0  0  0  0  0  0  0  0  0
  144.6500  134.4554  151.6954 H   0  0  0  0  0  0  0  0  0  0  0  0
  145.8016  135.0005  150.4829 H   0  0  0  0  0  0  0  0  0  0  0  0
  1  2  1  0  0  0  0
  1 29  1  0  0  0  0
  2  6  1  0  0  0  0
  2  3  1  0  0  0  0
  2 30  1  0  0  0  0
  3  4  1  0  0  0  0
  3 31  1  0  0  0  0
  3 32  1  0  0  0  0
  4  5  1  0  0  0  0
  4 33  1  0  0  0  0
  4 34  1  0  0  0  0
  5  6  1  0  0  0  0
  5 35  1  0  0  0  0
  5 36  1  0  0  0  0
  6  7  1  0  0  0  0
  6 37  1  0  0  0  0
  7 12  1  0  0  0  0
  7  8  1  0  0  0  0
  7 38  1  0  0  0  0
  8  9  1  0  0  0  0
  8 39  1  0  0  0  0
  8 40  1  0  0  0  0
  9 10  1  0  0  0  0
 10 11  1  0  0  0  0
 10 41  1  0  0  0  0
 10 42  1  0  0  0  0
 11 12  1  0  0  0  0
 11 43  1  0  0  0  0
 11 44  1  0  0  0  0
 12 13  1  0  0  0  0
 13 18  1  0  0  0  0
 13 14  2  0  0  0  0
 14 15  1  0  0  0  0
 15 16  2  0  0  0  0
 15 45  1  0  0  0  0
 16 17  1  0  0  0  0
 17 21  1  0  0  0  0
 17 18  2  0  0  0  0
 18 19  1  0  0  0  0
 19 20  2  0  0  0  0
 20 21  1  0  0  0  0
 20 46  1  0  0  0  0
 21 22  1  0  0  0  0
 22 23  1  0  0  0  0
 22 47  1  0  0  0  0
 22 48  1  0  0  0  0
 23 28  1  0  0  0  0
 23 24  1  0  0  0  0
 23 25  1  0  0  0  0
 24 49  1  0  0  0  0
 25 26  1  0  0  0  0
 25 50  1  0  0  0  0
 25 51  1  0  0  0  0
 26 27  1  0  0  0  0
 26 52  1  0  0  0  0
 26 53  1  0  0  0  0
 27 28  1  0  0  0  0
 28 54  1  0  0  0  0
 28 55  1  0  0  0  0
M  END
> <s_m_source_file>
AV-unprocessed.smi

> <i_m_source_file_index>
240

> <i_lp_mmshare_version>
43012

> <i_f3d_flags>
0

> <s_epik_input>
W09IXVtDQEBIXTFbQ0gyXVtDSDJdW0NIMl1bQ0BIXTFbQ0BASF0yW0NIMl1PW0NIMl1bQ0gyXU4yYyhuW2NIXW4zKWMoYzM0KW5bY0hdbjRbQ0gyXVtDQEBdNShbT0hdKVtDSDJdW0NIMl1PW0NIMl01

> <s_epik_cmdline>
J2VwaWtfcHl0aG9uJywgJy1waCcsICc3LjAnLCAnLXRuJywgJzgnLCAnLW1hJywgJzIwMCcsICctbWV0YWxfYmluZGluZycsICctaW1hZScsICc8aW5maWxlLm1hZT4nLCAnLW9tYWUnLCAnPG91dGZpbGUubWFlPic=

> <r_lp_tautomer_probability>
1

> <r_epik_Ionization_Penalty>
0.000130618

> <r_epik_Ionization_Penalty_Charging>
0

> <r_epik_Ionization_Penalty_Neutral>
0.000130618

> <r_epik_State_Penalty>
-0

> <r_epik_Charging_Adjusted_Penalty>
0

> <i_epik_Tot_Q>
0

> <i_epik_Tot_abs_Q>
0

> <r_epik_Metal_State_Penalty>
-0

> <b_epik_Metal_Only>
0

> <s_lp_Force_Field>
OPLS_2005

> <r_lp_Energy>
64.9026

> <b_lp_Chiralities_Consistent>
1

> <s_lp_Variant>
AV-unprocessed.smi:240-2

> <Gold.Version>
5.8.1

> <Gold.Id.Protein>
6NUR|6NUR_protein|mol2

> <Gold.PLP.Fitness>
39.6514

> <Gold.PLP.PLP>
-35.1314

> <Gold.PLP.part.hbond>
-3.6089

> <Gold.PLP.part.metal>
0.0000

> <Gold.PLP.part.buried>
-4.5553

> <Gold.PLP.part.nonpolar>
-27.8887

> <Gold.PLP.part.repulsive>
0.4946

> <Gold.PLP.ligand.clash>
0.0000

> <Gold.PLP.ligand.torsion>
0.8297

> <Gold.PLP.Chemscore.Hbond>
2.0000

> <Gold.PLP.Chemscore.CHOScore>
0.0000

> <Gold.PLP.Chemscore.Metal>
0.0000

> <Gold.Chemscore.Hbonds>
donor molecule, donor type, donor heavy atom, donor atom, acceptor molecule, acceptor atom, score
      L1  H     1    29       P1  7957  1.00
      L1  H    24    49       P1 10747  1.00

> <Gold.PLP.Chemscore.Internal.Correction>
0.1793

> <Gold.Rescore>
     Score         DG    S(hbond)    S(metal)    S(lipo)     H(rot)  DE(clash)    DE(int)     intcor
     11.54     -14.07       1.99        0.00      82.31       3.00       0.08       2.45       ----

> <Gold.Chemscore.Fitness>
11.5439

> <Gold.Chemscore.DG>
-14.0719

> <Gold.Chemscore.ZeroCoef>
-5.4800

> <Gold.Chemscore.Hbond>
1.9914

> <Gold.Chemscore.Metal>
0.0000

> <Gold.Chemscore.Lipo>
82.3126

> <Gold.Chemscore.Internal_Hbond>
0.0000

> <Gold.Chemscore.DEClash>
0.0770

> <Gold.Chemscore.DEInternal>
2.4510

> <Gold.Chemscore.Rot>
3.0039

> <Gold.Chemscore.Internal.Correction>
   9.000000E+99

> <Gold.Chemscore.Hbonds>
donor molecule, donor type, donor heavy atom, donor atom, acceptor molecule, acceptor atom, score
      L1  H     1    29       P1  7957  1.00
      L1  H    24    49       P1 10747  0.95

> <Gold.Chemscore.Hbond.Weighted>
-6.6513

> <Gold.Chemscore.Metal.Weighted>
-0.0000

> <Gold.Chemscore.Lipo.Weighted>
-9.6306

> <Gold.Chemscore.Internal_Hbond.Weighted>
0.0000

> <Gold.Chemscore.DEClash.Weighted>
0.0770

> <Gold.Chemscore.DEInternal.Weighted>
2.4510

> <Gold.Chemscore.Rot.Weighted>
7.6899

> <Gold.Chemscore.Internal.Correction.Weighted>
   9.000000E+99

> <Gold.Protein.RotatedTorsions>
[ 6907 6896 6895 6894 ] final   41.62 input  -60.11 | X-H torsion
[ 7974 7965 7964 7962 ] final   40.82 input  175.53 | X-H torsion
[ 8008 7997 7996 7995 ] final  -39.62 input   59.86 | X-H torsion
[ 10167 10162 10161 10158 ] final   80.36 input  -65.29 | X-H torsion
[ 10718 10713 10712 10709 ] final  120.50 input   66.30 | X-H torsion
[ 10763 10752 10751 10750 ] final   43.65 input  -60.55 | X-H torsion
[ 11005 11000 10999 10996 ] final -142.83 input  -57.11 | X-H torsion

> <Gold.Protein.ActiveResidues>
 VAL166  LYS551  ARG553  GLY616  TRP617  ASP618  TYR619  PRO620  LYS621  CYS622 
 ASP623  PHE694  ASN695  SER759  ASP760  ASP761  ALA762  ILE779  LEU786  VAL792 
 PHE793  MET794  SER795  GLU796  ALA797  LYS798  CYS799  TRP800  GLU811  SER814 

> <Gold.Protein.RotatedAtoms>
  152.1976  134.8617  160.0511 H   0  0  0  0  0  0  0  0  0  0  0  0  # atno 6907 bound_to 6896
  151.9482  133.3653  159.3998 H   0  0  0  0  0  0  0  0  0  0  0  0  # atno 6908 bound_to 6896
  150.6948  134.4291  159.5284 H   0  0  0  0  0  0  0  0  0  0  0  0  # atno 6909 bound_to 6896
  146.0874  139.5488  142.9498 H   0  0  0  0  0  0  0  0  0  0  0  0  # atno 7974 bound_to 7965
  154.4021  140.1547  156.2893 H   0  0  0  0  0  0  0  0  0  0  0  0  # atno 8008 bound_to 7997
  155.8799  140.3444  155.5859 H   0  0  0  0  0  0  0  0  0  0  0  0  # atno 8009 bound_to 7997
  155.7679  140.0826  157.2113 H   0  0  0  0  0  0  0  0  0  0  0  0  # atno 8010 bound_to 7997
  139.9506  144.6029  150.8165 H   0  0  0  0  0  0  0  0  0  0  0  0  # atno 10167 bound_to 10162
  157.5886  131.1067  150.8044 H   0  0  0  0  0  0  0  0  0  0  0  0  # atno 10718 bound_to 10713
  152.9856  135.6095  154.3146 H   0  0  0  0  0  0  0  0  0  0  0  0  # atno 10763 bound_to 10752
  154.2859  135.2776  155.2678 H   0  0  0  0  0  0  0  0  0  0  0  0  # atno 10764 bound_to 10752
  154.4996  135.5870  153.6577 H   0  0  0  0  0  0  0  0  0  0  0  0  # atno 10765 bound_to 10752
  140.8186  134.2659  157.4910 H   0  0  0  0  0  0  0  0  0  0  0  0  # atno 11005 bound_to 11000
  145.6104  141.0340  143.1969 LP  0  0  0  0  0  0  0  0  0  0  0  0  # atno 17320 bound_to 7965
  144.7335  139.7654  143.7338 LP  0  0  0  0  0  0  0  0  0  0  0  0  # atno 17321 bound_to 7965
  140.7584  143.3106  151.2853 LP  0  0  0  0  0  0  0  0  0  0  0  0  # atno 17342 bound_to 10162
  139.6632  144.0152  152.2706 LP  0  0  0  0  0  0  0  0  0  0  0  0  # atno 17343 bound_to 10162
  156.8471  130.5068  149.5315 LP  0  0  0  0  0  0  0  0  0  0  0  0  # atno 17370 bound_to 10713
  156.0938  130.5916  150.9779 LP  0  0  0  0  0  0  0  0  0  0  0  0  # atno 17371 bound_to 10713
  139.8710  134.9523  156.4110 LP  0  0  0  0  0  0  0  0  0  0  0  0  # atno 17394 bound_to 11000
  140.9123  133.7703  155.9806 LP  0  0  0  0  0  0  0  0  0  0  0  0  # atno 17395 bound_to 11000

$$$$
