AV-unprocessed.smi:232|AV-procd|sdf|1777|dock7
  -GOLD-   2262020323D 1   1.00000     0.00000
 Structure written by MMmdl.
 52 55  0  0  0  0  0  0  0  0  1 V2000
  152.2029  144.8926  159.1062 C   0  0  0  0  0  0  0  0  0  0  0  0
  152.7603  143.5661  158.5760 C   0  0  0  0  0  0  0  0  0  0  0  0
  152.5649  142.3925  159.5582 C   0  0  2  0  0  0  0  0  0  0  0  0
  153.2317  142.6049  160.9254 C   0  0  0  0  0  0  0  0  0  0  0  0
  153.6553  141.2026  161.3794 C   0  0  0  0  0  0  0  0  0  0  0  0
  153.2075  140.2767  160.2429 C   0  0  2  0  0  0  0  0  0  0  0  0
  154.1287  139.0624  160.0402 C   0  0  0  0  0  0  0  0  0  0  0  0
  153.1321  141.1403  159.0712 N   0  0  0  0  0  0  0  0  0  0  0  0
  152.5201  140.5994  157.9921 C   0  0  0  0  0  0  0  0  0  0  0  0
  153.0827  139.5545  157.3287 N   0  0  0  0  0  0  0  0  0  0  0  0
  152.4688  139.0349  156.2609 C   0  0  0  0  0  0  0  0  0  0  0  0
  151.3127  139.4004  155.7015 N   0  0  0  0  0  0  0  0  0  0  0  0
  150.7484  140.4475  156.3698 C   0  0  0  0  0  0  0  0  0  0  0  0
  151.2816  141.1003  157.5153 C   0  0  0  0  0  0  0  0  0  0  0  0
  150.4334  142.1218  157.9233 N   0  0  0  0  0  0  0  0  0  0  0  0
  149.4492  142.0744  157.0667 C   0  0  0  0  0  0  0  0  0  0  0  0
  149.5580  141.0992  156.1011 N   0  0  0  0  0  0  0  0  0  0  0  0
  148.6097  140.8257  155.0362 C   0  0  0  0  0  0  0  0  0  0  0  0
  147.1462  140.9266  155.5098 C   0  0  2  0  0  0  0  0  0  0  0  0
  146.3563  139.9988  154.7903 O   0  0  0  0  0  0  0  0  0  0  0  0
  146.5656  142.3389  155.3095 C   0  0  1  0  0  0  0  0  0  0  0  0
  146.4093  142.7573  153.8458 C   0  0  0  0  0  0  0  0  0  0  0  0
  145.3211  143.8018  153.9387 C   0  0  0  0  0  0  0  0  0  0  0  0
  144.4067  143.2024  155.0017 C   0  0  0  0  0  0  0  0  0  0  0  0
  145.2443  142.4128  155.8421 O   0  0  0  0  0  0  0  0  0  0  0  0
  152.3233  145.6852  158.3674 H   0  0  0  0  0  0  0  0  0  0  0  0
  152.7165  145.2074  160.0149 H   0  0  0  0  0  0  0  0  0  0  0  0
  151.1398  144.8089  159.3334 H   0  0  0  0  0  0  0  0  0  0  0  0
  152.2642  143.3424  157.6310 H   0  0  0  0  0  0  0  0  0  0  0  0
  153.8193  143.6818  158.3416 H   0  0  0  0  0  0  0  0  0  0  0  0
  151.4957  142.2441  159.7206 H   0  0  0  0  0  0  0  0  0  0  0  0
  154.1149  143.2388  160.8353 H   0  0  0  0  0  0  0  0  0  0  0  0
  152.5527  143.0816  161.6330 H   0  0  0  0  0  0  0  0  0  0  0  0
  154.7384  141.1713  161.5061 H   0  0  0  0  0  0  0  0  0  0  0  0
  153.2014  140.9185  162.3292 H   0  0  0  0  0  0  0  0  0  0  0  0
  152.2036  139.9182  160.4770 H   0  0  0  0  0  0  0  0  0  0  0  0
  154.2014  138.4733  160.9543 H   0  0  0  0  0  0  0  0  0  0  0  0
  155.1362  139.3721  159.7610 H   0  0  0  0  0  0  0  0  0  0  0  0
  153.7533  138.4045  159.2560 H   0  0  0  0  0  0  0  0  0  0  0  0
  152.9766  138.2080  155.7869 H   0  0  0  0  0  0  0  0  0  0  0  0
  148.6098  142.7527  157.1165 H   0  0  0  0  0  0  0  0  0  0  0  0
  148.7964  141.5356  154.2295 H   0  0  0  0  0  0  0  0  0  0  0  0
  148.8146  139.8345  154.6296 H   0  0  0  0  0  0  0  0  0  0  0  0
  147.0920  140.6634  156.5670 H   0  0  0  0  0  0  0  0  0  0  0  0
  145.5155  140.3931  154.6149 H   0  0  0  0  0  0  0  0  0  0  0  0
  147.1754  143.0791  155.8308 H   0  0  0  0  0  0  0  0  0  0  0  0
  147.3326  143.1415  153.4114 H   0  0  0  0  0  0  0  0  0  0  0  0
  146.0685  141.9178  153.2377 H   0  0  0  0  0  0  0  0  0  0  0  0
  145.7381  144.7468  154.2896 H   0  0  0  0  0  0  0  0  0  0  0  0
  144.8139  143.9810  152.9904 H   0  0  0  0  0  0  0  0  0  0  0  0
  143.8781  143.9664  155.5722 H   0  0  0  0  0  0  0  0  0  0  0  0
  143.6646  142.5487  154.5422 H   0  0  0  0  0  0  0  0  0  0  0  0
  1  2  1  0  0  0  0
  1 26  1  0  0  0  0
  1 27  1  0  0  0  0
  1 28  1  0  0  0  0
  2  3  1  0  0  0  0
  2 29  1  0  0  0  0
  2 30  1  0  0  0  0
  3  8  1  0  0  0  0
  3  4  1  0  0  0  0
  3 31  1  0  0  0  0
  4  5  1  0  0  0  0
  4 32  1  0  0  0  0
  4 33  1  0  0  0  0
  5  6  1  0  0  0  0
  5 34  1  0  0  0  0
  5 35  1  0  0  0  0
  6  7  1  0  0  0  0
  6  8  1  0  0  0  0
  6 36  1  0  0  0  0
  7 37  1  0  0  0  0
  7 38  1  0  0  0  0
  7 39  1  0  0  0  0
  8  9  1  0  0  0  0
  9 14  1  0  0  0  0
  9 10  2  0  0  0  0
 10 11  1  0  0  0  0
 11 12  2  0  0  0  0
 11 40  1  0  0  0  0
 12 13  1  0  0  0  0
 13 17  1  0  0  0  0
 13 14  2  0  0  0  0
 14 15  1  0  0  0  0
 15 16  2  0  0  0  0
 16 17  1  0  0  0  0
 16 41  1  0  0  0  0
 17 18  1  0  0  0  0
 18 19  1  0  0  0  0
 18 42  1  0  0  0  0
 18 43  1  0  0  0  0
 19 20  1  0  0  0  0
 19 21  1  0  0  0  0
 19 44  1  0  0  0  0
 20 45  1  0  0  0  0
 21 25  1  0  0  0  0
 21 22  1  0  0  0  0
 21 46  1  0  0  0  0
 22 23  1  0  0  0  0
 22 47  1  0  0  0  0
 22 48  1  0  0  0  0
 23 24  1  0  0  0  0
 23 49  1  0  0  0  0
 23 50  1  0  0  0  0
 24 25  1  0  0  0  0
 24 51  1  0  0  0  0
 24 52  1  0  0  0  0
M  END
> <s_m_source_file>
AV-unprocessed.smi

> <i_m_source_file_index>
232

> <i_lp_mmshare_version>
43012

> <i_f3d_flags>
0

> <s_epik_input>
W0NIM11bQ0gyXVtDQEBIXTFbQ0gyXVtDSDJdW0NAQEhdKFtDSDNdKU4xYyhuW2NIXW4yKWMoYzIzKW5bY0hdbjNbQ0gyXVtDQEhdKFtPSF0pW0NAQEhdNFtDSDJdW0NIMl1bQ0gyXU80

> <s_epik_cmdline>
J2VwaWtfcHl0aG9uJywgJy1waCcsICc3LjAnLCAnLXRuJywgJzgnLCAnLW1hJywgJzIwMCcsICctbWV0YWxfYmluZGluZycsICctaW1hZScsICc8aW5maWxlLm1hZT4nLCAnLW9tYWUnLCAnPG91dGZpbGUubWFlPic=

> <r_lp_tautomer_probability>
1

> <r_epik_Ionization_Penalty>
0.00258048

> <r_epik_Ionization_Penalty_Charging>
0

> <r_epik_Ionization_Penalty_Neutral>
0.00258048

> <r_epik_State_Penalty>
0.00168551

> <r_epik_Charging_Adjusted_Penalty>
0.00168551

> <i_epik_Tot_Q>
0

> <i_epik_Tot_abs_Q>
0

> <r_epik_Metal_State_Penalty>
-0

> <b_epik_Metal_Only>
0

> <s_lp_Force_Field>
OPLS_2005

> <r_lp_Energy>
51.1515

> <b_lp_Chiralities_Consistent>
1

> <s_lp_Variant>
AV-unprocessed.smi:232-11

> <Gold.Version>
5.8.1

> <Gold.Id.Protein>
6NUR|6NUR_protein|mol2

> <Gold.PLP.Fitness>
47.0060

> <Gold.PLP.PLP>
-45.9186

> <Gold.PLP.part.hbond>
-1.0000

> <Gold.PLP.part.metal>
0.0000

> <Gold.PLP.part.buried>
-3.9713

> <Gold.PLP.part.nonpolar>
-40.4011

> <Gold.PLP.part.repulsive>
0.2067

> <Gold.PLP.ligand.clash>
2.2860

> <Gold.PLP.ligand.torsion>
0.8564

> <Gold.PLP.Chemscore.Hbond>
1.0000

> <Gold.PLP.Chemscore.CHOScore>
0.6682

> <Gold.PLP.Chemscore.Metal>
0.0000

> <Gold.Chemscore.Hbonds>
donor molecule, donor type, donor heavy atom, donor atom, acceptor molecule, acceptor atom, score
      P1  H  7997  8009       L1    10  1.00
      L1  C    16    41       P1  8028  0.67

> <Gold.PLP.Chemscore.Internal.Correction>
0.0816

> <Gold.Rescore>
     Score         DG    S(hbond)    S(metal)    S(lipo)     H(rot)  DE(clash)    DE(int)     intcor
     10.15     -13.92       0.56        0.00     109.21       2.43       0.35       3.42       ----

> <Gold.Chemscore.Fitness>
10.1526

> <Gold.Chemscore.DG>
-13.9202

> <Gold.Chemscore.ZeroCoef>
-5.4800

> <Gold.Chemscore.Hbond>
0.5608

> <Gold.Chemscore.Metal>
0.0000

> <Gold.Chemscore.Lipo>
109.2128

> <Gold.Chemscore.Internal_Hbond>
0.0000

> <Gold.Chemscore.DEClash>
0.3506

> <Gold.Chemscore.DEInternal>
3.4170

> <Gold.Chemscore.Rot>
2.4260

> <Gold.Chemscore.Internal.Correction>
   9.000000E+99

> <Gold.Chemscore.Hbonds>
donor molecule, donor type, donor heavy atom, donor atom, acceptor molecule, acceptor atom, score
      P1  H  7997  8009       L1    10  0.40

> <Gold.Chemscore.Hbond.Weighted>
-1.8730

> <Gold.Chemscore.Metal.Weighted>
-0.0000

> <Gold.Chemscore.Lipo.Weighted>
-12.7779

> <Gold.Chemscore.Internal_Hbond.Weighted>
0.0000

> <Gold.Chemscore.DEClash.Weighted>
0.3506

> <Gold.Chemscore.DEInternal.Weighted>
3.4170

> <Gold.Chemscore.Rot.Weighted>
6.2107

> <Gold.Chemscore.Internal.Correction.Weighted>
   9.000000E+99

> <Gold.Protein.RotatedTorsions>
[ 6907 6896 6895 6894 ] final   48.46 input  -60.11 | X-H torsion
[ 7974 7965 7964 7962 ] final  -36.75 input  175.53 | X-H torsion
[ 8008 7997 7996 7995 ] final  152.88 input   59.86 | X-H torsion
[ 10167 10162 10161 10158 ] final -100.88 input  -65.29 | X-H torsion
[ 10718 10713 10712 10709 ] final  -75.84 input   66.30 | X-H torsion
[ 10763 10752 10751 10750 ] final   70.87 input  -60.55 | X-H torsion
[ 11005 11000 10999 10996 ] final  -25.75 input  -57.11 | X-H torsion

> <Gold.Protein.ActiveResidues>
 VAL166  LYS551  ARG553  GLY616  TRP617  ASP618  TYR619  PRO620  LYS621  CYS622 
 ASP623  PHE694  ASN695  SER759  ASP760  ASP761  ALA762  ILE779  LEU786  VAL792 
 PHE793  MET794  SER795  GLU796  ALA797  LYS798  CYS799  TRP800  GLU811  SER814 

> <Gold.Protein.RotatedAtoms>
  152.2797  134.7842  160.0398 H   0  0  0  0  0  0  0  0  0  0  0  0  # atno 6907 bound_to 6896
  151.8426  133.3421  159.3656 H   0  0  0  0  0  0  0  0  0  0  0  0  # atno 6908 bound_to 6896
  150.7185  134.5305  159.5742 H   0  0  0  0  0  0  0  0  0  0  0  0  # atno 6909 bound_to 6896
  146.0635  140.6315  142.8986 H   0  0  0  0  0  0  0  0  0  0  0  0  # atno 7974 bound_to 7965
  156.2608  140.2008  156.6403 H   0  0  0  0  0  0  0  0  0  0  0  0  # atno 8008 bound_to 7997
  154.6614  140.0560  157.0091 H   0  0  0  0  0  0  0  0  0  0  0  0  # atno 8009 bound_to 7997
  155.1270  140.3230  155.4486 H   0  0  0  0  0  0  0  0  0  0  0  0  # atno 8010 bound_to 7997
  140.2472  143.3498  152.0748 H   0  0  0  0  0  0  0  0  0  0  0  0  # atno 10167 bound_to 10162
  156.0194  130.4451  150.3104 H   0  0  0  0  0  0  0  0  0  0  0  0  # atno 10718 bound_to 10713
  153.0366  135.5158  154.7506 H   0  0  0  0  0  0  0  0  0  0  0  0  # atno 10763 bound_to 10752
  154.6478  135.2921  155.0027 H   0  0  0  0  0  0  0  0  0  0  0  0  # atno 10764 bound_to 10752
  154.0922  135.6648  153.4907 H   0  0  0  0  0  0  0  0  0  0  0  0  # atno 10765 bound_to 10752
  140.8966  133.7552  156.0490 H   0  0  0  0  0  0  0  0  0  0  0  0  # atno 11005 bound_to 11000
  144.7188  140.4304  143.7023 LP  0  0  0  0  0  0  0  0  0  0  0  0  # atno 17320 bound_to 7965
  145.6519  139.1566  143.2857 LP  0  0  0  0  0  0  0  0  0  0  0  0  # atno 17321 bound_to 7965
  139.5058  144.6801  151.6029 LP  0  0  0  0  0  0  0  0  0  0  0  0  # atno 17342 bound_to 10162
  140.6068  143.9509  150.6425 LP  0  0  0  0  0  0  0  0  0  0  0  0  # atno 17343 bound_to 10162
  157.1205  131.0245  151.3011 LP  0  0  0  0  0  0  0  0  0  0  0  0  # atno 17370 bound_to 10713
  157.4631  130.7665  149.7254 LP  0  0  0  0  0  0  0  0  0  0  0  0  # atno 17371 bound_to 10713
  140.8281  134.3210  157.5358 LP  0  0  0  0  0  0  0  0  0  0  0  0  # atno 17394 bound_to 11000
  139.8736  134.9348  156.3615 LP  0  0  0  0  0  0  0  0  0  0  0  0  # atno 17395 bound_to 11000

$$$$
