#       Name:                AV-unprocessed.smi:1870
#       Creating user name   scv26
#       Creation time:       Fri Mar 27 09:31:09 2020


#       File generated by GOLD software.
#

@<TRIPOS>MOLECULE
AV-unprocessed.smi:1870
    54    56     1
SMALL
NO_CHARGES


@<TRIPOS>ATOM
      1 ****        -2.0305   1.5854  -2.8964 C.3            1 S1                 0.0000
      2 ****        -1.3862   0.2562  -2.6086 C.2            1 S1                 0.0000
      3 ****        -0.0940   0.2221  -2.6209 N.2            1 S1                 0.0000
      4 ****         0.5983  -0.9430  -2.3520 N.am           1 S1                 0.0000
      5 ****         2.0591  -0.7802  -2.3235 C.3            1 S1                 0.0000
      6 ****         2.6269  -0.7978  -0.8857 C.3            1 S1                 0.0000
      7 ****         4.0293  -0.6423  -0.9605 O.3            1 S1                 0.0000
      8 ****         2.0510   0.3245   0.0074 C.3            1 S1                 0.0000
      9 ****         2.3823   0.1791   1.4525 N.4            1 S1                 1.0000
     10 ****         1.8221  -1.0259   2.1206 C.3            1 S1                 0.0000
     11 ****         0.2831  -1.0099   2.1226 C.3            1 S1                 0.0000
     12 ****        -0.2852   0.3444   2.5180 C.ar           1 S1                 0.0000
     13 ****        -1.6580   0.4622   2.8163 C.ar           1 S1                 0.0000
     14 ****        -2.2079   1.7181   3.1361 C.ar           1 S1                 0.0000
     15 ****        -1.3874   2.8619   3.1550 C.ar           1 S1                 0.0000
     16 ****        -0.0159   2.7505   2.8565 C.ar           1 S1                 0.0000
     17 ****         0.5425   1.4956   2.5367 C.ar           1 S1                 0.0000
     18 ****         2.0349   1.3936   2.2335 C.3            1 S1                 0.0000
     19 ****         0.0157  -2.1493  -2.0962 C.2            1 S1                 0.0000
     20 ****         0.6721  -3.1692  -1.8825 O.2            1 S1                 0.0000
     21 ****        -1.4478  -2.1033  -2.0814 C.2            1 S1                 0.0000
     22 ****        -2.0979  -3.3392  -1.7856 C.1            1 S1                 0.0000
     23 ****        -2.6342  -4.3320  -1.5277 N.1            1 S1                 0.0000
     24 ****        -2.1381  -0.9606  -2.3210 C.2            1 S1                 0.0000
     25 ****        -3.6571  -0.8597  -2.3105 C.3            1 S1                 0.0000
     26 ****        -2.6034   1.5443  -3.8229 H              1 S1                 0.0000
     27 ****        -1.2922   2.3819  -2.9999 H              1 S1                 0.0000
     28 ****        -2.7077   1.8705  -2.0911 H              1 S1                 0.0000
     29 ****         2.5219  -1.5703  -2.9178 H              1 S1                 0.0000
     30 ****         2.3401   0.1533  -2.8155 H              1 S1                 0.0000
     31 ****         2.4292  -1.7775  -0.4561 H              1 S1                 0.0000
     32 ****         4.2221   0.1592  -1.4232 H              1 S1                 0.0000
     33 ****         2.4260   1.2830  -0.3549 H              1 S1                 0.0000
     34 ****         0.9688   0.3825  -0.0945 H              1 S1                 0.0000
     35 ****         2.1988  -1.9478   1.6807 H              1 S1                 0.0000
     36 ****         2.1804  -1.0328   3.1513 H              1 S1                 0.0000
     37 ****        -0.0994  -1.2687   1.1342 H              1 S1                 0.0000
     38 ****        -0.0920  -1.7732   2.8050 H              1 S1                 0.0000
     39 ****        -2.2952  -0.4100   2.7927 H              1 S1                 0.0000
     40 ****        -3.2605   1.8048   3.3626 H              1 S1                 0.0000
     41 ****        -1.8104   3.8253   3.3996 H              1 S1                 0.0000
     42 ****         0.6077   3.6324   2.8785 H              1 S1                 0.0000
     43 ****         2.5713   1.3664   3.1829 H              1 S1                 0.0000
     44 ****         2.3768   2.2902   1.7144 H              1 S1                 0.0000
     45 ****        -4.1342  -1.8324  -2.1939 H              1 S1                 0.0000
     46 ****        -4.0231  -0.4300  -3.2434 H              1 S1                 0.0000
     47 ****        -3.9894  -0.2277  -1.4862 H              1 S1                 0.0000
     48 ****         3.3880   0.0937   1.4948 H              1 S1                 0.0000
     49 ****         0.4155   1.0569  -2.8295 LP             1 S1                 0.0000
     50 ****         4.4279  -1.4176  -1.4504 LP             1 S1                 0.0000
     51 ****         4.4124  -0.5984  -0.0378 LP             1 S1                 0.0000
     52 ****         1.6713  -3.1319  -1.8926 LP             1 S1                 0.0000
     53 ****         0.2058  -4.0345  -1.6989 LP             1 S1                 0.0000
     54 ****        -3.0975  -5.1897  -1.3049 LP             1 S1                 0.0000
@<TRIPOS>BOND
    1    1    2 1     
    2    1   26 1     
    3    1   27 1     
    4    1   28 1     
    5    2   24 1     
    6    2    3 2     
    7    3    4 1     
    8    4    5 1     
    9    4   19 am    
   10    5    6 1     
   11    5   29 1     
   12    5   30 1     
   13    6    7 1     
   14    6    8 1     
   15    6   31 1     
   16    7   32 1     
   17    8    9 1     
   18    8   33 1     
   19    8   34 1     
   20    9   18 1     
   21    9   10 1     
   22    9   48 1     
   23   10   11 1     
   24   10   35 1     
   25   10   36 1     
   26   11   12 1     
   27   11   37 1     
   28   11   38 1     
   29   12   17 ar    
   30   12   13 ar    
   31   13   14 ar    
   32   13   39 1     
   33   14   15 ar    
   34   14   40 1     
   35   15   16 ar    
   36   15   41 1     
   37   16   17 ar    
   38   16   42 1     
   39   17   18 1     
   40   18   43 1     
   41   18   44 1     
   42   19   20 2     
   43   19   21 1     
   44   21   22 1     
   45   21   24 2     
   46   22   23 3     
   47   24   25 1     
   48   25   45 1     
   49   25   46 1     
   50   25   47 1     
   51    3   49 1     
   52    7   50 1     
   53    7   51 1     
   54   20   52 1     
   55   20   53 1     
   56   23   54 1     
@<TRIPOS>SUBSTRUCTURE
      1 S1             1
@<TRIPOS>SET
LONE_PAIRS      STATIC     ATOMS    <user>   **** ""
6 49 50 51 52 53 54
DONOR_HYDROGENS      STATIC     ATOMS    <user>   **** ""
2 32 48
ATOM$BLUE        STATIC     ATOMS    COLORGROUP SYSTEM
6 49 50 51 52 53 54
ATOM$RED        STATIC     ATOMS    COLORGROUP SYSTEM
2 32 48
