AV-unprocessed.smi:2944|AV-procd|sdf|11273|dock5
  -GOLD-   2272016163D 1   1.00000     0.00000
 Structure written by MMmdl.
 44 46  0  0  0  0  0  0  0  0  1 V2000
  151.8658  144.5767  160.9778 C   0  0  0  0  0  0  0  0  0  0  0  0
  151.9166  145.0333  159.6380 O   0  0  0  0  0  0  0  0  0  0  0  0
  152.2763  144.0079  158.7265 C   0  0  0  0  0  0  0  0  0  0  0  0
  151.3243  142.8148  158.8910 C   0  0  0  0  0  0  0  0  0  0  0  0
  151.9127  141.5755  158.4050 N   0  0  0  0  0  0  0  0  0  0  0  0
  152.9200  140.8588  158.9627 C   0  0  0  0  0  0  0  0  0  0  0  0
  153.6908  141.3803  160.4710 S   0  0  0  0  0  0  0  0  0  0  0  0
  154.8425  139.9956  160.7617 C   0  0  1  0  0  0  0  0  0  0  0  0
  156.1172  140.2031  159.9298 C   0  0  0  0  0  0  0  0  0  0  0  0
  155.2076  139.8443  162.2565 C   0  0  0  0  0  0  0  0  0  0  0  0
  155.7580  140.8032  162.8024 O   0  0  0  0  0  0  0  0  0  0  0  0
  154.8987  138.7264  162.9686 N   0  0  0  0  0  0  0  0  0  0  0  0
  155.0429  138.7082  164.4249 C   0  0  0  0  0  0  0  0  0  0  0  0
  154.5394  137.3310  164.8391 C   0  0  0  0  0  0  0  0  0  0  0  0
  154.2485  136.7247  163.5641 N   0  0  0  0  0  0  0  0  0  0  0  0
  154.4817  137.5190  162.5164 C   0  0  0  0  0  0  0  0  0  0  0  0
  154.3385  137.1475  161.3524 O   0  0  0  0  0  0  0  0  0  0  0  0
  153.2665  139.7525  158.3010 N   0  0  0  0  0  0  0  0  0  0  0  0
  152.4158  139.7598  157.2147 C   0  0  0  0  0  0  0  0  0  0  0  0
  152.2930  138.8520  156.1385 C   0  0  0  0  0  0  0  0  0  0  0  0
  151.3373  139.0729  155.1251 C   0  0  0  0  0  0  0  0  0  0  0  0
  150.4941  140.2019  155.1730 C   0  0  0  0  0  0  0  0  0  0  0  0
  150.6000  141.1177  156.2376 C   0  0  0  0  0  0  0  0  0  0  0  0
  151.5545  140.8912  157.2477 C   0  0  0  0  0  0  0  0  0  0  0  0
  151.5722  145.3969  161.6329 H   0  0  0  0  0  0  0  0  0  0  0  0
  152.8403  144.2146  161.3075 H   0  0  0  0  0  0  0  0  0  0  0  0
  151.1359  143.7744  161.0942 H   0  0  0  0  0  0  0  0  0  0  0  0
  152.2311  144.3847  157.7034 H   0  0  0  0  0  0  0  0  0  0  0  0
  153.3033  143.6893  158.9101 H   0  0  0  0  0  0  0  0  0  0  0  0
  151.0401  142.6922  159.9363 H   0  0  0  0  0  0  0  0  0  0  0  0
  150.3991  143.0005  158.3447 H   0  0  0  0  0  0  0  0  0  0  0  0
  154.3183  139.1235  160.3795 H   0  0  0  0  0  0  0  0  0  0  0  0
  156.8094  139.3686  160.0476 H   0  0  0  0  0  0  0  0  0  0  0  0
  156.6415  141.1144  160.2203 H   0  0  0  0  0  0  0  0  0  0  0  0
  155.8799  140.2818  158.8685 H   0  0  0  0  0  0  0  0  0  0  0  0
  156.0880  138.8447  164.7096 H   0  0  0  0  0  0  0  0  0  0  0  0
  154.4521  139.5001  164.8891 H   0  0  0  0  0  0  0  0  0  0  0  0
  155.2955  136.7595  165.3785 H   0  0  0  0  0  0  0  0  0  0  0  0
  153.6355  137.3907  165.4466 H   0  0  0  0  0  0  0  0  0  0  0  0
  153.9329  135.7691  163.4814 H   0  0  0  0  0  0  0  0  0  0  0  0
  152.9355  137.9852  156.0922 H   0  0  0  0  0  0  0  0  0  0  0  0
  151.2519  138.3740  154.3061 H   0  0  0  0  0  0  0  0  0  0  0  0
  149.7660  140.3653  154.3917 H   0  0  0  0  0  0  0  0  0  0  0  0
  149.9575  141.9847  156.2748 H   0  0  0  0  0  0  0  0  0  0  0  0
  1  2  1  0  0  0  0
  1 25  1  0  0  0  0
  1 26  1  0  0  0  0
  1 27  1  0  0  0  0
  2  3  1  0  0  0  0
  3  4  1  0  0  0  0
  3 28  1  0  0  0  0
  3 29  1  0  0  0  0
  4  5  1  0  0  0  0
  4 30  1  0  0  0  0
  4 31  1  0  0  0  0
  5 24  1  0  0  0  0
  5  6  1  0  0  0  0
  6  7  1  0  0  0  0
  6 18  2  0  0  0  0
  7  8  1  0  0  0  0
  8  9  1  0  0  0  0
  8 10  1  0  0  0  0
  8 32  1  0  0  0  0
  9 33  1  0  0  0  0
  9 34  1  0  0  0  0
  9 35  1  0  0  0  0
 10 11  2  0  0  0  0
 10 12  1  0  0  0  0
 12 16  1  0  0  0  0
 12 13  1  0  0  0  0
 13 14  1  0  0  0  0
 13 36  1  0  0  0  0
 13 37  1  0  0  0  0
 14 15  1  0  0  0  0
 14 38  1  0  0  0  0
 14 39  1  0  0  0  0
 15 16  1  0  0  0  0
 15 40  1  0  0  0  0
 16 17  2  0  0  0  0
 18 19  1  0  0  0  0
 19 24  2  0  0  0  0
 19 20  1  0  0  0  0
 20 21  2  0  0  0  0
 20 41  1  0  0  0  0
 21 22  1  0  0  0  0
 21 42  1  0  0  0  0
 22 23  2  0  0  0  0
 22 43  1  0  0  0  0
 23 24  1  0  0  0  0
 23 44  1  0  0  0  0
M  END
> <s_m_source_file>
AV-unprocessed.smi

> <i_m_source_file_index>
2944

> <i_lp_mmshare_version>
43012

> <i_f3d_flags>
0

> <s_epik_input>
W2NIXTFbY0hdW2NIXVtjSF1jKGMxMiluKFtDSDJdW0NIMl1PW0NIM10pYyhuMilTW0NASF0oW0NIM10pQyg9TylOM1tDSDJdW0NIMl1bTkhdQzM9Tw==

> <s_epik_cmdline>
J2VwaWtfcHl0aG9uJywgJy1waCcsICc3LjAnLCAnLXRuJywgJzgnLCAnLW1hJywgJzIwMCcsICctbWV0YWxfYmluZGluZycsICctaW1hZScsICc8aW5maWxlLm1hZT4nLCAnLW9tYWUnLCAnPG91dGZpbGUubWFlPic=

> <r_lp_tautomer_probability>
0.9999

> <r_epik_Ionization_Penalty>
0.0250226

> <r_epik_Ionization_Penalty_Charging>
0

> <r_epik_Ionization_Penalty_Neutral>
0.0250226

> <r_epik_State_Penalty>
0.0203222

> <r_epik_Charging_Adjusted_Penalty>
0.0203222

> <i_epik_Tot_Q>
0

> <i_epik_Tot_abs_Q>
0

> <r_epik_Metal_State_Penalty>
0.0194901

> <b_epik_Metal_Only>
0

> <s_lp_Force_Field>
OPLS_2005

> <r_lp_Energy>
41.7508

> <b_lp_Chiralities_Consistent>
1

> <s_lp_Variant>
AV-unprocessed.smi:2944-2

> <Gold.Version>
5.8.1

> <Gold.Id.Protein>
6NUR|6NUR_protein|mol2

> <Gold.PLP.Fitness>
50.3460

> <Gold.PLP.PLP>
-48.2779

> <Gold.PLP.part.hbond>
-2.0000

> <Gold.PLP.part.metal>
0.0000

> <Gold.PLP.part.buried>
-3.3755

> <Gold.PLP.part.nonpolar>
-42.3317

> <Gold.PLP.part.repulsive>
0.0939

> <Gold.PLP.ligand.clash>
0.0000

> <Gold.PLP.ligand.torsion>
0.5707

> <Gold.PLP.Chemscore.Hbond>
1.0000

> <Gold.PLP.Chemscore.CHOScore>
0.0000

> <Gold.PLP.Chemscore.Metal>
0.0000

> <Gold.Chemscore.Hbonds>
donor molecule, donor type, donor heavy atom, donor atom, acceptor molecule, acceptor atom, score
      P1  H  7997  8009       L1    18  0.35

> <Gold.PLP.Chemscore.Internal.Correction>
0.2096

> <Gold.Rescore>
     Score         DG    S(hbond)    S(metal)    S(lipo)     H(rot)  DE(clash)    DE(int)     intcor
     12.44     -14.46       0.46        0.00     112.62       2.24       0.17       1.85       ----

> <Gold.Chemscore.Fitness>
12.4419

> <Gold.Chemscore.DG>
-14.4558

> <Gold.Chemscore.ZeroCoef>
-5.4800

> <Gold.Chemscore.Hbond>
0.4561

> <Gold.Chemscore.Metal>
0.0000

> <Gold.Chemscore.Lipo>
112.6154

> <Gold.Chemscore.Internal_Hbond>
0.0000

> <Gold.Chemscore.DEClash>
0.1672

> <Gold.Chemscore.DEInternal>
1.8468

> <Gold.Chemscore.Rot>
2.2357

> <Gold.Chemscore.Internal.Correction>
   9.000000E+99

> <Gold.Chemscore.Hbonds>
donor molecule, donor type, donor heavy atom, donor atom, acceptor molecule, acceptor atom, score
      P1  H  7997  8009       L1    18  0.01

> <Gold.Chemscore.Hbond.Weighted>
-1.5232

> <Gold.Chemscore.Metal.Weighted>
-0.0000

> <Gold.Chemscore.Lipo.Weighted>
-13.1760

> <Gold.Chemscore.Internal_Hbond.Weighted>
0.0000

> <Gold.Chemscore.DEClash.Weighted>
0.1672

> <Gold.Chemscore.DEInternal.Weighted>
1.8468

> <Gold.Chemscore.Rot.Weighted>
5.7234

> <Gold.Chemscore.Internal.Correction.Weighted>
   9.000000E+99

> <Gold.Protein.RotatedTorsions>
[ 6907 6896 6895 6894 ] final  -42.98 input  -60.11 | X-H torsion
[ 7974 7965 7964 7962 ] final -165.03 input  175.53 | X-H torsion
[ 8008 7997 7996 7995 ] final  148.93 input   59.86 | X-H torsion
[ 10167 10162 10161 10158 ] final  -47.01 input  -65.29 | X-H torsion
[ 10718 10713 10712 10709 ] final  106.83 input   66.30 | X-H torsion
[ 10763 10752 10751 10750 ] final  157.26 input  -60.55 | X-H torsion
[ 11005 11000 10999 10996 ] final -149.40 input  -57.11 | X-H torsion

> <Gold.Protein.ActiveResidues>
 VAL166  LYS551  ARG553  GLY616  TRP617  ASP618  TYR619  PRO620  LYS621  CYS622 
 ASP623  PHE694  ASN695  SER759  ASP760  ASP761  ALA762  ILE779  LEU786  VAL792 
 PHE793  MET794  SER795  GLU796  ALA797  LYS798  CYS799  TRP800  GLU811  SER814 

> <Gold.Protein.RotatedAtoms>
  150.9491  134.8893  159.7660 H   0  0  0  0  0  0  0  0  0  0  0  0  # atno 6907 bound_to 6896
  152.5112  134.3832  159.9368 H   0  0  0  0  0  0  0  0  0  0  0  0  # atno 6908 bound_to 6896
  151.3849  133.3768  159.2749 H   0  0  0  0  0  0  0  0  0  0  0  0  # atno 6909 bound_to 6896
  144.7281  140.2874  143.6226 H   0  0  0  0  0  0  0  0  0  0  0  0  # atno 7974 bound_to 7965
  156.2773  140.2115  156.5777 H   0  0  0  0  0  0  0  0  0  0  0  0  # atno 8008 bound_to 7997
  154.7084  140.0514  157.0549 H   0  0  0  0  0  0  0  0  0  0  0  0  # atno 8009 bound_to 7997
  155.0639  140.3169  155.4654 H   0  0  0  0  0  0  0  0  0  0  0  0  # atno 8010 bound_to 7997
  140.6793  143.2804  151.3865 H   0  0  0  0  0  0  0  0  0  0  0  0  # atno 10167 bound_to 10162
  157.6653  131.0859  150.6066 H   0  0  0  0  0  0  0  0  0  0  0  0  # atno 10718 bound_to 10713
  154.1974  135.2792  155.3002 H   0  0  0  0  0  0  0  0  0  0  0  0  # atno 10763 bound_to 10752
  154.5881  135.5568  153.7254 H   0  0  0  0  0  0  0  0  0  0  0  0  # atno 10764 bound_to 10752
  153.0096  135.6361  154.2113 H   0  0  0  0  0  0  0  0  0  0  0  0  # atno 10765 bound_to 10752
  140.7511  134.3406  157.5125 H   0  0  0  0  0  0  0  0  0  0  0  0  # atno 11005 bound_to 11000
  145.7889  139.1919  143.2114 LP  0  0  0  0  0  0  0  0  0  0  0  0  # atno 17320 bound_to 7965
  146.0772  140.7804  142.9659 LP  0  0  0  0  0  0  0  0  0  0  0  0  # atno 17321 bound_to 7965
  139.6105  144.1108  152.2294 LP  0  0  0  0  0  0  0  0  0  0  0  0  # atno 17342 bound_to 10162
  140.0521  144.5924  150.7328 LP  0  0  0  0  0  0  0  0  0  0  0  0  # atno 17343 bound_to 10162
  156.6367  130.4447  149.5767 LP  0  0  0  0  0  0  0  0  0  0  0  0  # atno 17370 bound_to 10713
  156.2241  130.6755  151.1398 LP  0  0  0  0  0  0  0  0  0  0  0  0  # atno 17371 bound_to 10713
  139.8787  134.9142  156.3102 LP  0  0  0  0  0  0  0  0  0  0  0  0  # atno 17394 bound_to 11000
  140.9750  133.7303  156.0589 LP  0  0  0  0  0  0  0  0  0  0  0  0  # atno 17395 bound_to 11000

$$$$
