AV-unprocessed.smi:3245|AV-procd|sdf|12403|dock10
  -GOLD-   2272018283D 1   1.00000     0.00000
 Structure written by MMmdl.
 36 37  0  0  0  0  0  0  0  0  2 V2000
  151.6988  144.2000  158.1909 C   0  0  0  0  0  0  0  0  0  0  0  0
  151.5060  142.8044  157.5824 C   0  0  1  0  0  0  0  0  0  0  0  0
  151.5548  141.7203  158.6813 C   0  0  0  0  0  0  0  0  0  0  0  0
  152.1170  142.2026  159.9302 N   0  0  0  0  0  0  0  0  0  0  0  0
  153.3245  141.8759  160.5103 C   0  0  0  0  0  0  0  0  0  0  0  0
  153.4073  142.5618  161.6882 C   0  0  0  0  0  0  0  0  0  0  0  0
  152.1889  143.2950  161.7400 C   0  0  0  0  0  0  0  0  0  0  0  0
  151.4183  143.0776  160.6862 N   0  0  0  0  0  0  0  0  0  0  0  0
  150.2223  142.7622  156.8455 N   0  3  0  0  0  0  0  0  0  0  0  0
  150.0375  141.5781  155.9818 C   0  0  0  0  0  0  0  0  0  0  0  0
  149.2064  141.9306  154.7399 C   0  0  0  0  0  0  0  0  0  0  0  0
  148.6097  140.7332  154.1434 N   0  0  0  0  0  0  0  0  0  0  0  0
  147.3464  140.6564  153.7060 C   0  0  0  0  0  0  0  0  0  0  0  0
  146.4921  141.5416  153.7284 O   0  0  0  0  0  0  0  0  0  0  0  0
  147.1173  139.2695  153.1459 C   0  0  0  0  0  0  0  0  0  0  0  0
  148.4347  138.7095  153.3593 N   0  0  0  0  0  0  0  0  0  0  0  0
  149.2733  139.5813  153.9339 C   0  0  0  0  0  0  0  0  0  0  0  0
  150.4509  139.3581  154.2101 O   0  0  0  0  0  0  0  0  0  0  0  0
  152.6556  144.2734  158.7089 H   0  0  0  0  0  0  0  0  0  0  0  0
  150.9130  144.4327  158.9105 H   0  0  0  0  0  0  0  0  0  0  0  0
  151.6839  144.9714  157.4201 H   0  0  0  0  0  0  0  0  0  0  0  0
  152.3274  142.6405  156.8825 H   0  0  0  0  0  0  0  0  0  0  0  0
  150.5480  141.3556  158.8894 H   0  0  0  0  0  0  0  0  0  0  0  0
  152.1306  140.8568  158.3431 H   0  0  0  0  0  0  0  0  0  0  0  0
  154.0142  141.1871  160.0450 H   0  0  0  0  0  0  0  0  0  0  0  0
  154.2155  142.5437  162.4043 H   0  0  0  0  0  0  0  0  0  0  0  0
  151.8430  143.9713  162.5078 H   0  0  0  0  0  0  0  0  0  0  0  0
  149.4710  142.7963  157.5203 H   0  0  0  0  0  0  0  0  0  0  0  0
  151.0165  141.1950  155.6906 H   0  0  0  0  0  0  0  0  0  0  0  0
  149.5404  140.7849  156.5395 H   0  0  0  0  0  0  0  0  0  0  0  0
  148.4177  142.6358  155.0081 H   0  0  0  0  0  0  0  0  0  0  0  0
  149.8293  142.4471  154.0074 H   0  0  0  0  0  0  0  0  0  0  0  0
  146.3541  138.7293  153.7072 H   0  0  0  0  0  0  0  0  0  0  0  0
  146.8583  139.2992  152.0872 H   0  0  0  0  0  0  0  0  0  0  0  0
  148.6812  137.7667  153.0938 H   0  0  0  0  0  0  0  0  0  0  0  0
  150.1631  143.5814  156.2575 H   0  0  0  0  0  0  0  0  0  0  0  0
  1  2  1  0  0  0  0
  1 19  1  0  0  0  0
  1 20  1  0  0  0  0
  1 21  1  0  0  0  0
  2  3  1  0  0  0  0
  2  9  1  0  0  0  0
  2 22  1  0  0  0  0
  3  4  1  0  0  0  0
  3 23  1  0  0  0  0
  3 24  1  0  0  0  0
  4  8  1  0  0  0  0
  4  5  1  0  0  0  0
  5  6  2  0  0  0  0
  5 25  1  0  0  0  0
  6  7  1  0  0  0  0
  6 26  1  0  0  0  0
  7  8  2  0  0  0  0
  7 27  1  0  0  0  0
  9 10  1  0  0  0  0
  9 28  1  0  0  0  0
  9 36  1  0  0  0  0
 10 11  1  0  0  0  0
 10 29  1  0  0  0  0
 10 30  1  0  0  0  0
 11 12  1  0  0  0  0
 11 31  1  0  0  0  0
 11 32  1  0  0  0  0
 12 17  1  0  0  0  0
 12 13  1  0  0  0  0
 13 14  2  0  0  0  0
 13 15  1  0  0  0  0
 15 16  1  0  0  0  0
 15 33  1  0  0  0  0
 15 34  1  0  0  0  0
 16 17  1  0  0  0  0
 16 35  1  0  0  0  0
 17 18  2  0  0  0  0
M  CHG  1   9   1
M  END
> <s_m_source_file>
AV-unprocessed.smi

> <i_m_source_file_index>
3245

> <i_lp_mmshare_version>
43012

> <i_f3d_flags>
0

> <s_epik_input>
bjFbY0hdW2NIXVtjSF1uMVtDSDJdW0NAQEhdKFtDSDNdKVtOSF1bQ0gyXVtDSDJdTjJDKD1PKVtDSDJdW05IXUMyPU8=

> <s_epik_cmdline>
J2VwaWtfcHl0aG9uJywgJy1waCcsICc3LjAnLCAnLXRuJywgJzgnLCAnLW1hJywgJzIwMCcsICctbWV0YWxfYmluZGluZycsICctaW1hZScsICc8aW5maWxlLm1hZT4nLCAnLW9tYWUnLCAnPG91dGZpbGUubWFlPic=

> <r_lp_tautomer_probability>
1

> <r_epik_Ionization_Penalty>
0.0160742

> <r_epik_Ionization_Penalty_Charging>
0.0159586

> <r_epik_Ionization_Penalty_Neutral>
0.000115543

> <r_epik_State_Penalty>
0.0125702

> <r_epik_Charging_Adjusted_Penalty>
0.0285288

> <i_epik_Tot_Q>
1

> <i_epik_Tot_abs_Q>
1

> <r_epik_Metal_State_Penalty>
0.0881892

> <b_epik_Metal_Only>
0

> <s_lp_Force_Field>
OPLS_2005

> <r_lp_Energy>
19.8129

> <b_lp_Chiralities_Consistent>
1

> <s_lp_Variant>
AV-unprocessed.smi:3245-2

> <Gold.Version>
5.8.1

> <Gold.Id.Protein>
6NUR|6NUR_protein|mol2

> <Gold.PLP.Fitness>
48.7934

> <Gold.PLP.PLP>
-40.5860

> <Gold.PLP.part.hbond>
-5.0000

> <Gold.PLP.part.metal>
0.0000

> <Gold.PLP.part.buried>
-0.0005

> <Gold.PLP.part.nonpolar>
-35.7472

> <Gold.PLP.part.repulsive>
0.5441

> <Gold.PLP.ligand.clash>
0.0000

> <Gold.PLP.ligand.torsion>
1.2756

> <Gold.PLP.Chemscore.Hbond>
3.5680

> <Gold.PLP.Chemscore.CHOScore>
0.0000

> <Gold.PLP.Chemscore.Metal>
0.0000

> <Gold.Chemscore.Hbonds>
donor molecule, donor type, donor heavy atom, donor atom, acceptor molecule, acceptor atom, score
      L1  H     9    36       P1  8028  1.54
      L1  H    16    35       P1  7948  1.00
      P1  H  7989  7998       L1    18  0.98

> <Gold.PLP.Chemscore.Internal.Correction>
0.0546

> <Gold.Rescore>
     Score         DG    S(hbond)    S(metal)    S(lipo)     H(rot)  DE(clash)    DE(int)     intcor
     12.64     -18.15       2.84        0.00      87.15       2.74       1.60       3.91       ----

> <Gold.Chemscore.Fitness>
12.6446

> <Gold.Chemscore.DG>
-18.1540

> <Gold.Chemscore.ZeroCoef>
-5.4800

> <Gold.Chemscore.Hbond>
2.8396

> <Gold.Chemscore.Metal>
0.0000

> <Gold.Chemscore.Lipo>
87.1460

> <Gold.Chemscore.Internal_Hbond>
0.0000

> <Gold.Chemscore.DEClash>
1.6004

> <Gold.Chemscore.DEInternal>
3.9090

> <Gold.Chemscore.Rot>
2.7369

> <Gold.Chemscore.Internal.Correction>
   9.000000E+99

> <Gold.Chemscore.Hbonds>
donor molecule, donor type, donor heavy atom, donor atom, acceptor molecule, acceptor atom, score
      L1  H     9    36       P1  8028  0.78
      L1  H    16    35       P1  7948  0.97
      P1  H  7989  7998       L1    18  0.69

> <Gold.Chemscore.Hbond.Weighted>
-9.4844

> <Gold.Chemscore.Metal.Weighted>
-0.0000

> <Gold.Chemscore.Lipo.Weighted>
-10.1961

> <Gold.Chemscore.Internal_Hbond.Weighted>
0.0000

> <Gold.Chemscore.DEClash.Weighted>
1.6004

> <Gold.Chemscore.DEInternal.Weighted>
3.9090

> <Gold.Chemscore.Rot.Weighted>
7.0065

> <Gold.Chemscore.Internal.Correction.Weighted>
   9.000000E+99

> <Gold.Protein.RotatedTorsions>
[ 6907 6896 6895 6894 ] final  101.10 input  -60.11 | X-H torsion
[ 7974 7965 7964 7962 ] final  -34.14 input  175.53 | X-H torsion
[ 8008 7997 7996 7995 ] final  -33.82 input   59.86 | X-H torsion
[ 10167 10162 10161 10158 ] final  -53.50 input  -65.29 | X-H torsion
[ 10718 10713 10712 10709 ] final  107.62 input   66.30 | X-H torsion
[ 10763 10752 10751 10750 ] final  -99.05 input  -60.55 | X-H torsion
[ 11005 11000 10999 10996 ] final  109.16 input  -57.11 | X-H torsion

> <Gold.Protein.ActiveResidues>
 VAL166  LYS551  ARG553  GLY616  TRP617  ASP618  TYR619  PRO620  LYS621  CYS622 
 ASP623  PHE694  ASN695  SER759  ASP760  ASP761  ALA762  ILE779  LEU786  VAL792 
 PHE793  MET794  SER795  GLU796  ALA797  LYS798  CYS799  TRP800  GLU811  SER814 

> <Gold.Protein.RotatedAtoms>
  152.5357  134.0177  159.7967 H   0  0  0  0  0  0  0  0  0  0  0  0  # atno 6907 bound_to 6896
  151.0369  133.5733  159.2662 H   0  0  0  0  0  0  0  0  0  0  0  0  # atno 6908 bound_to 6896
  151.2717  135.0694  159.9190 H   0  0  0  0  0  0  0  0  0  0  0  0  # atno 6909 bound_to 6896
  146.0854  140.6002  142.8889 H   0  0  0  0  0  0  0  0  0  0  0  0  # atno 7974 bound_to 7965
  154.4138  140.1700  156.1950 H   0  0  0  0  0  0  0  0  0  0  0  0  # atno 8008 bound_to 7997
  155.9572  140.3396  155.6435 H   0  0  0  0  0  0  0  0  0  0  0  0  # atno 8009 bound_to 7997
  155.6795  140.0721  157.2481 H   0  0  0  0  0  0  0  0  0  0  0  0  # atno 8010 bound_to 7997
  140.6481  143.2548  151.4801 H   0  0  0  0  0  0  0  0  0  0  0  0  # atno 10167 bound_to 10162
  157.6620  131.0876  150.6184 H   0  0  0  0  0  0  0  0  0  0  0  0  # atno 10718 bound_to 10713
  154.7465  135.4987  153.9214 H   0  0  0  0  0  0  0  0  0  0  0  0  # atno 10763 bound_to 10752
  153.1098  135.6706  153.9529 H   0  0  0  0  0  0  0  0  0  0  0  0  # atno 10764 bound_to 10752
  153.9292  135.3080  155.3425 H   0  0  0  0  0  0  0  0  0  0  0  0  # atno 10765 bound_to 10752
  139.8857  134.9450  156.6082 H   0  0  0  0  0  0  0  0  0  0  0  0  # atno 11005 bound_to 11000
  144.7322  140.4705  143.6929 LP  0  0  0  0  0  0  0  0  0  0  0  0  # atno 17320 bound_to 7965
  145.6140  139.1516  143.3060 LP  0  0  0  0  0  0  0  0  0  0  0  0  # atno 17321 bound_to 7965
  139.5694  144.1965  152.1813 LP  0  0  0  0  0  0  0  0  0  0  0  0  # atno 17342 bound_to 10162
  140.1257  144.5334  150.6834 LP  0  0  0  0  0  0  0  0  0  0  0  0  # atno 17343 bound_to 10162
  156.6486  130.4479  149.5727 LP  0  0  0  0  0  0  0  0  0  0  0  0  # atno 17370 bound_to 10713
  156.2154  130.6705  151.1314 LP  0  0  0  0  0  0  0  0  0  0  0  0  # atno 17371 bound_to 10713
  140.7831  133.8643  155.8584 LP  0  0  0  0  0  0  0  0  0  0  0  0  # atno 17394 bound_to 11000
  140.9743  134.1490  157.4550 LP  0  0  0  0  0  0  0  0  0  0  0  0  # atno 17395 bound_to 11000

$$$$
