AV-unprocessed.smi:573|AV-procd|sdf|2972|dock10
  -GOLD-   2262023483D 1   1.00000     0.00000
 Structure written by MMmdl.
 44 46  0  0  0  0  0  0  0  0  1 V2000
  147.1252  140.2775  153.2557 C   0  0  0  0  0  0  0  0  0  0  0  0
  148.3714  140.1770  154.1483 C   0  0  1  0  0  0  0  0  0  0  0  0
  149.4634  140.7212  153.4381 O   0  0  0  0  0  0  0  0  0  0  0  0
  148.2390  140.9390  155.4783 C   0  0  0  0  0  0  0  0  0  0  0  0
  149.2544  140.5523  156.4409 N   0  0  0  0  0  0  0  0  0  0  0  0
  150.1322  141.2934  157.2234 C   0  0  0  0  0  0  0  0  0  0  0  0
  150.1952  142.6237  157.2170 N   0  0  0  0  0  0  0  0  0  0  0  0
  151.2005  142.8734  158.1322 C   0  0  0  0  0  0  0  0  0  0  0  0
  151.7519  144.0960  158.5781 C   0  0  0  0  0  0  0  0  0  0  0  0
  152.7902  144.1050  159.5324 C   0  0  0  0  0  0  0  0  0  0  0  0
  153.2926  142.8948  160.0529 C   0  0  0  0  0  0  0  0  0  0  0  0
  152.7584  141.6650  159.6226 C   0  0  0  0  0  0  0  0  0  0  0  0
  151.7201  141.6605  158.6718 C   0  0  0  0  0  0  0  0  0  0  0  0
  150.9897  140.6515  158.0510 N   0  0  0  0  0  0  0  0  0  0  0  0
  151.1399  139.2175  158.2541 C   0  0  0  0  0  0  0  0  0  0  0  0
  151.5136  138.4917  156.9513 C   0  0  2  0  0  0  0  0  0  0  0  0
  152.2030  139.4278  155.9411 C   0  0  0  0  0  0  0  0  0  0  0  0
  152.4998  138.6818  154.6351 C   0  0  0  0  0  0  0  0  0  0  0  0
  151.2178  138.0247  154.1120 C   0  0  0  0  0  0  0  0  0  0  0  0
  150.5689  137.1665  155.2100 C   0  0  0  0  0  0  0  0  0  0  0  0
  150.3257  137.9602  156.3666 O   0  0  0  0  0  0  0  0  0  0  0  0
  146.2595  139.8150  153.7299 H   0  0  0  0  0  0  0  0  0  0  0  0
  147.2827  139.7696  152.3038 H   0  0  0  0  0  0  0  0  0  0  0  0
  146.8722  141.3166  153.0422 H   0  0  0  0  0  0  0  0  0  0  0  0
  148.5956  139.1278  154.3456 H   0  0  0  0  0  0  0  0  0  0  0  0
  149.7272  140.1033  152.7736 H   0  0  0  0  0  0  0  0  0  0  0  0
  148.3433  142.0105  155.3048 H   0  0  0  0  0  0  0  0  0  0  0  0
  147.2496  140.7862  155.9115 H   0  0  0  0  0  0  0  0  0  0  0  0
  149.3120  139.5546  156.5845 H   0  0  0  0  0  0  0  0  0  0  0  0
  151.3760  145.0285  158.1839 H   0  0  0  0  0  0  0  0  0  0  0  0
  153.2041  145.0452  159.8657 H   0  0  0  0  0  0  0  0  0  0  0  0
  154.0891  142.9109  160.7823 H   0  0  0  0  0  0  0  0  0  0  0  0
  153.1438  140.7363  160.0166 H   0  0  0  0  0  0  0  0  0  0  0  0
  151.9062  139.0515  159.0119 H   0  0  0  0  0  0  0  0  0  0  0  0
  150.2124  138.8175  158.6655 H   0  0  0  0  0  0  0  0  0  0  0  0
  152.1863  137.6665  157.1929 H   0  0  0  0  0  0  0  0  0  0  0  0
  151.5596  140.2839  155.7337 H   0  0  0  0  0  0  0  0  0  0  0  0
  153.1272  139.8254  156.3619 H   0  0  0  0  0  0  0  0  0  0  0  0
  152.9097  139.3644  153.8902 H   0  0  0  0  0  0  0  0  0  0  0  0
  153.2582  137.9182  154.8126 H   0  0  0  0  0  0  0  0  0  0  0  0
  150.5157  138.7953  153.7913 H   0  0  0  0  0  0  0  0  0  0  0  0
  151.4365  137.4149  153.2351 H   0  0  0  0  0  0  0  0  0  0  0  0
  149.6203  136.7614  154.8573 H   0  0  0  0  0  0  0  0  0  0  0  0
  151.2026  136.3162  155.4662 H   0  0  0  0  0  0  0  0  0  0  0  0
  1  2  1  0  0  0  0
  1 22  1  0  0  0  0
  1 23  1  0  0  0  0
  1 24  1  0  0  0  0
  2  3  1  0  0  0  0
  2  4  1  0  0  0  0
  2 25  1  0  0  0  0
  3 26  1  0  0  0  0
  4  5  1  0  0  0  0
  4 27  1  0  0  0  0
  4 28  1  0  0  0  0
  5  6  1  0  0  0  0
  5 29  1  0  0  0  0
  6 14  1  0  0  0  0
  6  7  2  0  0  0  0
  7  8  1  0  0  0  0
  8 13  2  0  0  0  0
  8  9  1  0  0  0  0
  9 10  2  0  0  0  0
  9 30  1  0  0  0  0
 10 11  1  0  0  0  0
 10 31  1  0  0  0  0
 11 12  2  0  0  0  0
 11 32  1  0  0  0  0
 12 13  1  0  0  0  0
 12 33  1  0  0  0  0
 13 14  1  0  0  0  0
 14 15  1  0  0  0  0
 15 16  1  0  0  0  0
 15 34  1  0  0  0  0
 15 35  1  0  0  0  0
 16 21  1  0  0  0  0
 16 17  1  0  0  0  0
 16 36  1  0  0  0  0
 17 18  1  0  0  0  0
 17 37  1  0  0  0  0
 17 38  1  0  0  0  0
 18 19  1  0  0  0  0
 18 39  1  0  0  0  0
 18 40  1  0  0  0  0
 19 20  1  0  0  0  0
 19 41  1  0  0  0  0
 19 42  1  0  0  0  0
 20 21  1  0  0  0  0
 20 43  1  0  0  0  0
 20 44  1  0  0  0  0
M  END
> <s_m_source_file>
AV-unprocessed.smi

> <i_m_source_file_index>
573

> <i_lp_mmshare_version>
43012

> <i_f3d_flags>
0

> <s_epik_input>
W0NIM11bQ0BIXShbT0hdKVtDSDJdW05IXWMobjEpbihjKGMxMilbY0hdW2NIXVtjSF1bY0hdMilbQ0gyXVtDQEBIXTNbQ0gyXVtDSDJdW0NIMl1bQ0gyXU8z

> <s_epik_cmdline>
J2VwaWtfcHl0aG9uJywgJy1waCcsICc3LjAnLCAnLXRuJywgJzgnLCAnLW1hJywgJzIwMCcsICctbWV0YWxfYmluZGluZycsICctaW1hZScsICc8aW5maWxlLm1hZT4nLCAnLW9tYWUnLCAnPG91dGZpbGUubWFlPic=

> <r_epik_Ionization_Penalty>
1.30635

> <r_epik_Ionization_Penalty_Charging>
0

> <r_epik_Ionization_Penalty_Neutral>
1.30635

> <r_epik_State_Penalty>
1.38073

> <r_epik_Charging_Adjusted_Penalty>
1.38073

> <i_epik_Tot_Q>
0

> <i_epik_Tot_abs_Q>
0

> <r_epik_Metal_State_Penalty>
0.00547412

> <b_epik_Metal_Only>
0

> <s_lp_Force_Field>
OPLS_2005

> <r_lp_Energy>
6.58613

> <b_lp_Chiralities_Consistent>
1

> <s_lp_Variant>
AV-unprocessed.smi:573-6

> <Gold.Version>
5.8.1

> <Gold.Id.Protein>
6NUR|6NUR_protein|mol2

> <Gold.PLP.Fitness>
46.2584

> <Gold.PLP.PLP>
-42.8576

> <Gold.PLP.part.hbond>
-2.4400

> <Gold.PLP.part.metal>
0.0000

> <Gold.PLP.part.buried>
-5.5601

> <Gold.PLP.part.nonpolar>
-35.8986

> <Gold.PLP.part.repulsive>
1.6014

> <Gold.PLP.ligand.clash>
0.0000

> <Gold.PLP.ligand.torsion>
0.6582

> <Gold.PLP.Chemscore.Hbond>
1.5700

> <Gold.PLP.Chemscore.CHOScore>
0.0000

> <Gold.PLP.Chemscore.Metal>
0.0000

> <Gold.Chemscore.Hbonds>
donor molecule, donor type, donor heavy atom, donor atom, acceptor molecule, acceptor atom, score
      L1  H     3    26       P1  7957  0.70
      P1  H  8011  8017       L1     3  0.77

> <Gold.PLP.Chemscore.Internal.Correction>
0.0072

> <Gold.Rescore>
     Score         DG    S(hbond)    S(metal)    S(lipo)     H(rot)  DE(clash)    DE(int)     intcor
     15.79     -17.91       1.00        0.00     121.94       2.02       0.10       2.01       ----

> <Gold.Chemscore.Fitness>
15.7932

> <Gold.Chemscore.DG>
-17.9085

> <Gold.Chemscore.ZeroCoef>
-5.4800

> <Gold.Chemscore.Hbond>
0.9997

> <Gold.Chemscore.Metal>
0.0000

> <Gold.Chemscore.Lipo>
121.9394

> <Gold.Chemscore.Internal_Hbond>
0.0000

> <Gold.Chemscore.DEClash>
0.1050

> <Gold.Chemscore.DEInternal>
2.0103

> <Gold.Chemscore.Rot>
2.0224

> <Gold.Chemscore.Internal.Correction>
   9.000000E+99

> <Gold.Chemscore.Hbonds>
donor molecule, donor type, donor heavy atom, donor atom, acceptor molecule, acceptor atom, score
      L1  H     3    26       P1  7957  0.69
      P1  H  8011  8017       L1     3  0.11

> <Gold.Chemscore.Hbond.Weighted>
-3.3389

> <Gold.Chemscore.Metal.Weighted>
-0.0000

> <Gold.Chemscore.Lipo.Weighted>
-14.2669

> <Gold.Chemscore.Internal_Hbond.Weighted>
0.0000

> <Gold.Chemscore.DEClash.Weighted>
0.1050

> <Gold.Chemscore.DEInternal.Weighted>
2.0103

> <Gold.Chemscore.Rot.Weighted>
5.1773

> <Gold.Chemscore.Internal.Correction.Weighted>
   9.000000E+99

> <Gold.Protein.RotatedTorsions>
[ 6907 6896 6895 6894 ] final   45.46 input  -60.11 | X-H torsion
[ 7974 7965 7964 7962 ] final  167.83 input  175.53 | X-H torsion
[ 8008 7997 7996 7995 ] final   64.75 input   59.86 | X-H torsion
[ 10167 10162 10161 10158 ] final -152.32 input  -65.29 | X-H torsion
[ 10718 10713 10712 10709 ] final  -80.77 input   66.30 | X-H torsion
[ 10763 10752 10751 10750 ] final  -86.36 input  -60.55 | X-H torsion
[ 11005 11000 10999 10996 ] final   13.52 input  -57.11 | X-H torsion

> <Gold.Protein.ActiveResidues>
 VAL166  LYS551  ARG553  GLY616  TRP617  ASP618  TYR619  PRO620  LYS621  CYS622 
 ASP623  PHE694  ASN695  SER759  ASP760  ASP761  ALA762  ILE779  LEU786  VAL792 
 PHE793  MET794  SER795  GLU796  ALA797  LYS798  CYS799  TRP800  GLU811  SER814 

> <Gold.Protein.RotatedAtoms>
  152.2448  134.8192  160.0454 H   0  0  0  0  0  0  0  0  0  0  0  0  # atno 6907 bound_to 6896
  151.8893  133.3507  159.3801 H   0  0  0  0  0  0  0  0  0  0  0  0  # atno 6908 bound_to 6896
  150.7065  134.4866  159.5540 H   0  0  0  0  0  0  0  0  0  0  0  0  # atno 6909 bound_to 6896
  144.7410  139.8818  143.6397 H   0  0  0  0  0  0  0  0  0  0  0  0  # atno 7974 bound_to 7965
  155.6510  140.3497  155.4748 H   0  0  0  0  0  0  0  0  0  0  0  0  # atno 8008 bound_to 7997
  155.9848  140.1181  157.0717 H   0  0  0  0  0  0  0  0  0  0  0  0  # atno 8009 bound_to 7997
  154.4202  140.1131  156.5470 H   0  0  0  0  0  0  0  0  0  0  0  0  # atno 8010 bound_to 7997
  139.7192  143.8984  152.2497 H   0  0  0  0  0  0  0  0  0  0  0  0  # atno 10167 bound_to 10162
  156.0063  130.4584  150.3851 H   0  0  0  0  0  0  0  0  0  0  0  0  # atno 10718 bound_to 10713
  154.6216  135.5452  153.7582 H   0  0  0  0  0  0  0  0  0  0  0  0  # atno 10763 bound_to 10752
  153.0241  135.6414  154.1432 H   0  0  0  0  0  0  0  0  0  0  0  0  # atno 10764 bound_to 10752
  154.1366  135.2911  155.3151 H   0  0  0  0  0  0  0  0  0  0  0  0  # atno 10765 bound_to 10752
  140.4798  134.0947  155.7748 H   0  0  0  0  0  0  0  0  0  0  0  0  # atno 11005 bound_to 11000
  146.1206  139.4223  143.0231 LP  0  0  0  0  0  0  0  0  0  0  0  0  # atno 17320 bound_to 7965
  145.7310  141.0042  143.1351 LP  0  0  0  0  0  0  0  0  0  0  0  0  # atno 17321 bound_to 7965
  139.8875  144.6983  150.8807 LP  0  0  0  0  0  0  0  0  0  0  0  0  # atno 17342 bound_to 10162
  140.7750  143.3612  151.1825 LP  0  0  0  0  0  0  0  0  0  0  0  0  # atno 17343 bound_to 10162
  157.1929  131.0419  151.2691 LP  0  0  0  0  0  0  0  0  0  0  0  0  # atno 17370 bound_to 10713
  157.4045  130.7351  149.6792 LP  0  0  0  0  0  0  0  0  0  0  0  0  # atno 17371 bound_to 10713
  141.1537  133.8922  157.2033 LP  0  0  0  0  0  0  0  0  0  0  0  0  # atno 17394 bound_to 11000
  139.9833  135.0090  156.9803 LP  0  0  0  0  0  0  0  0  0  0  0  0  # atno 17395 bound_to 11000

$$$$
