#       Name:                AV-unprocessed.smi:3283
#       Creating user name   scv26
#       Creation time:       Fri Mar 27 18:48:49 2020


#       File generated by GOLD software.
#

@<TRIPOS>MOLECULE
AV-unprocessed.smi:3283
    45    46     1
SMALL
NO_CHARGES


@<TRIPOS>ATOM
      1 ****        -2.3265   2.3197  -2.8832 C.3            1 S1                 0.0000
      2 ****        -2.6806   2.0443  -1.4315 C.2            1 S1                 0.0000
      3 ****        -3.9576   2.0897  -1.0038 C.2            1 S1                 0.0000
      4 ****        -4.3954   1.8698   0.4324 C.3            1 S1                 0.0000
      5 ****        -3.2585   1.3614   1.3322 C.3            1 S1                 0.0000
      6 ****        -1.9203   2.0388   0.9868 C.3            1 S1                 0.0000
      7 ****        -0.8412   1.7338   2.0396 C.3            1 S1                 0.0000
      8 ****        -1.5062   1.7593  -0.4908 C.3            1 S1                 0.0000
      9 ****        -0.9497   0.3348  -0.7480 C.3            1 S1                 0.0000
     10 ****         0.4327   0.1759  -0.2535 N.4            1 S1                 1.0000
     11 ****         0.9763  -1.1883  -0.3971 C.3            1 S1                 0.0000
     12 ****         2.3988  -1.2742   0.1749 C.3            1 S1                 0.0000
     13 ****         3.0245  -2.6321   0.0752 C.2            1 S1                 0.0000
     14 ****         2.5531  -3.8086  -0.4407 C.2            1 S1                 0.0000
     15 ****         3.6160  -4.7305  -0.2340 C.2            1 S1                 0.0000
     16 ****         4.6590  -4.1766   0.3584 N.2            1 S1                 0.0000
     17 ****         4.2986  -2.8899   0.5480 N.pl3          1 S1                 0.0000
     18 ****         5.2288  -1.9805   1.1893 C.3            1 S1                 0.0000
     19 ****        -1.6246   3.1512  -2.9498 H              1 S1                 0.0000
     20 ****        -3.2114   2.5843  -3.4630 H              1 S1                 0.0000
     21 ****        -1.8724   1.4490  -3.3539 H              1 S1                 0.0000
     22 ****        -4.7477   2.3221  -1.7030 H              1 S1                 0.0000
     23 ****        -4.7683   2.8218   0.8114 H              1 S1                 0.0000
     24 ****        -5.2326   1.1719   0.4552 H              1 S1                 0.0000
     25 ****        -3.5205   1.5420   2.3754 H              1 S1                 0.0000
     26 ****        -3.1654   0.2802   1.2291 H              1 S1                 0.0000
     27 ****        -2.0932   3.1145   1.0557 H              1 S1                 0.0000
     28 ****        -0.6785   0.6619   2.1543 H              1 S1                 0.0000
     29 ****        -1.1355   2.1187   3.0165 H              1 S1                 0.0000
     30 ****         0.1091   2.2010   1.7802 H              1 S1                 0.0000
     31 ****        -0.7275   2.4781  -0.7508 H              1 S1                 0.0000
     32 ****        -1.5945  -0.4173  -0.2934 H              1 S1                 0.0000
     33 ****        -0.9293   0.1137  -1.8145 H              1 S1                 0.0000
     34 ****         1.0294   0.8184  -0.7550 H              1 S1                 0.0000
     35 ****         0.3226  -1.8893   0.1237 H              1 S1                 0.0000
     36 ****         0.9770  -1.4643  -1.4524 H              1 S1                 0.0000
     37 ****         3.0352  -0.5530  -0.3392 H              1 S1                 0.0000
     38 ****         2.3809  -0.9705   1.2224 H              1 S1                 0.0000
     39 ****         1.5918  -3.9894  -0.8981 H              1 S1                 0.0000
     40 ****         3.6603  -5.7778  -0.4943 H              1 S1                 0.0000
     41 ****         4.8178  -1.6496   2.1433 H              1 S1                 0.0000
     42 ****         5.3948  -1.1126   0.5508 H              1 S1                 0.0000
     43 ****         6.1863  -2.4713   1.3689 H              1 S1                 0.0000
     44 ****         0.4460   0.4209   0.7264 H              1 S1                 0.0000
     45 ****         5.5226  -4.6133   0.6101 LP             1 S1                 0.0000
@<TRIPOS>BOND
    1    1    2 1     
    2    1   19 1     
    3    1   20 1     
    4    1   21 1     
    5    2    8 1     
    6    2    3 2     
    7    3    4 1     
    8    3   22 1     
    9    4    5 1     
   10    4   23 1     
   11    4   24 1     
   12    5    6 1     
   13    5   25 1     
   14    5   26 1     
   15    6    7 1     
   16    6    8 1     
   17    6   27 1     
   18    7   28 1     
   19    7   29 1     
   20    7   30 1     
   21    8    9 1     
   22    8   31 1     
   23    9   10 1     
   24    9   32 1     
   25    9   33 1     
   26   10   11 1     
   27   10   34 1     
   28   10   44 1     
   29   11   12 1     
   30   11   35 1     
   31   11   36 1     
   32   12   13 1     
   33   12   37 1     
   34   12   38 1     
   35   13   17 1     
   36   13   14 2     
   37   14   15 1     
   38   14   39 1     
   39   15   16 2     
   40   15   40 1     
   41   16   17 1     
   42   17   18 1     
   43   18   41 1     
   44   18   42 1     
   45   18   43 1     
   46   16   45 1     
@<TRIPOS>SUBSTRUCTURE
      1 S1             1
@<TRIPOS>SET
LONE_PAIRS      STATIC     ATOMS    <user>   **** ""
1 45
DONOR_HYDROGENS      STATIC     ATOMS    <user>   **** ""
2 34 44
ATOM$BLUE        STATIC     ATOMS    COLORGROUP SYSTEM
1 45
ATOM$RED        STATIC     ATOMS    COLORGROUP SYSTEM
2 34 44
