AV-unprocessed.smi:1288|AV-procd|sdf|5382|dock1
  -GOLD-   22720 4533D 1   1.00000     0.00000
 Structure written by MMmdl.
 42 44  0  0  0  0  0  0  0  0  1 V2000
  153.7823  142.2313  163.4640 C   0  0  0  0  0  0  0  0  0  0  0  0
  153.1961  142.7673  162.1963 C   0  0  0  0  0  0  0  0  0  0  0  0
  152.5278  143.9201  162.1537 N   0  0  0  0  0  0  0  0  0  0  0  0
  152.1842  144.0219  160.8195 C   0  0  0  0  0  0  0  0  0  0  0  0
  151.4638  145.0239  160.1304 C   0  0  0  0  0  0  0  0  0  0  0  0
  151.2305  144.9099  158.7442 C   0  0  0  0  0  0  0  0  0  0  0  0
  151.7131  143.7952  158.0284 C   0  0  0  0  0  0  0  0  0  0  0  0
  152.4336  142.7857  158.6953 C   0  0  0  0  0  0  0  0  0  0  0  0
  152.6638  142.9039  160.0792 C   0  0  0  0  0  0  0  0  0  0  0  0
  153.3160  142.1088  161.0172 N   0  0  0  0  0  0  0  0  0  0  0  0
  153.9852  140.8393  160.7649 C   0  0  0  0  0  0  0  0  0  0  0  0
  153.2785  139.9957  159.6846 C   0  0  1  0  0  0  0  0  0  0  0  0
  154.1871  139.7391  158.6317 O   0  0  0  0  0  0  0  0  0  0  0  0
  152.7834  138.6511  160.2409 C   0  0  0  0  0  0  0  0  0  0  0  0
  151.8302  138.1020  159.3457 O   0  0  0  0  0  0  0  0  0  0  0  0
  152.4179  137.2860  158.3468 C   0  0  0  0  0  0  0  0  0  0  0  0
  151.8348  137.5867  156.9801 C   0  0  0  0  0  0  0  0  0  0  0  0
  152.0076  138.8650  156.4084 C   0  0  0  0  0  0  0  0  0  0  0  0
  151.4755  139.1499  155.1357 C   0  0  0  0  0  0  0  0  0  0  0  0
  150.7683  138.1578  154.4299 C   0  0  0  0  0  0  0  0  0  0  0  0
  150.5950  136.8803  154.9964 C   0  0  0  0  0  0  0  0  0  0  0  0
  151.1283  136.5925  156.2682 C   0  0  0  0  0  0  0  0  0  0  0  0
  150.9605  135.3578  156.7998 F   0  0  0  0  0  0  0  0  0  0  0  0
  153.5628  142.8983  164.2984 H   0  0  0  0  0  0  0  0  0  0  0  0
  154.8650  142.1438  163.3726 H   0  0  0  0  0  0  0  0  0  0  0  0
  153.3652  141.2507  163.6918 H   0  0  0  0  0  0  0  0  0  0  0  0
  151.0895  145.8814  160.6697 H   0  0  0  0  0  0  0  0  0  0  0  0
  150.6783  145.6814  158.2278 H   0  0  0  0  0  0  0  0  0  0  0  0
  151.5290  143.7148  156.9671 H   0  0  0  0  0  0  0  0  0  0  0  0
  152.8021  141.9295  158.1500 H   0  0  0  0  0  0  0  0  0  0  0  0
  155.0165  141.0416  160.4723 H   0  0  0  0  0  0  0  0  0  0  0  0
  154.0437  140.2839  161.7012 H   0  0  0  0  0  0  0  0  0  0  0  0
  152.4322  140.5577  159.2885 H   0  0  0  0  0  0  0  0  0  0  0  0
  154.9349  139.2822  158.9857 H   0  0  0  0  0  0  0  0  0  0  0  0
  153.6143  137.9641  160.4118 H   0  0  0  0  0  0  0  0  0  0  0  0
  152.2933  138.8102  161.2027 H   0  0  0  0  0  0  0  0  0  0  0  0
  153.4978  137.4407  158.3223 H   0  0  0  0  0  0  0  0  0  0  0  0
  152.2545  136.2331  158.5826 H   0  0  0  0  0  0  0  0  0  0  0  0
  152.5509  139.6301  156.9433 H   0  0  0  0  0  0  0  0  0  0  0  0
  151.6110  140.1294  154.7011 H   0  0  0  0  0  0  0  0  0  0  0  0
  150.3601  138.3757  153.4540 H   0  0  0  0  0  0  0  0  0  0  0  0
  150.0537  136.1189  154.4542 H   0  0  0  0  0  0  0  0  0  0  0  0
  1  2  1  0  0  0  0
  1 24  1  0  0  0  0
  1 25  1  0  0  0  0
  1 26  1  0  0  0  0
  2 10  1  0  0  0  0
  2  3  2  0  0  0  0
  3  4  1  0  0  0  0
  4  9  2  0  0  0  0
  4  5  1  0  0  0  0
  5  6  2  0  0  0  0
  5 27  1  0  0  0  0
  6  7  1  0  0  0  0
  6 28  1  0  0  0  0
  7  8  2  0  0  0  0
  7 29  1  0  0  0  0
  8  9  1  0  0  0  0
  8 30  1  0  0  0  0
  9 10  1  0  0  0  0
 10 11  1  0  0  0  0
 11 12  1  0  0  0  0
 11 31  1  0  0  0  0
 11 32  1  0  0  0  0
 12 13  1  0  0  0  0
 12 14  1  0  0  0  0
 12 33  1  0  0  0  0
 13 34  1  0  0  0  0
 14 15  1  0  0  0  0
 14 35  1  0  0  0  0
 14 36  1  0  0  0  0
 15 16  1  0  0  0  0
 16 17  1  0  0  0  0
 16 37  1  0  0  0  0
 16 38  1  0  0  0  0
 17 22  1  0  0  0  0
 17 18  2  0  0  0  0
 18 19  1  0  0  0  0
 18 39  1  0  0  0  0
 19 20  2  0  0  0  0
 19 40  1  0  0  0  0
 20 21  1  0  0  0  0
 20 41  1  0  0  0  0
 21 22  2  0  0  0  0
 21 42  1  0  0  0  0
 22 23  1  0  0  0  0
M  END
> <s_m_source_file>
AV-unprocessed.smi

> <i_m_source_file_index>
1288

> <i_lp_mmshare_version>
43012

> <i_f3d_flags>
0

> <s_epik_input>
W2NIXTFbY0hdW2NIXVtjSF1jKGMxMiluKGMobjIpW0NIM10pW0NIMl1bQ0BIXShbT0hdKVtDSDJdT1tDSDJdYzNbY0hdW2NIXVtjSF1bY0hdYzNG

> <s_epik_cmdline>
J2VwaWtfcHl0aG9uJywgJy1waCcsICc3LjAnLCAnLXRuJywgJzgnLCAnLW1hJywgJzIwMCcsICctbWV0YWxfYmluZGluZycsICctaW1hZScsICc8aW5maWxlLm1hZT4nLCAnLW9tYWUnLCAnPG91dGZpbGUubWFlPic=

> <r_epik_Ionization_Penalty>
0.132603

> <r_epik_Ionization_Penalty_Charging>
0

> <r_epik_Ionization_Penalty_Neutral>
0.132603

> <r_epik_State_Penalty>
0.121982

> <r_epik_Charging_Adjusted_Penalty>
0.121982

> <i_epik_Tot_Q>
0

> <i_epik_Tot_abs_Q>
0

> <r_epik_Metal_State_Penalty>
0.000135431

> <b_epik_Metal_Only>
0

> <s_lp_Force_Field>
OPLS_2005

> <r_lp_Energy>
16.0492

> <b_lp_Chiralities_Consistent>
1

> <s_lp_Variant>
AV-unprocessed.smi:1288-2

> <Gold.Version>
5.8.1

> <Gold.Id.Protein>
6NUR|6NUR_protein|mol2

> <Gold.PLP.Fitness>
53.2234

> <Gold.PLP.PLP>
-53.4302

> <Gold.PLP.part.hbond>
-0.8505

> <Gold.PLP.part.metal>
0.0000

> <Gold.PLP.part.buried>
-4.8923

> <Gold.PLP.part.nonpolar>
-47.0464

> <Gold.PLP.part.repulsive>
0.1746

> <Gold.PLP.ligand.clash>
0.0000

> <Gold.PLP.ligand.torsion>
1.7356

> <Gold.PLP.Chemscore.Hbond>
1.0000

> <Gold.PLP.Chemscore.CHOScore>
0.0000

> <Gold.PLP.Chemscore.Metal>
0.0000

> <Gold.Chemscore.Hbonds>
donor molecule, donor type, donor heavy atom, donor atom, acceptor molecule, acceptor atom, score
      P1  H  7997  8009       L1    13  0.90

> <Gold.PLP.Chemscore.Internal.Correction>
0.2645

> <Gold.Rescore>
     Score         DG    S(hbond)    S(metal)    S(lipo)     H(rot)  DE(clash)    DE(int)     intcor
     16.96     -20.05       0.80        0.00     151.64       2.29       1.30       1.79       ----

> <Gold.Chemscore.Fitness>
16.9626

> <Gold.Chemscore.DG>
-20.0494

> <Gold.Chemscore.ZeroCoef>
-5.4800

> <Gold.Chemscore.Hbond>
0.8025

> <Gold.Chemscore.Metal>
0.0000

> <Gold.Chemscore.Lipo>
151.6407

> <Gold.Chemscore.Internal_Hbond>
0.0000

> <Gold.Chemscore.DEClash>
1.2972

> <Gold.Chemscore.DEInternal>
1.7896

> <Gold.Chemscore.Rot>
2.2863

> <Gold.Chemscore.Internal.Correction>
   9.000000E+99

> <Gold.Chemscore.Hbonds>
donor molecule, donor type, donor heavy atom, donor atom, acceptor molecule, acceptor atom, score
      P1  H  7997  8009       L1    13  0.17

> <Gold.Chemscore.Hbond.Weighted>
-2.6804

> <Gold.Chemscore.Metal.Weighted>
-0.0000

> <Gold.Chemscore.Lipo.Weighted>
-17.7420

> <Gold.Chemscore.Internal_Hbond.Weighted>
0.0000

> <Gold.Chemscore.DEClash.Weighted>
1.2972

> <Gold.Chemscore.DEInternal.Weighted>
1.7896

> <Gold.Chemscore.Rot.Weighted>
5.8530

> <Gold.Chemscore.Internal.Correction.Weighted>
   9.000000E+99

> <Gold.Protein.RotatedTorsions>
[ 6907 6896 6895 6894 ] final  132.49 input  -60.11 | X-H torsion
[ 7974 7965 7964 7962 ] final  -27.07 input  175.53 | X-H torsion
[ 8008 7997 7996 7995 ] final  141.74 input   59.86 | X-H torsion
[ 10167 10162 10161 10158 ] final  176.61 input  -65.29 | X-H torsion
[ 10718 10713 10712 10709 ] final -151.26 input   66.30 | X-H torsion
[ 10763 10752 10751 10750 ] final -163.81 input  -60.55 | X-H torsion
[ 11005 11000 10999 10996 ] final    9.36 input  -57.11 | X-H torsion

> <Gold.Protein.ActiveResidues>
 VAL166  LYS551  ARG553  GLY616  TRP617  ASP618  TYR619  PRO620  LYS621  CYS622 
 ASP623  PHE694  ASN695  SER759  ASP760  ASP761  ALA762  ILE779  LEU786  VAL792 
 PHE793  MET794  SER795  GLU796  ALA797  LYS798  CYS799  TRP800  GLU811  SER814 

> <Gold.Protein.RotatedAtoms>
  152.3318  133.5967  159.5814 H   0  0  0  0  0  0  0  0  0  0  0  0  # atno 6907 bound_to 6896
  150.7428  133.9856  159.3599 H   0  0  0  0  0  0  0  0  0  0  0  0  # atno 6908 bound_to 6896
  151.7730  135.0782  160.0413 H   0  0  0  0  0  0  0  0  0  0  0  0  # atno 6909 bound_to 6896
  146.1383  140.5103  142.8663 H   0  0  0  0  0  0  0  0  0  0  0  0  # atno 7974 bound_to 7965
  156.2961  140.2307  156.4614 H   0  0  0  0  0  0  0  0  0  0  0  0  # atno 8008 bound_to 7997
  154.8015  140.0448  157.1297 H   0  0  0  0  0  0  0  0  0  0  0  0  # atno 8009 bound_to 7997
  154.9528  140.3044  155.5070 H   0  0  0  0  0  0  0  0  0  0  0  0  # atno 8010 bound_to 7997
  139.5221  144.2896  152.0476 H   0  0  0  0  0  0  0  0  0  0  0  0  # atno 10167 bound_to 10162
  156.4569  130.8194  151.2425 H   0  0  0  0  0  0  0  0  0  0  0  0  # atno 10718 bound_to 10713
  154.7087  135.3002  154.9230 H   0  0  0  0  0  0  0  0  0  0  0  0  # atno 10763 bound_to 10752
  154.0139  135.6691  153.4771 H   0  0  0  0  0  0  0  0  0  0  0  0  # atno 10764 bound_to 10752
  153.0738  135.5046  154.8273 H   0  0  0  0  0  0  0  0  0  0  0  0  # atno 10765 bound_to 10752
  140.5266  134.0507  155.7860 H   0  0  0  0  0  0  0  0  0  0  0  0  # atno 11005 bound_to 11000
  144.7763  140.5747  143.6635 LP  0  0  0  0  0  0  0  0  0  0  0  0  # atno 17320 bound_to 7965
  145.5106  139.1479  143.3607 LP  0  0  0  0  0  0  0  0  0  0  0  0  # atno 17321 bound_to 7965
  140.2347  144.4332  150.6285 LP  0  0  0  0  0  0  0  0  0  0  0  0  # atno 17342 bound_to 10162
  140.6331  143.2190  151.6453 LP  0  0  0  0  0  0  0  0  0  0  0  0  # atno 17343 bound_to 10162
  157.7500  131.0120  150.3367 LP  0  0  0  0  0  0  0  0  0  0  0  0  # atno 17370 bound_to 10713
  156.3757  130.3871  149.7140 LP  0  0  0  0  0  0  0  0  0  0  0  0  # atno 17371 bound_to 10713
  141.1304  133.9311  157.2546 LP  0  0  0  0  0  0  0  0  0  0  0  0  # atno 17394 bound_to 11000
  139.9577  135.0162  156.9173 LP  0  0  0  0  0  0  0  0  0  0  0  0  # atno 17395 bound_to 11000

$$$$
