AV-unprocessed.smi:1263|AV-procd|sdf|5310|dock10
  -GOLD-   22720 4433D 1   1.00000     0.00000
 Structure written by MMmdl.
 44 46  0  0  0  0  0  0  0  0  2 V2000
  149.8887  139.9382  154.3362 C   0  0  0  0  0  0  0  0  0  0  0  0
  148.8656  139.0040  154.0097 O   0  0  0  0  0  0  0  0  0  0  0  0
  147.5475  139.3812  154.1834 C   0  0  0  0  0  0  0  0  0  0  0  0
  147.2900  140.6220  154.6684 N   0  0  0  0  0  0  0  0  0  0  0  0
  146.0041  140.9893  154.8440 C   0  0  0  0  0  0  0  0  0  0  0  0
  144.9158  140.1458  154.5554 C   0  0  0  0  0  0  0  0  0  0  0  0
  145.1800  138.8589  154.0516 C   0  0  0  0  0  0  0  0  0  0  0  0
  146.5243  138.4639  153.8468 C   0  0  0  0  0  0  0  0  0  0  0  0
  146.9027  137.1815  153.3617 N   0  0  0  0  0  0  0  0  0  0  0  0
  146.2465  136.0149  153.4802 C   0  0  0  0  0  0  0  0  0  0  0  0
  145.1604  135.8609  154.0383 O   0  0  0  0  0  0  0  0  0  0  0  0
  146.9200  135.0174  152.8892 N   0  0  0  0  0  0  0  0  0  0  0  0
  146.4694  133.6307  152.8115 C   0  0  2  0  0  0  0  0  0  0  0  0
  147.4510  132.6869  153.5324 C   0  0  0  0  0  0  0  0  0  0  0  0
  147.0282  131.2177  153.3666 C   0  0  0  0  0  0  0  0  0  0  0  0
  146.9102  130.8546  151.9325 N   0  3  1  0  0  0  0  0  0  0  0  0
  146.6119  129.4181  151.7444 C   0  0  0  0  0  0  0  0  0  0  0  0
  145.7392  128.8319  152.8298 C   0  0  0  0  0  0  0  0  0  0  0  0
  147.2205  128.5270  152.8020 C   0  0  0  0  0  0  0  0  0  0  0  0
  145.9399  131.7247  151.2225 C   0  0  0  0  0  0  0  0  0  0  0  0
  146.3362  133.2062  151.3396 C   0  0  0  0  0  0  0  0  0  0  0  0
  150.8626  139.4876  154.1463 H   0  0  0  0  0  0  0  0  0  0  0  0
  149.8535  140.2164  155.3905 H   0  0  0  0  0  0  0  0  0  0  0  0
  149.8166  140.8391  153.7251 H   0  0  0  0  0  0  0  0  0  0  0  0
  145.8379  141.9829  155.2331 H   0  0  0  0  0  0  0  0  0  0  0  0
  143.9012  140.4761  154.7217 H   0  0  0  0  0  0  0  0  0  0  0  0
  144.3510  138.1994  153.8482 H   0  0  0  0  0  0  0  0  0  0  0  0
  147.7402  137.1663  152.7980 H   0  0  0  0  0  0  0  0  0  0  0  0
  147.8021  135.2367  152.4496 H   0  0  0  0  0  0  0  0  0  0  0  0
  145.4871  133.5508  153.2817 H   0  0  0  0  0  0  0  0  0  0  0  0
  148.4577  132.8222  153.1338 H   0  0  0  0  0  0  0  0  0  0  0  0
  147.5040  132.9327  154.5937 H   0  0  0  0  0  0  0  0  0  0  0  0
  147.7630  130.5715  153.8483 H   0  0  0  0  0  0  0  0  0  0  0  0
  146.0751  131.0417  153.8679 H   0  0  0  0  0  0  0  0  0  0  0  0
  146.5223  129.0729  150.7156 H   0  0  0  0  0  0  0  0  0  0  0  0
  145.3782  129.4928  153.6160 H   0  0  0  0  0  0  0  0  0  0  0  0
  145.0598  128.0295  152.5496 H   0  0  0  0  0  0  0  0  0  0  0  0
  147.5167  127.5232  152.5038 H   0  0  0  0  0  0  0  0  0  0  0  0
  147.8419  128.9860  153.5688 H   0  0  0  0  0  0  0  0  0  0  0  0
  145.8973  131.4422  150.1701 H   0  0  0  0  0  0  0  0  0  0  0  0
  144.9406  131.5688  151.6324 H   0  0  0  0  0  0  0  0  0  0  0  0
  145.5933  133.8264  150.8364 H   0  0  0  0  0  0  0  0  0  0  0  0
  147.2805  133.3700  150.8180 H   0  0  0  0  0  0  0  0  0  0  0  0
  147.8139  131.0204  151.5133 H   0  0  0  0  0  0  0  0  0  0  0  0
  1  2  1  0  0  0  0
  1 22  1  0  0  0  0
  1 23  1  0  0  0  0
  1 24  1  0  0  0  0
  2  3  1  0  0  0  0
  3  8  1  0  0  0  0
  3  4  2  0  0  0  0
  4  5  1  0  0  0  0
  5  6  2  0  0  0  0
  5 25  1  0  0  0  0
  6  7  1  0  0  0  0
  6 26  1  0  0  0  0
  7  8  2  0  0  0  0
  7 27  1  0  0  0  0
  8  9  1  0  0  0  0
  9 10  1  0  0  0  0
  9 28  1  0  0  0  0
 10 11  2  0  0  0  0
 10 12  1  0  0  0  0
 12 13  1  0  0  0  0
 12 29  1  0  0  0  0
 13 21  1  0  0  0  0
 13 14  1  0  0  0  0
 13 30  1  0  0  0  0
 14 15  1  0  0  0  0
 14 31  1  0  0  0  0
 14 32  1  0  0  0  0
 15 16  1  0  0  0  0
 15 33  1  0  0  0  0
 15 34  1  0  0  0  0
 16 17  1  0  0  0  0
 16 20  1  0  0  0  0
 16 44  1  0  0  0  0
 17 19  1  0  0  0  0
 17 18  1  0  0  0  0
 17 35  1  0  0  0  0
 18 19  1  0  0  0  0
 18 36  1  0  0  0  0
 18 37  1  0  0  0  0
 19 38  1  0  0  0  0
 19 39  1  0  0  0  0
 20 21  1  0  0  0  0
 20 40  1  0  0  0  0
 20 41  1  0  0  0  0
 21 42  1  0  0  0  0
 21 43  1  0  0  0  0
M  CHG  1  16   1
M  END
> <s_m_source_file>
AV-unprocessed.smi

> <i_m_source_file_index>
1263

> <i_lp_mmshare_version>
43012

> <i_f3d_flags>
0

> <s_epik_input>
W0NIM11PYzFuW2NIXVtjSF1bY0hdYzFbTkhdQyg9TylbTkhdW0NIXTJbQ0gyXVtDSDJdTihbQ0gyXVtDSDJdMilbQ0hdM1tDSDJdW0NIMl0z

> <s_epik_cmdline>
J2VwaWtfcHl0aG9uJywgJy1waCcsICc3LjAnLCAnLXRuJywgJzgnLCAnLW1hJywgJzIwMCcsICctbWV0YWxfYmluZGluZycsICctaW1hZScsICc8aW5maWxlLm1hZT4nLCAnLW9tYWUnLCAnPG91dGZpbGUubWFlPic=

> <r_lp_tautomer_probability>
1

> <r_epik_Ionization_Penalty>
0.115628

> <r_epik_Ionization_Penalty_Charging>
0.115549

> <r_epik_Ionization_Penalty_Neutral>
7.89431e-05

> <r_epik_State_Penalty>
0.105184

> <r_epik_Charging_Adjusted_Penalty>
0.220733

> <i_epik_Tot_Q>
1

> <i_epik_Tot_abs_Q>
1

> <r_epik_Metal_State_Penalty>
0.105186

> <b_epik_Metal_Only>
0

> <s_lp_Force_Field>
OPLS_2005

> <r_lp_Energy>
28.8205

> <b_lp_Chiralities_Consistent>
1

> <s_lp_Variant>
AV-unprocessed.smi:1263-1

> <Gold.Version>
5.8.1

> <Gold.Id.Protein>
6NUR|6NUR_protein|mol2

> <Gold.PLP.Fitness>
35.2976

> <Gold.PLP.PLP>
-26.6382

> <Gold.PLP.part.hbond>
-3.0000

> <Gold.PLP.part.metal>
0.0000

> <Gold.PLP.part.buried>
-2.2937

> <Gold.PLP.part.nonpolar>
-20.2830

> <Gold.PLP.part.repulsive>
0.2609

> <Gold.PLP.ligand.clash>
0.0000

> <Gold.PLP.ligand.torsion>
0.8010

> <Gold.PLP.Chemscore.Hbond>
3.0000

> <Gold.PLP.Chemscore.CHOScore>
0.0000

> <Gold.PLP.Chemscore.Metal>
0.0000

> <Gold.Chemscore.Hbonds>
donor molecule, donor type, donor heavy atom, donor atom, acceptor molecule, acceptor atom, score
      L1  H     9    28       P1  7948  0.99
      L1  H    12    29       P1  7948  1.00
      L1  H    16    44       P1 10747  1.00

> <Gold.PLP.Chemscore.Internal.Correction>
1.2613

> <Gold.Rescore>
     Score         DG    S(hbond)    S(metal)    S(lipo)     H(rot)  DE(clash)    DE(int)     intcor
     17.53     -19.78       2.93        0.00      69.97       1.43       0.01       2.25       ----

> <Gold.Chemscore.Fitness>
17.5270

> <Gold.Chemscore.DG>
-19.7794

> <Gold.Chemscore.ZeroCoef>
-5.4800

> <Gold.Chemscore.Hbond>
2.9276

> <Gold.Chemscore.Metal>
0.0000

> <Gold.Chemscore.Lipo>
69.9713

> <Gold.Chemscore.Internal_Hbond>
0.0000

> <Gold.Chemscore.DEClash>
0.0067

> <Gold.Chemscore.DEInternal>
2.2457

> <Gold.Chemscore.Rot>
1.4318

> <Gold.Chemscore.Internal.Correction>
   9.000000E+99

> <Gold.Chemscore.Hbonds>
donor molecule, donor type, donor heavy atom, donor atom, acceptor molecule, acceptor atom, score
      L1  H     9    28       P1  7948  0.94
      L1  H    12    29       P1  7948  0.97
      L1  H    16    44       P1 10747  0.98

> <Gold.Chemscore.Hbond.Weighted>
-9.7781

> <Gold.Chemscore.Metal.Weighted>
-0.0000

> <Gold.Chemscore.Lipo.Weighted>
-8.1866

> <Gold.Chemscore.Internal_Hbond.Weighted>
0.0000

> <Gold.Chemscore.DEClash.Weighted>
0.0067

> <Gold.Chemscore.DEInternal.Weighted>
2.2457

> <Gold.Chemscore.Rot.Weighted>
3.6653

> <Gold.Chemscore.Internal.Correction.Weighted>
   9.000000E+99

> <Gold.Protein.RotatedTorsions>
[ 6907 6896 6895 6894 ] final -110.41 input  -60.11 | X-H torsion
[ 7974 7965 7964 7962 ] final  109.34 input  175.53 | X-H torsion
[ 8008 7997 7996 7995 ] final   68.27 input   59.86 | X-H torsion
[ 10167 10162 10161 10158 ] final   19.67 input  -65.29 | X-H torsion
[ 10718 10713 10712 10709 ] final -144.16 input   66.30 | X-H torsion
[ 10763 10752 10751 10750 ] final  -55.21 input  -60.55 | X-H torsion
[ 11005 11000 10999 10996 ] final  171.60 input  -57.11 | X-H torsion

> <Gold.Protein.ActiveResidues>
 VAL166  LYS551  ARG553  GLY616  TRP617  ASP618  TYR619  PRO620  LYS621  CYS622 
 ASP623  PHE694  ASN695  SER759  ASP760  ASP761  ALA762  ILE779  LEU786  VAL792 
 PHE793  MET794  SER795  GLU796  ALA797  LYS798  CYS799  TRP800  GLU811  SER814 

> <Gold.Protein.RotatedAtoms>
  150.7623  133.9386  159.3448 H   0  0  0  0  0  0  0  0  0  0  0  0  # atno 6907 bound_to 6896
  151.7292  135.0876  160.0306 H   0  0  0  0  0  0  0  0  0  0  0  0  # atno 6908 bound_to 6896
  152.3600  133.6248  159.6044 H   0  0  0  0  0  0  0  0  0  0  0  0  # atno 6909 bound_to 6896
  145.2691  139.2673  143.3976 H   0  0  0  0  0  0  0  0  0  0  0  0  # atno 7974 bound_to 7965
  155.7058  140.3495  155.4952 H   0  0  0  0  0  0  0  0  0  0  0  0  # atno 8008 bound_to 7997
  155.9400  140.1100  157.1085 H   0  0  0  0  0  0  0  0  0  0  0  0  # atno 8009 bound_to 7997
  154.4101  140.1214  156.4901 H   0  0  0  0  0  0  0  0  0  0  0  0  # atno 8010 bound_to 7997
  140.5562  143.9421  150.6610 H   0  0  0  0  0  0  0  0  0  0  0  0  # atno 10167 bound_to 10162
  156.3667  130.7766  151.1942 H   0  0  0  0  0  0  0  0  0  0  0  0  # atno 10718 bound_to 10713
  154.1872  135.6433  153.5050 H   0  0  0  0  0  0  0  0  0  0  0  0  # atno 10763 bound_to 10752
  153.0044  135.5420  154.6453 H   0  0  0  0  0  0  0  0  0  0  0  0  # atno 10764 bound_to 10752
  154.5832  135.2927  155.0684 H   0  0  0  0  0  0  0  0  0  0  0  0  # atno 10765 bound_to 10752
  140.3208  134.7439  157.4062 H   0  0  0  0  0  0  0  0  0  0  0  0  # atno 11005 bound_to 11000
  146.3252  140.3128  142.8628 LP  0  0  0  0  0  0  0  0  0  0  0  0  # atno 17320 bound_to 7965
  144.9351  140.8017  143.5665 LP  0  0  0  0  0  0  0  0  0  0  0  0  # atno 17321 bound_to 7965
  140.2860  143.3357  152.1107 LP  0  0  0  0  0  0  0  0  0  0  0  0  # atno 17342 bound_to 10162
  139.5049  144.6784  151.6071 LP  0  0  0  0  0  0  0  0  0  0  0  0  # atno 17343 bound_to 10162
  157.7479  131.0384  150.4502 LP  0  0  0  0  0  0  0  0  0  0  0  0  # atno 17370 bound_to 10713
  156.4722  130.4055  149.6511 LP  0  0  0  0  0  0  0  0  0  0  0  0  # atno 17371 bound_to 10713
  140.0944  134.5557  155.8413 LP  0  0  0  0  0  0  0  0  0  0  0  0  # atno 17394 bound_to 11000
  141.2087  133.6676  156.6389 LP  0  0  0  0  0  0  0  0  0  0  0  0  # atno 17395 bound_to 11000

$$$$
