AV-unprocessed.smi:744|AV-procd|sdf|3568|dock3
  -GOLD-   22720 0563D 1   1.00000     0.00000
 Structure written by MMmdl.
 34 35  0  0  0  0  0  0  0  0  1 V2000
  144.7098  137.1249  152.1845 O   0  0  0  0  0  0  0  0  0  0  0  0
  145.9062  136.8574  152.0690 C   0  0  0  0  0  0  0  0  0  0  0  0
  146.8891  137.7299  152.3346 N   0  0  0  0  0  0  0  0  0  0  0  0
  146.7045  139.1030  152.7945 C   0  0  0  0  0  0  0  0  0  0  0  0
  147.6197  139.4521  153.9868 C   0  0  2  0  0  0  0  0  0  0  0  0
  147.7342  140.9718  154.2116 C   0  0  0  0  0  0  0  0  0  0  0  0
  149.1827  141.2583  154.6361 C   0  0  0  0  0  0  0  0  0  0  0  0
  149.8478  139.8933  154.8099 C   0  0  0  0  0  0  0  0  0  0  0  0
  149.0771  138.9758  153.8625 C   0  0  1  0  0  0  0  0  0  0  0  0
  149.2486  137.6239  154.2352 O   0  0  0  0  0  0  0  0  0  0  0  0
  146.4040  135.6789  151.6555 N   0  0  0  0  0  0  0  0  0  0  0  0
  145.6938  134.5125  151.2656 C   0  0  0  0  0  0  0  0  0  0  0  0
  146.5037  133.4215  150.8772 C   0  0  0  0  0  0  0  0  0  0  0  0
  145.8963  132.2170  150.4729 C   0  0  0  0  0  0  0  0  0  0  0  0
  144.4925  132.1347  150.4667 C   0  0  0  0  0  0  0  0  0  0  0  0
  143.7603  133.2675  150.8671 C   0  0  0  0  0  0  0  0  0  0  0  0
  144.3404  134.4228  151.2554 N   0  0  0  0  0  0  0  0  0  0  0  0
  147.8421  137.4224  152.2069 H   0  0  0  0  0  0  0  0  0  0  0  0
  146.8492  139.8147  151.9797 H   0  0  0  0  0  0  0  0  0  0  0  0
  145.6624  139.2030  153.0991 H   0  0  0  0  0  0  0  0  0  0  0  0
  147.1956  139.0222  154.8964 H   0  0  0  0  0  0  0  0  0  0  0  0
  147.5056  141.5264  153.3004 H   0  0  0  0  0  0  0  0  0  0  0  0
  147.0251  141.3015  154.9717 H   0  0  0  0  0  0  0  0  0  0  0  0
  149.6901  141.8164  153.8481 H   0  0  0  0  0  0  0  0  0  0  0  0
  149.2368  141.8557  155.5466 H   0  0  0  0  0  0  0  0  0  0  0  0
  150.9174  139.9154  154.5983 H   0  0  0  0  0  0  0  0  0  0  0  0
  149.7201  139.5599  155.8411 H   0  0  0  0  0  0  0  0  0  0  0  0
  149.4356  139.1198  152.8420 H   0  0  0  0  0  0  0  0  0  0  0  0
  149.1450  137.0873  153.4640 H   0  0  0  0  0  0  0  0  0  0  0  0
  147.4096  135.6088  151.6096 H   0  0  0  0  0  0  0  0  0  0  0  0
  147.5809  133.5022  150.8877 H   0  0  0  0  0  0  0  0  0  0  0  0
  146.4979  131.3716  150.1732 H   0  0  0  0  0  0  0  0  0  0  0  0
  143.9900  131.2283  150.1633 H   0  0  0  0  0  0  0  0  0  0  0  0
  142.6805  133.2461  150.8766 H   0  0  0  0  0  0  0  0  0  0  0  0
  1  2  2  0  0  0  0
  2  3  1  0  0  0  0
  2 11  1  0  0  0  0
  3  4  1  0  0  0  0
  3 18  1  0  0  0  0
  4  5  1  0  0  0  0
  4 19  1  0  0  0  0
  4 20  1  0  0  0  0
  5  9  1  0  0  0  0
  5  6  1  0  0  0  0
  5 21  1  0  0  0  0
  6  7  1  0  0  0  0
  6 22  1  0  0  0  0
  6 23  1  0  0  0  0
  7  8  1  0  0  0  0
  7 24  1  0  0  0  0
  7 25  1  0  0  0  0
  8  9  1  0  0  0  0
  8 26  1  0  0  0  0
  8 27  1  0  0  0  0
  9 10  1  0  0  0  0
  9 28  1  0  0  0  0
 10 29  1  0  0  0  0
 11 12  1  0  0  0  0
 11 30  1  0  0  0  0
 12 17  1  0  0  0  0
 12 13  2  0  0  0  0
 13 14  1  0  0  0  0
 13 31  1  0  0  0  0
 14 15  2  0  0  0  0
 14 32  1  0  0  0  0
 15 16  1  0  0  0  0
 15 33  1  0  0  0  0
 16 17  2  0  0  0  0
 16 34  1  0  0  0  0
M  END
> <s_m_source_file>
AV-unprocessed.smi

> <i_m_source_file_index>
744

> <i_lp_mmshare_version>
43012

> <i_f3d_flags>
0

> <s_epik_input>
bjFbY0hdW2NIXVtjSF1bY0hdYzFbTkhdQyg9TylbTkhdW0NIMl1bQ0BASF0yW0NIMl1bQ0gyXVtDSDJdW0NASF0yW09IXQ==

> <s_epik_cmdline>
J2VwaWtfcHl0aG9uJywgJy1waCcsICc3LjAnLCAnLXRuJywgJzgnLCAnLW1hJywgJzIwMCcsICctbWV0YWxfYmluZGluZycsICctaW1hZScsICc8aW5maWxlLm1hZT4nLCAnLW9tYWUnLCAnPG91dGZpbGUubWFlPic=

> <r_lp_tautomer_probability>
1

> <r_epik_Ionization_Penalty>
5.04769e-05

> <r_epik_Ionization_Penalty_Charging>
0

> <r_epik_Ionization_Penalty_Neutral>
5.04769e-05

> <r_epik_State_Penalty>
-0

> <r_epik_Charging_Adjusted_Penalty>
0

> <i_epik_Tot_Q>
0

> <i_epik_Tot_abs_Q>
0

> <r_epik_Metal_State_Penalty>
-0

> <b_epik_Metal_Only>
0

> <s_lp_Force_Field>
OPLS_2005

> <r_lp_Energy>
24.8684

> <b_lp_Chiralities_Consistent>
1

> <s_lp_Variant>
AV-unprocessed.smi:744-1

> <Gold.Version>
5.8.1

> <Gold.Id.Protein>
6NUR|6NUR_protein|mol2

> <Gold.PLP.Fitness>
42.7621

> <Gold.PLP.PLP>
-31.2048

> <Gold.PLP.part.hbond>
-3.0000

> <Gold.PLP.part.metal>
0.0000

> <Gold.PLP.part.buried>
-3.0188

> <Gold.PLP.part.nonpolar>
-27.1935

> <Gold.PLP.part.repulsive>
1.4998

> <Gold.PLP.ligand.clash>
0.0000

> <Gold.PLP.ligand.torsion>
0.2039

> <Gold.PLP.Chemscore.Hbond>
3.0000

> <Gold.PLP.Chemscore.CHOScore>
0.9883

> <Gold.PLP.Chemscore.Metal>
0.0000

> <Gold.Chemscore.Hbonds>
donor molecule, donor type, donor heavy atom, donor atom, acceptor molecule, acceptor atom, score
      L1  H     3    18       P1  7948  1.00
      L1  H    10    29       P1  7948  1.00
      L1  H    11    30       P1  7948  1.00
      L1  C    16    34       P1 10186  1.00

> <Gold.PLP.Chemscore.Internal.Correction>
0.0003

> <Gold.Rescore>
     Score         DG    S(hbond)    S(metal)    S(lipo)     H(rot)  DE(clash)    DE(int)     intcor
     16.59     -19.09       2.96        0.00      71.18       1.81       0.13       2.36       ----

> <Gold.Chemscore.Fitness>
16.5910

> <Gold.Chemscore.DG>
-19.0875

> <Gold.Chemscore.ZeroCoef>
-5.4800

> <Gold.Chemscore.Hbond>
2.9644

> <Gold.Chemscore.Metal>
0.0000

> <Gold.Chemscore.Lipo>
71.1756

> <Gold.Chemscore.Internal_Hbond>
0.0000

> <Gold.Chemscore.DEClash>
0.1332

> <Gold.Chemscore.DEInternal>
2.3633

> <Gold.Chemscore.Rot>
1.8052

> <Gold.Chemscore.Internal.Correction>
   9.000000E+99

> <Gold.Chemscore.Hbonds>
donor molecule, donor type, donor heavy atom, donor atom, acceptor molecule, acceptor atom, score
      L1  H     3    18       P1  7948  0.95
      L1  H    10    29       P1  7948  1.00
      L1  H    11    30       P1  7948  0.96

> <Gold.Chemscore.Hbond.Weighted>
-9.9011

> <Gold.Chemscore.Metal.Weighted>
-0.0000

> <Gold.Chemscore.Lipo.Weighted>
-8.3275

> <Gold.Chemscore.Internal_Hbond.Weighted>
0.0000

> <Gold.Chemscore.DEClash.Weighted>
0.1332

> <Gold.Chemscore.DEInternal.Weighted>
2.3633

> <Gold.Chemscore.Rot.Weighted>
4.6212

> <Gold.Chemscore.Internal.Correction.Weighted>
   9.000000E+99

> <Gold.Protein.RotatedTorsions>
[ 6907 6896 6895 6894 ] final   21.70 input  -60.11 | X-H torsion
[ 7974 7965 7964 7962 ] final   -1.64 input  175.53 | X-H torsion
[ 8008 7997 7996 7995 ] final  147.08 input   59.86 | X-H torsion
[ 10167 10162 10161 10158 ] final  -75.14 input  -65.29 | X-H torsion
[ 10718 10713 10712 10709 ] final    3.89 input   66.30 | X-H torsion
[ 10763 10752 10751 10750 ] final   84.72 input  -60.55 | X-H torsion
[ 11005 11000 10999 10996 ] final  -53.01 input  -57.11 | X-H torsion

> <Gold.Protein.ActiveResidues>
 VAL166  LYS551  ARG553  GLY616  TRP617  ASP618  TYR619  PRO620  LYS621  CYS622 
 ASP623  PHE694  ASN695  SER759  ASP760  ASP761  ALA762  ILE779  LEU786  VAL792 
 PHE793  MET794  SER795  GLU796  ALA797  LYS798  CYS799  TRP800  GLU811  SER814 

> <Gold.Protein.RotatedAtoms>
  151.9158  135.0319  160.0517 H   0  0  0  0  0  0  0  0  0  0  0  0  # atno 6907 bound_to 6896
  152.2241  133.5001  159.5187 H   0  0  0  0  0  0  0  0  0  0  0  0  # atno 6908 bound_to 6896
  150.7007  134.1220  159.4081 H   0  0  0  0  0  0  0  0  0  0  0  0  # atno 6909 bound_to 6896
  146.2414  140.1451  142.8335 H   0  0  0  0  0  0  0  0  0  0  0  0  # atno 7974 bound_to 7965
  156.2836  140.2165  156.5480 H   0  0  0  0  0  0  0  0  0  0  0  0  # atno 8008 bound_to 7997
  154.7315  140.0495  157.0753 H   0  0  0  0  0  0  0  0  0  0  0  0  # atno 8009 bound_to 7997
  155.0348  140.3139  155.4748 H   0  0  0  0  0  0  0  0  0  0  0  0  # atno 8010 bound_to 7997
  140.4967  143.2369  151.7819 H   0  0  0  0  0  0  0  0  0  0  0  0  # atno 10167 bound_to 10162
  156.8846  130.5665  149.5652 H   0  0  0  0  0  0  0  0  0  0  0  0  # atno 10718 bound_to 10713
  153.1408  135.4644  154.9492 H   0  0  0  0  0  0  0  0  0  0  0  0  # atno 10763 bound_to 10752
  154.7745  135.3169  154.8123 H   0  0  0  0  0  0  0  0  0  0  0  0  # atno 10764 bound_to 10752
  153.8646  135.6909  153.4834 H   0  0  0  0  0  0  0  0  0  0  0  0  # atno 10765 bound_to 10752
  141.0954  133.6625  156.4109 H   0  0  0  0  0  0  0  0  0  0  0  0  # atno 11005 bound_to 11000
  145.0214  140.8796  143.5164 LP  0  0  0  0  0  0  0  0  0  0  0  0  # atno 17320 bound_to 7965
  145.1500  139.2520  143.5445 LP  0  0  0  0  0  0  0  0  0  0  0  0  # atno 17321 bound_to 7965
  139.4863  144.4577  151.9579 LP  0  0  0  0  0  0  0  0  0  0  0  0  # atno 17342 bound_to 10162
  140.3665  144.2909  150.5926 LP  0  0  0  0  0  0  0  0  0  0  0  0  # atno 17343 bound_to 10162
  156.0660  130.5703  150.9289 LP  0  0  0  0  0  0  0  0  0  0  0  0  # atno 17370 bound_to 10713
  157.6120  131.0936  150.8778 LP  0  0  0  0  0  0  0  0  0  0  0  0  # atno 17371 bound_to 10713
  140.5153  134.6356  157.5299 LP  0  0  0  0  0  0  0  0  0  0  0  0  # atno 17394 bound_to 11000
  139.9789  134.7169  155.9896 LP  0  0  0  0  0  0  0  0  0  0  0  0  # atno 17395 bound_to 11000

$$$$
