AV-unprocessed.smi:1983|AV-procd|sdf|8035|dock3
  -GOLD-   2272010233D 1   1.00000     0.00000
 Structure written by MMmdl.
 50 51  0  0  0  0  0  0  0  0  2 V2000
  145.9996  134.0162  151.7804 C   0  0  0  0  0  0  0  0  0  0  0  0
  145.3081  135.3486  152.1095 C   0  0  1  0  0  0  0  0  0  0  0  0
  144.4348  135.2890  153.3803 C   0  0  0  0  0  0  0  0  0  0  0  0
  143.4307  134.3000  153.2735 O   0  0  0  0  0  0  0  0  0  0  0  0
  146.2926  136.4249  152.1951 N   0  0  0  0  0  0  0  0  0  0  0  0
  146.0175  137.7111  152.4522 C   0  0  0  0  0  0  0  0  0  0  0  0
  144.8844  138.1515  152.6480 O   0  0  0  0  0  0  0  0  0  0  0  0
  147.1274  138.4622  152.4804 N   0  0  0  0  0  0  0  0  0  0  0  0
  147.1505  139.9002  152.7284 C   0  0  0  0  0  0  0  0  0  0  0  0
  147.9829  140.3134  153.9341 C   0  0  0  0  0  0  0  0  0  0  0  0
  148.5610  139.3286  154.7642 C   0  0  0  0  0  0  0  0  0  0  0  0
  149.3333  139.7214  155.8764 C   0  0  0  0  0  0  0  0  0  0  0  0
  149.5136  141.0986  156.1432 C   0  0  0  0  0  0  0  0  0  0  0  0
  150.2638  141.5867  157.2210 N   0  0  0  0  0  0  0  0  0  0  0  0
  151.0561  142.7669  156.9008 C   0  0  0  0  0  0  0  0  0  0  0  0
  151.7455  143.2987  158.1710 C   0  0  2  0  0  0  0  0  0  0  0  0
  152.6671  144.4859  157.8731 C   0  0  0  0  0  0  0  0  0  0  0  0
  152.5299  142.2529  158.7405 O   0  0  0  0  0  0  0  0  0  0  0  0
  151.7479  141.1236  159.1240 C   0  0  2  0  0  0  0  0  0  0  0  0
  152.6743  140.0992  159.7874 C   0  0  0  0  0  0  0  0  0  0  0  0
  151.0471  140.5493  157.8778 C   0  0  0  0  0  0  0  0  0  0  0  0
  148.9325  142.0092  155.3316 N   0  3  0  0  0  0  0  0  0  0  0  0
  148.1867  141.6738  154.2565 C   0  0  0  0  0  0  0  0  0  0  0  0
  145.2714  133.2096  151.6912 H   0  0  0  0  0  0  0  0  0  0  0  0
  146.7180  133.7324  152.5504 H   0  0  0  0  0  0  0  0  0  0  0  0
  146.5376  134.0786  150.8340 H   0  0  0  0  0  0  0  0  0  0  0  0
  144.6462  135.5735  151.2710 H   0  0  0  0  0  0  0  0  0  0  0  0
  145.0389  135.0962  154.2675 H   0  0  0  0  0  0  0  0  0  0  0  0
  143.9457  136.2507  153.5377 H   0  0  0  0  0  0  0  0  0  0  0  0
  143.0244  134.3757  152.4236 H   0  0  0  0  0  0  0  0  0  0  0  0
  147.2576  136.1638  152.0544 H   0  0  0  0  0  0  0  0  0  0  0  0
  148.0140  138.0118  152.3054 H   0  0  0  0  0  0  0  0  0  0  0  0
  147.5597  140.3916  151.8456 H   0  0  0  0  0  0  0  0  0  0  0  0
  146.1273  140.2640  152.8385 H   0  0  0  0  0  0  0  0  0  0  0  0
  148.4191  138.2793  154.5500 H   0  0  0  0  0  0  0  0  0  0  0  0
  149.7770  138.9706  156.5138 H   0  0  0  0  0  0  0  0  0  0  0  0
  151.8073  142.5185  156.1499 H   0  0  0  0  0  0  0  0  0  0  0  0
  150.4113  143.5356  156.4725 H   0  0  0  0  0  0  0  0  0  0  0  0
  150.9924  143.6163  158.8945 H   0  0  0  0  0  0  0  0  0  0  0  0
  152.1088  145.3180  157.4434 H   0  0  0  0  0  0  0  0  0  0  0  0
  153.4526  144.2102  157.1689 H   0  0  0  0  0  0  0  0  0  0  0  0
  153.1472  144.8438  158.7842 H   0  0  0  0  0  0  0  0  0  0  0  0
  151.0000  141.4391  159.8539 H   0  0  0  0  0  0  0  0  0  0  0  0
  152.1197  139.2163  160.1063 H   0  0  0  0  0  0  0  0  0  0  0  0
  153.1567  140.5239  160.6681 H   0  0  0  0  0  0  0  0  0  0  0  0
  153.4583  139.7732  159.1032 H   0  0  0  0  0  0  0  0  0  0  0  0
  150.3963  139.7213  158.1623 H   0  0  0  0  0  0  0  0  0  0  0  0
  151.7872  140.1535  157.1805 H   0  0  0  0  0  0  0  0  0  0  0  0
  147.7830  142.5007  153.6904 H   0  0  0  0  0  0  0  0  0  0  0  0
  149.0667  142.9992  155.5381 H   0  0  0  0  0  0  0  0  0  0  0  0
  1  2  1  0  0  0  0
  1 24  1  0  0  0  0
  1 25  1  0  0  0  0
  1 26  1  0  0  0  0
  2  3  1  0  0  0  0
  2  5  1  0  0  0  0
  2 27  1  0  0  0  0
  3  4  1  0  0  0  0
  3 28  1  0  0  0  0
  3 29  1  0  0  0  0
  4 30  1  0  0  0  0
  5  6  1  0  0  0  0
  5 31  1  0  0  0  0
  6  7  2  0  0  0  0
  6  8  1  0  0  0  0
  8  9  1  0  0  0  0
  8 32  1  0  0  0  0
  9 10  1  0  0  0  0
  9 33  1  0  0  0  0
  9 34  1  0  0  0  0
 10 23  1  0  0  0  0
 10 11  2  0  0  0  0
 11 12  1  0  0  0  0
 11 35  1  0  0  0  0
 12 13  2  0  0  0  0
 12 36  1  0  0  0  0
 13 14  1  0  0  0  0
 13 22  1  0  0  0  0
 14 21  1  0  0  0  0
 14 15  1  0  0  0  0
 15 16  1  0  0  0  0
 15 37  1  0  0  0  0
 15 38  1  0  0  0  0
 16 17  1  0  0  0  0
 16 18  1  0  0  0  0
 16 39  1  0  0  0  0
 17 40  1  0  0  0  0
 17 41  1  0  0  0  0
 17 42  1  0  0  0  0
 18 19  1  0  0  0  0
 19 20  1  0  0  0  0
 19 21  1  0  0  0  0
 19 43  1  0  0  0  0
 20 44  1  0  0  0  0
 20 45  1  0  0  0  0
 20 46  1  0  0  0  0
 21 47  1  0  0  0  0
 21 48  1  0  0  0  0
 22 23  2  0  0  0  0
 22 50  1  0  0  0  0
 23 49  1  0  0  0  0
M  CHG  1  22   1
M  END
> <s_m_source_file>
AV-unprocessed.smi

> <i_m_source_file_index>
1983

> <i_lp_mmshare_version>
43012

> <i_f3d_flags>
0

> <s_epik_input>
W09IXVtDSDJdW0NAQEhdKFtDSDNdKVtOSF1DKD1PKVtOSF1bQ0gyXWMxW2NIXVtjSF1jKG5bY0hdMSlOMltDSDJdW0NAQEhdKFtDSDNdKU9bQ0BASF0oW0NIM10pW0NIMl0y

> <s_epik_cmdline>
J2VwaWtfcHl0aG9uJywgJy1waCcsICc3LjAnLCAnLXRuJywgJzgnLCAnLW1hJywgJzIwMCcsICctbWV0YWxfYmluZGluZycsICctaW1hZScsICc8aW5maWxlLm1hZT4nLCAnLW9tYWUnLCAnPG91dGZpbGUubWFlPic=

> <r_lp_tautomer_probability>
0.999994

> <r_epik_Ionization_Penalty>
2.55677

> <r_epik_Ionization_Penalty_Charging>
2.55673

> <r_epik_Ionization_Penalty_Neutral>
3.71772e-05

> <r_epik_State_Penalty>
2.72571

> <r_epik_Charging_Adjusted_Penalty>
5.28244

> <i_epik_Tot_Q>
1

> <i_epik_Tot_abs_Q>
1

> <r_epik_Metal_State_Penalty>
2.73364

> <b_epik_Metal_Only>
0

> <s_lp_Force_Field>
OPLS_2005

> <r_lp_Energy>
22.1941

> <b_lp_Chiralities_Consistent>
1

> <s_lp_Variant>
AV-unprocessed.smi:1983-8

> <Gold.Version>
5.8.1

> <Gold.Id.Protein>
6NUR|6NUR_protein|mol2

> <Gold.PLP.Fitness>
45.7700

> <Gold.PLP.PLP>
-35.1582

> <Gold.PLP.part.hbond>
-4.5943

> <Gold.PLP.part.metal>
0.0000

> <Gold.PLP.part.buried>
-4.5520

> <Gold.PLP.part.nonpolar>
-30.9402

> <Gold.PLP.part.repulsive>
3.4025

> <Gold.PLP.ligand.clash>
0.1042

> <Gold.PLP.ligand.torsion>
0.4529

> <Gold.PLP.Chemscore.Hbond>
3.8160

> <Gold.PLP.Chemscore.CHOScore>
0.0000

> <Gold.PLP.Chemscore.Metal>
0.0000

> <Gold.Chemscore.Hbonds>
donor molecule, donor type, donor heavy atom, donor atom, acceptor molecule, acceptor atom, score
      L1  H     5    31       P1  7948  1.00
      L1  H     8    32       P1  7948  0.92
      L1  H    22    50       P1  8028  2.00

> <Gold.PLP.Chemscore.Internal.Correction>
0.1739

> <Gold.Rescore>
     Score         DG    S(hbond)    S(metal)    S(lipo)     H(rot)  DE(clash)    DE(int)     intcor
     16.39     -19.36       2.86        0.00      95.33       2.66       1.39       1.58       ----

> <Gold.Chemscore.Fitness>
16.3909

> <Gold.Chemscore.DG>
-19.3582

> <Gold.Chemscore.ZeroCoef>
-5.4800

> <Gold.Chemscore.Hbond>
2.8574

> <Gold.Chemscore.Metal>
0.0000

> <Gold.Chemscore.Lipo>
95.3296

> <Gold.Chemscore.Internal_Hbond>
0.0000

> <Gold.Chemscore.DEClash>
1.3879

> <Gold.Chemscore.DEInternal>
1.5794

> <Gold.Chemscore.Rot>
2.6637

> <Gold.Chemscore.Internal.Correction>
   9.000000E+99

> <Gold.Chemscore.Hbonds>
donor molecule, donor type, donor heavy atom, donor atom, acceptor molecule, acceptor atom, score
      L1  H     5    31       P1  7948  1.00
      L1  H     8    32       P1  7948  0.83
      L1  H    22    50       P1  8028  1.00

> <Gold.Chemscore.Hbond.Weighted>
-9.5438

> <Gold.Chemscore.Metal.Weighted>
-0.0000

> <Gold.Chemscore.Lipo.Weighted>
-11.1536

> <Gold.Chemscore.Internal_Hbond.Weighted>
0.0000

> <Gold.Chemscore.DEClash.Weighted>
1.3879

> <Gold.Chemscore.DEInternal.Weighted>
1.5794

> <Gold.Chemscore.Rot.Weighted>
6.8191

> <Gold.Chemscore.Internal.Correction.Weighted>
   9.000000E+99

> <Gold.Protein.RotatedTorsions>
[ 6907 6896 6895 6894 ] final  133.00 input  -60.11 | X-H torsion
[ 7974 7965 7964 7962 ] final  140.25 input  175.53 | X-H torsion
[ 8008 7997 7996 7995 ] final -175.62 input   59.86 | X-H torsion
[ 10167 10162 10161 10158 ] final  -83.61 input  -65.29 | X-H torsion
[ 10718 10713 10712 10709 ] final  -94.38 input   66.30 | X-H torsion
[ 10763 10752 10751 10750 ] final  -87.22 input  -60.55 | X-H torsion
[ 11005 11000 10999 10996 ] final -171.99 input  -57.11 | X-H torsion

> <Gold.Protein.ActiveResidues>
 VAL166  LYS551  ARG553  GLY616  TRP617  ASP618  TYR619  PRO620  LYS621  CYS622 
 ASP623  PHE694  ASN695  SER759  ASP760  ASP761  ALA762  ILE779  LEU786  VAL792 
 PHE793  MET794  SER795  GLU796  ALA797  LYS798  CYS799  TRP800  GLU811  SER814 

> <Gold.Protein.RotatedAtoms>
  152.3265  133.5911  159.5780 H   0  0  0  0  0  0  0  0  0  0  0  0  # atno 6907 bound_to 6896
  150.7399  133.9932  159.3623 H   0  0  0  0  0  0  0  0  0  0  0  0  # atno 6908 bound_to 6896
  151.7811  135.0762  160.0425 H   0  0  0  0  0  0  0  0  0  0  0  0  # atno 6909 bound_to 6896
  144.9204  139.5175  143.5666 H   0  0  0  0  0  0  0  0  0  0  0  0  # atno 7974 bound_to 7965
  155.9848  140.1189  157.0693 H   0  0  0  0  0  0  0  0  0  0  0  0  # atno 8008 bound_to 7997
  154.4193  140.1137  156.5553 H   0  0  0  0  0  0  0  0  0  0  0  0  # atno 8009 bound_to 7997
  155.6422  140.3473  155.4721 H   0  0  0  0  0  0  0  0  0  0  0  0  # atno 8010 bound_to 7997
  140.4211  143.2584  151.8889 H   0  0  0  0  0  0  0  0  0  0  0  0  # atno 10167 bound_to 10162
  156.0026  130.5065  150.5917 H   0  0  0  0  0  0  0  0  0  0  0  0  # atno 10718 bound_to 10713
  154.6312  135.5421  153.7683 H   0  0  0  0  0  0  0  0  0  0  0  0  # atno 10763 bound_to 10752
  153.0286  135.6436  154.1298 H   0  0  0  0  0  0  0  0  0  0  0  0  # atno 10764 bound_to 10752
  154.1227  135.2919  155.3184 H   0  0  0  0  0  0  0  0  0  0  0  0  # atno 10765 bound_to 10752
  140.5020  134.5884  157.4991 H   0  0  0  0  0  0  0  0  0  0  0  0  # atno 11005 bound_to 11000
  146.3202  139.8079  142.8952 LP  0  0  0  0  0  0  0  0  0  0  0  0  # atno 17320 bound_to 7965
  145.3306  141.0265  143.3449 LP  0  0  0  0  0  0  0  0  0  0  0  0  # atno 17321 bound_to 7965
  139.4782  144.5436  151.8491 LP  0  0  0  0  0  0  0  0  0  0  0  0  # atno 17342 bound_to 10162
  140.4533  144.1825  150.5899 LP  0  0  0  0  0  0  0  0  0  0  0  0  # atno 17343 bound_to 10162
  157.3781  131.0776  151.1500 LP  0  0  0  0  0  0  0  0  0  0  0  0  # atno 17370 bound_to 10713
  157.2232  130.6491  149.5819 LP  0  0  0  0  0  0  0  0  0  0  0  0  # atno 17371 bound_to 10713
  139.9708  134.7297  156.0046 LP  0  0  0  0  0  0  0  0  0  0  0  0  # atno 17394 bound_to 11000
  141.1430  133.6561  156.3786 LP  0  0  0  0  0  0  0  0  0  0  0  0  # atno 17395 bound_to 11000

$$$$
