AV-unprocessed.smi:2061|AV-procd|sdf|8367|dock4
  -GOLD-   2272011 43D 1   1.00000     0.00000
 Structure written by MMmdl.
 46 47  0  0  0  0  0  0  0  0  2 V2000
  153.9564  137.7530  157.1544 C   0  0  0  0  0  0  0  0  0  0  0  0
  152.8943  138.1144  156.1736 C   0  0  0  0  0  0  0  0  0  0  0  0
  151.8028  137.4450  155.6960 C   0  0  0  0  0  0  0  0  0  0  0  0
  151.2285  138.3757  154.7898 C   0  0  0  0  0  0  0  0  0  0  0  0
  150.0525  138.0541  154.0654 N   0  0  0  0  0  0  0  0  0  0  0  0
  148.8682  138.6876  154.1036 C   0  0  0  0  0  0  0  0  0  0  0  0
  148.6020  139.6567  154.8148 O   0  0  0  0  0  0  0  0  0  0  0  0
  147.9921  138.1357  153.2515 N   0  0  0  0  0  0  0  0  0  0  0  0
  146.6291  138.6106  153.0298 C   0  0  0  0  0  0  0  0  0  0  0  0
  145.8623  137.7958  151.9510 C   0  0  1  0  0  0  0  0  0  0  0  0
  146.1388  138.3835  150.5446 C   0  0  0  0  0  0  0  0  0  0  0  0
  146.1917  136.3354  152.0563 N   0  3  1  0  0  0  0  0  0  0  0  0
  145.9148  135.7771  153.4083 C   0  0  0  0  0  0  0  0  0  0  0  0
  146.3504  134.3035  153.5027 C   0  0  1  0  0  0  0  0  0  0  0  0
  146.0226  133.6896  154.8683 C   0  0  0  0  0  0  0  0  0  0  0  0
  145.6647  133.5568  152.5075 O   0  0  0  0  0  0  0  0  0  0  0  0
  145.9843  133.9943  151.1942 C   0  0  1  0  0  0  0  0  0  0  0  0
  145.2721  133.0696  150.2006 C   0  0  0  0  0  0  0  0  0  0  0  0
  145.5575  135.4657  151.0265 C   0  0  0  0  0  0  0  0  0  0  0  0
  151.9069  139.5108  154.7208 N   0  0  0  0  0  0  0  0  0  0  0  0
  152.9781  139.3491  155.6077 O   0  0  0  0  0  0  0  0  0  0  0  0
  153.8104  136.7405  157.5310 H   0  0  0  0  0  0  0  0  0  0  0  0
  153.9449  138.4350  158.0048 H   0  0  0  0  0  0  0  0  0  0  0  0
  154.9427  137.8028  156.6927 H   0  0  0  0  0  0  0  0  0  0  0  0
  151.4728  136.4497  155.9542 H   0  0  0  0  0  0  0  0  0  0  0  0
  150.1282  137.2685  153.4363 H   0  0  0  0  0  0  0  0  0  0  0  0
  148.2912  137.3380  152.7098 H   0  0  0  0  0  0  0  0  0  0  0  0
  146.0974  138.5532  153.9802 H   0  0  0  0  0  0  0  0  0  0  0  0
  146.6898  139.6689  152.7810 H   0  0  0  0  0  0  0  0  0  0  0  0
  144.7907  137.8983  152.1295 H   0  0  0  0  0  0  0  0  0  0  0  0
  145.9310  139.4523  150.5017 H   0  0  0  0  0  0  0  0  0  0  0  0
  145.5029  137.9360  149.7807 H   0  0  0  0  0  0  0  0  0  0  0  0
  147.1794  138.2418  150.2509 H   0  0  0  0  0  0  0  0  0  0  0  0
  146.4399  136.3353  154.1807 H   0  0  0  0  0  0  0  0  0  0  0  0
  144.8489  135.8663  153.6258 H   0  0  0  0  0  0  0  0  0  0  0  0
  147.4268  134.2252  153.3379 H   0  0  0  0  0  0  0  0  0  0  0  0
  146.5343  134.2210  155.6714 H   0  0  0  0  0  0  0  0  0  0  0  0
  146.3341  132.6456  154.9106 H   0  0  0  0  0  0  0  0  0  0  0  0
  144.9519  133.7261  155.0719 H   0  0  0  0  0  0  0  0  0  0  0  0
  147.0610  133.9052  151.0377 H   0  0  0  0  0  0  0  0  0  0  0  0
  145.4914  133.3537  149.1711 H   0  0  0  0  0  0  0  0  0  0  0  0
  144.1905  133.1037  150.3343 H   0  0  0  0  0  0  0  0  0  0  0  0
  145.5908  132.0354  150.3342 H   0  0  0  0  0  0  0  0  0  0  0  0
  144.4718  135.5566  151.0936 H   0  0  0  0  0  0  0  0  0  0  0  0
  145.8521  135.7747  150.0243 H   0  0  0  0  0  0  0  0  0  0  0  0
  147.1874  136.2590  151.9054 H   0  0  0  0  0  0  0  0  0  0  0  0
  1  2  1  0  0  0  0
  1 22  1  0  0  0  0
  1 23  1  0  0  0  0
  1 24  1  0  0  0  0
  2 21  1  0  0  0  0
  2  3  2  0  0  0  0
  3  4  1  0  0  0  0
  3 25  1  0  0  0  0
  4  5  1  0  0  0  0
  4 20  2  0  0  0  0
  5  6  1  0  0  0  0
  5 26  1  0  0  0  0
  6  7  2  0  0  0  0
  6  8  1  0  0  0  0
  8  9  1  0  0  0  0
  8 27  1  0  0  0  0
  9 10  1  0  0  0  0
  9 28  1  0  0  0  0
  9 29  1  0  0  0  0
 10 11  1  0  0  0  0
 10 12  1  0  0  0  0
 10 30  1  0  0  0  0
 11 31  1  0  0  0  0
 11 32  1  0  0  0  0
 11 33  1  0  0  0  0
 12 19  1  0  0  0  0
 12 13  1  0  0  0  0
 12 46  1  0  0  0  0
 13 14  1  0  0  0  0
 13 34  1  0  0  0  0
 13 35  1  0  0  0  0
 14 15  1  0  0  0  0
 14 16  1  0  0  0  0
 14 36  1  0  0  0  0
 15 37  1  0  0  0  0
 15 38  1  0  0  0  0
 15 39  1  0  0  0  0
 16 17  1  0  0  0  0
 17 18  1  0  0  0  0
 17 19  1  0  0  0  0
 17 40  1  0  0  0  0
 18 41  1  0  0  0  0
 18 42  1  0  0  0  0
 18 43  1  0  0  0  0
 19 44  1  0  0  0  0
 19 45  1  0  0  0  0
 20 21  1  0  0  0  0
M  CHG  1  12   1
M  END
> <s_m_source_file>
AV-unprocessed.smi

> <i_m_source_file_index>
2061

> <i_lp_mmshare_version>
43012

> <i_f3d_flags>
0

> <s_epik_input>
W0NIM11jMVtjSF1jKG5vMSlbTkhdQyg9TylbTkhdW0NIMl1bQ0BIXShbQ0gzXSlOMltDSDJdW0NAQEhdKFtDSDNdKU9bQ0BASF0oW0NIM10pW0NIMl0y

> <s_epik_cmdline>
J2VwaWtfcHl0aG9uJywgJy1waCcsICc3LjAnLCAnLXRuJywgJzgnLCAnLW1hJywgJzIwMCcsICctbWV0YWxfYmluZGluZycsICctaW1hZScsICc8aW5maWxlLm1hZT4nLCAnLW9tYWUnLCAnPG91dGZpbGUubWFlPic=

> <r_epik_Ionization_Penalty>
0.707076

> <r_epik_Ionization_Penalty_Charging>
0.707039

> <r_epik_Ionization_Penalty_Neutral>
3.6548e-05

> <r_epik_State_Penalty>
0.730276

> <r_epik_Charging_Adjusted_Penalty>
1.43732

> <i_epik_Tot_Q>
1

> <i_epik_Tot_abs_Q>
1

> <r_epik_Metal_State_Penalty>
0.743132

> <b_epik_Metal_Only>
0

> <s_lp_Force_Field>
OPLS_2005

> <r_lp_Energy>
16.4142

> <b_lp_Chiralities_Consistent>
1

> <s_lp_Variant>
AV-unprocessed.smi:2061-8

> <Gold.Version>
5.8.1

> <Gold.Id.Protein>
6NUR|6NUR_protein|mol2

> <Gold.PLP.Fitness>
41.7273

> <Gold.PLP.PLP>
-26.9149

> <Gold.PLP.part.hbond>
-5.3165

> <Gold.PLP.part.metal>
0.0000

> <Gold.PLP.part.buried>
3.6264

> <Gold.PLP.part.nonpolar>
-26.1999

> <Gold.PLP.part.repulsive>
0.3632

> <Gold.PLP.ligand.clash>
0.0000

> <Gold.PLP.ligand.torsion>
0.8533

> <Gold.PLP.Chemscore.Hbond>
5.4898

> <Gold.PLP.Chemscore.CHOScore>
0.0000

> <Gold.PLP.Chemscore.Metal>
0.0000

> <Gold.Chemscore.Hbonds>
donor molecule, donor type, donor heavy atom, donor atom, acceptor molecule, acceptor atom, score
      L1  H     5    26       P1  7948  0.49
      L1  H     8    27       P1  7948  1.00
      L1  H    12    46       P1  7948  2.00
      P1  H  7989  7998       L1    20  0.98
      P1  H  7997  8009       L1    21  1.00

> <Gold.PLP.Chemscore.Internal.Correction>
0.0498

> <Gold.Rescore>
     Score         DG    S(hbond)    S(metal)    S(lipo)     H(rot)  DE(clash)    DE(int)     intcor
     20.07     -22.84       4.08        0.00      66.48       1.58       1.96       0.82       ----

> <Gold.Chemscore.Fitness>
20.0663

> <Gold.Chemscore.DG>
-22.8436

> <Gold.Chemscore.ZeroCoef>
-5.4800

> <Gold.Chemscore.Hbond>
4.0836

> <Gold.Chemscore.Metal>
0.0000

> <Gold.Chemscore.Lipo>
66.4766

> <Gold.Chemscore.Internal_Hbond>
0.0000

> <Gold.Chemscore.DEClash>
1.9619

> <Gold.Chemscore.DEInternal>
0.8155

> <Gold.Chemscore.Rot>
1.5834

> <Gold.Chemscore.Internal.Correction>
   9.000000E+99

> <Gold.Chemscore.Hbonds>
donor molecule, donor type, donor heavy atom, donor atom, acceptor molecule, acceptor atom, score
      L1  H     5    26       P1  7948  0.11
      L1  H     8    27       P1  7948  0.93
      L1  H    12    46       P1  7948  1.00
      P1  H  7989  7998       L1    20  0.93
      P1  H  7997  8009       L1    21  0.91

> <Gold.Chemscore.Hbond.Weighted>
-13.6393

> <Gold.Chemscore.Metal.Weighted>
-0.0000

> <Gold.Chemscore.Lipo.Weighted>
-7.7778

> <Gold.Chemscore.Internal_Hbond.Weighted>
0.0000

> <Gold.Chemscore.DEClash.Weighted>
1.9619

> <Gold.Chemscore.DEInternal.Weighted>
0.8155

> <Gold.Chemscore.Rot.Weighted>
4.0535

> <Gold.Chemscore.Internal.Correction.Weighted>
   9.000000E+99

> <Gold.Protein.RotatedTorsions>
[ 6907 6896 6895 6894 ] final -134.36 input  -60.11 | X-H torsion
[ 7974 7965 7964 7962 ] final -166.30 input  175.53 | X-H torsion
[ 8008 7997 7996 7995 ] final -132.71 input   59.86 | X-H torsion
[ 10167 10162 10161 10158 ] final -126.57 input  -65.29 | X-H torsion
[ 10718 10713 10712 10709 ] final  130.88 input   66.30 | X-H torsion
[ 10763 10752 10751 10750 ] final -124.00 input  -60.55 | X-H torsion
[ 11005 11000 10999 10996 ] final   34.78 input  -57.11 | X-H torsion

> <Gold.Protein.ActiveResidues>
 VAL166  LYS551  ARG553  GLY616  TRP617  ASP618  TYR619  PRO620  LYS621  CYS622 
 ASP623  PHE694  ASN695  SER759  ASP760  ASP761  ALA762  ILE779  LEU786  VAL792 
 PHE793  MET794  SER795  GLU796  ALA797  LYS798  CYS799  TRP800  GLU811  SER814 

> <Gold.Protein.RotatedAtoms>
  150.9849  133.6208  159.2716 H   0  0  0  0  0  0  0  0  0  0  0  0  # atno 6907 bound_to 6896
  151.3450  135.0871  159.9393 H   0  0  0  0  0  0  0  0  0  0  0  0  # atno 6908 bound_to 6896
  152.5227  133.9453  159.7700 H   0  0  0  0  0  0  0  0  0  0  0  0  # atno 6909 bound_to 6896
  144.7249  140.2687  143.6254 H   0  0  0  0  0  0  0  0  0  0  0  0  # atno 7974 bound_to 7965
  155.3335  140.0468  157.3043 H   0  0  0  0  0  0  0  0  0  0  0  0  # atno 8008 bound_to 7997
  154.5315  140.2258  155.8761 H   0  0  0  0  0  0  0  0  0  0  0  0  # atno 8009 bound_to 7997
  156.1793  140.3077  155.9125 H   0  0  0  0  0  0  0  0  0  0  0  0  # atno 8010 bound_to 7997
  139.9700  143.5855  152.2416 H   0  0  0  0  0  0  0  0  0  0  0  0  # atno 10167 bound_to 10162
  157.5020  131.1094  150.9413 H   0  0  0  0  0  0  0  0  0  0  0  0  # atno 10718 bound_to 10713
  154.8716  135.4079  154.3034 H   0  0  0  0  0  0  0  0  0  0  0  0  # atno 10763 bound_to 10752
  153.3890  135.7014  153.6514 H   0  0  0  0  0  0  0  0  0  0  0  0  # atno 10764 bound_to 10752
  153.5305  135.3668  155.2645 H   0  0  0  0  0  0  0  0  0  0  0  0  # atno 10765 bound_to 10752
  140.2493  134.3322  155.7896 H   0  0  0  0  0  0  0  0  0  0  0  0  # atno 11005 bound_to 11000
  145.8064  139.1985  143.2018 LP  0  0  0  0  0  0  0  0  0  0  0  0  # atno 17320 bound_to 7965
  146.0633  140.7948  142.9724 LP  0  0  0  0  0  0  0  0  0  0  0  0  # atno 17321 bound_to 7965
  139.6488  144.7659  151.2190 LP  0  0  0  0  0  0  0  0  0  0  0  0  # atno 17342 bound_to 10162
  140.7525  143.6195  150.8527 LP  0  0  0  0  0  0  0  0  0  0  0  0  # atno 17343 bound_to 10162
  157.0081  130.5626  149.5318 LP  0  0  0  0  0  0  0  0  0  0  0  0  # atno 17370 bound_to 10713
  156.0235  130.5329  150.8342 LP  0  0  0  0  0  0  0  0  0  0  0  0  # atno 17371 bound_to 10713
  141.2203  133.7344  156.9012 LP  0  0  0  0  0  0  0  0  0  0  0  0  # atno 17394 bound_to 11000
  140.1574  134.9189  157.2671 LP  0  0  0  0  0  0  0  0  0  0  0  0  # atno 17395 bound_to 11000

$$$$
