AV-unprocessed.smi:860|AV-procd|sdf|3965|dock3
  -GOLD-   22720 1433D 1   1.00000     0.00000
 Structure written by MMmdl.
 41 43  0  0  0  0  0  0  0  0  1 V2000
  151.8160  145.5678  159.5388 C   0  0  0  0  0  0  0  0  0  0  0  0
  152.1075  144.1142  159.3777 C   0  0  0  0  0  0  0  0  0  0  0  0
  152.8223  143.3019  160.2239 C   0  0  0  0  0  0  0  0  0  0  0  0
  152.9176  141.9517  159.7713 C   0  0  0  0  0  0  0  0  0  0  0  0
  152.2634  141.7666  158.5784 C   0  0  0  0  0  0  0  0  0  0  0  0
  152.2254  140.4677  157.9290 C   0  0  0  0  0  0  0  0  0  0  0  0
  152.7854  139.2523  158.5017 C   0  0  0  0  0  0  0  0  0  0  0  0
  152.6887  138.0959  157.8114 C   0  0  0  0  0  0  0  0  0  0  0  0
  152.0339  138.0273  156.5072 C   0  0  0  0  0  0  0  0  0  0  0  0
  151.9266  136.9829  155.8650 O   0  0  0  0  0  0  0  0  0  0  0  0
  151.5430  139.2266  156.0733 N   0  0  0  0  0  0  0  0  0  0  0  0
  150.8400  139.3602  154.7871 C   0  0  0  0  0  0  0  0  0  0  0  0
  149.3789  139.8831  154.9035 C   0  0  0  0  0  0  0  0  0  0  0  0
  148.9576  139.6379  156.2341 O   0  0  0  0  0  0  0  0  0  0  0  0
  149.3634  141.4194  154.7090 C   0  0  0  0  0  0  0  0  0  0  0  0
  147.9484  142.0251  154.7487 C   0  0  0  0  0  0  0  0  0  0  0  0
  147.0212  141.3418  153.7349 C   0  0  0  0  0  0  0  0  0  0  0  0
  146.9761  139.8262  153.9701 C   0  0  0  0  0  0  0  0  0  0  0  0
  148.3845  139.2077  153.9236 C   0  0  0  0  0  0  0  0  0  0  0  0
  151.6506  140.4159  156.7720 N   0  0  0  0  0  0  0  0  0  0  0  0
  151.5223  143.2319  157.9886 S   0  0  0  0  0  0  0  0  0  0  0  0
  152.2893  145.9673  160.4362 H   0  0  0  0  0  0  0  0  0  0  0  0
  150.7426  145.7404  159.6191 H   0  0  0  0  0  0  0  0  0  0  0  0
  152.1864  146.1334  158.6836 H   0  0  0  0  0  0  0  0  0  0  0  0
  153.2781  143.6283  161.1473 H   0  0  0  0  0  0  0  0  0  0  0  0
  153.4517  141.2070  160.3414 H   0  0  0  0  0  0  0  0  0  0  0  0
  153.2761  139.2600  159.4620 H   0  0  0  0  0  0  0  0  0  0  0  0
  153.1049  137.1935  158.2345 H   0  0  0  0  0  0  0  0  0  0  0  0
  151.4181  140.0093  154.1263 H   0  0  0  0  0  0  0  0  0  0  0  0
  150.8360  138.3981  154.2724 H   0  0  0  0  0  0  0  0  0  0  0  0
  149.7212  139.6207  156.7905 H   0  0  0  0  0  0  0  0  0  0  0  0
  149.9896  141.9025  155.4605 H   0  0  0  0  0  0  0  0  0  0  0  0
  149.8113  141.6632  153.7446 H   0  0  0  0  0  0  0  0  0  0  0  0
  147.5300  141.9306  155.7513 H   0  0  0  0  0  0  0  0  0  0  0  0
  147.9999  143.0940  154.5396 H   0  0  0  0  0  0  0  0  0  0  0  0
  146.0167  141.7599  153.8070 H   0  0  0  0  0  0  0  0  0  0  0  0
  147.3705  141.5460  152.7220 H   0  0  0  0  0  0  0  0  0  0  0  0
  146.5117  139.6176  154.9345 H   0  0  0  0  0  0  0  0  0  0  0  0
  146.3425  139.3544  153.2185 H   0  0  0  0  0  0  0  0  0  0  0  0
  148.7688  139.2973  152.9069 H   0  0  0  0  0  0  0  0  0  0  0  0
  148.3071  138.1395  154.1289 H   0  0  0  0  0  0  0  0  0  0  0  0
  1  2  1  0  0  0  0
  1 22  1  0  0  0  0
  1 23  1  0  0  0  0
  1 24  1  0  0  0  0
  2 21  1  0  0  0  0
  2  3  2  0  0  0  0
  3  4  1  0  0  0  0
  3 25  1  0  0  0  0
  4  5  2  0  0  0  0
  4 26  1  0  0  0  0
  5  6  1  0  0  0  0
  5 21  1  0  0  0  0
  6 20  2  0  0  0  0
  6  7  1  0  0  0  0
  7  8  2  0  0  0  0
  7 27  1  0  0  0  0
  8  9  1  0  0  0  0
  8 28  1  0  0  0  0
  9 10  2  0  0  0  0
  9 11  1  0  0  0  0
 11 12  1  0  0  0  0
 11 20  1  0  0  0  0
 12 13  1  0  0  0  0
 12 29  1  0  0  0  0
 12 30  1  0  0  0  0
 13 19  1  0  0  0  0
 13 14  1  0  0  0  0
 13 15  1  0  0  0  0
 14 31  1  0  0  0  0
 15 16  1  0  0  0  0
 15 32  1  0  0  0  0
 15 33  1  0  0  0  0
 16 17  1  0  0  0  0
 16 34  1  0  0  0  0
 16 35  1  0  0  0  0
 17 18  1  0  0  0  0
 17 36  1  0  0  0  0
 17 37  1  0  0  0  0
 18 19  1  0  0  0  0
 18 38  1  0  0  0  0
 18 39  1  0  0  0  0
 19 40  1  0  0  0  0
 19 41  1  0  0  0  0
M  END
> <s_m_source_file>
AV-unprocessed.smi

> <i_m_source_file_index>
860

> <i_lp_mmshare_version>
43012

> <i_f3d_flags>
0

> <s_epik_input>
W0NIM11jMVtjSF1bY0hdYyhzMSktYzJbY0hdW2NIXWMoPU8pbihuMilbQ0gyXUMzKFtPSF0pW0NIMl1bQ0gyXVtDSDJdW0NIMl1bQ0gyXTM=

> <s_epik_cmdline>
J2VwaWtfcHl0aG9uJywgJy1waCcsICc3LjAnLCAnLXRuJywgJzgnLCAnLW1hJywgJzIwMCcsICctbWV0YWxfYmluZGluZycsICctaW1hZScsICc8aW5maWxlLm1hZT4nLCAnLW9tYWUnLCAnPG91dGZpbGUubWFlPic=

> <r_lp_tautomer_probability>
1

> <r_epik_Ionization_Penalty>
5.74692e-07

> <r_epik_Ionization_Penalty_Charging>
1.87674e-07

> <r_epik_Ionization_Penalty_Neutral>
3.87018e-07

> <r_epik_State_Penalty>
-0

> <r_epik_Charging_Adjusted_Penalty>
1.87674e-07

> <i_epik_Tot_Q>
0

> <i_epik_Tot_abs_Q>
0

> <r_epik_Metal_State_Penalty>
-0

> <b_epik_Metal_Only>
0

> <s_lp_Force_Field>
OPLS_2005

> <r_lp_Energy>
34.3183

> <b_lp_Chiralities_Consistent>
1

> <s_lp_Variant>
AV-unprocessed.smi:860-1

> <Gold.Version>
5.8.1

> <Gold.Id.Protein>
6NUR|6NUR_protein|mol2

> <Gold.PLP.Fitness>
45.1551

> <Gold.PLP.PLP>
-43.7066

> <Gold.PLP.part.hbond>
-1.0000

> <Gold.PLP.part.metal>
0.0000

> <Gold.PLP.part.buried>
-0.5004

> <Gold.PLP.part.nonpolar>
-41.2949

> <Gold.PLP.part.repulsive>
0.0684

> <Gold.PLP.ligand.clash>
0.0000

> <Gold.PLP.ligand.torsion>
0.7795

> <Gold.PLP.Chemscore.Hbond>
1.0000

> <Gold.PLP.Chemscore.CHOScore>
0.0000

> <Gold.PLP.Chemscore.Metal>
0.0000

> <Gold.Chemscore.Hbonds>
donor molecule, donor type, donor heavy atom, donor atom, acceptor molecule, acceptor atom, score
      P1  H 10752 10763       L1    10  0.67

> <Gold.PLP.Chemscore.Internal.Correction>
0.0075

> <Gold.Rescore>
     Score         DG    S(hbond)    S(metal)    S(lipo)     H(rot)  DE(clash)    DE(int)     intcor
     17.96     -20.14       0.98        0.00     131.52       1.56       0.11       2.07       ----

> <Gold.Chemscore.Fitness>
17.9618

> <Gold.Chemscore.DG>
-20.1414

> <Gold.Chemscore.ZeroCoef>
-5.4800

> <Gold.Chemscore.Hbond>
0.9789

> <Gold.Chemscore.Metal>
0.0000

> <Gold.Chemscore.Lipo>
131.5205

> <Gold.Chemscore.Internal_Hbond>
0.0000

> <Gold.Chemscore.DEClash>
0.1101

> <Gold.Chemscore.DEInternal>
2.0695

> <Gold.Chemscore.Rot>
1.5609

> <Gold.Chemscore.Internal.Correction>
   9.000000E+99

> <Gold.Chemscore.Hbonds>
donor molecule, donor type, donor heavy atom, donor atom, acceptor molecule, acceptor atom, score
      P1  H 10752 10763       L1    10  0.66

> <Gold.Chemscore.Hbond.Weighted>
-3.2695

> <Gold.Chemscore.Metal.Weighted>
-0.0000

> <Gold.Chemscore.Lipo.Weighted>
-15.3879

> <Gold.Chemscore.Internal_Hbond.Weighted>
0.0000

> <Gold.Chemscore.DEClash.Weighted>
0.1101

> <Gold.Chemscore.DEInternal.Weighted>
2.0695

> <Gold.Chemscore.Rot.Weighted>
3.9960

> <Gold.Chemscore.Internal.Correction.Weighted>
   9.000000E+99

> <Gold.Protein.RotatedTorsions>
[ 6907 6896 6895 6894 ] final    9.83 input  -60.11 | X-H torsion
[ 7974 7965 7964 7962 ] final   23.84 input  175.53 | X-H torsion
[ 8008 7997 7996 7995 ] final  -26.20 input   59.86 | X-H torsion
[ 10167 10162 10161 10158 ] final   88.85 input  -65.29 | X-H torsion
[ 10718 10713 10712 10709 ] final -166.79 input   66.30 | X-H torsion
[ 10763 10752 10751 10750 ] final   59.38 input  -60.55 | X-H torsion
[ 11005 11000 10999 10996 ] final   99.56 input  -57.11 | X-H torsion

> <Gold.Protein.ActiveResidues>
 VAL166  LYS551  ARG553  GLY616  TRP617  ASP618  TYR619  PRO620  LYS621  CYS622 
 ASP623  PHE694  ASN695  SER759  ASP760  ASP761  ALA762  ILE779  LEU786  VAL792 
 PHE793  MET794  SER795  GLU796  ALA797  LYS798  CYS799  TRP800  GLU811  SER814 

> <Gold.Protein.RotatedAtoms>
  151.7285  135.0880  160.0295 H   0  0  0  0  0  0  0  0  0  0  0  0  # atno 6907 bound_to 6896
  152.3556  133.6229  159.5985 H   0  0  0  0  0  0  0  0  0  0  0  0  # atno 6908 bound_to 6896
  150.7569  133.9421  159.3501 H   0  0  0  0  0  0  0  0  0  0  0  0  # atno 6909 bound_to 6896
  146.1965  139.7688  142.8793 H   0  0  0  0  0  0  0  0  0  0  0  0  # atno 7974 bound_to 7965
  154.4437  140.1906  156.0739 H   0  0  0  0  0  0  0  0  0  0  0  0  # atno 8008 bound_to 7997
  156.0490  140.3311  155.7303 H   0  0  0  0  0  0  0  0  0  0  0  0  # atno 8009 bound_to 7997
  155.5585  140.0601  157.2825 H   0  0  0  0  0  0  0  0  0  0  0  0  # atno 8010 bound_to 7997
  139.8631  144.6533  150.9035 H   0  0  0  0  0  0  0  0  0  0  0  0  # atno 10167 bound_to 10162
  156.6730  130.9091  151.3046 H   0  0  0  0  0  0  0  0  0  0  0  0  # atno 10718 bound_to 10713
  152.9893  135.5573  154.5704 H   0  0  0  0  0  0  0  0  0  0  0  0  # atno 10763 bound_to 10752
  154.5105  135.2802  155.1348 H   0  0  0  0  0  0  0  0  0  0  0  0  # atno 10764 bound_to 10752
  154.2742  135.6357  153.5375 H   0  0  0  0  0  0  0  0  0  0  0  0  # atno 10765 bound_to 10752
  139.8771  134.9101  156.4624 H   0  0  0  0  0  0  0  0  0  0  0  0  # atno 11005 bound_to 11000
  145.3625  141.0328  143.3277 LP  0  0  0  0  0  0  0  0  0  0  0  0  # atno 17320 bound_to 7965
  144.8592  139.5203  143.6820 LP  0  0  0  0  0  0  0  0  0  0  0  0  # atno 17321 bound_to 7965
  140.7772  143.3727  151.1620 LP  0  0  0  0  0  0  0  0  0  0  0  0  # atno 17342 bound_to 10162
  139.7354  143.9007  152.3033 LP  0  0  0  0  0  0  0  0  0  0  0  0  # atno 17343 bound_to 10162
  157.7070  130.9397  150.0964 LP  0  0  0  0  0  0  0  0  0  0  0  0  # atno 17370 bound_to 10713
  156.1924  130.3655  149.8892 LP  0  0  0  0  0  0  0  0  0  0  0  0  # atno 17371 bound_to 10713
  140.8855  133.7887  155.9513 LP  0  0  0  0  0  0  0  0  0  0  0  0  # atno 17394 bound_to 11000
  140.8809  134.2612  157.5144 LP  0  0  0  0  0  0  0  0  0  0  0  0  # atno 17395 bound_to 11000

$$$$
