AV-unprocessed.smi:2144|AV-procd|sdf|8733|dock5
  -GOLD-   2272011503D 1   1.00000     0.00000
 Structure written by MMmdl.
 41 43  0  0  0  0  0  0  0  0  2 V2000
  148.4329  142.4325  154.0014 O   0  0  0  0  0  0  0  0  0  0  0  0
  149.2574  141.3082  154.2289 C   0  0  0  0  0  0  0  0  0  0  0  0
  150.0423  141.3998  155.4993 C   0  0  0  0  0  0  0  0  0  0  0  0
  149.9982  142.4194  156.4045 N   0  3  0  0  0  0  0  0  0  0  0  0
  150.8723  142.1559  157.4595 C   0  0  0  0  0  0  0  0  0  0  0  0
  151.1690  142.8904  158.6033 C   0  0  0  0  0  0  0  0  0  0  0  0
  152.1193  142.3328  159.4840 C   0  0  0  0  0  0  0  0  0  0  0  0
  152.7336  141.0929  159.2126 C   0  0  0  0  0  0  0  0  0  0  0  0
  152.4231  140.3566  158.0501 C   0  0  0  0  0  0  0  0  0  0  0  0
  151.4825  140.9150  157.1851 C   0  0  0  0  0  0  0  0  0  0  0  0
  150.9383  140.4846  155.9700 N   0  0  0  0  0  0  0  0  0  0  0  0
  151.3786  139.1999  155.4028 C   0  0  0  0  0  0  0  0  0  0  0  0
  150.2056  138.2631  155.0496 C   0  0  1  0  0  0  0  0  0  0  0  0
  150.2115  138.0294  153.6551 O   0  0  0  0  0  0  0  0  0  0  0  0
  150.3111  136.9125  155.7756 C   0  0  0  0  0  0  0  0  0  0  0  0
  149.5336  135.9536  155.0707 O   0  0  0  0  0  0  0  0  0  0  0  0
  149.7970  134.6157  155.2756 C   0  0  0  0  0  0  0  0  0  0  0  0
  150.7822  134.1266  156.1711 C   0  0  0  0  0  0  0  0  0  0  0  0
  150.9857  132.7406  156.3204 C   0  0  0  0  0  0  0  0  0  0  0  0
  150.2112  131.8283  155.5806 C   0  0  0  0  0  0  0  0  0  0  0  0
  149.2317  132.3040  154.6897 C   0  0  0  0  0  0  0  0  0  0  0  0
  149.0269  133.6894  154.5397 C   0  0  0  0  0  0  0  0  0  0  0  0
  148.0799  134.1338  153.6793 F   0  0  0  0  0  0  0  0  0  0  0  0
  148.7325  143.1408  154.5513 H   0  0  0  0  0  0  0  0  0  0  0  0
  148.6325  140.4153  154.2540 H   0  0  0  0  0  0  0  0  0  0  0  0
  149.9474  141.1988  153.3917 H   0  0  0  0  0  0  0  0  0  0  0  0
  150.7000  143.8406  158.8128 H   0  0  0  0  0  0  0  0  0  0  0  0
  152.3826  142.8673  160.3854 H   0  0  0  0  0  0  0  0  0  0  0  0
  153.4575  140.6979  159.9106 H   0  0  0  0  0  0  0  0  0  0  0  0
  152.8981  139.4071  157.8514 H   0  0  0  0  0  0  0  0  0  0  0  0
  151.9733  139.4144  154.5140 H   0  0  0  0  0  0  0  0  0  0  0  0
  152.0553  138.7258  156.1151 H   0  0  0  0  0  0  0  0  0  0  0  0
  149.2662  138.7468  155.3195 H   0  0  0  0  0  0  0  0  0  0  0  0
  149.6944  137.2586  153.4784 H   0  0  0  0  0  0  0  0  0  0  0  0
  151.3534  136.6015  155.8676 H   0  0  0  0  0  0  0  0  0  0  0  0
  149.9018  137.0116  156.7824 H   0  0  0  0  0  0  0  0  0  0  0  0
  151.3961  134.7939  156.7563 H   0  0  0  0  0  0  0  0  0  0  0  0
  151.7383  132.3771  157.0046 H   0  0  0  0  0  0  0  0  0  0  0  0
  150.3680  130.7658  155.6957 H   0  0  0  0  0  0  0  0  0  0  0  0
  148.6363  131.6063  154.1197 H   0  0  0  0  0  0  0  0  0  0  0  0
  149.4082  143.2350  156.3005 H   0  0  0  0  0  0  0  0  0  0  0  0
  1  2  1  0  0  0  0
  1 24  1  0  0  0  0
  2  3  1  0  0  0  0
  2 25  1  0  0  0  0
  2 26  1  0  0  0  0
  3 11  1  0  0  0  0
  3  4  2  0  0  0  0
  4  5  1  0  0  0  0
  4 41  1  0  0  0  0
  5 10  2  0  0  0  0
  5  6  1  0  0  0  0
  6  7  2  0  0  0  0
  6 27  1  0  0  0  0
  7  8  1  0  0  0  0
  7 28  1  0  0  0  0
  8  9  2  0  0  0  0
  8 29  1  0  0  0  0
  9 10  1  0  0  0  0
  9 30  1  0  0  0  0
 10 11  1  0  0  0  0
 11 12  1  0  0  0  0
 12 13  1  0  0  0  0
 12 31  1  0  0  0  0
 12 32  1  0  0  0  0
 13 14  1  0  0  0  0
 13 15  1  0  0  0  0
 13 33  1  0  0  0  0
 14 34  1  0  0  0  0
 15 16  1  0  0  0  0
 15 35  1  0  0  0  0
 15 36  1  0  0  0  0
 16 17  1  0  0  0  0
 17 22  1  0  0  0  0
 17 18  2  0  0  0  0
 18 19  1  0  0  0  0
 18 37  1  0  0  0  0
 19 20  2  0  0  0  0
 19 38  1  0  0  0  0
 20 21  1  0  0  0  0
 20 39  1  0  0  0  0
 21 22  2  0  0  0  0
 21 40  1  0  0  0  0
 22 23  1  0  0  0  0
M  CHG  1   4   1
M  END
> <s_m_source_file>
AV-unprocessed.smi

> <i_m_source_file_index>
2144

> <i_lp_mmshare_version>
43012

> <i_f3d_flags>
0

> <s_epik_input>
W2NIXTFbY0hdW2NIXVtjSF1jKGMxMiluKGMobjIpW0NIMl1bT0hdKVtDSDJdW0NASF0oW09IXSlbQ0gyXU9jM1tjSF1bY0hdW2NIXVtjSF1jM0Y=

> <s_epik_cmdline>
J2VwaWtfcHl0aG9uJywgJy1waCcsICc3LjAnLCAnLXRuJywgJzgnLCAnLW1hJywgJzIwMCcsICctbWV0YWxfYmluZGluZycsICctaW1hZScsICc8aW5maWxlLm1hZT4nLCAnLW9tYWUnLCAnPG91dGZpbGUubWFlPic=

> <r_lp_tautomer_probability>
1

> <r_epik_Ionization_Penalty>
1.44003

> <r_epik_Ionization_Penalty_Charging>
1.43917

> <r_epik_Ionization_Penalty_Neutral>
0.000858184

> <r_epik_State_Penalty>
1.52442

> <r_epik_Charging_Adjusted_Penalty>
2.96359

> <i_epik_Tot_Q>
1

> <i_epik_Tot_abs_Q>
1

> <r_epik_Metal_State_Penalty>
5.57019

> <b_epik_Metal_Only>
0

> <s_lp_Force_Field>
OPLS_2005

> <r_lp_Energy>
20.1924

> <b_lp_Chiralities_Consistent>
1

> <s_lp_Variant>
AV-unprocessed.smi:2144-4

> <Gold.Version>
5.8.1

> <Gold.Id.Protein>
6NUR|6NUR_protein|mol2

> <Gold.PLP.Fitness>
54.0519

> <Gold.PLP.PLP>
-44.9656

> <Gold.PLP.part.hbond>
-5.0385

> <Gold.PLP.part.metal>
0.0000

> <Gold.PLP.part.buried>
-1.5056

> <Gold.PLP.part.nonpolar>
-37.3854

> <Gold.PLP.part.repulsive>
0.2197

> <Gold.PLP.ligand.clash>
0.0000

> <Gold.PLP.ligand.torsion>
1.1069

> <Gold.PLP.Chemscore.Hbond>
3.7520

> <Gold.PLP.Chemscore.CHOScore>
0.0000

> <Gold.PLP.Chemscore.Metal>
0.0000

> <Gold.Chemscore.Hbonds>
donor molecule, donor type, donor heavy atom, donor atom, acceptor molecule, acceptor atom, score
      L1  H     1    24       P1  8028  1.00
      L1  H     4    41       P1  8028  2.00
      L1  H    14    34       P1  7948  0.75

> <Gold.PLP.Chemscore.Internal.Correction>
0.0441

> <Gold.Rescore>
     Score         DG    S(hbond)    S(metal)    S(lipo)     H(rot)  DE(clash)    DE(int)     intcor
     16.24     -17.62       2.50        0.00     104.88       3.31       0.25       1.12       ----

> <Gold.Chemscore.Fitness>
16.2427

> <Gold.Chemscore.DG>
-17.6178

> <Gold.Chemscore.ZeroCoef>
-5.4800

> <Gold.Chemscore.Hbond>
2.4998

> <Gold.Chemscore.Metal>
0.0000

> <Gold.Chemscore.Lipo>
104.8782

> <Gold.Chemscore.Internal_Hbond>
0.0000

> <Gold.Chemscore.DEClash>
0.2502

> <Gold.Chemscore.DEInternal>
1.1248

> <Gold.Chemscore.Rot>
3.3134

> <Gold.Chemscore.Internal.Correction>
   9.000000E+99

> <Gold.Chemscore.Hbonds>
donor molecule, donor type, donor heavy atom, donor atom, acceptor molecule, acceptor atom, score
      L1  H     1    24       P1  8028  1.00
      L1  H     4    41       P1  8028  0.99
      L1  H    14    34       P1  7948  0.53

> <Gold.Chemscore.Hbond.Weighted>
-8.3494

> <Gold.Chemscore.Metal.Weighted>
-0.0000

> <Gold.Chemscore.Lipo.Weighted>
-12.2708

> <Gold.Chemscore.Internal_Hbond.Weighted>
0.0000

> <Gold.Chemscore.DEClash.Weighted>
0.2502

> <Gold.Chemscore.DEInternal.Weighted>
1.1248

> <Gold.Chemscore.Rot.Weighted>
8.4823

> <Gold.Chemscore.Internal.Correction.Weighted>
   9.000000E+99

> <Gold.Protein.RotatedTorsions>
[ 6907 6896 6895 6894 ] final -144.58 input  -60.11 | X-H torsion
[ 7974 7965 7964 7962 ] final  152.60 input  175.53 | X-H torsion
[ 8008 7997 7996 7995 ] final  166.28 input   59.86 | X-H torsion
[ 10167 10162 10161 10158 ] final  150.31 input  -65.29 | X-H torsion
[ 10718 10713 10712 10709 ] final -129.43 input   66.30 | X-H torsion
[ 10763 10752 10751 10750 ] final  150.86 input  -60.55 | X-H torsion
[ 11005 11000 10999 10996 ] final  -45.24 input  -57.11 | X-H torsion

> <Gold.Protein.ActiveResidues>
 VAL166  LYS551  ARG553  GLY616  TRP617  ASP618  TYR619  PRO620  LYS621  CYS622 
 ASP623  PHE694  ASN695  SER759  ASP760  ASP761  ALA762  ILE779  LEU786  VAL792 
 PHE793  MET794  SER795  GLU796  ALA797  LYS798  CYS799  TRP800  GLU811  SER814 

> <Gold.Protein.RotatedAtoms>
  151.1160  133.5139  159.2603 H   0  0  0  0  0  0  0  0  0  0  0  0  # atno 6907 bound_to 6896
  151.1915  135.0404  159.8844 H   0  0  0  0  0  0  0  0  0  0  0  0  # atno 6908 bound_to 6896
  152.5453  134.0999  159.8367 H   0  0  0  0  0  0  0  0  0  0  0  0  # atno 6909 bound_to 6896
  144.8211  139.6690  143.6100 H   0  0  0  0  0  0  0  0  0  0  0  0  # atno 7974 bound_to 7965
  156.1731  140.1647  156.8412 H   0  0  0  0  0  0  0  0  0  0  0  0  # atno 8008 bound_to 7997
  154.5278  140.0763  156.8324 H   0  0  0  0  0  0  0  0  0  0  0  0  # atno 8009 bound_to 7997
  155.3471  140.3388  155.4241 H   0  0  0  0  0  0  0  0  0  0  0  0  # atno 8010 bound_to 7997
  139.4851  144.5532  151.7364 H   0  0  0  0  0  0  0  0  0  0  0  0  # atno 10167 bound_to 10162
  156.2046  130.6879  151.0579 H   0  0  0  0  0  0  0  0  0  0  0  0  # atno 10718 bound_to 10713
  154.0944  135.2850  155.3265 H   0  0  0  0  0  0  0  0  0  0  0  0  # atno 10763 bound_to 10752
  154.6598  135.5338  153.8007 H   0  0  0  0  0  0  0  0  0  0  0  0  # atno 10764 bound_to 10752
  153.0401  135.6531  154.1111 H   0  0  0  0  0  0  0  0  0  0  0  0  # atno 10765 bound_to 10752
  141.0502  133.6745  156.2985 H   0  0  0  0  0  0  0  0  0  0  0  0  # atno 11005 bound_to 11000
  146.2516  139.6212  142.9423 LP  0  0  0  0  0  0  0  0  0  0  0  0  # atno 17320 bound_to 7965
  145.5103  141.0435  143.2491 LP  0  0  0  0  0  0  0  0  0  0  0  0  # atno 17321 bound_to 7965
  140.5089  144.1055  150.5990 LP  0  0  0  0  0  0  0  0  0  0  0  0  # atno 17342 bound_to 10162
  140.3974  143.2721  151.9988 LP  0  0  0  0  0  0  0  0  0  0  0  0  # atno 17343 bound_to 10162
  157.7005  131.0778  150.6835 LP  0  0  0  0  0  0  0  0  0  0  0  0  # atno 17370 bound_to 10713
  156.6893  130.4590  149.5604 LP  0  0  0  0  0  0  0  0  0  0  0  0  # atno 17371 bound_to 10713
  140.6069  134.5498  157.5527 LP  0  0  0  0  0  0  0  0  0  0  0  0  # atno 17394 bound_to 11000
  139.9344  134.7902  156.0841 LP  0  0  0  0  0  0  0  0  0  0  0  0  # atno 17395 bound_to 11000

$$$$
