AV-unprocessed.smi:1492|AV-procd|sdf|6047|dock1
  -GOLD-   22720 6163D 1   1.00000     0.00000
 Structure written by MMmdl.
 52 53  0  0  0  0  0  0  0  0  3 V2000
  147.0533  140.3807  153.3847 C   0  0  0  0  0  0  0  0  0  0  0  0
  147.0487  139.0072  152.6909 C   0  0  0  0  0  0  0  0  0  0  0  0
  146.7121  137.7883  153.6070 C   0  0  2  0  0  0  0  0  0  0  0  0
  145.3992  138.1309  154.3597 C   0  0  0  0  0  0  0  0  0  0  0  0
  147.8647  137.5862  154.6407 C   0  0  0  0  0  0  0  0  0  0  0  0
  147.4344  136.8363  155.8158 N   0  0  0  0  0  0  0  0  0  0  0  0
  148.1762  136.5493  156.8969 C   0  0  0  0  0  0  0  0  0  0  0  0
  149.2896  137.0302  157.1035 O   0  0  0  0  0  0  0  0  0  0  0  0
  147.5844  135.5311  157.8766 C   0  0  0  0  0  0  0  0  0  0  0  0
  147.4379  136.0220  159.3189 C   0  0  0  0  0  0  0  0  0  0  0  0
  146.2530  136.0372  159.9943 C   0  0  0  0  0  0  0  0  0  0  0  0
  144.9375  135.6088  159.3681 C   0  0  0  0  0  0  0  0  0  0  0  0
  146.1888  136.4403  161.3387 N   0  0  0  0  0  0  0  0  0  0  0  0
  147.2608  136.7825  161.9456 C   0  0  0  0  0  0  0  0  0  0  0  0
  147.1877  137.2094  163.3959 C   0  0  0  0  0  0  0  0  0  0  0  0
  148.5061  136.7907  161.3592 N   0  5  0  0  0  0  0  0  0  0  0  0
  148.6487  136.4321  160.0522 C   0  0  0  0  0  0  0  0  0  0  0  0
  149.7429  136.4292  159.4897 O   0  0  0  0  0  0  0  0  0  0  0  0
  146.5145  136.5435  152.7786 N   0  3  0  0  0  0  0  0  0  0  0  0
  146.2086  135.2973  153.5370 C   0  0  0  0  0  0  0  0  0  0  0  0
  146.2387  134.0784  152.6012 C   0  0  0  0  0  0  0  0  0  0  0  0
  145.3008  134.2625  151.5502 O   0  0  0  0  0  0  0  0  0  0  0  0
  145.6159  135.3989  150.7583 C   0  0  0  0  0  0  0  0  0  0  0  0
  145.5744  136.6669  151.6281 C   0  0  0  0  0  0  0  0  0  0  0  0
  147.2922  141.1660  152.6675 H   0  0  0  0  0  0  0  0  0  0  0  0
  147.8010  140.4311  154.1759 H   0  0  0  0  0  0  0  0  0  0  0  0
  146.0839  140.6224  153.8197 H   0  0  0  0  0  0  0  0  0  0  0  0
  146.3731  139.0419  151.8367 H   0  0  0  0  0  0  0  0  0  0  0  0
  148.0355  138.8716  152.2457 H   0  0  0  0  0  0  0  0  0  0  0  0
  145.4184  139.1427  154.7649 H   0  0  0  0  0  0  0  0  0  0  0  0
  145.2257  137.4670  155.2068 H   0  0  0  0  0  0  0  0  0  0  0  0
  144.5287  138.0666  153.7067 H   0  0  0  0  0  0  0  0  0  0  0  0
  148.7244  137.0976  154.1822 H   0  0  0  0  0  0  0  0  0  0  0  0
  148.2249  138.5454  155.0096 H   0  0  0  0  0  0  0  0  0  0  0  0
  146.5274  136.3956  155.7552 H   0  0  0  0  0  0  0  0  0  0  0  0
  146.6128  135.2020  157.5052 H   0  0  0  0  0  0  0  0  0  0  0  0
  148.2112  134.6405  157.8474 H   0  0  0  0  0  0  0  0  0  0  0  0
  144.6626  136.2875  158.5605 H   0  0  0  0  0  0  0  0  0  0  0  0
  144.1302  135.6159  160.1014 H   0  0  0  0  0  0  0  0  0  0  0  0
  145.0123  134.5994  158.9642 H   0  0  0  0  0  0  0  0  0  0  0  0
  147.5109  138.2455  163.5002 H   0  0  0  0  0  0  0  0  0  0  0  0
  147.8350  136.5808  164.0088 H   0  0  0  0  0  0  0  0  0  0  0  0
  146.1697  137.1283  163.7797 H   0  0  0  0  0  0  0  0  0  0  0  0
  146.9285  135.1236  154.3340 H   0  0  0  0  0  0  0  0  0  0  0  0
  145.2250  135.3671  154.0018 H   0  0  0  0  0  0  0  0  0  0  0  0
  147.2390  133.9228  152.1937 H   0  0  0  0  0  0  0  0  0  0  0  0
  145.9756  133.1756  153.1528 H   0  0  0  0  0  0  0  0  0  0  0  0
  146.5961  135.2758  150.2947 H   0  0  0  0  0  0  0  0  0  0  0  0
  144.8894  135.4757  149.9493 H   0  0  0  0  0  0  0  0  0  0  0  0
  144.5572  136.8250  151.9868 H   0  0  0  0  0  0  0  0  0  0  0  0
  145.8259  137.5125  150.9908 H   0  0  0  0  0  0  0  0  0  0  0  0
  147.4188  136.3797  152.3595 H   0  0  0  0  0  0  0  0  0  0  0  0
  1  2  1  0  0  0  0
  1 25  1  0  0  0  0
  1 26  1  0  0  0  0
  1 27  1  0  0  0  0
  2  3  1  0  0  0  0
  2 28  1  0  0  0  0
  2 29  1  0  0  0  0
  3  4  1  0  0  0  0
  3  5  1  0  0  0  0
  3 19  1  0  0  0  0
  4 30  1  0  0  0  0
  4 31  1  0  0  0  0
  4 32  1  0  0  0  0
  5  6  1  0  0  0  0
  5 33  1  0  0  0  0
  5 34  1  0  0  0  0
  6  7  1  0  0  0  0
  6 35  1  0  0  0  0
  7  8  2  0  0  0  0
  7  9  1  0  0  0  0
  9 10  1  0  0  0  0
  9 36  1  0  0  0  0
  9 37  1  0  0  0  0
 10 17  1  0  0  0  0
 10 11  2  0  0  0  0
 11 12  1  0  0  0  0
 11 13  1  0  0  0  0
 12 38  1  0  0  0  0
 12 39  1  0  0  0  0
 12 40  1  0  0  0  0
 13 14  2  0  0  0  0
 14 15  1  0  0  0  0
 14 16  1  0  0  0  0
 15 41  1  0  0  0  0
 15 42  1  0  0  0  0
 15 43  1  0  0  0  0
 16 17  1  0  0  0  0
 17 18  2  0  0  0  0
 19 24  1  0  0  0  0
 19 20  1  0  0  0  0
 19 52  1  0  0  0  0
 20 21  1  0  0  0  0
 20 44  1  0  0  0  0
 20 45  1  0  0  0  0
 21 22  1  0  0  0  0
 21 46  1  0  0  0  0
 21 47  1  0  0  0  0
 22 23  1  0  0  0  0
 23 24  1  0  0  0  0
 23 48  1  0  0  0  0
 23 49  1  0  0  0  0
 24 50  1  0  0  0  0
 24 51  1  0  0  0  0
M  CHG  1  16  -1
M  CHG  1  19   1
M  END
> <s_m_source_file>
AV-unprocessed.smi

> <i_m_source_file_index>
1492

> <i_lp_mmshare_version>
43012

> <i_f3d_flags>
0

> <s_epik_input>
W0NIMl0xW0NIMl1PW0NIMl1bQ0gyXU4xW0NAQF0oW0NIM10pKFtDSDJdW0NIM10pW0NIMl1bTkhdQyg9TylbQ0gyXWMyYyhbQ0gzXSluYyhbQ0gzXSlbbkhdYzI9Tw==

> <s_epik_cmdline>
J2VwaWtfcHl0aG9uJywgJy1waCcsICc3LjAnLCAnLXRuJywgJzgnLCAnLW1hJywgJzIwMCcsICctbWV0YWxfYmluZGluZycsICctaW1hZScsICc8aW5maWxlLm1hZT4nLCAnLW9tYWUnLCAnPG91dGZpbGUubWFlPic=

> <r_lp_tautomer_probability>
0.839158

> <r_epik_Ionization_Penalty>
6.90614

> <r_epik_Ionization_Penalty_Charging>
0.570079

> <r_epik_Ionization_Penalty_Neutral>
6.33607

> <r_epik_State_Penalty>
4.81716

> <r_epik_Charging_Adjusted_Penalty>
5.38724

> <i_epik_Tot_Q>
0

> <i_epik_Tot_abs_Q>
2

> <r_epik_Metal_State_Penalty>
1.25629

> <b_epik_Metal_Only>
1

> <s_lp_Force_Field>
OPLS_2005

> <r_lp_Energy>
27.3859

> <b_lp_Chiralities_Consistent>
1

> <s_lp_Variant>
AV-unprocessed.smi:1492-12

> <Gold.Version>
5.8.1

> <Gold.Id.Protein>
6NUR|6NUR_protein|mol2

> <Gold.PLP.Fitness>
41.0344

> <Gold.PLP.PLP>
-26.3787

> <Gold.PLP.part.hbond>
-3.2456

> <Gold.PLP.part.metal>
0.0000

> <Gold.PLP.part.buried>
-0.1305

> <Gold.PLP.part.nonpolar>
-21.6713

> <Gold.PLP.part.repulsive>
0.1323

> <Gold.PLP.ligand.clash>
0.0000

> <Gold.PLP.ligand.torsion>
0.4069

> <Gold.PLP.Chemscore.Hbond>
5.0000

> <Gold.PLP.Chemscore.CHOScore>
0.0000

> <Gold.PLP.Chemscore.Metal>
0.0000

> <Gold.Chemscore.Hbonds>
donor molecule, donor type, donor heavy atom, donor atom, acceptor molecule, acceptor atom, score
      L1  H    19    52       P1  7948  2.00
      P1  H  6896  6907       L1    18  1.00
      P1  H  6931  6943       L1    16  1.90

> <Gold.PLP.Chemscore.Internal.Correction>
0.4695

> <Gold.Rescore>
     Score         DG    S(hbond)    S(metal)    S(lipo)     H(rot)  DE(clash)    DE(int)     intcor
     11.16     -15.09       2.49        0.00      57.43       2.12       0.84       3.09       ----

> <Gold.Chemscore.Fitness>
11.1597

> <Gold.Chemscore.DG>
-15.0905

> <Gold.Chemscore.ZeroCoef>
-5.4800

> <Gold.Chemscore.Hbond>
2.4933

> <Gold.Chemscore.Metal>
0.0000

> <Gold.Chemscore.Lipo>
57.4269

> <Gold.Chemscore.Internal_Hbond>
0.0000

> <Gold.Chemscore.DEClash>
0.8388

> <Gold.Chemscore.DEInternal>
3.0920

> <Gold.Chemscore.Rot>
2.1235

> <Gold.Chemscore.Internal.Correction>
   9.000000E+99

> <Gold.Chemscore.Hbonds>
donor molecule, donor type, donor heavy atom, donor atom, acceptor molecule, acceptor atom, score
      L1  H    19    52       P1  7948  0.99
      P1  H  6896  6907       L1    18  0.91
      P1  H  6931  6943       L1    16  0.21

> <Gold.Chemscore.Hbond.Weighted>
-8.3276

> <Gold.Chemscore.Metal.Weighted>
-0.0000

> <Gold.Chemscore.Lipo.Weighted>
-6.7189

> <Gold.Chemscore.Internal_Hbond.Weighted>
0.0000

> <Gold.Chemscore.DEClash.Weighted>
0.8388

> <Gold.Chemscore.DEInternal.Weighted>
3.0920

> <Gold.Chemscore.Rot.Weighted>
5.4360

> <Gold.Chemscore.Internal.Correction.Weighted>
   9.000000E+99

> <Gold.Protein.RotatedTorsions>
[ 6907 6896 6895 6894 ] final  -57.08 input  -60.11 | X-H torsion
[ 7974 7965 7964 7962 ] final   94.05 input  175.53 | X-H torsion
[ 8008 7997 7996 7995 ] final  -62.71 input   59.86 | X-H torsion
[ 10167 10162 10161 10158 ] final -171.17 input  -65.29 | X-H torsion
[ 10718 10713 10712 10709 ] final -157.70 input   66.30 | X-H torsion
[ 10763 10752 10751 10750 ] final   21.97 input  -60.55 | X-H torsion
[ 11005 11000 10999 10996 ] final -156.18 input  -57.11 | X-H torsion

> <Gold.Protein.ActiveResidues>
 VAL166  LYS551  ARG553  GLY616  TRP617  ASP618  TYR619  PRO620  LYS621  CYS622 
 ASP623  PHE694  ASN695  SER759  ASP760  ASP761  ALA762  ILE779  LEU786  VAL792 
 PHE793  MET794  SER795  GLU796  ALA797  LYS798  CYS799  TRP800  GLU811  SER814 

> <Gold.Protein.RotatedAtoms>
  150.8115  134.7272  159.6691 H   0  0  0  0  0  0  0  0  0  0  0  0  # atno 6907 bound_to 6896
  152.4234  134.5909  159.9983 H   0  0  0  0  0  0  0  0  0  0  0  0  # atno 6908 bound_to 6896
  151.6118  133.3309  159.3105 H   0  0  0  0  0  0  0  0  0  0  0  0  # atno 6909 bound_to 6896
  145.4708  139.2282  143.2936 H   0  0  0  0  0  0  0  0  0  0  0  0  # atno 7974 bound_to 7965
  154.4514  140.0990  156.6629 H   0  0  0  0  0  0  0  0  0  0  0  0  # atno 8008 bound_to 7997
  155.5273  140.3480  155.4400 H   0  0  0  0  0  0  0  0  0  0  0  0  # atno 8009 bound_to 7997
  156.0689  140.1344  156.9842 H   0  0  0  0  0  0  0  0  0  0  0  0  # atno 8010 bound_to 7997
  139.5818  144.1407  152.1524 H   0  0  0  0  0  0  0  0  0  0  0  0  # atno 10167 bound_to 10162
  156.5439  130.8575  151.2758 H   0  0  0  0  0  0  0  0  0  0  0  0  # atno 10718 bound_to 10713
  153.0952  135.6658  153.9777 H   0  0  0  0  0  0  0  0  0  0  0  0  # atno 10763 bound_to 10752
  153.9362  135.2998  155.3445 H   0  0  0  0  0  0  0  0  0  0  0  0  # atno 10764 bound_to 10752
  154.7370  135.5097  153.9132 H   0  0  0  0  0  0  0  0  0  0  0  0  # atno 10765 bound_to 10752
  140.6784  134.4171  157.5228 H   0  0  0  0  0  0  0  0  0  0  0  0  # atno 11005 bound_to 11000
  146.2398  140.5486  142.8939 LP  0  0  0  0  0  0  0  0  0  0  0  0  # atno 17320 bound_to 7965
  144.7946  140.6098  143.6518 LP  0  0  0  0  0  0  0  0  0  0  0  0  # atno 17321 bound_to 7965
  140.0962  144.5579  150.7020 LP  0  0  0  0  0  0  0  0  0  0  0  0  # atno 17342 bound_to 10162
  140.7095  143.2494  151.4624 LP  0  0  0  0  0  0  0  0  0  0  0  0  # atno 17343 bound_to 10162
  157.7400  130.9842  150.2351 LP  0  0  0  0  0  0  0  0  0  0  0  0  # atno 17370 bound_to 10713
  156.2947  130.3750  149.7808 LP  0  0  0  0  0  0  0  0  0  0  0  0  # atno 17371 bound_to 10713
  139.8959  134.8671  156.2110 LP  0  0  0  0  0  0  0  0  0  0  0  0  # atno 17394 bound_to 11000
  141.0337  133.6975  156.1474 LP  0  0  0  0  0  0  0  0  0  0  0  0  # atno 17395 bound_to 11000

$$$$
