AV-unprocessed.smi:2047|AV-procd|sdf|8318|dock7
  -GOLD-   2272010583D 1   1.00000     0.00000
 Structure written by MMmdl.
 43 45  0  0  0  0  0  0  0  0  2 V2000
  152.9249  138.2741  158.3053 O   0  0  0  0  0  0  0  0  0  0  0  0
  153.0419  139.3034  158.9695 C   0  0  0  0  0  0  0  0  0  0  0  0
  152.4918  140.4907  158.6643 N   0  0  0  0  0  0  0  0  0  0  0  0
  151.6547  140.8261  157.5606 C   0  0  0  0  0  0  0  0  0  0  0  0
  151.2500  139.8796  156.5839 C   0  0  0  0  0  0  0  0  0  0  0  0
  150.4031  140.2797  155.5314 C   0  0  0  0  0  0  0  0  0  0  0  0
  149.9636  141.6149  155.4752 C   0  0  0  0  0  0  0  0  0  0  0  0
  150.3532  142.4878  156.4274 N   0  3  0  0  0  0  0  0  0  0  0  0
  151.1670  142.1546  157.4593 C   0  0  0  0  0  0  0  0  0  0  0  0
  151.5168  143.1424  158.3963 N   0  0  0  0  0  0  0  0  0  0  0  0
  150.4153  143.7232  159.1461 C   0  0  0  0  0  0  0  0  0  0  0  0
  150.9819  144.9956  159.7809 C   0  0  0  0  0  0  0  0  0  0  0  0
  152.1985  145.3578  158.9199 C   0  0  0  0  0  0  0  0  0  0  0  0
  152.2686  144.2613  157.8536 C   0  0  0  0  0  0  0  0  0  0  0  0
  153.7606  139.3769  160.0985 N   0  0  0  0  0  0  0  0  0  0  0  0
  154.4805  138.2613  160.7061 C   0  0  1  0  0  0  0  0  0  0  0  0
  153.5339  137.3753  161.5371 C   0  0  0  0  0  0  0  0  0  0  0  0
  154.2444  136.0517  161.8453 C   0  0  0  0  0  0  0  0  0  0  0  0
  155.3546  135.7275  160.4231 S   0  0  0  0  0  0  0  0  0  0  0  0
  156.7325  135.5851  160.9169 O   0  0  0  0  0  0  0  0  0  0  0  0
  154.7532  134.7074  159.5508 O   0  0  0  0  0  0  0  0  0  0  0  0
  155.1506  137.3738  159.6446 C   0  0  0  0  0  0  0  0  0  0  0  0
  152.7506  141.2637  159.2601 H   0  0  0  0  0  0  0  0  0  0  0  0
  151.5604  138.8472  156.6278 H   0  0  0  0  0  0  0  0  0  0  0  0
  150.0910  139.5685  154.7803 H   0  0  0  0  0  0  0  0  0  0  0  0
  149.3128  142.0073  154.7072 H   0  0  0  0  0  0  0  0  0  0  0  0
  149.5859  143.9737  158.4836 H   0  0  0  0  0  0  0  0  0  0  0  0
  150.0462  143.0285  159.9013 H   0  0  0  0  0  0  0  0  0  0  0  0
  150.2401  145.7942  159.8101 H   0  0  0  0  0  0  0  0  0  0  0  0
  151.2988  144.7991  160.8059 H   0  0  0  0  0  0  0  0  0  0  0  0
  152.1083  146.3471  158.4705 H   0  0  0  0  0  0  0  0  0  0  0  0
  153.1019  145.3526  159.5310 H   0  0  0  0  0  0  0  0  0  0  0  0
  153.2989  143.9755  157.6387 H   0  0  0  0  0  0  0  0  0  0  0  0
  151.8153  144.6115  156.9251 H   0  0  0  0  0  0  0  0  0  0  0  0
  153.8116  140.2645  160.5770 H   0  0  0  0  0  0  0  0  0  0  0  0
  155.2514  138.6444  161.3778 H   0  0  0  0  0  0  0  0  0  0  0  0
  153.2070  137.8745  162.4499 H   0  0  0  0  0  0  0  0  0  0  0  0
  152.6376  137.1604  160.9535 H   0  0  0  0  0  0  0  0  0  0  0  0
  154.8623  136.1440  162.7389 H   0  0  0  0  0  0  0  0  0  0  0  0
  153.5545  135.2192  161.9838 H   0  0  0  0  0  0  0  0  0  0  0  0
  154.5103  137.2497  158.7706 H   0  0  0  0  0  0  0  0  0  0  0  0
  156.1173  137.7566  159.3163 H   0  0  0  0  0  0  0  0  0  0  0  0
  150.0170  143.4491  156.3661 H   0  0  0  0  0  0  0  0  0  0  0  0
  1  2  2  0  0  0  0
  2  3  1  0  0  0  0
  2 15  1  0  0  0  0
  3  4  1  0  0  0  0
  3 23  1  0  0  0  0
  4  9  1  0  0  0  0
  4  5  2  0  0  0  0
  5  6  1  0  0  0  0
  5 24  1  0  0  0  0
  6  7  2  0  0  0  0
  6 25  1  0  0  0  0
  7  8  1  0  0  0  0
  7 26  1  0  0  0  0
  8  9  2  0  0  0  0
  8 43  1  0  0  0  0
  9 10  1  0  0  0  0
 10 14  1  0  0  0  0
 10 11  1  0  0  0  0
 11 12  1  0  0  0  0
 11 27  1  0  0  0  0
 11 28  1  0  0  0  0
 12 13  1  0  0  0  0
 12 29  1  0  0  0  0
 12 30  1  0  0  0  0
 13 14  1  0  0  0  0
 13 31  1  0  0  0  0
 13 32  1  0  0  0  0
 14 33  1  0  0  0  0
 14 34  1  0  0  0  0
 15 16  1  0  0  0  0
 15 35  1  0  0  0  0
 16 22  1  0  0  0  0
 16 17  1  0  0  0  0
 16 36  1  0  0  0  0
 17 18  1  0  0  0  0
 17 37  1  0  0  0  0
 17 38  1  0  0  0  0
 18 19  1  0  0  0  0
 18 39  1  0  0  0  0
 18 40  1  0  0  0  0
 19 20  2  0  0  0  0
 19 21  2  0  0  0  0
 19 22  1  0  0  0  0
 22 41  1  0  0  0  0
 22 42  1  0  0  0  0
M  CHG  1   8   1
M  END
> <s_m_source_file>
AV-unprocessed.smi

> <i_m_source_file_index>
2047

> <i_lp_mmshare_version>
43012

> <i_f3d_flags>
0

> <s_epik_input>
Tz1TMSg9TylbQ0gyXVtDSDJdW0NASF0oW0NIMl0xKVtOSF1DKD1PKVtOSF1jMltjSF1bY0hdW2NIXW5jMk4zW0NIMl1bQ0gyXVtDSDJdW0NIMl0z

> <s_epik_cmdline>
J2VwaWtfcHl0aG9uJywgJy1waCcsICc3LjAnLCAnLXRuJywgJzgnLCAnLW1hJywgJzIwMCcsICctbWV0YWxfYmluZGluZycsICctaW1hZScsICc8aW5maWxlLm1hZT4nLCAnLW9tYWUnLCAnPG91dGZpbGUubWFlPic=

> <r_lp_tautomer_probability>
0.999994

> <r_epik_Ionization_Penalty>
1.20225

> <r_epik_Ionization_Penalty_Charging>
1.20223

> <r_epik_Ionization_Penalty_Neutral>
2.10783e-05

> <r_epik_State_Penalty>
1.26794

> <r_epik_Charging_Adjusted_Penalty>
2.47017

> <i_epik_Tot_Q>
1

> <i_epik_Tot_abs_Q>
1

> <r_epik_Metal_State_Penalty>
1.34322

> <b_epik_Metal_Only>
0

> <s_lp_Force_Field>
OPLS_2005

> <r_lp_Energy>
42.594

> <b_lp_Chiralities_Consistent>
1

> <s_lp_Variant>
AV-unprocessed.smi:2047-4

> <Gold.Version>
5.8.1

> <Gold.Id.Protein>
6NUR|6NUR_protein|mol2

> <Gold.PLP.Fitness>
44.0471

> <Gold.PLP.PLP>
-35.7995

> <Gold.PLP.part.hbond>
-1.9039

> <Gold.PLP.part.metal>
0.0000

> <Gold.PLP.part.buried>
-6.4316

> <Gold.PLP.part.nonpolar>
-29.0238

> <Gold.PLP.part.repulsive>
0.3077

> <Gold.PLP.ligand.clash>
0.0277

> <Gold.PLP.ligand.torsion>
0.3111

> <Gold.PLP.Chemscore.Hbond>
2.9588

> <Gold.PLP.Chemscore.CHOScore>
0.0000

> <Gold.PLP.Chemscore.Metal>
0.0000

> <Gold.Chemscore.Hbonds>
donor molecule, donor type, donor heavy atom, donor atom, acceptor molecule, acceptor atom, score
      L1  H     8    43       P1  8028  2.00
      P1  H  6896  6908       L1    21  0.54

> <Gold.PLP.Chemscore.Internal.Correction>
0.0211

> <Gold.Rescore>
     Score         DG    S(hbond)    S(metal)    S(lipo)     H(rot)  DE(clash)    DE(int)     intcor
     16.58     -19.49       1.94        0.00      91.98       1.26       0.05       2.87       ----

> <Gold.Chemscore.Fitness>
16.5763

> <Gold.Chemscore.DG>
-19.4949

> <Gold.Chemscore.ZeroCoef>
-5.4800

> <Gold.Chemscore.Hbond>
1.9389

> <Gold.Chemscore.Metal>
0.0000

> <Gold.Chemscore.Lipo>
91.9836

> <Gold.Chemscore.Internal_Hbond>
0.0000

> <Gold.Chemscore.DEClash>
0.0495

> <Gold.Chemscore.DEInternal>
2.8691

> <Gold.Chemscore.Rot>
1.2590

> <Gold.Chemscore.Internal.Correction>
   9.000000E+99

> <Gold.Chemscore.Hbonds>
donor molecule, donor type, donor heavy atom, donor atom, acceptor molecule, acceptor atom, score
      L1  H     8    43       P1  8028  0.96
      P1  H  6896  6908       L1    21  0.47

> <Gold.Chemscore.Hbond.Weighted>
-6.4759

> <Gold.Chemscore.Metal.Weighted>
-0.0000

> <Gold.Chemscore.Lipo.Weighted>
-10.7621

> <Gold.Chemscore.Internal_Hbond.Weighted>
0.0000

> <Gold.Chemscore.DEClash.Weighted>
0.0495

> <Gold.Chemscore.DEInternal.Weighted>
2.8691

> <Gold.Chemscore.Rot.Weighted>
3.2231

> <Gold.Chemscore.Internal.Correction.Weighted>
   9.000000E+99

> <Gold.Protein.RotatedTorsions>
[ 6907 6896 6895 6894 ] final  -38.53 input  -60.11 | X-H torsion
[ 7974 7965 7964 7962 ] final  145.29 input  175.53 | X-H torsion
[ 8008 7997 7996 7995 ] final -134.19 input   59.86 | X-H torsion
[ 10167 10162 10161 10158 ] final -145.77 input  -65.29 | X-H torsion
[ 10718 10713 10712 10709 ] final -158.41 input   66.30 | X-H torsion
[ 10763 10752 10751 10750 ] final  143.72 input  -60.55 | X-H torsion
[ 11005 11000 10999 10996 ] final   99.11 input  -57.11 | X-H torsion

> <Gold.Protein.ActiveResidues>
 VAL166  LYS551  ARG553  GLY616  TRP617  ASP618  TYR619  PRO620  LYS621  CYS622 
 ASP623  PHE694  ASN695  SER759  ASP760  ASP761  ALA762  ILE779  LEU786  VAL792 
 PHE793  MET794  SER795  GLU796  ALA797  LYS798  CYS799  TRP800  GLU811  SER814 

> <Gold.Protein.RotatedAtoms>
  151.0013  134.9324  159.7955 H   0  0  0  0  0  0  0  0  0  0  0  0  # atno 6907 bound_to 6896
  152.5278  134.3151  159.9137 H   0  0  0  0  0  0  0  0  0  0  0  0  # atno 6908 bound_to 6896
  151.3156  133.4020  159.2684 H   0  0  0  0  0  0  0  0  0  0  0  0  # atno 6909 bound_to 6896
  144.8764  139.5765  143.5863 H   0  0  0  0  0  0  0  0  0  0  0  0  # atno 7974 bound_to 7965
  155.3579  140.0481  157.3046 H   0  0  0  0  0  0  0  0  0  0  0  0  # atno 8008 bound_to 7997
  154.5193  140.2219  155.8970 H   0  0  0  0  0  0  0  0  0  0  0  0  # atno 8009 bound_to 7997
  156.1672  140.3104  155.8915 H   0  0  0  0  0  0  0  0  0  0  0  0  # atno 8010 bound_to 7997
  139.7775  143.8149  152.2634 H   0  0  0  0  0  0  0  0  0  0  0  0  # atno 10167 bound_to 10162
  156.5537  130.8616  151.2788 H   0  0  0  0  0  0  0  0  0  0  0  0  # atno 10718 bound_to 10713
  153.9770  135.2945  155.3423 H   0  0  0  0  0  0  0  0  0  0  0  0  # atno 10763 bound_to 10752
  154.7290  135.5076  153.8937 H   0  0  0  0  0  0  0  0  0  0  0  0  # atno 10764 bound_to 10752
  153.0873  135.6697  154.0038 H   0  0  0  0  0  0  0  0  0  0  0  0  # atno 10765 bound_to 10752
  139.8771  134.9080  156.4557 H   0  0  0  0  0  0  0  0  0  0  0  0  # atno 11005 bound_to 11000
  146.2966  139.7296  142.9122 LP  0  0  0  0  0  0  0  0  0  0  0  0  # atno 17320 bound_to 7965
  145.4034  141.0388  143.3058 LP  0  0  0  0  0  0  0  0  0  0  0  0  # atno 17321 bound_to 7965
  139.8202  144.7299  150.9583 LP  0  0  0  0  0  0  0  0  0  0  0  0  # atno 17342 bound_to 10162
  140.7817  143.4166  151.0907 LP  0  0  0  0  0  0  0  0  0  0  0  0  # atno 17343 bound_to 10162
  157.7382  130.9810  150.2240 LP  0  0  0  0  0  0  0  0  0  0  0  0  # atno 17370 bound_to 10713
  156.2861  130.3739  149.7887 LP  0  0  0  0  0  0  0  0  0  0  0  0  # atno 17371 bound_to 10713
  140.8900  133.7855  155.9561 LP  0  0  0  0  0  0  0  0  0  0  0  0  # atno 17394 bound_to 11000
  140.8764  134.2665  157.5166 LP  0  0  0  0  0  0  0  0  0  0  0  0  # atno 17395 bound_to 11000

$$$$
