AV-unprocessed.smi:3163|AV-procd|sdf|12077|dock3
  -GOLD-   2272017503D 1   1.00000     0.00000
 Structure written by MMmdl.
 37 38  0  0  0  0  0  0  0  0  3 V2000
  143.8599  132.7182  148.9086 C   0  0  0  0  0  0  0  0  0  0  0  0
  144.5232  132.7903  150.2275 N   0  3  1  0  0  0  0  0  0  0  0  0
  146.0000  132.7418  150.1662 C   0  0  0  0  0  0  0  0  0  0  0  0
  146.4833  133.5831  151.3449 C   0  0  0  0  0  0  0  0  0  0  0  0
  145.4418  134.6972  151.4088 C   0  0  2  0  0  0  0  0  0  0  0  0
  145.4183  135.4512  152.7524 C   0  0  0  0  0  0  0  0  0  0  0  0
  146.4911  136.4371  152.8504 N   0  0  0  0  0  0  0  0  0  0  0  0
  146.3765  137.6659  153.3749 C   0  0  0  0  0  0  0  0  0  0  0  0
  145.3206  138.1192  153.8152 O   0  0  0  0  0  0  0  0  0  0  0  0
  147.5471  138.3257  153.3307 N   0  0  0  0  0  0  0  0  0  0  0  0
  147.8438  139.6394  153.7873 C   0  0  0  0  0  0  0  0  0  0  0  0
  149.1105  139.8555  154.3745 C   0  0  0  0  0  0  0  0  0  0  0  0
  149.4460  141.1379  154.8547 C   0  0  0  0  0  0  0  0  0  0  0  0
  148.5531  142.1460  154.7598 N   0  3  0  0  0  0  0  0  0  0  0  0
  147.3255  141.9853  154.2207 C   0  0  0  0  0  0  0  0  0  0  0  0
  146.9337  140.7257  153.7231 C   0  0  0  0  0  0  0  0  0  0  0  0
  144.1397  133.9667  151.0427 C   0  0  0  0  0  0  0  0  0  0  0  0
  144.1146  133.5817  148.2930 H   0  0  0  0  0  0  0  0  0  0  0  0
  142.7765  132.6900  149.0282 H   0  0  0  0  0  0  0  0  0  0  0  0
  144.1636  131.8150  148.3785 H   0  0  0  0  0  0  0  0  0  0  0  0
  146.3690  131.7165  150.2027 H   0  0  0  0  0  0  0  0  0  0  0  0
  146.3497  133.1909  149.2347 H   0  0  0  0  0  0  0  0  0  0  0  0
  146.4630  132.9898  152.2605 H   0  0  0  0  0  0  0  0  0  0  0  0
  147.4981  133.9579  151.2074 H   0  0  0  0  0  0  0  0  0  0  0  0
  145.6700  135.4063  150.6108 H   0  0  0  0  0  0  0  0  0  0  0  0
  144.4454  135.9174  152.9179 H   0  0  0  0  0  0  0  0  0  0  0  0
  145.5553  134.7404  153.5678 H   0  0  0  0  0  0  0  0  0  0  0  0
  147.3970  136.1504  152.5085 H   0  0  0  0  0  0  0  0  0  0  0  0
  148.3065  137.8477  152.8676 H   0  0  0  0  0  0  0  0  0  0  0  0
  149.8253  139.0489  154.4540 H   0  0  0  0  0  0  0  0  0  0  0  0
  150.3940  141.3846  155.3104 H   0  0  0  0  0  0  0  0  0  0  0  0
  146.6943  142.8620  154.2088 H   0  0  0  0  0  0  0  0  0  0  0  0
  145.9403  140.6173  153.3156 H   0  0  0  0  0  0  0  0  0  0  0  0
  143.4400  134.6281  150.5297 H   0  0  0  0  0  0  0  0  0  0  0  0
  143.6412  133.5929  151.9375 H   0  0  0  0  0  0  0  0  0  0  0  0
  144.2291  131.9790  150.7526 H   0  0  0  0  0  0  0  0  0  0  0  0
  148.8143  143.0663  155.1152 H   0  0  0  0  0  0  0  0  0  0  0  0
  1  2  1  0  0  0  0
  1 18  1  0  0  0  0
  1 19  1  0  0  0  0
  1 20  1  0  0  0  0
  2 17  1  0  0  0  0
  2  3  1  0  0  0  0
  2 36  1  0  0  0  0
  3  4  1  0  0  0  0
  3 21  1  0  0  0  0
  3 22  1  0  0  0  0
  4  5  1  0  0  0  0
  4 23  1  0  0  0  0
  4 24  1  0  0  0  0
  5  6  1  0  0  0  0
  5 17  1  0  0  0  0
  5 25  1  0  0  0  0
  6  7  1  0  0  0  0
  6 26  1  0  0  0  0
  6 27  1  0  0  0  0
  7  8  1  0  0  0  0
  7 28  1  0  0  0  0
  8  9  2  0  0  0  0
  8 10  1  0  0  0  0
 10 11  1  0  0  0  0
 10 29  1  0  0  0  0
 11 16  1  0  0  0  0
 11 12  2  0  0  0  0
 12 13  1  0  0  0  0
 12 30  1  0  0  0  0
 13 14  2  0  0  0  0
 13 31  1  0  0  0  0
 14 15  1  0  0  0  0
 14 37  1  0  0  0  0
 15 16  2  0  0  0  0
 15 32  1  0  0  0  0
 16 33  1  0  0  0  0
 17 34  1  0  0  0  0
 17 35  1  0  0  0  0
M  CHG  1   2   1
M  CHG  1  14   1
M  END
> <s_m_source_file>
AV-unprocessed.smi

> <i_m_source_file_index>
3163

> <i_lp_mmshare_version>
43012

> <i_f3d_flags>
0

> <s_epik_input>
W0NIM11OMVtDSDJdW0NIMl1bQ0BIXShbQ0gyXTEpW0NIMl1bTkhdQyg9TylbTkhdYzJbY0hdW2NIXW5bY0hdW2NIXTI=

> <s_epik_cmdline>
J2VwaWtfcHl0aG9uJywgJy1waCcsICc3LjAnLCAnLXRuJywgJzgnLCAnLW1hJywgJzIwMCcsICctbWV0YWxfYmluZGluZycsICctaW1hZScsICc8aW5maWxlLm1hZT4nLCAnLW9tYWUnLCAnPG91dGZpbGUubWFlPic=

> <r_epik_Ionization_Penalty>
1.09034

> <r_epik_Ionization_Penalty_Charging>
1.09032

> <r_epik_Ionization_Penalty_Neutral>
1.86664e-05

> <r_epik_State_Penalty>
1.14521

> <r_epik_Charging_Adjusted_Penalty>
2.23553

> <i_epik_Tot_Q>
2

> <i_epik_Tot_abs_Q>
2

> <r_epik_Metal_State_Penalty>
1.23399

> <b_epik_Metal_Only>
0

> <s_lp_Force_Field>
OPLS_2005

> <r_lp_Energy>
39.8127

> <b_lp_Chiralities_Consistent>
1

> <s_lp_Variant>
AV-unprocessed.smi:3163-7

> <Gold.Version>
5.8.1

> <Gold.Id.Protein>
6NUR|6NUR_protein|mol2

> <Gold.PLP.Fitness>
43.0783

> <Gold.PLP.PLP>
-32.2110

> <Gold.PLP.part.hbond>
-3.0000

> <Gold.PLP.part.metal>
0.0000

> <Gold.PLP.part.buried>
-5.1801

> <Gold.PLP.part.nonpolar>
-25.7886

> <Gold.PLP.part.repulsive>
0.5538

> <Gold.PLP.ligand.clash>
0.0000

> <Gold.PLP.ligand.torsion>
0.5562

> <Gold.PLP.Chemscore.Hbond>
3.9920

> <Gold.PLP.Chemscore.CHOScore>
0.0000

> <Gold.PLP.Chemscore.Metal>
0.0000

> <Gold.Chemscore.Hbonds>
donor molecule, donor type, donor heavy atom, donor atom, acceptor molecule, acceptor atom, score
      L1  H     7    28       P1  7948  1.00
      L1  H    10    29       P1  7948  0.99
      L1  H    14    37       P1  8028  2.00

> <Gold.PLP.Chemscore.Internal.Correction>
0.0037

> <Gold.Rescore>
     Score         DG    S(hbond)    S(metal)    S(lipo)     H(rot)  DE(clash)    DE(int)     intcor
     20.54     -21.14       2.95        0.00      77.38       1.27       0.01       0.59       ----

> <Gold.Chemscore.Fitness>
20.5372

> <Gold.Chemscore.DG>
-21.1391

> <Gold.Chemscore.ZeroCoef>
-5.4800

> <Gold.Chemscore.Hbond>
2.9527

> <Gold.Chemscore.Metal>
0.0000

> <Gold.Chemscore.Lipo>
77.3810

> <Gold.Chemscore.Internal_Hbond>
0.0000

> <Gold.Chemscore.DEClash>
0.0134

> <Gold.Chemscore.DEInternal>
0.5884

> <Gold.Chemscore.Rot>
1.2721

> <Gold.Chemscore.Internal.Correction>
   9.000000E+99

> <Gold.Chemscore.Hbonds>
donor molecule, donor type, donor heavy atom, donor atom, acceptor molecule, acceptor atom, score
      L1  H     7    28       P1  7948  1.00
      L1  H    10    29       P1  7948  0.90
      L1  H    14    37       P1  8028  1.00

> <Gold.Chemscore.Hbond.Weighted>
-9.8619

> <Gold.Chemscore.Metal.Weighted>
-0.0000

> <Gold.Chemscore.Lipo.Weighted>
-9.0536

> <Gold.Chemscore.Internal_Hbond.Weighted>
0.0000

> <Gold.Chemscore.DEClash.Weighted>
0.0134

> <Gold.Chemscore.DEInternal.Weighted>
0.5884

> <Gold.Chemscore.Rot.Weighted>
3.2565

> <Gold.Chemscore.Internal.Correction.Weighted>
   9.000000E+99

> <Gold.Protein.RotatedTorsions>
[ 6907 6896 6895 6894 ] final -132.06 input  -60.11 | X-H torsion
[ 7974 7965 7964 7962 ] final   36.64 input  175.53 | X-H torsion
[ 8008 7997 7996 7995 ] final   15.80 input   59.86 | X-H torsion
[ 10167 10162 10161 10158 ] final   13.71 input  -65.29 | X-H torsion
[ 10718 10713 10712 10709 ] final  149.87 input   66.30 | X-H torsion
[ 10763 10752 10751 10750 ] final  -12.57 input  -60.55 | X-H torsion
[ 11005 11000 10999 10996 ] final -114.11 input  -57.11 | X-H torsion

> <Gold.Protein.ActiveResidues>
 VAL166  LYS551  ARG553  GLY616  TRP617  ASP618  TYR619  PRO620  LYS621  CYS622 
 ASP623  PHE694  ASN695  SER759  ASP760  ASP761  ALA762  ILE779  LEU786  VAL792 
 PHE793  MET794  SER795  GLU796  ALA797  LYS798  CYS799  TRP800  GLU811  SER814 

> <Gold.Protein.RotatedAtoms>
  150.9581  133.6475  159.2759 H   0  0  0  0  0  0  0  0  0  0  0  0  # atno 6907 bound_to 6896
  151.3808  135.0938  159.9505 H   0  0  0  0  0  0  0  0  0  0  0  0  # atno 6908 bound_to 6896
  152.5137  133.9116  159.7545 H   0  0  0  0  0  0  0  0  0  0  0  0  # atno 6909 bound_to 6896
  146.1197  139.5993  142.9298 H   0  0  0  0  0  0  0  0  0  0  0  0  # atno 7974 bound_to 7965
  154.8679  140.2954  155.5499 H   0  0  0  0  0  0  0  0  0  0  0  0  # atno 8008 bound_to 7997
  156.3021  140.2466  156.3596 H   0  0  0  0  0  0  0  0  0  0  0  0  # atno 8009 bound_to 7997
  154.8849  140.0396  157.1793 H   0  0  0  0  0  0  0  0  0  0  0  0  # atno 8010 bound_to 7997
  140.5984  143.8654  150.6941 H   0  0  0  0  0  0  0  0  0  0  0  0  # atno 10167 bound_to 10162
  157.2907  131.0853  151.1464 H   0  0  0  0  0  0  0  0  0  0  0  0  # atno 10718 bound_to 10713
  153.5005  135.7017  153.5834 H   0  0  0  0  0  0  0  0  0  0  0  0  # atno 10763 bound_to 10752
  153.3968  135.3882  155.1961 H   0  0  0  0  0  0  0  0  0  0  0  0  # atno 10764 bound_to 10752
  154.8711  135.3872  154.4475 H   0  0  0  0  0  0  0  0  0  0  0  0  # atno 10765 bound_to 10752
  141.0572  133.9593  157.2732 H   0  0  0  0  0  0  0  0  0  0  0  0  # atno 11005 bound_to 11000
  145.5493  141.0414  143.2287 LP  0  0  0  0  0  0  0  0  0  0  0  0  # atno 17320 bound_to 7965
  144.7585  139.7014  143.7244 LP  0  0  0  0  0  0  0  0  0  0  0  0  # atno 17321 bound_to 7965
  140.2194  143.3820  152.1655 LP  0  0  0  0  0  0  0  0  0  0  0  0  # atno 17342 bound_to 10162
  139.5274  144.7119  151.5180 LP  0  0  0  0  0  0  0  0  0  0  0  0  # atno 17343 bound_to 10162
  157.2862  130.6774  149.6090 LP  0  0  0  0  0  0  0  0  0  0  0  0  # atno 17370 bound_to 10713
  155.9667  130.4435  150.5423 LP  0  0  0  0  0  0  0  0  0  0  0  0  # atno 17371 bound_to 10713
  139.9401  135.0192  156.8680 LP  0  0  0  0  0  0  0  0  0  0  0  0  # atno 17394 bound_to 11000
  140.5940  134.0235  155.7510 LP  0  0  0  0  0  0  0  0  0  0  0  0  # atno 17395 bound_to 11000

$$$$
