#       Name:                AV-unprocessed.smi:3161
#       Creating user name   scv26
#       Creation time:       Fri Mar 27 17:48:37 2020


#       File generated by GOLD software.
#

@<TRIPOS>MOLECULE
AV-unprocessed.smi:3161
    44    45     1
SMALL
NO_CHARGES


@<TRIPOS>ATOM
      1 ****        -3.6991   5.4482   1.8115 C.3            1 S1                 0.0000
      2 ****        -2.8896   4.4073   1.0930 C.2            1 S1                 0.0000
      3 ****        -2.1083   4.5664  -0.0869 C.2            1 S1                 0.0000
      4 ****        -1.5163   3.4456  -0.4668 N.2            1 S1                 0.0000
      5 ****        -1.8920   2.5363   0.4571 N.pl3          1 S1                 0.0000
      6 ****        -1.4266   1.1655   0.3490 C.3            1 S1                 0.0000
      7 ****         0.1004   1.0244   0.5530 C.3            1 S1                 0.0000
      8 ****         0.5805   1.6543   1.8719 C.3            1 S1                 0.0000
      9 ****         0.5174  -0.3951   0.5112 N.4            1 S1                 1.0000
     10 ****         0.4850  -1.0298  -0.8238 C.3            1 S1                 0.0000
     11 ****         1.0750  -2.4463  -0.7720 C.3            1 S1                 0.0000
     12 ****         0.9052  -3.1888  -2.1117 C.3            1 S1                 0.0000
     13 ****         1.5817  -4.5633  -2.0556 C.3            1 S1                 0.0000
     14 ****         3.0387  -4.4040  -1.6091 C.3            1 S1                 0.0000
     15 ****         3.1127  -3.5933  -0.3055 C.3            1 S1                 0.0000
     16 ****         2.4664  -2.3350  -0.4775 O.3            1 S1                 0.0000
     17 ****        -2.7268   3.0875   1.4061 C.2            1 S1                 0.0000
     18 ****        -3.3686   6.4581   1.5678 H              1 S1                 0.0000
     19 ****        -3.6259   5.3401   2.8939 H              1 S1                 0.0000
     20 ****        -4.7559   5.3843   1.5520 H              1 S1                 0.0000
     21 ****        -1.9560   5.4586  -0.6765 H              1 S1                 0.0000
     22 ****        -1.9604   0.5650   1.0869 H              1 S1                 0.0000
     23 ****        -1.7252   0.7931  -0.6309 H              1 S1                 0.0000
     24 ****         0.6141   1.5438  -0.2577 H              1 S1                 0.0000
     25 ****         0.3889   2.7273   1.8992 H              1 S1                 0.0000
     26 ****         1.6545   1.5185   2.0028 H              1 S1                 0.0000
     27 ****         0.0809   1.2052   2.7309 H              1 S1                 0.0000
     28 ****         1.4742  -0.4384   0.8329 H              1 S1                 0.0000
     29 ****        -0.5467  -1.0804  -1.1718 H              1 S1                 0.0000
     30 ****         1.0378  -0.4198  -1.5397 H              1 S1                 0.0000
     31 ****         0.5789  -3.0108   0.0199 H              1 S1                 0.0000
     32 ****        -0.1526  -3.3050  -2.3499 H              1 S1                 0.0000
     33 ****         1.3446  -2.6000  -2.9183 H              1 S1                 0.0000
     34 ****         1.0503  -5.2062  -1.3528 H              1 S1                 0.0000
     35 ****         1.5327  -5.0532  -3.0284 H              1 S1                 0.0000
     36 ****         3.5011  -5.3822  -1.4731 H              1 S1                 0.0000
     37 ****         3.6075  -3.8942  -2.3878 H              1 S1                 0.0000
     38 ****         2.6543  -4.1401   0.5199 H              1 S1                 0.0000
     39 ****         4.1538  -3.4201  -0.0319 H              1 S1                 0.0000
     40 ****        -3.1305   2.5024   2.2195 H              1 S1                 0.0000
     41 ****        -0.0573  -0.9271   1.1490 H              1 S1                 0.0000
     42 ****        -0.9239   3.3042  -1.2599 LP             1 S1                 0.0000
     43 ****         2.5704  -1.8077   0.3658 LP             1 S1                 0.0000
     44 ****         2.9117  -1.8506  -1.2305 LP             1 S1                 0.0000
@<TRIPOS>BOND
    1    1    2 1     
    2    1   18 1     
    3    1   19 1     
    4    1   20 1     
    5    2   17 2     
    6    2    3 1     
    7    3    4 2     
    8    3   21 1     
    9    4    5 1     
   10    5    6 1     
   11    5   17 1     
   12    6    7 1     
   13    6   22 1     
   14    6   23 1     
   15    7    8 1     
   16    7    9 1     
   17    7   24 1     
   18    8   25 1     
   19    8   26 1     
   20    8   27 1     
   21    9   10 1     
   22    9   28 1     
   23    9   41 1     
   24   10   11 1     
   25   10   29 1     
   26   10   30 1     
   27   11   16 1     
   28   11   12 1     
   29   11   31 1     
   30   12   13 1     
   31   12   32 1     
   32   12   33 1     
   33   13   14 1     
   34   13   34 1     
   35   13   35 1     
   36   14   15 1     
   37   14   36 1     
   38   14   37 1     
   39   15   16 1     
   40   15   38 1     
   41   15   39 1     
   42   17   40 1     
   43    4   42 1     
   44   16   43 1     
   45   16   44 1     
@<TRIPOS>SUBSTRUCTURE
      1 S1             1
@<TRIPOS>SET
LONE_PAIRS      STATIC     ATOMS    <user>   **** ""
3 42 43 44
DONOR_HYDROGENS      STATIC     ATOMS    <user>   **** ""
2 28 41
ATOM$BLUE        STATIC     ATOMS    COLORGROUP SYSTEM
3 42 43 44
ATOM$RED        STATIC     ATOMS    COLORGROUP SYSTEM
2 28 41
