AV-unprocessed.smi:2676|AV-procd|sdf|10364|dock10
  -GOLD-   2272014393D 1   1.00000     0.00000
 Structure written by MMmdl.
 40 41  0  0  0  0  0  0  0  0  1 V2000
  152.2905  144.2876  159.5400 C   0  0  0  0  0  0  0  0  0  0  0  0
  152.7133  143.1050  159.0692 C   0  0  0  0  0  0  0  0  0  0  0  0
  151.9744  141.7919  159.2562 C   0  0  0  0  0  0  0  0  0  0  0  0
  151.7234  141.1210  157.9608 N   0  0  0  0  0  0  0  0  0  0  0  0
  152.4678  140.0202  157.6408 C   0  0  0  0  0  0  0  0  0  0  0  0
  153.3412  139.5868  158.3985 O   0  0  0  0  0  0  0  0  0  0  0  0
  152.2080  139.4304  156.4354 N   0  0  0  0  0  0  0  0  0  0  0  0
  152.9983  138.2414  156.0447 C   0  0  0  0  0  0  0  0  0  0  0  0
  152.7041  137.0577  156.9489 C   0  0  0  0  0  0  0  0  0  0  0  0
  151.6328  136.2598  156.8294 C   0  0  0  0  0  0  0  0  0  0  0  0
  151.2847  139.9114  155.5503 C   0  0  0  0  0  0  0  0  0  0  0  0
  151.1014  139.3783  154.4517 O   0  0  0  0  0  0  0  0  0  0  0  0
  150.5832  141.0208  155.9334 N   0  0  0  0  0  0  0  0  0  0  0  0
  149.5906  141.5904  154.9878 C   0  0  0  0  0  0  0  0  0  0  0  0
  148.1312  141.3277  155.3950 C   0  0  0  0  0  0  0  0  0  0  0  0
  147.7317  140.1844  155.6223 O   0  0  0  0  0  0  0  0  0  0  0  0
  147.3484  142.4123  155.4844 N   0  0  0  0  0  0  0  0  0  0  0  0
  145.9698  142.4118  155.8532 C   0  0  0  0  0  0  0  0  0  0  0  0
  144.9739  142.9605  154.8547 C   0  0  0  0  0  0  0  0  0  0  0  0
  145.3070  143.7518  156.0895 C   0  0  0  0  0  0  0  0  0  0  0  0
  150.7866  141.6601  157.1245 C   0  0  0  0  0  0  0  0  0  0  0  0
  150.1617  142.6818  157.4246 O   0  0  0  0  0  0  0  0  0  0  0  0
  151.3674  144.3734  160.0941 H   0  0  0  0  0  0  0  0  0  0  0  0
  152.8648  145.1872  159.3756 H   0  0  0  0  0  0  0  0  0  0  0  0
  153.6432  143.0586  158.5211 H   0  0  0  0  0  0  0  0  0  0  0  0
  152.5611  141.1644  159.9289 H   0  0  0  0  0  0  0  0  0  0  0  0
  151.0483  141.9657  159.8073 H   0  0  0  0  0  0  0  0  0  0  0  0
  152.7964  137.9416  155.0151 H   0  0  0  0  0  0  0  0  0  0  0  0
  154.0699  138.4497  156.0475 H   0  0  0  0  0  0  0  0  0  0  0  0
  153.4173  136.8674  157.7380 H   0  0  0  0  0  0  0  0  0  0  0  0
  150.8980  136.4194  156.0540 H   0  0  0  0  0  0  0  0  0  0  0  0
  151.4781  135.4335  157.5076 H   0  0  0  0  0  0  0  0  0  0  0  0
  149.7244  142.6674  154.8721 H   0  0  0  0  0  0  0  0  0  0  0  0
  149.7424  141.2069  153.9772 H   0  0  0  0  0  0  0  0  0  0  0  0
  147.7619  143.3104  155.2786 H   0  0  0  0  0  0  0  0  0  0  0  0
  145.6193  141.5914  156.4781 H   0  0  0  0  0  0  0  0  0  0  0  0
  145.3555  143.3281  153.9038 H   0  0  0  0  0  0  0  0  0  0  0  0
  143.9958  142.4856  154.8109 H   0  0  0  0  0  0  0  0  0  0  0  0
  144.5504  143.8063  156.8698 H   0  0  0  0  0  0  0  0  0  0  0  0
  145.9103  144.6489  155.9630 H   0  0  0  0  0  0  0  0  0  0  0  0
  1  2  2  0  0  0  0
  1 23  1  0  0  0  0
  1 24  1  0  0  0  0
  2  3  1  0  0  0  0
  2 25  1  0  0  0  0
  3  4  1  0  0  0  0
  3 26  1  0  0  0  0
  3 27  1  0  0  0  0
  4 21  1  0  0  0  0
  4  5  1  0  0  0  0
  5  6  2  0  0  0  0
  5  7  1  0  0  0  0
  7  8  1  0  0  0  0
  7 11  1  0  0  0  0
  8  9  1  0  0  0  0
  8 28  1  0  0  0  0
  8 29  1  0  0  0  0
  9 10  2  0  0  0  0
  9 30  1  0  0  0  0
 10 31  1  0  0  0  0
 10 32  1  0  0  0  0
 11 12  2  0  0  0  0
 11 13  1  0  0  0  0
 13 14  1  0  0  0  0
 13 21  1  0  0  0  0
 14 15  1  0  0  0  0
 14 33  1  0  0  0  0
 14 34  1  0  0  0  0
 15 16  2  0  0  0  0
 15 17  1  0  0  0  0
 17 18  1  0  0  0  0
 17 35  1  0  0  0  0
 18 20  1  0  0  0  0
 18 19  1  0  0  0  0
 18 36  1  0  0  0  0
 19 20  1  0  0  0  0
 19 37  1  0  0  0  0
 19 38  1  0  0  0  0
 20 39  1  0  0  0  0
 20 40  1  0  0  0  0
 21 22  2  0  0  0  0
M  END
> <s_m_source_file>
AV-unprocessed.smi

> <i_m_source_file_index>
2676

> <i_lp_mmshare_version>
43012

> <i_f3d_flags>
0

> <s_epik_input>
W0NIMl09W0NIXVtDSDJdbjFjKD1PKW4oW0NIMl1bQ0hdPVtDSDJdKWMoPU8pbihjMT1PKVtDSDJdQyg9TylbTkhdW0NIXTJbQ0gyXVtDSDJdMg==

> <s_epik_cmdline>
J2VwaWtfcHl0aG9uJywgJy1waCcsICc3LjAnLCAnLXRuJywgJzgnLCAnLW1hJywgJzIwMCcsICctbWV0YWxfYmluZGluZycsICctaW1hZScsICc8aW5maWxlLm1hZT4nLCAnLW9tYWUnLCAnPG91dGZpbGUubWFlPic=

> <r_lp_tautomer_probability>
1

> <r_epik_Ionization_Penalty>
2.07961e-08

> <r_epik_Ionization_Penalty_Charging>
1.25795e-10

> <r_epik_Ionization_Penalty_Neutral>
2.06703e-08

> <r_epik_State_Penalty>
-0

> <r_epik_Charging_Adjusted_Penalty>
1.25795e-10

> <i_epik_Tot_Q>
0

> <i_epik_Tot_abs_Q>
0

> <r_epik_Metal_State_Penalty>
-0

> <b_epik_Metal_Only>
0

> <s_lp_Force_Field>
OPLS_2005

> <r_lp_Energy>
27.3169

> <b_lp_Chiralities_Consistent>
1

> <s_lp_Variant>
AV-unprocessed.smi:2676-1

> <Gold.Version>
5.8.1

> <Gold.Id.Protein>
6NUR|6NUR_protein|mol2

> <Gold.PLP.Fitness>
44.3899

> <Gold.PLP.PLP>
-37.5000

> <Gold.PLP.part.hbond>
-3.0000

> <Gold.PLP.part.metal>
0.0000

> <Gold.PLP.part.buried>
-2.9590

> <Gold.PLP.part.nonpolar>
-34.1522

> <Gold.PLP.part.repulsive>
2.2239

> <Gold.PLP.ligand.clash>
0.0000

> <Gold.PLP.ligand.torsion>
0.5794

> <Gold.PLP.Chemscore.Hbond>
2.6500

> <Gold.PLP.Chemscore.CHOScore>
0.0000

> <Gold.PLP.Chemscore.Metal>
0.0000

> <Gold.Chemscore.Hbonds>
donor molecule, donor type, donor heavy atom, donor atom, acceptor molecule, acceptor atom, score
      L1  H    17    35       P1  8028  1.00
      P1  H  7989  7998       L1    12  0.75
      P1  H  7997  8008       L1     6  0.75

> <Gold.PLP.Chemscore.Internal.Correction>
0.0987

> <Gold.Rescore>
     Score         DG    S(hbond)    S(metal)    S(lipo)     H(rot)  DE(clash)    DE(int)     intcor
     11.06     -12.30       1.54        0.00      66.52       2.39       0.38       0.86       ----

> <Gold.Chemscore.Fitness>
11.0559

> <Gold.Chemscore.DG>
-12.3014

> <Gold.Chemscore.ZeroCoef>
-5.4800

> <Gold.Chemscore.Hbond>
1.5439

> <Gold.Chemscore.Metal>
0.0000

> <Gold.Chemscore.Lipo>
66.5206

> <Gold.Chemscore.Internal_Hbond>
0.0000

> <Gold.Chemscore.DEClash>
0.3839

> <Gold.Chemscore.DEInternal>
0.8617

> <Gold.Chemscore.Rot>
2.3899

> <Gold.Chemscore.Internal.Correction>
   9.000000E+99

> <Gold.Chemscore.Hbonds>
donor molecule, donor type, donor heavy atom, donor atom, acceptor molecule, acceptor atom, score
      L1  H    17    35       P1  8028  0.44
      P1  H  7989  7998       L1    12  0.09
      P1  H  7997  8008       L1     6  0.09

> <Gold.Chemscore.Hbond.Weighted>
-5.1566

> <Gold.Chemscore.Metal.Weighted>
-0.0000

> <Gold.Chemscore.Lipo.Weighted>
-7.7829

> <Gold.Chemscore.Internal_Hbond.Weighted>
0.0000

> <Gold.Chemscore.DEClash.Weighted>
0.3839

> <Gold.Chemscore.DEInternal.Weighted>
0.8617

> <Gold.Chemscore.Rot.Weighted>
6.1181

> <Gold.Chemscore.Internal.Correction.Weighted>
   9.000000E+99

> <Gold.Protein.RotatedTorsions>
[ 6907 6896 6895 6894 ] final -138.78 input  -60.11 | X-H torsion
[ 7974 7965 7964 7962 ] final  -69.80 input  175.53 | X-H torsion
[ 8008 7997 7996 7995 ] final -103.47 input   59.86 | X-H torsion
[ 10167 10162 10161 10158 ] final  172.58 input  -65.29 | X-H torsion
[ 10718 10713 10712 10709 ] final   89.24 input   66.30 | X-H torsion
[ 10763 10752 10751 10750 ] final  -83.58 input  -60.55 | X-H torsion
[ 11005 11000 10999 10996 ] final   17.55 input  -57.11 | X-H torsion

> <Gold.Protein.ActiveResidues>
 VAL166  LYS551  ARG553  GLY616  TRP617  ASP618  TYR619  PRO620  LYS621  CYS622 
 ASP623  PHE694  ASN695  SER759  ASP760  ASP761  ALA762  ILE779  LEU786  VAL792 
 PHE793  MET794  SER795  GLU796  ALA797  LYS798  CYS799  TRP800  GLU811  SER814 

> <Gold.Protein.RotatedAtoms>
  151.0393  133.5720  159.2652 H   0  0  0  0  0  0  0  0  0  0  0  0  # atno 6907 bound_to 6896
  151.2772  135.0702  159.9166 H   0  0  0  0  0  0  0  0  0  0  0  0  # atno 6908 bound_to 6896
  152.5361  134.0114  159.7994 H   0  0  0  0  0  0  0  0  0  0  0  0  # atno 6909 bound_to 6896
  145.6991  140.9123  143.0740 H   0  0  0  0  0  0  0  0  0  0  0  0  # atno 7974 bound_to 7965
  154.8714  140.0422  157.1726 H   0  0  0  0  0  0  0  0  0  0  0  0  # atno 8008 bound_to 7997
  154.8735  140.2962  155.5446 H   0  0  0  0  0  0  0  0  0  0  0  0  # atno 8009 bound_to 7997
  156.2999  140.2424  156.3727 H   0  0  0  0  0  0  0  0  0  0  0  0  # atno 8010 bound_to 7997
  139.5081  144.3358  152.0067 H   0  0  0  0  0  0  0  0  0  0  0  0  # atno 10167 bound_to 10162
  157.6954  131.0325  150.3396 H   0  0  0  0  0  0  0  0  0  0  0  0  # atno 10718 bound_to 10713
  154.5894  135.5551  153.7263 H   0  0  0  0  0  0  0  0  0  0  0  0  # atno 10763 bound_to 10752
  153.0111  135.6339  154.1871 H   0  0  0  0  0  0  0  0  0  0  0  0  # atno 10764 bound_to 10752
  154.1812  135.2887  155.3031 H   0  0  0  0  0  0  0  0  0  0  0  0  # atno 10765 bound_to 10752
  140.4347  134.1383  155.7684 H   0  0  0  0  0  0  0  0  0  0  0  0  # atno 11005 bound_to 11000
  144.6974  139.8924  143.7454 LP  0  0  0  0  0  0  0  0  0  0  0  0  # atno 17320 bound_to 7965
  146.0814  139.3801  143.0462 LP  0  0  0  0  0  0  0  0  0  0  0  0  # atno 17321 bound_to 7965
  140.2797  144.3873  150.6123 LP  0  0  0  0  0  0  0  0  0  0  0  0  # atno 17342 bound_to 10162
  140.6027  143.2167  151.7040 LP  0  0  0  0  0  0  0  0  0  0  0  0  # atno 17343 bound_to 10162
  156.3859  130.3889  149.7066 LP  0  0  0  0  0  0  0  0  0  0  0  0  # atno 17370 bound_to 10713
  156.4433  130.7871  151.2893 LP  0  0  0  0  0  0  0  0  0  0  0  0  # atno 17371 bound_to 10713
  141.1731  133.8569  157.1509 LP  0  0  0  0  0  0  0  0  0  0  0  0  # atno 17394 bound_to 11000
  140.0110  134.9988  157.0395 LP  0  0  0  0  0  0  0  0  0  0  0  0  # atno 17395 bound_to 11000

$$$$
