#       Name:                AV-unprocessed.smi:703
#       Creating user name   scv26
#       Creation time:       Fri Mar 27 00:42:33 2020


#       File generated by GOLD software.
#

@<TRIPOS>MOLECULE
AV-unprocessed.smi:703
    41    42     1
SMALL
NO_CHARGES


@<TRIPOS>ATOM
      1 ****        -2.4693  -2.6944   3.1209 C.3            1 S1                 0.0000
      2 ****        -2.9108  -2.0866   1.7828 C.3            1 S1                 0.0000
      3 ****        -1.7725  -1.9101   0.8503 N.4            1 S1                 1.0000
      4 ****        -2.1689  -1.6346  -0.5465 C.3            1 S1                 0.0000
      5 ****        -0.9702  -0.9106  -1.1654 C.3            1 S1                 0.0000
      6 ****        -1.3179  -0.1481  -2.4589 C.3            1 S1                 0.0000
      7 ****        -0.4687  -0.0433   0.0006 C.3            1 S1                 0.0000
      8 ****         0.9491   0.2528  -0.1281 N.pl3          1 S1                -1.0000
      9 ****         1.6349   1.3368   0.8650 S.o2           1 S1                 0.0000
     10 ****         1.0593   2.6838   0.7184 O.2            1 S1                 0.0000
     11 ****         1.7760   0.8152   2.2342 O.2            1 S1                 0.0000
     12 ****         3.3463   1.4126   0.1742 C.3            1 S1                 0.0000
     13 ****         3.3676   2.1938  -1.1113 C.2            1 S1                 0.0000
     14 ****         3.4177   3.6044  -1.2905 C.2            1 S1                 0.0000
     15 ****         3.4174   3.7543  -2.6471 C.2            1 S1                 0.0000
     16 ****         3.3819   2.5438  -3.2593 O.3            1 S1                 0.0000
     17 ****         3.3556   1.5535  -2.2708 N.2            1 S1                 0.0000
     18 ****        -0.7757  -0.8868   1.2510 C.3            1 S1                 0.0000
     19 ****        -3.3282  -2.8547   3.7729 H              1 S1                 0.0000
     20 ****        -1.7738  -2.0423   3.6498 H              1 S1                 0.0000
     21 ****        -1.9804  -3.6578   2.9737 H              1 S1                 0.0000
     22 ****        -3.6412  -2.7518   1.3203 H              1 S1                 0.0000
     23 ****        -3.4124  -1.1310   1.9430 H              1 S1                 0.0000
     24 ****        -2.4076  -2.5590  -1.0737 H              1 S1                 0.0000
     25 ****        -3.0640  -1.0062  -0.5685 H              1 S1                 0.0000
     26 ****        -0.2142  -1.6632  -1.3995 H              1 S1                 0.0000
     27 ****        -2.0926   0.6045  -2.3015 H              1 S1                 0.0000
     28 ****        -1.6874  -0.8368  -3.2189 H              1 S1                 0.0000
     29 ****        -0.4447   0.3540  -2.8794 H              1 S1                 0.0000
     30 ****        -1.0788   0.8604   0.0376 H              1 S1                 0.0000
     31 ****         3.9800   1.8968   0.9166 H              1 S1                 0.0000
     32 ****         3.7165   0.3956   0.0431 H              1 S1                 0.0000
     33 ****         3.4399   4.3815  -0.5409 H              1 S1                 0.0000
     34 ****         3.4404   4.6152  -3.2986 H              1 S1                 0.0000
     35 ****        -1.1397  -0.2474   2.0566 H              1 S1                 0.0000
     36 ****         0.1062  -1.4099   1.6241 H              1 S1                 0.0000
     37 ****        -1.2703  -2.7859   0.8230 H              1 S1                 0.0000
     38 ****         1.4982  -0.2090  -0.8247 LP             1 S1                 0.0000
     39 ****         4.1944   2.4298  -3.8309 LP             1 S1                 0.0000
     40 ****         2.5621   2.4762  -3.8279 LP             1 S1                 0.0000
     41 ****         3.3325   0.5637  -2.4112 LP             1 S1                 0.0000
@<TRIPOS>BOND
    1    1    2 1     
    2    1   19 1     
    3    1   20 1     
    4    1   21 1     
    5    2    3 1     
    6    2   22 1     
    7    2   23 1     
    8    3   18 1     
    9    3    4 1     
   10    3   37 1     
   11    4    5 1     
   12    4   24 1     
   13    4   25 1     
   14    5    6 1     
   15    5    7 1     
   16    5   26 1     
   17    6   27 1     
   18    6   28 1     
   19    6   29 1     
   20    7    8 1     
   21    7   18 1     
   22    7   30 1     
   23    8    9 1     
   24    9   10 2     
   25    9   11 2     
   26    9   12 1     
   27   12   13 1     
   28   12   31 1     
   29   12   32 1     
   30   13   17 2     
   31   13   14 1     
   32   14   15 2     
   33   14   33 1     
   34   15   16 1     
   35   15   34 1     
   36   16   17 1     
   37   18   35 1     
   38   18   36 1     
   39    8   38 1     
   40   16   39 1     
   41   16   40 1     
   42   17   41 1     
@<TRIPOS>SUBSTRUCTURE
      1 S1             1
@<TRIPOS>SET
LONE_PAIRS      STATIC     ATOMS    <user>   **** ""
6 38 10 11 39 40 41
DONOR_HYDROGENS      STATIC     ATOMS    <user>   **** ""
1 37
ATOM$BLUE        STATIC     ATOMS    COLORGROUP SYSTEM
6 38 10 11 39 40 41
ATOM$RED        STATIC     ATOMS    COLORGROUP SYSTEM
1 37
