AV-unprocessed.smi:479|AV-procd|sdf|2675|dock1
  -GOLD-   2262023 93D 1   1.00000     0.00000
 Structure written by MMmdl.
 46 48  0  0  0  0  0  0  0  0  2 V2000
  148.0822  135.2680  159.3777 C   0  0  0  0  0  0  0  0  0  0  0  0
  149.2586  135.6525  158.6812 O   0  0  0  0  0  0  0  0  0  0  0  0
  149.4234  135.2233  157.3797 C   0  0  0  0  0  0  0  0  0  0  0  0
  148.6811  134.1618  156.8014 C   0  0  0  0  0  0  0  0  0  0  0  0
  148.8979  133.7671  155.4607 C   0  0  0  0  0  0  0  0  0  0  0  0
  148.1280  132.6557  154.8312 C   0  0  0  0  0  0  0  0  0  0  0  0
  148.4542  132.2879  153.3844 C   0  0  0  0  0  0  0  0  0  0  0  0
  147.2500  132.0225  155.4165 O   0  0  0  0  0  0  0  0  0  0  0  0
  149.8737  134.4469  154.7016 C   0  0  0  0  0  0  0  0  0  0  0  0
  150.6131  135.5014  155.2652 C   0  0  0  0  0  0  0  0  0  0  0  0
  150.3913  135.9007  156.6053 C   0  0  0  0  0  0  0  0  0  0  0  0
  151.0736  136.9299  157.2199 O   0  0  0  0  0  0  0  0  0  0  0  0
  152.2854  137.3878  156.6355 C   0  0  0  0  0  0  0  0  0  0  0  0
  152.6247  138.7643  157.2258 C   0  0  1  0  0  0  0  0  0  0  0  0
  153.0290  139.6171  156.1731 O   0  0  0  0  0  0  0  0  0  0  0  0
  151.4320  139.3834  157.9817 C   0  0  0  0  0  0  0  0  0  0  0  0
  151.1771  140.7800  157.6023 N   0  0  0  0  0  0  0  0  0  0  0  0
  150.4764  141.2761  156.5471 C   0  0  0  0  0  0  0  0  0  0  0  0
  150.5315  142.6349  156.6183 N   0  3  0  0  0  0  0  0  0  0  0  0
  151.2772  143.0133  157.7366 C   0  0  0  0  0  0  0  0  0  0  0  0
  151.6104  144.2731  158.2250 C   0  0  0  0  0  0  0  0  0  0  0  0
  152.3890  144.3109  159.4005 C   0  0  0  0  0  0  0  0  0  0  0  0
  152.8043  143.1273  160.0447 C   0  0  0  0  0  0  0  0  0  0  0  0
  152.4613  141.8555  159.5403 C   0  0  0  0  0  0  0  0  0  0  0  0
  151.6938  141.8262  158.3759 C   0  0  0  0  0  0  0  0  0  0  0  0
  148.1155  135.6724  160.3892 H   0  0  0  0  0  0  0  0  0  0  0  0
  148.0024  134.1832  159.4604 H   0  0  0  0  0  0  0  0  0  0  0  0
  147.1874  135.6626  158.8946 H   0  0  0  0  0  0  0  0  0  0  0  0
  147.9388  133.6450  157.3885 H   0  0  0  0  0  0  0  0  0  0  0  0
  149.4984  131.9892  153.2917 H   0  0  0  0  0  0  0  0  0  0  0  0
  148.2696  133.1349  152.7235 H   0  0  0  0  0  0  0  0  0  0  0  0
  147.8320  131.4562  153.0529 H   0  0  0  0  0  0  0  0  0  0  0  0
  150.0665  134.1681  153.6756 H   0  0  0  0  0  0  0  0  0  0  0  0
  151.3486  135.9889  154.6438 H   0  0  0  0  0  0  0  0  0  0  0  0
  153.0838  136.6787  156.8609 H   0  0  0  0  0  0  0  0  0  0  0  0
  152.1928  137.4630  155.5506 H   0  0  0  0  0  0  0  0  0  0  0  0
  153.4714  138.6610  157.9057 H   0  0  0  0  0  0  0  0  0  0  0  0
  152.5901  139.3455  155.3814 H   0  0  0  0  0  0  0  0  0  0  0  0
  150.5239  138.7975  157.8393 H   0  0  0  0  0  0  0  0  0  0  0  0
  151.6296  139.3789  159.0543 H   0  0  0  0  0  0  0  0  0  0  0  0
  149.9707  140.6959  155.7886 H   0  0  0  0  0  0  0  0  0  0  0  0
  151.2920  145.1812  157.7344 H   0  0  0  0  0  0  0  0  0  0  0  0
  152.6720  145.2666  159.8175 H   0  0  0  0  0  0  0  0  0  0  0  0
  153.3976  143.1954  160.9452 H   0  0  0  0  0  0  0  0  0  0  0  0
  152.7803  140.9561  160.0454 H   0  0  0  0  0  0  0  0  0  0  0  0
  150.0923  143.2557  155.9507 H   0  0  0  0  0  0  0  0  0  0  0  0
  1  2  1  0  0  0  0
  1 26  1  0  0  0  0
  1 27  1  0  0  0  0
  1 28  1  0  0  0  0
  2  3  1  0  0  0  0
  3 11  1  0  0  0  0
  3  4  2  0  0  0  0
  4  5  1  0  0  0  0
  4 29  1  0  0  0  0
  5  6  1  0  0  0  0
  5  9  2  0  0  0  0
  6  7  1  0  0  0  0
  6  8  2  0  0  0  0
  7 30  1  0  0  0  0
  7 31  1  0  0  0  0
  7 32  1  0  0  0  0
  9 10  1  0  0  0  0
  9 33  1  0  0  0  0
 10 11  2  0  0  0  0
 10 34  1  0  0  0  0
 11 12  1  0  0  0  0
 12 13  1  0  0  0  0
 13 14  1  0  0  0  0
 13 35  1  0  0  0  0
 13 36  1  0  0  0  0
 14 15  1  0  0  0  0
 14 16  1  0  0  0  0
 14 37  1  0  0  0  0
 15 38  1  0  0  0  0
 16 17  1  0  0  0  0
 16 39  1  0  0  0  0
 16 40  1  0  0  0  0
 17 25  1  0  0  0  0
 17 18  1  0  0  0  0
 18 19  2  0  0  0  0
 18 41  1  0  0  0  0
 19 20  1  0  0  0  0
 19 46  1  0  0  0  0
 20 25  2  0  0  0  0
 20 21  1  0  0  0  0
 21 22  2  0  0  0  0
 21 42  1  0  0  0  0
 22 23  1  0  0  0  0
 22 43  1  0  0  0  0
 23 24  2  0  0  0  0
 23 44  1  0  0  0  0
 24 25  1  0  0  0  0
 24 45  1  0  0  0  0
M  CHG  1  19   1
M  END
> <s_m_source_file>
AV-unprocessed.smi

> <i_m_source_file_index>
479

> <i_lp_mmshare_version>
43012

> <i_f3d_flags>
0

> <s_epik_input>
W0NIM11PYzFbY0hdYyhDKD1PKVtDSDNdKVtjSF1bY0hdYzFPW0NIMl1bQ0BIXShbT0hdKVtDSDJdbihbY0hdbjIpYyhjMjMpW2NIXVtjSF1bY0hdW2NIXTM=

> <s_epik_cmdline>
J2VwaWtfcHl0aG9uJywgJy1waCcsICc3LjAnLCAnLXRuJywgJzgnLCAnLW1hJywgJzIwMCcsICctbWV0YWxfYmluZGluZycsICctaW1hZScsICc8aW5maWxlLm1hZT4nLCAnLW9tYWUnLCAnPG91dGZpbGUubWFlPic=

> <r_lp_tautomer_probability>
0.99995

> <r_epik_Ionization_Penalty>
1.37698

> <r_epik_Ionization_Penalty_Charging>
1.37698

> <r_epik_Ionization_Penalty_Neutral>
2.3993e-06

> <r_epik_State_Penalty>
1.45717

> <r_epik_Charging_Adjusted_Penalty>
2.83415

> <i_epik_Tot_Q>
1

> <i_epik_Tot_abs_Q>
1

> <r_epik_Metal_State_Penalty>
5.49703

> <b_epik_Metal_Only>
0

> <s_lp_Force_Field>
OPLS_2005

> <r_lp_Energy>
29.5876

> <b_lp_Chiralities_Consistent>
1

> <s_lp_Variant>
AV-unprocessed.smi:479-4

> <Gold.Version>
5.8.1

> <Gold.Id.Protein>
6NUR|6NUR_protein|mol2

> <Gold.PLP.Fitness>
49.8559

> <Gold.PLP.PLP>
-41.9000

> <Gold.PLP.part.hbond>
-2.9080

> <Gold.PLP.part.metal>
0.0000

> <Gold.PLP.part.buried>
-5.1265

> <Gold.PLP.part.nonpolar>
-35.0381

> <Gold.PLP.part.repulsive>
0.1064

> <Gold.PLP.ligand.clash>
0.0000

> <Gold.PLP.ligand.torsion>
2.1786

> <Gold.PLP.Chemscore.Hbond>
4.0000

> <Gold.PLP.Chemscore.CHOScore>
0.0000

> <Gold.PLP.Chemscore.Metal>
0.0000

> <Gold.Chemscore.Hbonds>
donor molecule, donor type, donor heavy atom, donor atom, acceptor molecule, acceptor atom, score
      L1  H    19    46       P1  8028  1.89
      P1  H  6896  6907       L1     2  0.80
      P1  H  7997  8009       L1    15  0.86

> <Gold.PLP.Chemscore.Internal.Correction>
0.3132

> <Gold.Rescore>
     Score         DG    S(hbond)    S(metal)    S(lipo)     H(rot)  DE(clash)    DE(int)     intcor
     16.74     -18.68       1.91        0.00     118.47       2.75       0.04       1.90       ----

> <Gold.Chemscore.Fitness>
16.7448

> <Gold.Chemscore.DG>
-18.6833

> <Gold.Chemscore.ZeroCoef>
-5.4800

> <Gold.Chemscore.Hbond>
1.9100

> <Gold.Chemscore.Metal>
0.0000

> <Gold.Chemscore.Lipo>
118.4673

> <Gold.Chemscore.Internal_Hbond>
0.0000

> <Gold.Chemscore.DEClash>
0.0421

> <Gold.Chemscore.DEInternal>
1.8964

> <Gold.Chemscore.Rot>
2.7487

> <Gold.Chemscore.Internal.Correction>
   9.000000E+99

> <Gold.Chemscore.Hbonds>
donor molecule, donor type, donor heavy atom, donor atom, acceptor molecule, acceptor atom, score
      L1  H    19    46       P1  8028  0.91
      P1  H  6896  6907       L1     2  0.04
      P1  H  7997  8009       L1    15  0.76

> <Gold.Chemscore.Hbond.Weighted>
-6.3794

> <Gold.Chemscore.Metal.Weighted>
-0.0000

> <Gold.Chemscore.Lipo.Weighted>
-13.8607

> <Gold.Chemscore.Internal_Hbond.Weighted>
0.0000

> <Gold.Chemscore.DEClash.Weighted>
0.0421

> <Gold.Chemscore.DEInternal.Weighted>
1.8964

> <Gold.Chemscore.Rot.Weighted>
7.0368

> <Gold.Chemscore.Internal.Correction.Weighted>
   9.000000E+99

> <Gold.Protein.RotatedTorsions>
[ 6907 6896 6895 6894 ] final  -81.54 input  -60.11 | X-H torsion
[ 7974 7965 7964 7962 ] final  139.48 input  175.53 | X-H torsion
[ 8008 7997 7996 7995 ] final -143.49 input   59.86 | X-H torsion
[ 10167 10162 10161 10158 ] final  -19.63 input  -65.29 | X-H torsion
[ 10718 10713 10712 10709 ] final  -28.02 input   66.30 | X-H torsion
[ 10763 10752 10751 10750 ] final  114.31 input  -60.55 | X-H torsion
[ 11005 11000 10999 10996 ] final -126.95 input  -57.11 | X-H torsion

> <Gold.Protein.ActiveResidues>
 VAL166  LYS551  ARG553  GLY616  TRP617  ASP618  TYR619  PRO620  LYS621  CYS622 
 ASP623  PHE694  ASN695  SER759  ASP760  ASP761  ALA762  ILE779  LEU786  VAL792 
 PHE793  MET794  SER795  GLU796  ALA797  LYS798  CYS799  TRP800  GLU811  SER814 

> <Gold.Protein.RotatedAtoms>
  150.6910  134.3801  159.5030 H   0  0  0  0  0  0  0  0  0  0  0  0  # atno 6907 bound_to 6896
  152.1605  134.8913  160.0551 H   0  0  0  0  0  0  0  0  0  0  0  0  # atno 6908 bound_to 6896
  151.9977  133.3779  159.4206 H   0  0  0  0  0  0  0  0  0  0  0  0  # atno 6909 bound_to 6896
  144.9274  139.5090  143.5634 H   0  0  0  0  0  0  0  0  0  0  0  0  # atno 7974 bound_to 7965
  155.5115  140.0584  157.2922 H   0  0  0  0  0  0  0  0  0  0  0  0  # atno 8008 bound_to 7997
  154.4550  140.1968  156.0354 H   0  0  0  0  0  0  0  0  0  0  0  0  # atno 8009 bound_to 7997
  156.0781  140.3251  155.7663 H   0  0  0  0  0  0  0  0  0  0  0  0  # atno 8010 bound_to 7997
  140.7270  143.4800  151.0130 H   0  0  0  0  0  0  0  0  0  0  0  0  # atno 10167 bound_to 10162
  156.4306  130.4444  149.7120 H   0  0  0  0  0  0  0  0  0  0  0  0  # atno 10718 bound_to 10713
  153.5053  135.3629  155.2560 H   0  0  0  0  0  0  0  0  0  0  0  0  # atno 10763 bound_to 10752
  154.8745  135.4010  154.3431 H   0  0  0  0  0  0  0  0  0  0  0  0  # atno 10764 bound_to 10752
  153.4074  135.7077  153.6449 H   0  0  0  0  0  0  0  0  0  0  0  0  # atno 10765 bound_to 10752
  140.9639  134.0898  157.3940 H   0  0  0  0  0  0  0  0  0  0  0  0  # atno 11005 bound_to 11000
  146.3232  139.8200  142.8929 LP  0  0  0  0  0  0  0  0  0  0  0  0  # atno 17320 bound_to 7965
  145.3196  141.0240  143.3508 LP  0  0  0  0  0  0  0  0  0  0  0  0  # atno 17321 bound_to 7965
  139.8498  143.7453  152.3178 LP  0  0  0  0  0  0  0  0  0  0  0  0  # atno 17342 bound_to 10162
  139.7631  144.7500  151.0334 LP  0  0  0  0  0  0  0  0  0  0  0  0  # atno 17343 bound_to 10162
  156.4024  130.7681  151.2690 LP  0  0  0  0  0  0  0  0  0  0  0  0  # atno 17370 bound_to 10713
  157.7508  131.0236  150.3840 LP  0  0  0  0  0  0  0  0  0  0  0  0  # atno 17371 bound_to 10713
  139.8887  135.0100  156.6639 LP  0  0  0  0  0  0  0  0  0  0  0  0  # atno 17394 bound_to 11000
  140.7428  133.8964  155.8290 LP  0  0  0  0  0  0  0  0  0  0  0  0  # atno 17395 bound_to 11000

$$$$
