AV-unprocessed.smi:183|AV-procd|sdf|1458|dock4
  -GOLD-   2262019263D 1   1.00000     0.00000
 Structure written by MMmdl.
 55 57  0  0  0  0  0  0  0  0  1 V2000
  151.6988  145.5187  160.0827 C   0  0  0  0  0  0  0  0  0  0  0  0
  151.5846  144.4436  159.0077 C   0  0  0  0  0  0  0  0  0  0  0  0
  152.5466  144.1939  158.2809 O   0  0  0  0  0  0  0  0  0  0  0  0
  150.4023  143.8128  158.9212 N   0  0  0  0  0  0  0  0  0  0  0  0
  150.1009  142.7484  157.9716 C   0  0  0  0  0  0  0  0  0  0  0  0
  151.0231  141.5272  158.1814 C   0  0  0  0  0  0  0  0  0  0  0  0
  150.6486  140.3588  157.3772 N   0  0  0  0  0  0  0  0  0  0  0  0
  150.5896  139.2446  158.1500 C   0  0  0  0  0  0  0  0  0  0  0  0
  151.7204  138.8980  158.8160 N   0  0  0  0  0  0  0  0  0  0  0  0
  151.7565  137.7778  159.5428 C   0  0  0  0  0  0  0  0  0  0  0  0
  150.7970  136.8688  159.7225 N   0  0  0  0  0  0  0  0  0  0  0  0
  149.6599  137.2100  159.0513 C   0  0  0  0  0  0  0  0  0  0  0  0
  149.4633  138.3780  158.2619 C   0  0  0  0  0  0  0  0  0  0  0  0
  148.1728  138.3826  157.7441 N   0  0  0  0  0  0  0  0  0  0  0  0
  147.6439  137.2772  158.1901 C   0  0  0  0  0  0  0  0  0  0  0  0
  148.4775  136.4975  158.9586 N   0  0  0  0  0  0  0  0  0  0  0  0
  148.1625  135.2076  159.5505 C   0  0  0  0  0  0  0  0  0  0  0  0
  147.2006  135.2702  160.7665 C   0  0  2  0  0  0  0  0  0  0  0  0
  145.8958  135.4096  160.2304 O   0  0  0  0  0  0  0  0  0  0  0  0
  147.4544  136.4144  161.7386 C   0  0  0  0  0  0  0  0  0  0  0  0
  146.7251  135.9572  162.9980 C   0  0  0  0  0  0  0  0  0  0  0  0
  146.7998  134.5353  162.9931 O   0  0  0  0  0  0  0  0  0  0  0  0
  147.2540  134.0621  161.7269 C   0  0  1  0  0  0  0  0  0  0  0  0
  146.4847  132.8057  161.2914 C   0  0  0  0  0  0  0  0  0  0  0  0
  151.1405  140.2268  155.9956 C   0  0  0  0  0  0  0  0  0  0  0  0
  150.2903  139.2337  155.1812 C   0  0  0  0  0  0  0  0  0  0  0  0
  152.6169  139.7773  155.9362 C   0  0  0  0  0  0  0  0  0  0  0  0
  151.5446  145.0860  161.0715 H   0  0  0  0  0  0  0  0  0  0  0  0
  150.9522  146.2971  159.9246 H   0  0  0  0  0  0  0  0  0  0  0  0
  152.6857  145.9822  160.0633 H   0  0  0  0  0  0  0  0  0  0  0  0
  149.6674  144.0829  159.5589 H   0  0  0  0  0  0  0  0  0  0  0  0
  149.0589  142.4511  158.0888 H   0  0  0  0  0  0  0  0  0  0  0  0
  150.1802  143.1507  156.9624 H   0  0  0  0  0  0  0  0  0  0  0  0
  152.0540  141.8001  157.9496 H   0  0  0  0  0  0  0  0  0  0  0  0
  151.0469  141.2563  159.2367 H   0  0  0  0  0  0  0  0  0  0  0  0
  152.6927  137.5742  160.0411 H   0  0  0  0  0  0  0  0  0  0  0  0
  146.6314  136.9869  157.9503 H   0  0  0  0  0  0  0  0  0  0  0  0
  147.7365  134.5741  158.7713 H   0  0  0  0  0  0  0  0  0  0  0  0
  149.1018  134.7359  159.8428 H   0  0  0  0  0  0  0  0  0  0  0  0
  145.3166  135.6821  160.9258 H   0  0  0  0  0  0  0  0  0  0  0  0
  148.5149  136.4992  161.9724 H   0  0  0  0  0  0  0  0  0  0  0  0
  147.1157  137.3846  161.3734 H   0  0  0  0  0  0  0  0  0  0  0  0
  147.1602  136.3758  163.9057 H   0  0  0  0  0  0  0  0  0  0  0  0
  145.6754  136.2507  162.9598 H   0  0  0  0  0  0  0  0  0  0  0  0
  148.2929  133.7832  161.8967 H   0  0  0  0  0  0  0  0  0  0  0  0
  146.8324  132.4508  160.3211 H   0  0  0  0  0  0  0  0  0  0  0  0
  145.4130  132.9925  161.2187 H   0  0  0  0  0  0  0  0  0  0  0  0
  146.6274  131.9985  162.0098 H   0  0  0  0  0  0  0  0  0  0  0  0
  151.0599  141.1986  155.5091 H   0  0  0  0  0  0  0  0  0  0  0  0
  150.6899  139.1108  154.1742 H   0  0  0  0  0  0  0  0  0  0  0  0
  149.2614  139.5747  155.0690 H   0  0  0  0  0  0  0  0  0  0  0  0
  150.2706  138.2499  155.6513 H   0  0  0  0  0  0  0  0  0  0  0  0
  152.9452  139.6545  154.9038 H   0  0  0  0  0  0  0  0  0  0  0  0
  152.7588  138.8220  156.4424 H   0  0  0  0  0  0  0  0  0  0  0  0
  153.2938  140.4981  156.3936 H   0  0  0  0  0  0  0  0  0  0  0  0
  1  2  1  0  0  0  0
  1 28  1  0  0  0  0
  1 29  1  0  0  0  0
  1 30  1  0  0  0  0
  2  3  2  0  0  0  0
  2  4  1  0  0  0  0
  4  5  1  0  0  0  0
  4 31  1  0  0  0  0
  5  6  1  0  0  0  0
  5 32  1  0  0  0  0
  5 33  1  0  0  0  0
  6  7  1  0  0  0  0
  6 34  1  0  0  0  0
  6 35  1  0  0  0  0
  7  8  1  0  0  0  0
  7 25  1  0  0  0  0
  8 13  1  0  0  0  0
  8  9  2  0  0  0  0
  9 10  1  0  0  0  0
 10 11  2  0  0  0  0
 10 36  1  0  0  0  0
 11 12  1  0  0  0  0
 12 16  1  0  0  0  0
 12 13  2  0  0  0  0
 13 14  1  0  0  0  0
 14 15  2  0  0  0  0
 15 16  1  0  0  0  0
 15 37  1  0  0  0  0
 16 17  1  0  0  0  0
 17 18  1  0  0  0  0
 17 38  1  0  0  0  0
 17 39  1  0  0  0  0
 18 23  1  0  0  0  0
 18 19  1  0  0  0  0
 18 20  1  0  0  0  0
 19 40  1  0  0  0  0
 20 21  1  0  0  0  0
 20 41  1  0  0  0  0
 20 42  1  0  0  0  0
 21 22  1  0  0  0  0
 21 43  1  0  0  0  0
 21 44  1  0  0  0  0
 22 23  1  0  0  0  0
 23 24  1  0  0  0  0
 23 45  1  0  0  0  0
 24 46  1  0  0  0  0
 24 47  1  0  0  0  0
 24 48  1  0  0  0  0
 25 26  1  0  0  0  0
 25 27  1  0  0  0  0
 25 49  1  0  0  0  0
 26 50  1  0  0  0  0
 26 51  1  0  0  0  0
 26 52  1  0  0  0  0
 27 53  1  0  0  0  0
 27 54  1  0  0  0  0
 27 55  1  0  0  0  0
M  END
> <s_m_source_file>
AV-unprocessed.smi

> <i_m_source_file_index>
183

> <i_lp_mmshare_version>
43012

> <i_f3d_flags>
0

> <s_epik_input>
W0NIM11DKD1PKVtOSF1bQ0gyXVtDSDJdTihbQ0hdKFtDSDNdKVtDSDNdKWMobltjSF1uMSljKGMxMiluW2NIXW4yW0NIMl1bQ0BAXTMoW09IXSlbQ0gyXVtDSDJdT1tDQEhdM1tDSDNd

> <s_epik_cmdline>
J2VwaWtfcHl0aG9uJywgJy1waCcsICc3LjAnLCAnLXRuJywgJzgnLCAnLW1hJywgJzIwMCcsICctbWV0YWxfYmluZGluZycsICctaW1hZScsICc8aW5maWxlLm1hZT4nLCAnLW9tYWUnLCAnPG91dGZpbGUubWFlPic=

> <r_lp_tautomer_probability>
1

> <r_epik_Ionization_Penalty>
0.00156158

> <r_epik_Ionization_Penalty_Charging>
0

> <r_epik_Ionization_Penalty_Neutral>
0.00156158

> <r_epik_State_Penalty>
0.000865808

> <r_epik_Charging_Adjusted_Penalty>
0.000865808

> <i_epik_Tot_Q>
0

> <i_epik_Tot_abs_Q>
0

> <r_epik_Metal_State_Penalty>
-0

> <b_epik_Metal_Only>
0

> <s_lp_Force_Field>
OPLS_2005

> <r_lp_Energy>
32.608

> <b_lp_Chiralities_Consistent>
1

> <s_lp_Variant>
AV-unprocessed.smi:183-2

> <Gold.Version>
5.8.1

> <Gold.Id.Protein>
6NUR|6NUR_protein|mol2

> <Gold.PLP.Fitness>
48.5819

> <Gold.PLP.PLP>
-47.3744

> <Gold.PLP.part.hbond>
-2.3045

> <Gold.PLP.part.metal>
0.0000

> <Gold.PLP.part.buried>
-5.9208

> <Gold.PLP.part.nonpolar>
-37.9690

> <Gold.PLP.part.repulsive>
0.1470

> <Gold.PLP.ligand.clash>
0.0000

> <Gold.PLP.ligand.torsion>
1.4983

> <Gold.PLP.Chemscore.Hbond>
1.0000

> <Gold.PLP.Chemscore.CHOScore>
0.0000

> <Gold.PLP.Chemscore.Metal>
0.0000

> <Gold.Chemscore.Hbonds>
donor molecule, donor type, donor heavy atom, donor atom, acceptor molecule, acceptor atom, score
      P1  H  6896  6908       L1    11  1.00

> <Gold.PLP.Chemscore.Internal.Correction>
1.2042

> <Gold.Rescore>
     Score         DG    S(hbond)    S(metal)    S(lipo)     H(rot)  DE(clash)    DE(int)     intcor
      8.69      -9.86       0.95        0.00      85.62       3.45       0.01       1.16       ----

> <Gold.Chemscore.Fitness>
8.6874

> <Gold.Chemscore.DG>
-9.8600

> <Gold.Chemscore.ZeroCoef>
-5.4800

> <Gold.Chemscore.Hbond>
0.9526

> <Gold.Chemscore.Metal>
0.0000

> <Gold.Chemscore.Lipo>
85.6220

> <Gold.Chemscore.Internal_Hbond>
0.0000

> <Gold.Chemscore.DEClash>
0.0076

> <Gold.Chemscore.DEInternal>
1.1649

> <Gold.Chemscore.Rot>
3.4451

> <Gold.Chemscore.Internal.Correction>
   9.000000E+99

> <Gold.Chemscore.Hbonds>
donor molecule, donor type, donor heavy atom, donor atom, acceptor molecule, acceptor atom, score
      P1  H  6896  6908       L1    11  0.76

> <Gold.Chemscore.Hbond.Weighted>
-3.1816

> <Gold.Chemscore.Metal.Weighted>
-0.0000

> <Gold.Chemscore.Lipo.Weighted>
-10.0178

> <Gold.Chemscore.Internal_Hbond.Weighted>
0.0000

> <Gold.Chemscore.DEClash.Weighted>
0.0076

> <Gold.Chemscore.DEInternal.Weighted>
1.1649

> <Gold.Chemscore.Rot.Weighted>
8.8194

> <Gold.Chemscore.Internal.Correction.Weighted>
   9.000000E+99

> <Gold.Protein.RotatedTorsions>
[ 6907 6896 6895 6894 ] final -157.67 input  -60.11 | X-H torsion
[ 7974 7965 7964 7962 ] final -147.57 input  175.53 | X-H torsion
[ 8008 7997 7996 7995 ] final -115.55 input   59.86 | X-H torsion
[ 10167 10162 10161 10158 ] final   68.40 input  -65.29 | X-H torsion
[ 10718 10713 10712 10709 ] final  -56.38 input   66.30 | X-H torsion
[ 10763 10752 10751 10750 ] final -119.20 input  -60.55 | X-H torsion
[ 11005 11000 10999 10996 ] final -118.34 input  -57.11 | X-H torsion

> <Gold.Protein.ActiveResidues>
 VAL166  LYS551  ARG553  GLY616  TRP617  ASP618  TYR619  PRO620  LYS621  CYS622 
 ASP623  PHE694  ASN695  SER759  ASP760  ASP761  ALA762  ILE779  LEU786  VAL792 
 PHE793  MET794  SER795  GLU796  ALA797  LYS798  CYS799  TRP800  GLU811  SER814 

> <Gold.Protein.RotatedAtoms>
  151.3064  133.4099  159.2643 H   0  0  0  0  0  0  0  0  0  0  0  0  # atno 6907 bound_to 6896
  151.0151  134.9427  159.8039 H   0  0  0  0  0  0  0  0  0  0  0  0  # atno 6908 bound_to 6896
  152.5310  134.3028  159.9137 H   0  0  0  0  0  0  0  0  0  0  0  0  # atno 6909 bound_to 6896
  144.8085  140.5310  143.5659 H   0  0  0  0  0  0  0  0  0  0  0  0  # atno 7974 bound_to 7965
  155.0538  140.0393  157.2553 H   0  0  0  0  0  0  0  0  0  0  0  0  # atno 8008 bound_to 7997
  154.7115  140.2693  155.6600 H   0  0  0  0  0  0  0  0  0  0  0  0  # atno 8009 bound_to 7997
  156.2791  140.2720  156.1758 H   0  0  0  0  0  0  0  0  0  0  0  0  # atno 8010 bound_to 7997
  140.0791  144.5087  150.7174 H   0  0  0  0  0  0  0  0  0  0  0  0  # atno 10167 bound_to 10162
  156.1293  130.4160  150.0297 H   0  0  0  0  0  0  0  0  0  0  0  0  # atno 10718 bound_to 10713
  154.8610  135.4247  154.2261 H   0  0  0  0  0  0  0  0  0  0  0  0  # atno 10763 bound_to 10752
  153.3256  135.6985  153.6998 H   0  0  0  0  0  0  0  0  0  0  0  0  # atno 10764 bound_to 10752
  153.6035  135.3532  155.2927 H   0  0  0  0  0  0  0  0  0  0  0  0  # atno 10765 bound_to 10752
  141.0293  134.0006  157.3168 H   0  0  0  0  0  0  0  0  0  0  0  0  # atno 11005 bound_to 11000
  145.5381  139.1475  143.3462 LP  0  0  0  0  0  0  0  0  0  0  0  0  # atno 17320 bound_to 7965
  146.2380  140.5521  142.8946 LP  0  0  0  0  0  0  0  0  0  0  0  0  # atno 17321 bound_to 7965
  140.7087  143.2488  151.4648 LP  0  0  0  0  0  0  0  0  0  0  0  0  # atno 17342 bound_to 10162
  139.5790  144.1752  152.1943 LP  0  0  0  0  0  0  0  0  0  0  0  0  # atno 17343 bound_to 10162
  156.8214  130.9360  151.3641 LP  0  0  0  0  0  0  0  0  0  0  0  0  # atno 17370 bound_to 10713
  157.6472  130.8854  149.9562 LP  0  0  0  0  0  0  0  0  0  0  0  0  # atno 17371 bound_to 10713
  139.9197  135.0199  156.8016 LP  0  0  0  0  0  0  0  0  0  0  0  0  # atno 17394 bound_to 11000
  140.6436  133.9796  155.7719 LP  0  0  0  0  0  0  0  0  0  0  0  0  # atno 17395 bound_to 11000

$$$$
