AV-unprocessed.smi:765|AV-procd|sdf|3647|dock4
  -GOLD-   22720 1 53D 1   1.00000     0.00000
 Structure written by MMmdl.
 39 40  0  0  0  0  0  0  0  0  1 V2000
  147.5626  139.5129  157.0948 C   0  0  0  0  0  0  0  0  0  0  0  0
  149.0597  139.8106  157.2592 C   0  0  2  0  0  0  0  0  0  0  0  0
  149.7140  140.1593  155.9100 C   0  0  0  0  0  0  0  0  0  0  0  0
  151.2177  140.4306  156.0611 C   0  0  0  0  0  0  0  0  0  0  0  0
  151.9286  139.2412  156.7297 C   0  0  0  0  0  0  0  0  0  0  0  0
  151.3128  138.8810  158.1047 C   0  0  1  0  0  0  0  0  0  0  0  0
  151.9341  137.6488  158.6261 C   0  0  0  0  0  0  0  0  0  0  0  0
  152.4228  136.6832  159.0356 N   0  0  0  0  0  0  0  0  0  0  0  0
  151.4825  139.9857  159.0528 N   0  0  0  0  0  0  0  0  0  0  0  0
  152.6182  140.6398  159.3487 C   0  0  0  0  0  0  0  0  0  0  0  0
  153.7207  140.3133  158.9089 O   0  0  0  0  0  0  0  0  0  0  0  0
  152.4628  141.8644  160.2644 C   0  0  1  0  0  0  0  0  0  0  0  0
  153.7140  142.1403  161.1234 C   0  0  0  0  0  0  0  0  0  0  0  0
  152.0691  143.0273  159.4753 N   0  0  0  0  0  0  0  0  0  0  0  0
  152.8602  143.7996  158.6483 C   0  0  0  0  0  0  0  0  0  0  0  0
  152.0833  144.8126  158.1641 C   0  0  0  0  0  0  0  0  0  0  0  0
  150.8156  144.5834  158.7667 C   0  0  0  0  0  0  0  0  0  0  0  0
  150.8120  143.5227  159.5565 N   0  0  0  0  0  0  0  0  0  0  0  0
  149.7981  138.6294  157.9266 C   0  0  0  0  0  0  0  0  0  0  0  0
  147.3978  138.6546  156.4425 H   0  0  0  0  0  0  0  0  0  0  0  0
  147.0379  140.3651  156.6620 H   0  0  0  0  0  0  0  0  0  0  0  0
  147.0975  139.2937  158.0563 H   0  0  0  0  0  0  0  0  0  0  0  0
  149.1448  140.6827  157.9089 H   0  0  0  0  0  0  0  0  0  0  0  0
  149.5645  139.3395  155.2061 H   0  0  0  0  0  0  0  0  0  0  0  0
  149.2277  141.0324  155.4734 H   0  0  0  0  0  0  0  0  0  0  0  0
  151.6582  140.6214  155.0820 H   0  0  0  0  0  0  0  0  0  0  0  0
  151.3730  141.3370  156.6474 H   0  0  0  0  0  0  0  0  0  0  0  0
  151.8623  138.3752  156.0693 H   0  0  0  0  0  0  0  0  0  0  0  0
  152.9932  139.4564  156.8248 H   0  0  0  0  0  0  0  0  0  0  0  0
  150.6347  140.3289  159.4799 H   0  0  0  0  0  0  0  0  0  0  0  0
  151.6420  141.6484  160.9502 H   0  0  0  0  0  0  0  0  0  0  0  0
  153.9517  141.2856  161.7576 H   0  0  0  0  0  0  0  0  0  0  0  0
  153.5533  142.9969  161.7789 H   0  0  0  0  0  0  0  0  0  0  0  0
  154.5927  142.3530  160.5128 H   0  0  0  0  0  0  0  0  0  0  0  0
  153.9015  143.5693  158.4781 H   0  0  0  0  0  0  0  0  0  0  0  0
  152.3771  145.6010  157.4873 H   0  0  0  0  0  0  0  0  0  0  0  0
  149.9059  145.1556  158.6598 H   0  0  0  0  0  0  0  0  0  0  0  0
  149.3452  138.4106  158.8949 H   0  0  0  0  0  0  0  0  0  0  0  0
  149.6545  137.7329  157.3208 H   0  0  0  0  0  0  0  0  0  0  0  0
  1  2  1  0  0  0  0
  1 20  1  0  0  0  0
  1 21  1  0  0  0  0
  1 22  1  0  0  0  0
  2 19  1  0  0  0  0
  2  3  1  0  0  0  0
  2 23  1  0  0  0  0
  3  4  1  0  0  0  0
  3 24  1  0  0  0  0
  3 25  1  0  0  0  0
  4  5  1  0  0  0  0
  4 26  1  0  0  0  0
  4 27  1  0  0  0  0
  5  6  1  0  0  0  0
  5 28  1  0  0  0  0
  5 29  1  0  0  0  0
  6  7  1  0  0  0  0
  6  9  1  0  0  0  0
  6 19  1  0  0  0  0
  7  8  3  0  0  0  0
  9 10  1  0  0  0  0
  9 30  1  0  0  0  0
 10 11  2  0  0  0  0
 10 12  1  0  0  0  0
 12 13  1  0  0  0  0
 12 14  1  0  0  0  0
 12 31  1  0  0  0  0
 13 32  1  0  0  0  0
 13 33  1  0  0  0  0
 13 34  1  0  0  0  0
 14 18  1  0  0  0  0
 14 15  1  0  0  0  0
 15 16  2  0  0  0  0
 15 35  1  0  0  0  0
 16 17  1  0  0  0  0
 16 36  1  0  0  0  0
 17 18  2  0  0  0  0
 17 37  1  0  0  0  0
 19 38  1  0  0  0  0
 19 39  1  0  0  0  0
M  END
> <s_m_source_file>
AV-unprocessed.smi

> <i_m_source_file_index>
765

> <i_lp_mmshare_version>
43012

> <i_f3d_flags>
0

> <s_epik_input>
W0NIM11bQ0BASF0oW0NIMl0xKVtDSDJdW0NIMl1bQ0gyXVtDQEBdMShDI04pW05IXUMoPU8pW0NASF0oW0NIM10pbjJbY0hdW2NIXVtjSF1uMg==

> <s_epik_cmdline>
J2VwaWtfcHl0aG9uJywgJy1waCcsICc3LjAnLCAnLXRuJywgJzgnLCAnLW1hJywgJzIwMCcsICctbWV0YWxfYmluZGluZycsICctaW1hZScsICc8aW5maWxlLm1hZT4nLCAnLW9tYWUnLCAnPG91dGZpbGUubWFlPic=

> <r_lp_tautomer_probability>
1

> <r_epik_Ionization_Penalty>
2.71142e-05

> <r_epik_Ionization_Penalty_Charging>
0

> <r_epik_Ionization_Penalty_Neutral>
2.71142e-05

> <r_epik_State_Penalty>
-0

> <r_epik_Charging_Adjusted_Penalty>
0

> <i_epik_Tot_Q>
0

> <i_epik_Tot_abs_Q>
0

> <r_epik_Metal_State_Penalty>
-0

> <b_epik_Metal_Only>
0

> <s_lp_Force_Field>
OPLS_2005

> <r_lp_Energy>
11.2171

> <b_lp_Chiralities_Consistent>
1

> <s_lp_Variant>
AV-unprocessed.smi:765-5

> <Gold.Version>
5.8.1

> <Gold.Id.Protein>
6NUR|6NUR_protein|mol2

> <Gold.PLP.Fitness>
42.0563

> <Gold.PLP.PLP>
-35.7170

> <Gold.PLP.part.hbond>
-2.0000

> <Gold.PLP.part.metal>
0.0000

> <Gold.PLP.part.buried>
-4.3773

> <Gold.PLP.part.nonpolar>
-29.1819

> <Gold.PLP.part.repulsive>
0.2451

> <Gold.PLP.ligand.clash>
0.0000

> <Gold.PLP.ligand.torsion>
1.0722

> <Gold.PLP.Chemscore.Hbond>
1.7920

> <Gold.PLP.Chemscore.CHOScore>
1.0000

> <Gold.PLP.Chemscore.Metal>
0.0000

> <Gold.Chemscore.Hbonds>
donor molecule, donor type, donor heavy atom, donor atom, acceptor molecule, acceptor atom, score
      P1  H  6896  6907       L1     8  0.90
      P1  H  7997  8009       L1    11  0.88
      L1  C    17    37       P1  8029  0.94

> <Gold.PLP.Chemscore.Internal.Correction>
0.1076

> <Gold.Rescore>
     Score         DG    S(hbond)    S(metal)    S(lipo)     H(rot)  DE(clash)    DE(int)     intcor
     16.82     -17.86       1.79        0.00      85.87       1.42       0.18       0.86       ----

> <Gold.Chemscore.Fitness>
16.8161

> <Gold.Chemscore.DG>
-17.8627

> <Gold.Chemscore.ZeroCoef>
-5.4800

> <Gold.Chemscore.Hbond>
1.7865

> <Gold.Chemscore.Metal>
0.0000

> <Gold.Chemscore.Lipo>
85.8686

> <Gold.Chemscore.Internal_Hbond>
0.0000

> <Gold.Chemscore.DEClash>
0.1839

> <Gold.Chemscore.DEInternal>
0.8628

> <Gold.Chemscore.Rot>
1.4183

> <Gold.Chemscore.Internal.Correction>
   9.000000E+99

> <Gold.Chemscore.Hbonds>
donor molecule, donor type, donor heavy atom, donor atom, acceptor molecule, acceptor atom, score
      P1  H  6896  6907       L1     8  0.88
      P1  H  7997  8009       L1    11  0.81

> <Gold.Chemscore.Hbond.Weighted>
-5.9670

> <Gold.Chemscore.Metal.Weighted>
-0.0000

> <Gold.Chemscore.Lipo.Weighted>
-10.0466

> <Gold.Chemscore.Internal_Hbond.Weighted>
0.0000

> <Gold.Chemscore.DEClash.Weighted>
0.1839

> <Gold.Chemscore.DEInternal.Weighted>
0.8628

> <Gold.Chemscore.Rot.Weighted>
3.6309

> <Gold.Chemscore.Internal.Correction.Weighted>
   9.000000E+99

> <Gold.Protein.RotatedTorsions>
[ 6907 6896 6895 6894 ] final   16.33 input  -60.11 | X-H torsion
[ 7974 7965 7964 7962 ] final  110.42 input  175.53 | X-H torsion
[ 8008 7997 7996 7995 ] final  140.08 input   59.86 | X-H torsion
[ 10167 10162 10161 10158 ] final  -87.99 input  -65.29 | X-H torsion
[ 10718 10713 10712 10709 ] final  174.54 input   66.30 | X-H torsion
[ 10763 10752 10751 10750 ] final  -55.46 input  -60.55 | X-H torsion
[ 11005 11000 10999 10996 ] final   29.81 input  -57.11 | X-H torsion

> <Gold.Protein.ActiveResidues>
 VAL166  LYS551  ARG553  GLY616  TRP617  ASP618  TYR619  PRO620  LYS621  CYS622 
 ASP623  PHE694  ASN695  SER759  ASP760  ASP761  ALA762  ILE779  LEU786  VAL792 
 PHE793  MET794  SER795  GLU796  ALA797  LYS798  CYS799  TRP800  GLU811  SER814 

> <Gold.Protein.RotatedAtoms>
  151.8322  135.0618  160.0437 H   0  0  0  0  0  0  0  0  0  0  0  0  # atno 6907 bound_to 6896
  152.2872  133.5522  159.5543 H   0  0  0  0  0  0  0  0  0  0  0  0  # atno 6908 bound_to 6896
  150.7214  134.0396  159.3803 H   0  0  0  0  0  0  0  0  0  0  0  0  # atno 6909 bound_to 6896
  145.2552  139.2724  143.4046 H   0  0  0  0  0  0  0  0  0  0  0  0  # atno 7974 bound_to 7965
  156.2983  140.2351  156.4343 H   0  0  0  0  0  0  0  0  0  0  0  0  # atno 8008 bound_to 7997
  154.8242  140.0436  157.1453 H   0  0  0  0  0  0  0  0  0  0  0  0  # atno 8009 bound_to 7997
  154.9280  140.3013  155.5186 H   0  0  0  0  0  0  0  0  0  0  0  0  # atno 8010 bound_to 7997
  140.3790  143.2757  151.9407 H   0  0  0  0  0  0  0  0  0  0  0  0  # atno 10167 bound_to 10162
  156.9481  131.0022  151.2954 H   0  0  0  0  0  0  0  0  0  0  0  0  # atno 10718 bound_to 10713
  154.1912  135.6427  153.5060 H   0  0  0  0  0  0  0  0  0  0  0  0  # atno 10763 bound_to 10752
  153.0034  135.5429  154.6413 H   0  0  0  0  0  0  0  0  0  0  0  0  # atno 10764 bound_to 10752
  154.5803  135.2924  155.0713 H   0  0  0  0  0  0  0  0  0  0  0  0  # atno 10765 bound_to 10752
  140.3010  134.2756  155.7754 H   0  0  0  0  0  0  0  0  0  0  0  0  # atno 11005 bound_to 11000
  146.3291  140.2954  142.8617 LP  0  0  0  0  0  0  0  0  0  0  0  0  # atno 17320 bound_to 7965
  144.9467  140.8136  143.5597 LP  0  0  0  0  0  0  0  0  0  0  0  0  # atno 17321 bound_to 7965
  139.4797  144.5836  151.7891 LP  0  0  0  0  0  0  0  0  0  0  0  0  # atno 17342 bound_to 10162
  140.4956  144.1245  150.5959 LP  0  0  0  0  0  0  0  0  0  0  0  0  # atno 17343 bound_to 10162
  157.5740  130.8330  149.8430 LP  0  0  0  0  0  0  0  0  0  0  0  0  # atno 17370 bound_to 10713
  156.0374  130.3747  150.1523 LP  0  0  0  0  0  0  0  0  0  0  0  0  # atno 17371 bound_to 10713
  141.2128  133.7646  156.9767 LP  0  0  0  0  0  0  0  0  0  0  0  0  # atno 17394 bound_to 11000
  140.1109  134.9477  157.2064 LP  0  0  0  0  0  0  0  0  0  0  0  0  # atno 17395 bound_to 11000

$$$$
