AV-unprocessed.smi:1750|AV-procd|sdf|7054|dock8
  -GOLD-   22720 8273D 1   1.00000     0.00000
 Structure written by MMmdl.
 35 36  0  0  0  0  0  0  0  0  2 V2000
  151.1026  132.5321  162.2832 C   0  0  0  0  0  0  0  0  0  0  0  0
  151.8880  133.8421  162.4061 C   0  0  0  0  0  0  0  0  0  0  0  0
  151.0436  135.0725  162.0468 C   0  0  0  0  0  0  0  0  0  0  0  0
  151.8230  136.3430  162.1228 C   0  0  0  0  0  0  0  0  0  0  0  0
  152.2945  136.8373  163.2705 N   0  0  0  0  0  0  0  0  0  0  0  0
  152.9592  138.0412  163.0871 N   0  0  0  0  0  0  0  0  0  0  0  0
  152.9559  138.4548  161.8117 C   0  0  0  0  0  0  0  0  0  0  0  0
  153.5403  139.6001  161.4222 N   0  5  0  0  0  0  0  0  0  0  0  0
  153.4571  139.9949  160.1312 C   0  0  0  0  0  0  0  0  0  0  0  0
  153.9835  139.4428  159.1623 O   0  0  0  0  0  0  0  0  0  0  0  0
  152.7195  141.0978  159.9496 N   0  0  0  0  0  0  0  0  0  0  0  0
  152.4601  141.7336  158.6639 C   0  0  0  0  0  0  0  0  0  0  0  0
  151.8921  143.1470  158.8564 C   0  0  2  0  0  0  0  0  0  0  0  0
  152.9112  144.1930  159.3032 C   0  0  0  0  0  0  0  0  0  0  0  0
  152.0449  145.2598  159.9515 C   0  0  0  0  0  0  0  0  0  0  0  0
  150.7381  144.5296  160.2802 C   0  0  0  0  0  0  0  0  0  0  0  0
  150.9538  143.1706  159.9198 O   0  0  0  0  0  0  0  0  0  0  0  0
  152.1350  137.3446  160.7151 S   0  0  0  0  0  0  0  0  0  0  0  0
  151.7298  131.6782  162.5394 H   0  0  0  0  0  0  0  0  0  0  0  0
  150.7390  132.3852  161.2659 H   0  0  0  0  0  0  0  0  0  0  0  0
  150.2417  132.5254  162.9522 H   0  0  0  0  0  0  0  0  0  0  0  0
  152.2620  133.9410  163.4258 H   0  0  0  0  0  0  0  0  0  0  0  0
  152.7648  133.7987  161.7589 H   0  0  0  0  0  0  0  0  0  0  0  0
  150.6391  134.9686  161.0392 H   0  0  0  0  0  0  0  0  0  0  0  0
  150.1886  135.1503  162.7192 H   0  0  0  0  0  0  0  0  0  0  0  0
  152.3032  141.5216  160.7654 H   0  0  0  0  0  0  0  0  0  0  0  0
  153.3854  141.7859  158.0880 H   0  0  0  0  0  0  0  0  0  0  0  0
  151.7622  141.1191  158.0933 H   0  0  0  0  0  0  0  0  0  0  0  0
  151.3928  143.4794  157.9441 H   0  0  0  0  0  0  0  0  0  0  0  0
  153.5861  143.7664  160.0465 H   0  0  0  0  0  0  0  0  0  0  0  0
  153.5146  144.5767  158.4800 H   0  0  0  0  0  0  0  0  0  0  0  0
  152.5209  145.6740  160.8409 H   0  0  0  0  0  0  0  0  0  0  0  0
  151.8543  146.0806  159.2591 H   0  0  0  0  0  0  0  0  0  0  0  0
  150.4701  144.6097  161.3339 H   0  0  0  0  0  0  0  0  0  0  0  0
  149.9149  144.9336  159.6896 H   0  0  0  0  0  0  0  0  0  0  0  0
  1  2  1  0  0  0  0
  1 19  1  0  0  0  0
  1 20  1  0  0  0  0
  1 21  1  0  0  0  0
  2  3  1  0  0  0  0
  2 22  1  0  0  0  0
  2 23  1  0  0  0  0
  3  4  1  0  0  0  0
  3 24  1  0  0  0  0
  3 25  1  0  0  0  0
  4 18  1  0  0  0  0
  4  5  2  0  0  0  0
  5  6  1  0  0  0  0
  6  7  2  0  0  0  0
  7  8  1  0  0  0  0
  7 18  1  0  0  0  0
  8  9  1  0  0  0  0
  9 10  2  0  0  0  0
  9 11  1  0  0  0  0
 11 12  1  0  0  0  0
 11 26  1  0  0  0  0
 12 13  1  0  0  0  0
 12 27  1  0  0  0  0
 12 28  1  0  0  0  0
 13 17  1  0  0  0  0
 13 14  1  0  0  0  0
 13 29  1  0  0  0  0
 14 15  1  0  0  0  0
 14 30  1  0  0  0  0
 14 31  1  0  0  0  0
 15 16  1  0  0  0  0
 15 32  1  0  0  0  0
 15 33  1  0  0  0  0
 16 17  1  0  0  0  0
 16 34  1  0  0  0  0
 16 35  1  0  0  0  0
M  CHG  1   8  -1
M  END
> <s_m_source_file>
AV-unprocessed.smi

> <i_m_source_file_index>
1750

> <i_lp_mmshare_version>
43012

> <i_f3d_flags>
0

> <s_epik_input>
W0NIM11bQ0gyXVtDSDJdYzFubmMoczEpW05IXUMoPU8pW05IXVtDSDJdW0NAQEhdMltDSDJdW0NIMl1bQ0gyXU8y

> <s_epik_cmdline>
J2VwaWtfcHl0aG9uJywgJy1waCcsICc3LjAnLCAnLXRuJywgJzgnLCAnLW1hJywgJzIwMCcsICctbWV0YWxfYmluZGluZycsICctaW1hZScsICc8aW5maWxlLm1hZT4nLCAnLW9tYWUnLCAnPG91dGZpbGUubWFlPic=

> <r_lp_tautomer_probability>
1

> <r_epik_Ionization_Penalty>
4.22484

> <r_epik_Ionization_Penalty_Charging>
4.21437

> <r_epik_Ionization_Penalty_Neutral>
0.0104685

> <r_epik_State_Penalty>
4.21389

> <r_epik_Charging_Adjusted_Penalty>
8.42826

> <i_epik_Tot_Q>
-1

> <i_epik_Tot_abs_Q>
1

> <r_epik_Metal_State_Penalty>
0.69377

> <b_epik_Metal_Only>
1

> <s_lp_Force_Field>
OPLS_2005

> <r_lp_Energy>
11.1337

> <b_lp_Chiralities_Consistent>
1

> <s_lp_Variant>
AV-unprocessed.smi:1750-3

> <Gold.Version>
5.8.1

> <Gold.Id.Protein>
6NUR|6NUR_protein|mol2

> <Gold.PLP.Fitness>
40.7936

> <Gold.PLP.PLP>
-39.5575

> <Gold.PLP.part.hbond>
-1.9396

> <Gold.PLP.part.metal>
0.0000

> <Gold.PLP.part.buried>
-6.1332

> <Gold.PLP.part.nonpolar>
-31.9340

> <Gold.PLP.part.repulsive>
0.1452

> <Gold.PLP.ligand.clash>
0.0000

> <Gold.PLP.ligand.torsion>
0.8997

> <Gold.PLP.Chemscore.Hbond>
1.0000

> <Gold.PLP.Chemscore.CHOScore>
0.0000

> <Gold.PLP.Chemscore.Metal>
0.0000

> <Gold.Chemscore.Hbonds>
donor molecule, donor type, donor heavy atom, donor atom, acceptor molecule, acceptor atom, score
      P1  H  7997  8008       L1    10  0.59

> <Gold.PLP.Chemscore.Internal.Correction>
0.0354

> <Gold.Rescore>
     Score         DG    S(hbond)    S(metal)    S(lipo)     H(rot)  DE(clash)    DE(int)     intcor
     15.66     -16.59       0.98        0.00     101.76       1.59       0.09       0.84       ----

> <Gold.Chemscore.Fitness>
15.6555

> <Gold.Chemscore.DG>
-16.5937

> <Gold.Chemscore.ZeroCoef>
-5.4800

> <Gold.Chemscore.Hbond>
0.9833

> <Gold.Chemscore.Metal>
0.0000

> <Gold.Chemscore.Lipo>
101.7558

> <Gold.Chemscore.Internal_Hbond>
0.0000

> <Gold.Chemscore.DEClash>
0.0947

> <Gold.Chemscore.DEInternal>
0.8435

> <Gold.Chemscore.Rot>
1.5922

> <Gold.Chemscore.Internal.Correction>
   9.000000E+99

> <Gold.Chemscore.Hbonds>
donor molecule, donor type, donor heavy atom, donor atom, acceptor molecule, acceptor atom, score
      P1  H  7997  8008       L1    10  0.58

> <Gold.Chemscore.Hbond.Weighted>
-3.2844

> <Gold.Chemscore.Metal.Weighted>
-0.0000

> <Gold.Chemscore.Lipo.Weighted>
-11.9054

> <Gold.Chemscore.Internal_Hbond.Weighted>
0.0000

> <Gold.Chemscore.DEClash.Weighted>
0.0947

> <Gold.Chemscore.DEInternal.Weighted>
0.8435

> <Gold.Chemscore.Rot.Weighted>
4.0761

> <Gold.Chemscore.Internal.Correction.Weighted>
   9.000000E+99

> <Gold.Protein.RotatedTorsions>
[ 6907 6896 6895 6894 ] final  103.68 input  -60.11 | X-H torsion
[ 7974 7965 7964 7962 ] final  -12.60 input  175.53 | X-H torsion
[ 8008 7997 7996 7995 ] final -114.86 input   59.86 | X-H torsion
[ 10167 10162 10161 10158 ] final   65.29 input  -65.29 | X-H torsion
[ 10718 10713 10712 10709 ] final -146.80 input   66.30 | X-H torsion
[ 10763 10752 10751 10750 ] final  -84.29 input  -60.55 | X-H torsion
[ 11005 11000 10999 10996 ] final   26.73 input  -57.11 | X-H torsion

> <Gold.Protein.ActiveResidues>
 VAL166  LYS551  ARG553  GLY616  TRP617  ASP618  TYR619  PRO620  LYS621  CYS622 
 ASP623  PHE694  ASN695  SER759  ASP760  ASP761  ALA762  ILE779  LEU786  VAL792 
 PHE793  MET794  SER795  GLU796  ALA797  LYS798  CYS799  TRP800  GLU811  SER814 

> <Gold.Protein.RotatedAtoms>
  152.5288  133.9790  159.7797 H   0  0  0  0  0  0  0  0  0  0  0  0  # atno 6907 bound_to 6896
  151.0047  133.6014  159.2697 H   0  0  0  0  0  0  0  0  0  0  0  0  # atno 6908 bound_to 6896
  151.3110  135.0800  159.9326 H   0  0  0  0  0  0  0  0  0  0  0  0  # atno 6909 bound_to 6896
  146.2146  140.3080  142.8380 H   0  0  0  0  0  0  0  0  0  0  0  0  # atno 7974 bound_to 7965
  155.0429  140.0392  157.2516 H   0  0  0  0  0  0  0  0  0  0  0  0  # atno 8008 bound_to 7997
  154.7201  140.2710  155.6525 H   0  0  0  0  0  0  0  0  0  0  0  0  # atno 8009 bound_to 7997
  156.2814  140.2704  156.1870 H   0  0  0  0  0  0  0  0  0  0  0  0  # atno 8010 bound_to 7997
  140.1129  144.4802  150.6967 H   0  0  0  0  0  0  0  0  0  0  0  0  # atno 10167 bound_to 10162
  156.3994  130.7926  151.2135 H   0  0  0  0  0  0  0  0  0  0  0  0  # atno 10718 bound_to 10713
  154.5978  135.5526  153.7343 H   0  0  0  0  0  0  0  0  0  0  0  0  # atno 10763 bound_to 10752
  153.0142  135.6359  154.1758 H   0  0  0  0  0  0  0  0  0  0  0  0  # atno 10764 bound_to 10752
  154.1698  135.2892  155.3064 H   0  0  0  0  0  0  0  0  0  0  0  0  # atno 10765 bound_to 10752
  140.3339  134.2408  155.7698 H   0  0  0  0  0  0  0  0  0  0  0  0  # atno 11005 bound_to 11000
  144.9009  140.7641  143.5868 LP  0  0  0  0  0  0  0  0  0  0  0  0  # atno 17320 bound_to 7965
  145.3006  139.1851  143.4691 LP  0  0  0  0  0  0  0  0  0  0  0  0  # atno 17321 bound_to 7965
  140.6915  143.2379  151.5117 LP  0  0  0  0  0  0  0  0  0  0  0  0  # atno 17342 bound_to 10162
  139.5609  144.2158  152.1690 LP  0  0  0  0  0  0  0  0  0  0  0  0  # atno 17343 bound_to 10162
  157.7503  131.0291  150.4079 LP  0  0  0  0  0  0  0  0  0  0  0  0  # atno 17370 bound_to 10713
  156.4356  130.3981  149.6731 LP  0  0  0  0  0  0  0  0  0  0  0  0  # atno 17371 bound_to 10713
  141.2056  133.7855  157.0222 LP  0  0  0  0  0  0  0  0  0  0  0  0  # atno 17394 bound_to 11000
  140.0838  134.9633  157.1667 LP  0  0  0  0  0  0  0  0  0  0  0  0  # atno 17395 bound_to 11000

$$$$
