#       Name:                AV-unprocessed.smi:2189
#       Creating user name   scv26
#       Creation time:       Fri Mar 27 12:08:46 2020


#       File generated by GOLD software.
#

@<TRIPOS>MOLECULE
AV-unprocessed.smi:2189
    43    45     1
SMALL
NO_CHARGES


@<TRIPOS>ATOM
      1 ****         1.3657   1.6634  -0.4964 O.2            1 S1                 0.0000
      2 ****         0.9074   0.7721   0.2304 C.2            1 S1                 0.0000
      3 ****         1.6533  -0.1463   0.9183 N.pl3          1 S1                -1.0000
      4 ****         3.1088  -0.2993   0.8363 C.3            1 S1                 0.0000
      5 ****         3.4859  -1.7963   0.7357 C.3            1 S1                 0.0000
      6 ****         3.0200  -2.4995  -0.5383 C.ar           1 S1                 0.0000
      7 ****         1.8215  -3.2492  -0.5462 C.ar           1 S1                 0.0000
      8 ****         1.4244  -3.8777  -1.7415 C.ar           1 S1                 0.0000
      9 ****         2.2409  -3.7454  -2.8805 C.ar           1 S1                 0.0000
     10 ****         3.4246  -2.9893  -2.7711 C.ar           1 S1                 0.0000
     11 ****         3.8156  -2.3827  -1.6300 N.ar           1 S1                 0.0000
     12 ****        -0.5561   0.6454   0.3663 C.2            1 S1                 0.0000
     13 ****        -1.0965  -0.6011   0.4032 C.2            1 S1                 0.0000
     14 ****        -2.5153  -0.8124   0.5462 C.2            1 S1                 0.0000
     15 ****        -3.3062   0.2638   0.6109 C.2            1 S1                 0.0000
     16 ****        -2.8251   1.5705   0.5465 N.pl3          1 S1                 0.0000
     17 ****        -3.8172   2.6396   0.5251 C.3            1 S1                 0.0000
     18 ****        -3.3629   3.7997   1.3916 C.3            1 S1                 0.0000
     19 ****        -1.8371   4.4367   0.6112 S.o2           1 S1                 0.0000
     20 ****        -2.1706   4.8691  -0.7550 O.2            1 S1                 0.0000
     21 ****        -1.2154   5.3937   1.5392 O.2            1 S1                 0.0000
     22 ****        -0.9239   3.0348   0.5394 N.2            1 S1                 0.0000
     23 ****        -1.4276   1.8342   0.4761 C.2            1 S1                 0.0000
     24 ****         3.5465   0.2305  -0.0108 H              1 S1                 0.0000
     25 ****         3.5897   0.1195   1.7207 H              1 S1                 0.0000
     26 ****         4.5705  -1.8916   0.7978 H              1 S1                 0.0000
     27 ****         3.0954  -2.3338   1.6010 H              1 S1                 0.0000
     28 ****         1.2137  -3.3275   0.3432 H              1 S1                 0.0000
     29 ****         0.5095  -4.4498  -1.7834 H              1 S1                 0.0000
     30 ****         1.9670  -4.2121  -3.8148 H              1 S1                 0.0000
     31 ****         4.0764  -2.8696  -3.6240 H              1 S1                 0.0000
     32 ****        -0.4734  -1.4795   0.3151 H              1 S1                 0.0000
     33 ****        -2.9255  -1.8097   0.5989 H              1 S1                 0.0000
     34 ****        -4.3772   0.1707   0.7167 H              1 S1                 0.0000
     35 ****        -3.9786   2.9611  -0.5043 H              1 S1                 0.0000
     36 ****        -4.7786   2.2816   0.8941 H              1 S1                 0.0000
     37 ****        -4.1025   4.5993   1.4196 H              1 S1                 0.0000
     38 ****        -3.1454   3.4886   2.4140 H              1 S1                 0.0000
     39 ****         2.3545   1.7520  -0.6159 LP             1 S1                 0.0000
     40 ****         0.7470   2.2947  -0.9640 LP             1 S1                 0.0000
     41 ****         1.1627  -0.7669   1.5300 LP             1 S1                 0.0000
     42 ****         4.6683  -1.8618  -1.5911 LP             1 S1                 0.0000
     43 ****         0.0720   3.1245   0.5454 LP             1 S1                 0.0000
@<TRIPOS>BOND
    1    1    2 2     
    2    2    3 1     
    3    2   12 1     
    4    3    4 1     
    5    4    5 1     
    6    4   24 1     
    7    4   25 1     
    8    5    6 1     
    9    5   26 1     
   10    5   27 1     
   11    6   11 ar    
   12    6    7 ar    
   13    7    8 ar    
   14    7   28 1     
   15    8    9 ar    
   16    8   29 1     
   17    9   10 ar    
   18    9   30 1     
   19   10   11 ar    
   20   10   31 1     
   21   12   23 1     
   22   12   13 2     
   23   13   14 1     
   24   13   32 1     
   25   14   15 2     
   26   14   33 1     
   27   15   16 1     
   28   15   34 1     
   29   16   23 1     
   30   16   17 1     
   31   17   18 1     
   32   17   35 1     
   33   17   36 1     
   34   18   19 1     
   35   18   37 1     
   36   18   38 1     
   37   19   20 2     
   38   19   21 2     
   39   19   22 1     
   40   22   23 2     
   41    1   39 1     
   42    1   40 1     
   43    3   41 1     
   44   11   42 1     
   45   22   43 1     
@<TRIPOS>SUBSTRUCTURE
      1 S1             1
@<TRIPOS>SET
LONE_PAIRS      STATIC     ATOMS    <user>   **** ""
7 39 40 41 42 20 21 43
ATOM$BLUE        STATIC     ATOMS    COLORGROUP SYSTEM
7 39 40 41 42 20 21 43
