AV-unprocessed.smi:2424|AV-procd|sdf|9568|dock6
  -GOLD-   2272013203D 1   1.00000     0.00000
 Structure written by MMmdl.
 49 50  0  0  0  0  0  0  0  0  2 V2000
  152.4645  139.3149  155.3508 C   0  0  0  0  0  0  0  0  0  0  0  0
  151.9195  137.8785  155.3182 C   0  0  0  0  0  0  0  0  0  0  0  0
  150.3883  137.7462  155.4874 C   0  0  0  0  0  0  0  0  0  0  0  0
  149.6851  138.5211  154.3415 C   0  0  0  0  0  0  0  0  0  0  0  0
  149.6615  140.0504  154.5003 C   0  0  0  0  0  0  0  0  0  0  0  0
  149.8879  136.3010  155.7575 C   0  0  2  0  0  0  0  0  0  0  0  0
  149.2409  135.6604  154.6152 N   0  0  0  0  0  0  0  0  0  0  0  0
  148.6441  134.4615  154.6361 C   0  0  0  0  0  0  0  0  0  0  0  0
  148.5535  133.7682  155.6487 O   0  0  0  0  0  0  0  0  0  0  0  0
  148.1745  134.1426  153.4172 N   0  0  0  0  0  0  0  0  0  0  0  0
  147.5295  132.9689  153.0077 C   0  0  0  0  0  0  0  0  0  0  0  0
  147.8900  131.7514  153.5485 C   0  0  0  0  0  0  0  0  0  0  0  0
  147.3894  130.5250  153.2848 N   0  5  0  0  0  0  0  0  0  0  0  0
  146.3860  130.4247  152.3664 C   0  0  0  0  0  0  0  0  0  0  0  0
  145.8837  129.3406  152.0722 O   0  0  0  0  0  0  0  0  0  0  0  0
  145.8933  131.6539  151.7127 C   0  0  0  0  0  0  0  0  0  0  0  0
  144.7692  131.5396  150.6971 C   0  0  0  0  0  0  0  0  0  0  0  0
  146.4477  132.8508  152.0303 C   0  0  0  0  0  0  0  0  0  0  0  0
  148.8737  136.8527  156.7633 C   0  0  1  0  0  0  0  0  0  0  0  0
  148.4889  136.0279  157.9850 C   0  0  0  0  0  0  0  0  0  0  0  0
  149.8213  138.0543  156.9059 C   0  0  1  0  0  0  0  0  0  0  0  0
  150.7471  137.8363  157.9647 O   0  0  0  0  0  0  0  0  0  0  0  0
  151.5779  138.9578  158.2132 C   0  0  0  0  0  0  0  0  0  0  0  0
  153.5319  139.3207  155.1293 H   0  0  0  0  0  0  0  0  0  0  0  0
  152.3382  139.7801  156.3278 H   0  0  0  0  0  0  0  0  0  0  0  0
  151.9764  139.9448  154.6086 H   0  0  0  0  0  0  0  0  0  0  0  0
  152.2173  137.4544  154.3591 H   0  0  0  0  0  0  0  0  0  0  0  0
  152.4473  137.2800  156.0594 H   0  0  0  0  0  0  0  0  0  0  0  0
  150.1254  138.2717  153.3765 H   0  0  0  0  0  0  0  0  0  0  0  0
  148.6483  138.1958  154.2562 H   0  0  0  0  0  0  0  0  0  0  0  0
  149.0478  140.5040  153.7220 H   0  0  0  0  0  0  0  0  0  0  0  0
  150.6574  140.4836  154.4126 H   0  0  0  0  0  0  0  0  0  0  0  0
  149.2453  140.3505  155.4617 H   0  0  0  0  0  0  0  0  0  0  0  0
  150.6425  135.6870  156.2552 H   0  0  0  0  0  0  0  0  0  0  0  0
  149.2635  136.1621  153.7398 H   0  0  0  0  0  0  0  0  0  0  0  0
  148.3025  134.8312  152.6902 H   0  0  0  0  0  0  0  0  0  0  0  0
  148.7061  131.7641  154.3031 H   0  0  0  0  0  0  0  0  0  0  0  0
  144.4937  132.5152  150.2957 H   0  0  0  0  0  0  0  0  0  0  0  0
  143.8826  131.1022  151.1570 H   0  0  0  0  0  0  0  0  0  0  0  0
  145.0731  130.9060  149.8633 H   0  0  0  0  0  0  0  0  0  0  0  0
  146.0568  133.7269  151.5393 H   0  0  0  0  0  0  0  0  0  0  0  0
  147.9726  137.1834  156.2431 H   0  0  0  0  0  0  0  0  0  0  0  0
  149.3670  135.6358  158.4987 H   0  0  0  0  0  0  0  0  0  0  0  0
  147.8696  135.1763  157.7027 H   0  0  0  0  0  0  0  0  0  0  0  0
  147.9244  136.6246  158.7015 H   0  0  0  0  0  0  0  0  0  0  0  0
  149.2744  138.9944  156.9964 H   0  0  0  0  0  0  0  0  0  0  0  0
  152.2940  138.7157  158.9983 H   0  0  0  0  0  0  0  0  0  0  0  0
  150.9884  139.8120  158.5482 H   0  0  0  0  0  0  0  0  0  0  0  0
  152.1377  139.2503  157.3250 H   0  0  0  0  0  0  0  0  0  0  0  0
  1  2  1  0  0  0  0
  1 24  1  0  0  0  0
  1 25  1  0  0  0  0
  1 26  1  0  0  0  0
  2  3  1  0  0  0  0
  2 27  1  0  0  0  0
  2 28  1  0  0  0  0
  3 21  1  0  0  0  0
  3  4  1  0  0  0  0
  3  6  1  0  0  0  0
  4  5  1  0  0  0  0
  4 29  1  0  0  0  0
  4 30  1  0  0  0  0
  5 31  1  0  0  0  0
  5 32  1  0  0  0  0
  5 33  1  0  0  0  0
  6  7  1  0  0  0  0
  6 19  1  0  0  0  0
  6 34  1  0  0  0  0
  7  8  1  0  0  0  0
  7 35  1  0  0  0  0
  8  9  2  0  0  0  0
  8 10  1  0  0  0  0
 10 11  1  0  0  0  0
 10 36  1  0  0  0  0
 11 18  1  0  0  0  0
 11 12  2  0  0  0  0
 12 13  1  0  0  0  0
 12 37  1  0  0  0  0
 13 14  1  0  0  0  0
 14 15  2  0  0  0  0
 14 16  1  0  0  0  0
 16 17  1  0  0  0  0
 16 18  2  0  0  0  0
 17 38  1  0  0  0  0
 17 39  1  0  0  0  0
 17 40  1  0  0  0  0
 18 41  1  0  0  0  0
 19 20  1  0  0  0  0
 19 21  1  0  0  0  0
 19 42  1  0  0  0  0
 20 43  1  0  0  0  0
 20 44  1  0  0  0  0
 20 45  1  0  0  0  0
 21 22  1  0  0  0  0
 21 46  1  0  0  0  0
 22 23  1  0  0  0  0
 23 47  1  0  0  0  0
 23 48  1  0  0  0  0
 23 49  1  0  0  0  0
M  CHG  1  13  -1
M  END
> <s_m_source_file>
AV-unprocessed.smi

> <i_m_source_file_index>
2424

> <i_lp_mmshare_version>
43012

> <i_f3d_flags>
0

> <s_epik_input>
W0NIM11PW0NAQEhdMVtDQEhdKFtDSDNdKVtDQEBIXShDMShbQ0gyXVtDSDNdKVtDSDJdW0NIM10pW05IXUMoPU8pW05IXWMyW2NIXVtuSF1jKD1PKWMoW0NIM10pW2NIXTI=

> <s_epik_cmdline>
J2VwaWtfcHl0aG9uJywgJy1waCcsICc3LjAnLCAnLXRuJywgJzgnLCAnLW1hJywgJzIwMCcsICctbWV0YWxfYmluZGluZycsICctaW1hZScsICc8aW5maWxlLm1hZT4nLCAnLW9tYWUnLCAnPG91dGZpbGUubWFlPic=

> <r_lp_tautomer_probability>
1

> <r_epik_Ionization_Penalty>
7.6122

> <r_epik_Ionization_Penalty_Charging>
1.53843

> <r_epik_Ionization_Penalty_Neutral>
6.07377

> <r_epik_State_Penalty>
6.07371

> <r_epik_Charging_Adjusted_Penalty>
7.61214

> <i_epik_Tot_Q>
-1

> <i_epik_Tot_abs_Q>
1

> <r_epik_Metal_State_Penalty>
2.02136

> <b_epik_Metal_Only>
1

> <s_lp_Force_Field>
OPLS_2005

> <r_lp_Energy>
41.6495

> <b_lp_Chiralities_Consistent>
1

> <s_lp_Variant>
AV-unprocessed.smi:2424-10

> <Gold.Version>
5.8.1

> <Gold.Id.Protein>
6NUR|6NUR_protein|mol2

> <Gold.PLP.Fitness>
38.2018

> <Gold.PLP.PLP>
-33.1363

> <Gold.PLP.part.hbond>
-2.0000

> <Gold.PLP.part.metal>
0.0000

> <Gold.PLP.part.buried>
-4.8348

> <Gold.PLP.part.nonpolar>
-27.1707

> <Gold.PLP.part.repulsive>
0.2808

> <Gold.PLP.ligand.clash>
0.0000

> <Gold.PLP.ligand.torsion>
0.8224

> <Gold.PLP.Chemscore.Hbond>
2.0000

> <Gold.PLP.Chemscore.CHOScore>
0.0000

> <Gold.PLP.Chemscore.Metal>
0.0000

> <Gold.Chemscore.Hbonds>
donor molecule, donor type, donor heavy atom, donor atom, acceptor molecule, acceptor atom, score
      L1  H     7    35       P1  7948  1.00
      L1  H    10    36       P1  7948  1.00

> <Gold.PLP.Chemscore.Internal.Correction>
0.7103

> <Gold.Rescore>
     Score         DG    S(hbond)    S(metal)    S(lipo)     H(rot)  DE(clash)    DE(int)     intcor
     13.68     -16.68       1.76        0.00      78.63       1.52       0.00       3.01       ----

> <Gold.Chemscore.Fitness>
13.6769

> <Gold.Chemscore.DG>
-16.6824

> <Gold.Chemscore.ZeroCoef>
-5.4800

> <Gold.Chemscore.Hbond>
1.7650

> <Gold.Chemscore.Metal>
0.0000

> <Gold.Chemscore.Lipo>
78.6291

> <Gold.Chemscore.Internal_Hbond>
0.0000

> <Gold.Chemscore.DEClash>
0.0000

> <Gold.Chemscore.DEInternal>
3.0055

> <Gold.Chemscore.Rot>
1.5204

> <Gold.Chemscore.Internal.Correction>
   9.000000E+99

> <Gold.Chemscore.Hbonds>
donor molecule, donor type, donor heavy atom, donor atom, acceptor molecule, acceptor atom, score
      L1  H     7    35       P1  7948  0.81
      L1  H    10    36       P1  7948  0.55

> <Gold.Chemscore.Hbond.Weighted>
-5.8950

> <Gold.Chemscore.Metal.Weighted>
-0.0000

> <Gold.Chemscore.Lipo.Weighted>
-9.1996

> <Gold.Chemscore.Internal_Hbond.Weighted>
0.0000

> <Gold.Chemscore.DEClash.Weighted>
0.0000

> <Gold.Chemscore.DEInternal.Weighted>
3.0055

> <Gold.Chemscore.Rot.Weighted>
3.8922

> <Gold.Chemscore.Internal.Correction.Weighted>
   9.000000E+99

> <Gold.Protein.RotatedTorsions>
[ 6907 6896 6895 6894 ] final  -43.75 input  -60.11 | X-H torsion
[ 7974 7965 7964 7962 ] final  109.48 input  175.53 | X-H torsion
[ 8008 7997 7996 7995 ] final  -88.90 input   59.86 | X-H torsion
[ 10167 10162 10161 10158 ] final  157.92 input  -65.29 | X-H torsion
[ 10718 10713 10712 10709 ] final -101.86 input   66.30 | X-H torsion
[ 10763 10752 10751 10750 ] final   95.89 input  -60.55 | X-H torsion
[ 11005 11000 10999 10996 ] final -158.72 input  -57.11 | X-H torsion

> <Gold.Protein.ActiveResidues>
 VAL166  LYS551  ARG553  GLY616  TRP617  ASP618  TYR619  PRO620  LYS621  CYS622 
 ASP623  PHE694  ASN695  SER759  ASP760  ASP761  ALA762  ILE779  LEU786  VAL792 
 PHE793  MET794  SER795  GLU796  ALA797  LYS798  CYS799  TRP800  GLU811  SER814 

> <Gold.Protein.RotatedAtoms>
  150.9405  134.8814  159.7608 H   0  0  0  0  0  0  0  0  0  0  0  0  # atno 6907 bound_to 6896
  152.5078  134.3949  159.9406 H   0  0  0  0  0  0  0  0  0  0  0  0  # atno 6908 bound_to 6896
  151.3970  133.3730  159.2762 H   0  0  0  0  0  0  0  0  0  0  0  0  # atno 6909 bound_to 6896
  145.2672  139.2680  143.3985 H   0  0  0  0  0  0  0  0  0  0  0  0  # atno 7974 bound_to 7965
  154.6803  140.0548  157.0258 H   0  0  0  0  0  0  0  0  0  0  0  0  # atno 8008 bound_to 7997
  155.0961  140.3224  155.4541 H   0  0  0  0  0  0  0  0  0  0  0  0  # atno 8009 bound_to 7997
  156.2691  140.2039  156.6088 H   0  0  0  0  0  0  0  0  0  0  0  0  # atno 8010 bound_to 7997
  139.4824  144.4873  151.8359 H   0  0  0  0  0  0  0  0  0  0  0  0  # atno 10167 bound_to 10162
  156.0209  130.5393  150.7025 H   0  0  0  0  0  0  0  0  0  0  0  0  # atno 10718 bound_to 10713
  153.2585  135.4238  155.0870 H   0  0  0  0  0  0  0  0  0  0  0  0  # atno 10763 bound_to 10752
  154.8410  135.3443  154.6412 H   0  0  0  0  0  0  0  0  0  0  0  0  # atno 10764 bound_to 10752
  153.6832  135.7037  153.5169 H   0  0  0  0  0  0  0  0  0  0  0  0  # atno 10765 bound_to 10752
  140.6505  134.4455  157.5235 H   0  0  0  0  0  0  0  0  0  0  0  0  # atno 11005 bound_to 11000
  146.3257  140.3105  142.8626 LP  0  0  0  0  0  0  0  0  0  0  0  0  # atno 17320 bound_to 7965
  144.9367  140.8034  143.5656 LP  0  0  0  0  0  0  0  0  0  0  0  0  # atno 17321 bound_to 7965
  140.4354  144.2059  150.5889 LP  0  0  0  0  0  0  0  0  0  0  0  0  # atno 17342 bound_to 10162
  140.4737  143.2403  151.9053 LP  0  0  0  0  0  0  0  0  0  0  0  0  # atno 17343 bound_to 10162
  157.4682  131.0890  151.0672 LP  0  0  0  0  0  0  0  0  0  0  0  0  # atno 17370 bound_to 10713
  157.1140  130.6033  149.5488 LP  0  0  0  0  0  0  0  0  0  0  0  0  # atno 17371 bound_to 10713
  139.9047  134.8475  156.1752 LP  0  0  0  0  0  0  0  0  0  0  0  0  # atno 17394 bound_to 11000
  141.0540  133.6874  156.1825 LP  0  0  0  0  0  0  0  0  0  0  0  0  # atno 17395 bound_to 11000

$$$$
