AV-unprocessed.smi:2017|AV-procd|sdf|8168|dock2
  -GOLD-   2272010413D 1   1.00000     0.00000
 Structure written by MMmdl.
 44 45  0  0  0  0  0  0  0  0  2 V2000
  151.7061  135.8556  155.8457 O   0  0  0  0  0  0  0  0  0  0  0  0
  150.8071  135.8744  155.0035 C   0  0  0  0  0  0  0  0  0  0  0  0
  149.9979  134.6081  154.6914 C   0  0  0  0  0  0  0  0  0  0  0  0
  149.5532  133.8975  155.9013 N   0  0  0  0  0  0  0  0  0  0  0  0
  148.1694  133.7802  156.1200 C   0  0  0  0  0  0  0  0  0  0  0  0
  147.6717  133.1436  157.1973 C   0  0  0  0  0  0  0  0  0  0  0  0
  148.6098  132.5667  158.1523 C   0  0  0  0  0  0  0  0  0  0  0  0
  148.1738  131.9867  159.1447 O   0  0  0  0  0  0  0  0  0  0  0  0
  149.9433  132.7024  157.8931 N   0  5  0  0  0  0  0  0  0  0  0  0
  150.4348  133.3503  156.7915 C   0  0  0  0  0  0  0  0  0  0  0  0
  151.6425  133.4585  156.5752 O   0  0  0  0  0  0  0  0  0  0  0  0
  150.4927  136.9662  154.2899 N   0  0  0  0  0  0  0  0  0  0  0  0
  151.1392  138.2666  154.4198 C   0  0  0  0  0  0  0  0  0  0  0  0
  151.3826  138.6334  155.8937 C   0  0  0  0  0  0  0  0  0  0  0  0
  151.2622  140.1389  156.1575 C   0  0  0  0  0  0  0  0  0  0  0  0
  152.3049  140.5444  157.0332 O   0  0  0  0  0  0  0  0  0  0  0  0
  151.8887  141.3958  158.0931 C   0  0  0  0  0  0  0  0  0  0  0  0
  151.4633  142.7792  157.5568 C   0  0  0  0  0  0  0  0  0  0  0  0
  151.1412  143.7501  158.7051 C   0  0  0  0  0  0  0  0  0  0  0  0
  152.3233  143.8773  159.6789 C   0  0  0  0  0  0  0  0  0  0  0  0
  152.7527  142.5020  160.2130 C   0  0  0  0  0  0  0  0  0  0  0  0
  153.0763  141.5362  159.0617 C   0  0  0  0  0  0  0  0  0  0  0  0
  149.1378  134.8622  154.0689 H   0  0  0  0  0  0  0  0  0  0  0  0
  150.6159  133.9559  154.0728 H   0  0  0  0  0  0  0  0  0  0  0  0
  147.5443  134.2288  155.3621 H   0  0  0  0  0  0  0  0  0  0  0  0
  146.6058  133.0593  157.3494 H   0  0  0  0  0  0  0  0  0  0  0  0
  149.7435  136.8928  153.6170 H   0  0  0  0  0  0  0  0  0  0  0  0
  152.0878  138.2247  153.8839 H   0  0  0  0  0  0  0  0  0  0  0  0
  150.5395  139.0341  153.9274 H   0  0  0  0  0  0  0  0  0  0  0  0
  150.6600  138.1109  156.5218 H   0  0  0  0  0  0  0  0  0  0  0  0
  152.3684  138.2868  156.2063 H   0  0  0  0  0  0  0  0  0  0  0  0
  151.3028  140.6838  155.2142 H   0  0  0  0  0  0  0  0  0  0  0  0
  150.2953  140.3515  156.6159 H   0  0  0  0  0  0  0  0  0  0  0  0
  151.0588  140.9373  158.6343 H   0  0  0  0  0  0  0  0  0  0  0  0
  152.2631  143.1948  156.9427 H   0  0  0  0  0  0  0  0  0  0  0  0
  150.5915  142.6915  156.9093 H   0  0  0  0  0  0  0  0  0  0  0  0
  150.8850  144.7302  158.3020 H   0  0  0  0  0  0  0  0  0  0  0  0
  150.2608  143.3983  159.2441 H   0  0  0  0  0  0  0  0  0  0  0  0
  153.1648  144.3516  159.1721 H   0  0  0  0  0  0  0  0  0  0  0  0
  152.0531  144.5310  160.5087 H   0  0  0  0  0  0  0  0  0  0  0  0
  153.6208  142.6098  160.8636 H   0  0  0  0  0  0  0  0  0  0  0  0
  151.9551  142.0831  160.8280 H   0  0  0  0  0  0  0  0  0  0  0  0
  153.3444  140.5590  159.4644 H   0  0  0  0  0  0  0  0  0  0  0  0
  153.9516  141.8975  158.5200 H   0  0  0  0  0  0  0  0  0  0  0  0
  1  2  2  0  0  0  0
  2  3  1  0  0  0  0
  2 12  1  0  0  0  0
  3  4  1  0  0  0  0
  3 23  1  0  0  0  0
  3 24  1  0  0  0  0
  4 10  1  0  0  0  0
  4  5  1  0  0  0  0
  5  6  2  0  0  0  0
  5 25  1  0  0  0  0
  6  7  1  0  0  0  0
  6 26  1  0  0  0  0
  7  8  2  0  0  0  0
  7  9  1  0  0  0  0
  9 10  1  0  0  0  0
 10 11  2  0  0  0  0
 12 13  1  0  0  0  0
 12 27  1  0  0  0  0
 13 14  1  0  0  0  0
 13 28  1  0  0  0  0
 13 29  1  0  0  0  0
 14 15  1  0  0  0  0
 14 30  1  0  0  0  0
 14 31  1  0  0  0  0
 15 16  1  0  0  0  0
 15 32  1  0  0  0  0
 15 33  1  0  0  0  0
 16 17  1  0  0  0  0
 17 22  1  0  0  0  0
 17 18  1  0  0  0  0
 17 34  1  0  0  0  0
 18 19  1  0  0  0  0
 18 35  1  0  0  0  0
 18 36  1  0  0  0  0
 19 20  1  0  0  0  0
 19 37  1  0  0  0  0
 19 38  1  0  0  0  0
 20 21  1  0  0  0  0
 20 39  1  0  0  0  0
 20 40  1  0  0  0  0
 21 22  1  0  0  0  0
 21 41  1  0  0  0  0
 21 42  1  0  0  0  0
 22 43  1  0  0  0  0
 22 44  1  0  0  0  0
M  CHG  1   9  -1
M  END
> <s_m_source_file>
AV-unprocessed.smi

> <i_m_source_file_index>
2017

> <i_lp_mmshare_version>
43012

> <i_f3d_flags>
0

> <s_epik_input>
Tz1jMVtuSF1jKD1PKVtjSF1bY0hdbjFbQ0gyXUMoPU8pW05IXVtDSDJdW0NIMl1bQ0gyXU9bQ0hdMltDSDJdW0NIMl1bQ0gyXVtDSDJdW0NIMl0y

> <s_epik_cmdline>
J2VwaWtfcHl0aG9uJywgJy1waCcsICc3LjAnLCAnLXRuJywgJzgnLCAnLW1hJywgJzIwMCcsICctbWV0YWxfYmluZGluZycsICctaW1hZScsICc8aW5maWxlLm1hZT4nLCAnLW9tYWUnLCAnPG91dGZpbGUubWFlPic=

> <r_lp_tautomer_probability>
0.999537

> <r_epik_Ionization_Penalty>
3.07707

> <r_epik_Ionization_Penalty_Charging>
2.73667e-08

> <r_epik_Ionization_Penalty_Neutral>
3.07707

> <r_epik_State_Penalty>
3.07611

> <r_epik_Charging_Adjusted_Penalty>
3.07611

> <i_epik_Tot_Q>
-1

> <i_epik_Tot_abs_Q>
1

> <r_epik_Metal_State_Penalty>
0.459703

> <b_epik_Metal_Only>
1

> <s_lp_Force_Field>
OPLS_2005

> <r_lp_Energy>
18.9634

> <b_lp_Chiralities_Consistent>
1

> <s_lp_Variant>
AV-unprocessed.smi:2017-2

> <Gold.Version>
5.8.1

> <Gold.Id.Protein>
6NUR|6NUR_protein|mol2

> <Gold.PLP.Fitness>
45.9100

> <Gold.PLP.PLP>
-35.1038

> <Gold.PLP.part.hbond>
-4.7418

> <Gold.PLP.part.metal>
0.0000

> <Gold.PLP.part.buried>
-2.4748

> <Gold.PLP.part.nonpolar>
-27.6516

> <Gold.PLP.part.repulsive>
0.1012

> <Gold.PLP.ligand.clash>
0.0000

> <Gold.PLP.ligand.torsion>
1.1953

> <Gold.PLP.Chemscore.Hbond>
4.3295

> <Gold.PLP.Chemscore.CHOScore>
0.0000

> <Gold.PLP.Chemscore.Metal>
0.0000

> <Gold.Chemscore.Hbonds>
donor molecule, donor type, donor heavy atom, donor atom, acceptor molecule, acceptor atom, score
      L1  H    12    27       P1  7948  1.00
      P1  H  6896  6908       L1     9  1.90
      P1  H  7997  8009       L1    16  0.53
      P1  H 10752 10765       L1     1  1.00

> <Gold.PLP.Chemscore.Internal.Correction>
0.2084

> <Gold.Rescore>
     Score         DG    S(hbond)    S(metal)    S(lipo)     H(rot)  DE(clash)    DE(int)     intcor
     10.08     -17.32       2.48        0.00      88.61       2.66       0.09       7.15       ----

> <Gold.Chemscore.Fitness>
10.0818

> <Gold.Chemscore.DG>
-17.3170

> <Gold.Chemscore.ZeroCoef>
-5.4800

> <Gold.Chemscore.Hbond>
2.4768

> <Gold.Chemscore.Metal>
0.0000

> <Gold.Chemscore.Lipo>
88.6051

> <Gold.Chemscore.Internal_Hbond>
0.0000

> <Gold.Chemscore.DEClash>
0.0874

> <Gold.Chemscore.DEInternal>
7.1478

> <Gold.Chemscore.Rot>
2.6572

> <Gold.Chemscore.Internal.Correction>
   9.000000E+99

> <Gold.Chemscore.Hbonds>
donor molecule, donor type, donor heavy atom, donor atom, acceptor molecule, acceptor atom, score
      L1  H    12    27       P1  7948  0.55
      P1  H  6896  6908       L1     9  0.21
      P1  H  7997  8009       L1    16  0.51
      P1  H 10752 10765       L1     1  0.77

> <Gold.Chemscore.Hbond.Weighted>
-8.2727

> <Gold.Chemscore.Metal.Weighted>
-0.0000

> <Gold.Chemscore.Lipo.Weighted>
-10.3668

> <Gold.Chemscore.Internal_Hbond.Weighted>
0.0000

> <Gold.Chemscore.DEClash.Weighted>
0.0874

> <Gold.Chemscore.DEInternal.Weighted>
7.1478

> <Gold.Chemscore.Rot.Weighted>
6.8024

> <Gold.Chemscore.Internal.Correction.Weighted>
   9.000000E+99

> <Gold.Protein.RotatedTorsions>
[ 6907 6896 6895 6894 ] final   99.74 input  -60.11 | X-H torsion
[ 7974 7965 7964 7962 ] final  141.90 input  175.53 | X-H torsion
[ 8008 7997 7996 7995 ] final  172.77 input   59.86 | X-H torsion
[ 10167 10162 10161 10158 ] final -110.25 input  -65.29 | X-H torsion
[ 10718 10713 10712 10709 ] final  -49.09 input   66.30 | X-H torsion
[ 10763 10752 10751 10750 ] final -142.36 input  -60.55 | X-H torsion
[ 11005 11000 10999 10996 ] final  175.23 input  -57.11 | X-H torsion

> <Gold.Protein.ActiveResidues>
 VAL166  LYS551  ARG553  GLY616  TRP617  ASP618  TYR619  PRO620  LYS621  CYS622 
 ASP623  PHE694  ASN695  SER759  ASP760  ASP761  ALA762  ILE779  LEU786  VAL792 
 PHE793  MET794  SER795  GLU796  ALA797  LYS798  CYS799  TRP800  GLU811  SER814 

> <Gold.Protein.RotatedAtoms>
  152.5386  134.0383  159.8055 H   0  0  0  0  0  0  0  0  0  0  0  0  # atno 6907 bound_to 6896
  151.0543  133.5590  159.2647 H   0  0  0  0  0  0  0  0  0  0  0  0  # atno 6908 bound_to 6896
  151.2512  135.0630  159.9116 H   0  0  0  0  0  0  0  0  0  0  0  0  # atno 6909 bound_to 6896
  144.9055  139.5364  143.5733 H   0  0  0  0  0  0  0  0  0  0  0  0  # atno 7974 bound_to 7965
  156.1141  140.1477  156.9297 H   0  0  0  0  0  0  0  0  0  0  0  0  # atno 8008 bound_to 7997
  154.4788  140.0886  156.7370 H   0  0  0  0  0  0  0  0  0  0  0  0  # atno 8009 bound_to 7997
  155.4544  140.3436  155.4307 H   0  0  0  0  0  0  0  0  0  0  0  0  # atno 8010 bound_to 7997
  140.1465  143.4235  152.1525 H   0  0  0  0  0  0  0  0  0  0  0  0  # atno 10167 bound_to 10162
  156.1926  130.4153  149.9350 H   0  0  0  0  0  0  0  0  0  0  0  0  # atno 10718 bound_to 10713
  154.8511  135.3498  154.6016 H   0  0  0  0  0  0  0  0  0  0  0  0  # atno 10763 bound_to 10752
  153.6625  135.6989  153.5177 H   0  0  0  0  0  0  0  0  0  0  0  0  # atno 10764 bound_to 10752
  153.2807  135.4264  155.1033 H   0  0  0  0  0  0  0  0  0  0  0  0  # atno 10765 bound_to 10752
  140.3599  134.7122  157.4324 H   0  0  0  0  0  0  0  0  0  0  0  0  # atno 11005 bound_to 11000
  146.3131  139.7819  142.9004 LP  0  0  0  0  0  0  0  0  0  0  0  0  # atno 17320 bound_to 7965
  145.3544  141.0314  143.3320 LP  0  0  0  0  0  0  0  0  0  0  0  0  # atno 17321 bound_to 7965
  139.5446  144.7287  151.4623 LP  0  0  0  0  0  0  0  0  0  0  0  0  # atno 17342 bound_to 10162
  140.6729  143.8255  150.7021 LP  0  0  0  0  0  0  0  0  0  0  0  0  # atno 17343 bound_to 10162
  156.7085  130.8961  151.3607 LP  0  0  0  0  0  0  0  0  0  0  0  0  # atno 17370 bound_to 10713
  157.6938  130.9261  150.0588 LP  0  0  0  0  0  0  0  0  0  0  0  0  # atno 17371 bound_to 10713
  140.0635  134.5962  155.8722 LP  0  0  0  0  0  0  0  0  0  0  0  0  # atno 17394 bound_to 11000
  141.1987  133.6603  156.5806 LP  0  0  0  0  0  0  0  0  0  0  0  0  # atno 17395 bound_to 11000

$$$$
