AV-unprocessed.smi:607|AV-procd|sdf|3042|dock4
  -GOLD-   2262023563D 1   1.00000     0.00000
 Structure written by MMmdl.
 42 43  0  0  0  0  0  0  0  0  1 V2000
  153.7755  140.3142  159.3258 C   0  0  0  0  0  0  0  0  0  0  0  0
  153.4239  141.4872  160.1954 C   0  0  0  0  0  0  0  0  0  0  0  0
  153.7050  141.4409  161.4862 N   0  0  0  0  0  0  0  0  0  0  0  0
  153.2716  142.6189  161.9747 N   0  0  0  0  0  0  0  0  0  0  0  0
  153.4249  142.8975  163.3895 C   0  0  0  0  0  0  0  0  0  0  0  0
  152.7202  143.4155  160.9896 C   0  0  0  0  0  0  0  0  0  0  0  0
  152.1675  144.7729  161.2939 C   0  0  0  0  0  0  0  0  0  0  0  0
  152.7913  142.7078  159.8147 C   0  0  0  0  0  0  0  0  0  0  0  0
  152.3246  143.0811  158.4209 C   0  0  2  0  0  0  0  0  0  0  0  0
  151.9037  144.5605  158.3455 C   0  0  0  0  0  0  0  0  0  0  0  0
  151.2273  142.1117  157.9500 C   0  0  0  0  0  0  0  0  0  0  0  0
  150.1240  142.0918  158.4962 O   0  0  0  0  0  0  0  0  0  0  0  0
  151.5527  141.2994  156.9307 N   0  0  0  0  0  0  0  0  0  0  0  0
  150.7124  140.2405  156.3743 C   0  0  0  0  0  0  0  0  0  0  0  0
  150.2307  139.3182  157.4212 C   0  0  0  0  0  0  0  0  0  0  0  0
  149.8538  138.5960  158.2430 N   0  0  0  0  0  0  0  0  0  0  0  0
  149.5393  140.8084  155.5522 C   0  0  0  0  0  0  0  0  0  0  0  0
  149.2616  139.8015  154.4265 C   0  0  0  0  0  0  0  0  0  0  0  0
  150.4502  138.8341  154.4071 C   0  0  0  0  0  0  0  0  0  0  0  0
  151.5063  139.4617  155.3176 C   0  0  0  0  0  0  0  0  0  0  0  0
  152.8764  139.8261  158.9495 H   0  0  0  0  0  0  0  0  0  0  0  0
  154.3564  139.5669  159.8677 H   0  0  0  0  0  0  0  0  0  0  0  0
  154.3669  140.6306  158.4665 H   0  0  0  0  0  0  0  0  0  0  0  0
  152.4864  143.2772  163.7943 H   0  0  0  0  0  0  0  0  0  0  0  0
  154.2045  143.6462  163.5322 H   0  0  0  0  0  0  0  0  0  0  0  0
  153.6987  141.9919  163.9330 H   0  0  0  0  0  0  0  0  0  0  0  0
  152.0842  145.3813  160.3948 H   0  0  0  0  0  0  0  0  0  0  0  0
  152.8069  145.3110  161.9934 H   0  0  0  0  0  0  0  0  0  0  0  0
  151.1741  144.6923  161.7354 H   0  0  0  0  0  0  0  0  0  0  0  0
  153.1446  142.9561  157.7130 H   0  0  0  0  0  0  0  0  0  0  0  0
  151.0850  144.7879  159.0282 H   0  0  0  0  0  0  0  0  0  0  0  0
  151.5831  144.8319  157.3389 H   0  0  0  0  0  0  0  0  0  0  0  0
  152.7381  145.2120  158.6062 H   0  0  0  0  0  0  0  0  0  0  0  0
  152.4809  141.3873  156.5436 H   0  0  0  0  0  0  0  0  0  0  0  0
  148.6549  140.9934  156.1633 H   0  0  0  0  0  0  0  0  0  0  0  0
  149.8218  141.7626  155.1040 H   0  0  0  0  0  0  0  0  0  0  0  0
  148.3338  139.2580  154.6078 H   0  0  0  0  0  0  0  0  0  0  0  0
  149.1559  140.3164  153.4710 H   0  0  0  0  0  0  0  0  0  0  0  0
  150.1424  137.8711  154.8159 H   0  0  0  0  0  0  0  0  0  0  0  0
  150.8275  138.6572  153.3995 H   0  0  0  0  0  0  0  0  0  0  0  0
  152.1204  140.1444  154.7276 H   0  0  0  0  0  0  0  0  0  0  0  0
  152.1742  138.7179  155.7542 H   0  0  0  0  0  0  0  0  0  0  0  0
  1  2  1  0  0  0  0
  1 21  1  0  0  0  0
  1 22  1  0  0  0  0
  1 23  1  0  0  0  0
  2  8  1  0  0  0  0
  2  3  2  0  0  0  0
  3  4  1  0  0  0  0
  4  5  1  0  0  0  0
  4  6  1  0  0  0  0
  5 24  1  0  0  0  0
  5 25  1  0  0  0  0
  5 26  1  0  0  0  0
  6  7  1  0  0  0  0
  6  8  2  0  0  0  0
  7 27  1  0  0  0  0
  7 28  1  0  0  0  0
  7 29  1  0  0  0  0
  8  9  1  0  0  0  0
  9 10  1  0  0  0  0
  9 11  1  0  0  0  0
  9 30  1  0  0  0  0
 10 31  1  0  0  0  0
 10 32  1  0  0  0  0
 10 33  1  0  0  0  0
 11 12  2  0  0  0  0
 11 13  1  0  0  0  0
 13 14  1  0  0  0  0
 13 34  1  0  0  0  0
 14 20  1  0  0  0  0
 14 15  1  0  0  0  0
 14 17  1  0  0  0  0
 15 16  3  0  0  0  0
 17 18  1  0  0  0  0
 17 35  1  0  0  0  0
 17 36  1  0  0  0  0
 18 19  1  0  0  0  0
 18 37  1  0  0  0  0
 18 38  1  0  0  0  0
 19 20  1  0  0  0  0
 19 39  1  0  0  0  0
 19 40  1  0  0  0  0
 20 41  1  0  0  0  0
 20 42  1  0  0  0  0
M  END
> <s_m_source_file>
AV-unprocessed.smi

> <i_m_source_file_index>
607

> <i_lp_mmshare_version>
43012

> <i_f3d_flags>
0

> <s_epik_input>
W0NIM11jMW5uKFtDSDNdKWMoW0NIM10pYzFbQ0BIXShbQ0gzXSlDKD1PKVtOSF1DMihDI04pW0NIMl1bQ0gyXVtDSDJdW0NIMl0y

> <s_epik_cmdline>
J2VwaWtfcHl0aG9uJywgJy1waCcsICc3LjAnLCAnLXRuJywgJzgnLCAnLW1hJywgJzIwMCcsICctbWV0YWxfYmluZGluZycsICctaW1hZScsICc8aW5maWxlLm1hZT4nLCAnLW9tYWUnLCAnPG91dGZpbGUubWFlPic=

> <r_lp_tautomer_probability>
1

> <r_epik_Ionization_Penalty>
0.00342632

> <r_epik_Ionization_Penalty_Charging>
0

> <r_epik_Ionization_Penalty_Neutral>
0.00342632

> <r_epik_State_Penalty>
0.00242724

> <r_epik_Charging_Adjusted_Penalty>
0.00242724

> <i_epik_Tot_Q>
0

> <i_epik_Tot_abs_Q>
0

> <r_epik_Metal_State_Penalty>
-0

> <b_epik_Metal_Only>
0

> <s_lp_Force_Field>
OPLS_2005

> <r_lp_Energy>
13.4407

> <b_lp_Chiralities_Consistent>
1

> <s_lp_Variant>
AV-unprocessed.smi:607-1

> <Gold.Version>
5.8.1

> <Gold.Id.Protein>
6NUR|6NUR_protein|mol2

> <Gold.PLP.Fitness>
45.2181

> <Gold.PLP.PLP>
-46.6991

> <Gold.PLP.part.hbond>
0.0000

> <Gold.PLP.part.metal>
0.0000

> <Gold.PLP.part.buried>
-3.1015

> <Gold.PLP.part.nonpolar>
-41.6944

> <Gold.PLP.part.repulsive>
0.1768

> <Gold.PLP.ligand.clash>
1.0684

> <Gold.PLP.ligand.torsion>
0.2608

> <Gold.PLP.Chemscore.Hbond>
0.0000

> <Gold.PLP.Chemscore.CHOScore>
0.0000

> <Gold.PLP.Chemscore.Metal>
0.0000

> <Gold.PLP.Chemscore.Internal.Correction>
0.1089

> <Gold.Rescore>
     Score         DG    S(hbond)    S(metal)    S(lipo)     H(rot)  DE(clash)    DE(int)     intcor
     14.74     -16.03       0.00        0.00     120.22       1.37       0.04       1.25       ----

> <Gold.Chemscore.Fitness>
14.7426

> <Gold.Chemscore.DG>
-16.0334

> <Gold.Chemscore.ZeroCoef>
-5.4800

> <Gold.Chemscore.Hbond>
0.0000

> <Gold.Chemscore.Metal>
0.0000

> <Gold.Chemscore.Lipo>
120.2196

> <Gold.Chemscore.Internal_Hbond>
0.0000

> <Gold.Chemscore.DEClash>
0.0428

> <Gold.Chemscore.DEInternal>
1.2480

> <Gold.Chemscore.Rot>
1.3720

> <Gold.Chemscore.Internal.Correction>
   9.000000E+99

> <Gold.Chemscore.Hbond.Weighted>
-0.0000

> <Gold.Chemscore.Metal.Weighted>
-0.0000

> <Gold.Chemscore.Lipo.Weighted>
-14.0657

> <Gold.Chemscore.Internal_Hbond.Weighted>
0.0000

> <Gold.Chemscore.DEClash.Weighted>
0.0428

> <Gold.Chemscore.DEInternal.Weighted>
1.2480

> <Gold.Chemscore.Rot.Weighted>
3.5123

> <Gold.Chemscore.Internal.Correction.Weighted>
   9.000000E+99

> <Gold.Protein.RotatedTorsions>
[ 6907 6896 6895 6894 ] final  -61.80 input  -60.11 | X-H torsion
[ 7974 7965 7964 7962 ] final   73.94 input  175.53 | X-H torsion
[ 8008 7997 7996 7995 ] final  134.94 input   59.86 | X-H torsion
[ 10167 10162 10161 10158 ] final  -24.39 input  -65.29 | X-H torsion
[ 10718 10713 10712 10709 ] final  158.38 input   66.30 | X-H torsion
[ 10763 10752 10751 10750 ] final  -78.06 input  -60.55 | X-H torsion
[ 11005 11000 10999 10996 ] final   90.25 input  -57.11 | X-H torsion

> <Gold.Protein.ActiveResidues>
 VAL166  LYS551  ARG553  GLY616  TRP617  ASP618  TYR619  PRO620  LYS621  CYS622 
 ASP623  PHE694  ASN695  SER759  ASP760  ASP761  ALA762  ILE779  LEU786  VAL792 
 PHE793  MET794  SER795  GLU796  ALA797  LYS798  CYS799  TRP800  GLU811  SER814 

> <Gold.Protein.RotatedAtoms>
  150.7759  134.6656  159.6363 H   0  0  0  0  0  0  0  0  0  0  0  0  # atno 6907 bound_to 6896
  152.3829  134.6560  160.0145 H   0  0  0  0  0  0  0  0  0  0  0  0  # atno 6908 bound_to 6896
  151.6884  133.3275  159.3273 H   0  0  0  0  0  0  0  0  0  0  0  0  # atno 6909 bound_to 6896
  145.7345  139.2696  143.1522 H   0  0  0  0  0  0  0  0  0  0  0  0  # atno 7974 bound_to 7965
  156.3001  140.2483  156.3499 H   0  0  0  0  0  0  0  0  0  0  0  0  # atno 8008 bound_to 7997
  154.8975  140.0407  157.1893 H   0  0  0  0  0  0  0  0  0  0  0  0  # atno 8009 bound_to 7997
  154.8534  140.2909  155.5588 H   0  0  0  0  0  0  0  0  0  0  0  0  # atno 8010 bound_to 7997
  140.7288  143.4358  151.0732 H   0  0  0  0  0  0  0  0  0  0  0  0  # atno 10167 bound_to 10162
  157.1786  131.0627  151.2144 H   0  0  0  0  0  0  0  0  0  0  0  0  # atno 10718 bound_to 10713
  154.5210  135.5742  153.6681 H   0  0  0  0  0  0  0  0  0  0  0  0  # atno 10763 bound_to 10752
  152.9917  135.6182  154.2754 H   0  0  0  0  0  0  0  0  0  0  0  0  # atno 10764 bound_to 10752
  154.2675  135.2854  155.2732 H   0  0  0  0  0  0  0  0  0  0  0  0  # atno 10765 bound_to 10752
  139.8859  134.8602  156.3258 H   0  0  0  0  0  0  0  0  0  0  0  0  # atno 11005 bound_to 11000
  146.0506  140.8073  142.9783 LP  0  0  0  0  0  0  0  0  0  0  0  0  # atno 17320 bound_to 7965
  144.6885  140.3047  143.7257 LP  0  0  0  0  0  0  0  0  0  0  0  0  # atno 17321 bound_to 7965
  139.8019  143.8071  152.3164 LP  0  0  0  0  0  0  0  0  0  0  0  0  # atno 17342 bound_to 10162
  139.8091  144.7343  150.9722 LP  0  0  0  0  0  0  0  0  0  0  0  0  # atno 17343 bound_to 10162
  157.3974  130.7315  149.6742 LP  0  0  0  0  0  0  0  0  0  0  0  0  # atno 17370 bound_to 10713
  155.9727  130.4130  150.4060 LP  0  0  0  0  0  0  0  0  0  0  0  0  # atno 17371 bound_to 10713
  140.9756  133.7299  156.0597 LP  0  0  0  0  0  0  0  0  0  0  0  0  # atno 17394 bound_to 11000
  140.7815  134.3720  157.5486 LP  0  0  0  0  0  0  0  0  0  0  0  0  # atno 17395 bound_to 11000

$$$$
