AV-unprocessed.smi:1827|AV-procd|sdf|7419|dock7
  -GOLD-   22720 9103D 1   1.00000     0.00000
 Structure written by MMmdl.
 43 44  0  0  0  0  0  0  0  0  1 V2000
  145.0860  134.8062  151.2223 C   0  0  0  0  0  0  0  0  0  0  0  0
  143.8365  135.1201  151.9979 C   0  0  0  0  0  0  0  0  0  0  0  0
  142.9273  134.1666  152.1545 N   0  0  0  0  0  0  0  0  0  0  0  0
  141.9759  134.7243  152.9340 N   0  0  0  0  0  0  0  0  0  0  0  0
  142.2495  136.0260  153.2889 C   0  0  0  0  0  0  0  0  0  0  0  0
  141.3412  136.8277  154.1602 C   0  0  0  0  0  0  0  0  0  0  0  0
  143.4322  136.3147  152.6721 C   0  0  0  0  0  0  0  0  0  0  0  0
  144.1132  137.5523  152.7859 N   0  0  0  0  0  0  0  0  0  0  0  0
  145.4338  137.7329  152.9368 C   0  0  0  0  0  0  0  0  0  0  0  0
  146.2706  136.8305  152.9565 O   0  0  0  0  0  0  0  0  0  0  0  0
  145.7399  139.0335  153.0445 N   0  0  0  0  0  0  0  0  0  0  0  0
  147.0864  139.5685  153.2218 C   0  0  0  0  0  0  0  0  0  0  0  0
  147.9070  138.6894  154.1801 C   0  0  0  0  0  0  0  0  0  0  0  0
  149.2764  139.3236  154.4775 C   0  0  0  0  0  0  0  0  0  0  0  0
  149.1125  140.6603  155.0580 N   0  0  0  0  0  0  0  0  0  0  0  0
  150.4397  141.1861  155.4517 C   0  0  0  0  0  0  0  0  0  0  0  0
  151.3891  140.1367  156.0423 C   0  0  0  0  0  0  0  0  0  0  0  0
  150.9567  139.4502  157.1028 N   0  0  0  0  0  0  0  0  0  0  0  0
  152.4962  139.9461  155.5434 O   0  0  0  0  0  0  0  0  0  0  0  0
  148.4128  141.5425  154.1126 C   0  0  0  0  0  0  0  0  0  0  0  0
  147.0116  140.9912  153.7938 C   0  0  0  0  0  0  0  0  0  0  0  0
  141.1569  134.2060  153.2186 H   0  0  0  0  0  0  0  0  0  0  0  0
  145.9442  135.3489  151.6184 H   0  0  0  0  0  0  0  0  0  0  0  0
  144.9725  135.0749  150.1720 H   0  0  0  0  0  0  0  0  0  0  0  0
  145.3269  133.7436  151.2666 H   0  0  0  0  0  0  0  0  0  0  0  0
  141.8067  137.7683  154.4547 H   0  0  0  0  0  0  0  0  0  0  0  0
  141.0910  136.2788  155.0681 H   0  0  0  0  0  0  0  0  0  0  0  0
  140.4131  137.0611  153.6384 H   0  0  0  0  0  0  0  0  0  0  0  0
  143.5518  138.3809  152.6557 H   0  0  0  0  0  0  0  0  0  0  0  0
  144.9861  139.7040  153.0103 H   0  0  0  0  0  0  0  0  0  0  0  0
  147.5880  139.6101  152.2530 H   0  0  0  0  0  0  0  0  0  0  0  0
  147.3627  138.5470  155.1152 H   0  0  0  0  0  0  0  0  0  0  0  0
  148.0499  137.6965  153.7522 H   0  0  0  0  0  0  0  0  0  0  0  0
  149.8157  138.6811  155.1748 H   0  0  0  0  0  0  0  0  0  0  0  0
  149.8751  139.3744  153.5661 H   0  0  0  0  0  0  0  0  0  0  0  0
  150.9371  141.6037  154.5750 H   0  0  0  0  0  0  0  0  0  0  0  0
  150.3143  142.0103  156.1569 H   0  0  0  0  0  0  0  0  0  0  0  0
  151.5474  138.7493  157.5259 H   0  0  0  0  0  0  0  0  0  0  0  0
  150.0380  139.6365  157.4780 H   0  0  0  0  0  0  0  0  0  0  0  0
  148.2935  142.5428  154.5282 H   0  0  0  0  0  0  0  0  0  0  0  0
  148.9957  141.6488  153.1961 H   0  0  0  0  0  0  0  0  0  0  0  0
  146.5095  141.6514  153.0857 H   0  0  0  0  0  0  0  0  0  0  0  0
  146.4079  140.9969  154.7028 H   0  0  0  0  0  0  0  0  0  0  0  0
  1  2  1  0  0  0  0
  1 23  1  0  0  0  0
  1 24  1  0  0  0  0
  1 25  1  0  0  0  0
  2  7  1  0  0  0  0
  2  3  2  0  0  0  0
  3  4  1  0  0  0  0
  4 22  1  0  0  0  0
  4  5  1  0  0  0  0
  5  6  1  0  0  0  0
  5  7  2  0  0  0  0
  6 26  1  0  0  0  0
  6 27  1  0  0  0  0
  6 28  1  0  0  0  0
  7  8  1  0  0  0  0
  8  9  1  0  0  0  0
  8 29  1  0  0  0  0
  9 10  2  0  0  0  0
  9 11  1  0  0  0  0
 11 12  1  0  0  0  0
 11 30  1  0  0  0  0
 12 21  1  0  0  0  0
 12 13  1  0  0  0  0
 12 31  1  0  0  0  0
 13 14  1  0  0  0  0
 13 32  1  0  0  0  0
 13 33  1  0  0  0  0
 14 15  1  0  0  0  0
 14 34  1  0  0  0  0
 14 35  1  0  0  0  0
 15 16  1  0  0  0  0
 15 20  1  0  0  0  0
 16 17  1  0  0  0  0
 16 36  1  0  0  0  0
 16 37  1  0  0  0  0
 17 18  1  0  0  0  0
 17 19  2  0  0  0  0
 18 38  1  0  0  0  0
 18 39  1  0  0  0  0
 20 21  1  0  0  0  0
 20 40  1  0  0  0  0
 20 41  1  0  0  0  0
 21 42  1  0  0  0  0
 21 43  1  0  0  0  0
M  END
> <s_m_source_file>
AV-unprocessed.smi

> <i_m_source_file_index>
1827

> <i_lp_mmshare_version>
43012

> <i_f3d_flags>
0

> <s_epik_input>
W0NIM11jMW5bbkhdYyhbQ0gzXSljMVtOSF1DKD1PKVtOSF1bQ0hdMltDSDJdW0NIMl1OKFtDSDJdW0NIMl0yKVtDSDJdQyg9TylbTkgyXQ==

> <s_epik_cmdline>
J2VwaWtfcHl0aG9uJywgJy1waCcsICc3LjAnLCAnLXRuJywgJzgnLCAnLW1hJywgJzIwMCcsICctbWV0YWxfYmluZGluZycsICctaW1hZScsICc8aW5maWxlLm1hZT4nLCAnLW9tYWUnLCAnPG91dGZpbGUubWFlPic=

> <r_lp_tautomer_probability>
0.5

> <r_epik_Ionization_Penalty>
0.165173

> <r_epik_Ionization_Penalty_Charging>
0

> <r_epik_Ionization_Penalty_Neutral>
0.165173

> <r_epik_State_Penalty>
0.154069

> <r_epik_Charging_Adjusted_Penalty>
0.154069

> <i_epik_Tot_Q>
0

> <i_epik_Tot_abs_Q>
0

> <r_epik_Metal_State_Penalty>
0.171338

> <b_epik_Metal_Only>
0

> <s_lp_Force_Field>
OPLS_2005

> <r_lp_Energy>
14.0389

> <b_lp_Chiralities_Consistent>
1

> <s_lp_Variant>
AV-unprocessed.smi:1827-1

> <Gold.Version>
5.8.1

> <Gold.Id.Protein>
6NUR|6NUR_protein|mol2

> <Gold.PLP.Fitness>
39.2973

> <Gold.PLP.PLP>
-31.7745

> <Gold.PLP.part.hbond>
-4.5888

> <Gold.PLP.part.metal>
0.0000

> <Gold.PLP.part.buried>
-3.7980

> <Gold.PLP.part.nonpolar>
-24.2143

> <Gold.PLP.part.repulsive>
1.8708

> <Gold.PLP.ligand.clash>
0.0000

> <Gold.PLP.ligand.torsion>
0.8042

> <Gold.PLP.Chemscore.Hbond>
2.9453

> <Gold.PLP.Chemscore.CHOScore>
0.0000

> <Gold.PLP.Chemscore.Metal>
0.0000

> <Gold.Chemscore.Hbonds>
donor molecule, donor type, donor heavy atom, donor atom, acceptor molecule, acceptor atom, score
      L1  H     8    29       P1 10175  0.82
      L1  H    11    30       P1 10175  1.00
      P1  H  7989  7998       L1    19  0.04
      P1  H  7997  8010       L1    19  1.00

> <Gold.PLP.Chemscore.Internal.Correction>
0.2952

> <Gold.Rescore>
     Score         DG    S(hbond)    S(metal)    S(lipo)     H(rot)  DE(clash)    DE(int)     intcor
     14.68     -17.04       2.95        0.00      57.60       1.96       0.01       2.35       ----

> <Gold.Chemscore.Fitness>
14.6782

> <Gold.Chemscore.DG>
-17.0364

> <Gold.Chemscore.ZeroCoef>
-5.4800

> <Gold.Chemscore.Hbond>
2.9456

> <Gold.Chemscore.Metal>
0.0000

> <Gold.Chemscore.Lipo>
57.6048

> <Gold.Chemscore.Internal_Hbond>
0.0000

> <Gold.Chemscore.DEClash>
0.0089

> <Gold.Chemscore.DEInternal>
2.3494

> <Gold.Chemscore.Rot>
1.9616

> <Gold.Chemscore.Internal.Correction>
   9.000000E+99

> <Gold.Chemscore.Hbonds>
donor molecule, donor type, donor heavy atom, donor atom, acceptor molecule, acceptor atom, score
      L1  H     8    29       P1 10175  0.77
      L1  H    11    30       P1 10175  0.98
      P1  H  7997  8010       L1    19  0.95

> <Gold.Chemscore.Hbond.Weighted>
-9.8383

> <Gold.Chemscore.Metal.Weighted>
-0.0000

> <Gold.Chemscore.Lipo.Weighted>
-6.7398

> <Gold.Chemscore.Internal_Hbond.Weighted>
0.0000

> <Gold.Chemscore.DEClash.Weighted>
0.0089

> <Gold.Chemscore.DEInternal.Weighted>
2.3494

> <Gold.Chemscore.Rot.Weighted>
5.0216

> <Gold.Chemscore.Internal.Correction.Weighted>
   9.000000E+99

> <Gold.Protein.RotatedTorsions>
[ 6907 6896 6895 6894 ] final -155.71 input  -60.11 | X-H torsion
[ 7974 7965 7964 7962 ] final -129.67 input  175.53 | X-H torsion
[ 8008 7997 7996 7995 ] final   78.30 input   59.86 | X-H torsion
[ 10167 10162 10161 10158 ] final -118.21 input  -65.29 | X-H torsion
[ 10718 10713 10712 10709 ] final   74.42 input   66.30 | X-H torsion
[ 10763 10752 10751 10750 ] final  126.06 input  -60.55 | X-H torsion
[ 11005 11000 10999 10996 ] final  132.36 input  -57.11 | X-H torsion

> <Gold.Protein.ActiveResidues>
 VAL166  LYS551  ARG553  GLY616  TRP617  ASP618  TYR619  PRO620  LYS621  CYS622 
 ASP623  PHE694  ASN695  SER759  ASP760  ASP761  ALA762  ILE779  LEU786  VAL792 
 PHE793  MET794  SER795  GLU796  ALA797  LYS798  CYS799  TRP800  GLU811  SER814 

> <Gold.Protein.RotatedAtoms>
  151.2766  133.4229  159.2624 H   0  0  0  0  0  0  0  0  0  0  0  0  # atno 6907 bound_to 6896
  151.0398  134.9599  159.8165 H   0  0  0  0  0  0  0  0  0  0  0  0  # atno 6908 bound_to 6896
  152.5363  134.2724  159.9029 H   0  0  0  0  0  0  0  0  0  0  0  0  # atno 6909 bound_to 6896
  144.9549  140.7384  143.4765 H   0  0  0  0  0  0  0  0  0  0  0  0  # atno 7974 bound_to 7965
  155.8538  140.3457  155.5711 H   0  0  0  0  0  0  0  0  0  0  0  0  # atno 8008 bound_to 7997
  155.8008  140.0885  157.1977 H   0  0  0  0  0  0  0  0  0  0  0  0  # atno 8009 bound_to 7997
  154.4009  140.1466  156.3260 H   0  0  0  0  0  0  0  0  0  0  0  0  # atno 8010 bound_to 7997
  140.0600  143.4977  152.2037 H   0  0  0  0  0  0  0  0  0  0  0  0  # atno 10167 bound_to 10162
  157.6591  130.9676  150.1208 H   0  0  0  0  0  0  0  0  0  0  0  0  # atno 10718 bound_to 10713
  153.6873  135.3304  155.3193 H   0  0  0  0  0  0  0  0  0  0  0  0  # atno 10763 bound_to 10752
  154.8449  135.4423  154.1544 H   0  0  0  0  0  0  0  0  0  0  0  0  # atno 10764 bound_to 10752
  153.2576  135.6988  153.7689 H   0  0  0  0  0  0  0  0  0  0  0  0  # atno 10765 bound_to 10752
  139.9786  134.9555  156.9571 H   0  0  0  0  0  0  0  0  0  0  0  0  # atno 11005 bound_to 11000
  145.2788  139.1926  143.4802 LP  0  0  0  0  0  0  0  0  0  0  0  0  # atno 17320 bound_to 7965
  146.3334  140.2746  142.8607 LP  0  0  0  0  0  0  0  0  0  0  0  0  # atno 17321 bound_to 7965
  139.5900  144.7546  151.3425 LP  0  0  0  0  0  0  0  0  0  0  0  0  # atno 17342 bound_to 10162
  140.7176  143.7223  150.7686 LP  0  0  0  0  0  0  0  0  0  0  0  0  # atno 17343 bound_to 10162
  156.2080  130.3664  149.8706 LP  0  0  0  0  0  0  0  0  0  0  0  0  # atno 17370 bound_to 10713
  156.6592  130.8775  151.3544 LP  0  0  0  0  0  0  0  0  0  0  0  0  # atno 17371 bound_to 10713
  140.5144  134.0970  155.7277 LP  0  0  0  0  0  0  0  0  0  0  0  0  # atno 17394 bound_to 11000
  141.1460  133.9054  157.2214 LP  0  0  0  0  0  0  0  0  0  0  0  0  # atno 17395 bound_to 11000

$$$$
