AV-unprocessed.smi:801|AV-procd|sdf|3789|dock8
  -GOLD-   22720 1223D 1   1.00000     0.00000
 Structure written by MMmdl.
 44 45  0  0  0  0  0  0  0  0  1 V2000
  152.4929  143.3859  160.0038 C   0  0  0  0  0  0  0  0  0  0  0  0
  152.3757  142.2903  159.1094 O   0  0  0  0  0  0  0  0  0  0  0  0
  151.5035  142.5286  158.0144 C   0  0  0  0  0  0  0  0  0  0  0  0
  151.5482  141.3781  156.9923 C   0  0  0  0  0  0  0  0  0  0  0  0
  151.1591  140.1087  157.5736 N   0  0  0  0  0  0  0  0  0  0  0  0
  149.9042  139.5246  157.3786 C   0  0  0  0  0  0  0  0  0  0  0  0
  148.9633  140.2336  156.6155 N   0  0  0  0  0  0  0  0  0  0  0  0
  149.1518  140.6283  155.3441 C   0  0  0  0  0  0  0  0  0  0  0  0
  148.0456  141.4830  154.7356 C   0  0  0  0  0  0  0  0  0  0  0  0
  150.1466  140.3435  154.6776 O   0  0  0  0  0  0  0  0  0  0  0  0
  149.5577  138.3229  157.9382 C   0  0  0  0  0  0  0  0  0  0  0  0
  148.2818  137.7835  157.7628 N   0  0  0  0  0  0  0  0  0  0  0  0
  147.6861  136.5472  158.2475 C   0  0  0  0  0  0  0  0  0  0  0  0
  147.1660  136.6480  159.6702 C   0  0  0  0  0  0  0  0  0  0  0  0
  145.8749  137.1603  159.9255 C   0  0  0  0  0  0  0  0  0  0  0  0
  145.3984  137.2569  161.2473 C   0  0  0  0  0  0  0  0  0  0  0  0
  146.2113  136.8458  162.3211 C   0  0  0  0  0  0  0  0  0  0  0  0
  147.5016  136.3395  162.0724 C   0  0  0  0  0  0  0  0  0  0  0  0
  147.9784  136.2423  160.7505 C   0  0  0  0  0  0  0  0  0  0  0  0
  150.5366  137.6000  158.7698 C   0  0  0  0  0  0  0  0  0  0  0  0
  150.3763  136.5089  159.3142 O   0  0  0  0  0  0  0  0  0  0  0  0
  151.7565  138.2489  158.9460 N   0  0  0  0  0  0  0  0  0  0  0  0
  152.1120  139.4763  158.4025 C   0  0  0  0  0  0  0  0  0  0  0  0
  153.2174  139.9545  158.6595 O   0  0  0  0  0  0  0  0  0  0  0  0
  152.4418  137.7876  159.5264 H   0  0  0  0  0  0  0  0  0  0  0  0
  153.1401  143.1070  160.8350 H   0  0  0  0  0  0  0  0  0  0  0  0
  151.5222  143.6644  160.4164 H   0  0  0  0  0  0  0  0  0  0  0  0
  152.9320  144.2598  159.5228 H   0  0  0  0  0  0  0  0  0  0  0  0
  150.4930  142.6139  158.4149 H   0  0  0  0  0  0  0  0  0  0  0  0
  151.7302  143.4869  157.5441 H   0  0  0  0  0  0  0  0  0  0  0  0
  150.8811  141.5464  156.1486 H   0  0  0  0  0  0  0  0  0  0  0  0
  152.5384  141.2682  156.5470 H   0  0  0  0  0  0  0  0  0  0  0  0
  148.1584  140.5903  157.1098 H   0  0  0  0  0  0  0  0  0  0  0  0
  147.2170  140.8525  154.4128 H   0  0  0  0  0  0  0  0  0  0  0  0
  148.4153  142.0338  153.8701 H   0  0  0  0  0  0  0  0  0  0  0  0
  147.6696  142.2047  155.4616 H   0  0  0  0  0  0  0  0  0  0  0  0
  147.6714  138.3083  157.1531 H   0  0  0  0  0  0  0  0  0  0  0  0
  146.8718  136.2613  157.5805 H   0  0  0  0  0  0  0  0  0  0  0  0
  148.4299  135.7505  158.2166 H   0  0  0  0  0  0  0  0  0  0  0  0
  145.2458  137.4828  159.1088 H   0  0  0  0  0  0  0  0  0  0  0  0
  144.4098  137.6479  161.4371 H   0  0  0  0  0  0  0  0  0  0  0  0
  145.8459  136.9209  163.3348 H   0  0  0  0  0  0  0  0  0  0  0  0
  148.1264  136.0256  162.8956 H   0  0  0  0  0  0  0  0  0  0  0  0
  148.9702  135.8537  160.5700 H   0  0  0  0  0  0  0  0  0  0  0  0
  1  2  1  0  0  0  0
  1 26  1  0  0  0  0
  1 27  1  0  0  0  0
  1 28  1  0  0  0  0
  2  3  1  0  0  0  0
  3  4  1  0  0  0  0
  3 29  1  0  0  0  0
  3 30  1  0  0  0  0
  4  5  1  0  0  0  0
  4 31  1  0  0  0  0
  4 32  1  0  0  0  0
  5 23  1  0  0  0  0
  5  6  1  0  0  0  0
  6  7  1  0  0  0  0
  6 11  2  0  0  0  0
  7  8  1  0  0  0  0
  7 33  1  0  0  0  0
  8  9  1  0  0  0  0
  8 10  2  0  0  0  0
  9 34  1  0  0  0  0
  9 35  1  0  0  0  0
  9 36  1  0  0  0  0
 11 12  1  0  0  0  0
 11 20  1  0  0  0  0
 12 13  1  0  0  0  0
 12 37  1  0  0  0  0
 13 14  1  0  0  0  0
 13 38  1  0  0  0  0
 13 39  1  0  0  0  0
 14 19  1  0  0  0  0
 14 15  2  0  0  0  0
 15 16  1  0  0  0  0
 15 40  1  0  0  0  0
 16 17  2  0  0  0  0
 16 41  1  0  0  0  0
 17 18  1  0  0  0  0
 17 42  1  0  0  0  0
 18 19  2  0  0  0  0
 18 43  1  0  0  0  0
 19 44  1  0  0  0  0
 20 21  2  0  0  0  0
 20 22  1  0  0  0  0
 22 25  1  0  0  0  0
 22 23  1  0  0  0  0
 23 24  2  0  0  0  0
M  END
> <s_m_source_file>
AV-unprocessed.smi

> <i_m_source_file_index>
801

> <i_lp_mmshare_version>
43012

> <i_f3d_flags>
0

> <s_epik_input>
W0NIM11PW0NIMl1bQ0gyXW4xYyhbTkhdQyg9TylbQ0gzXSljKGMoPU8pW25IXWMxPU8pW05IXVtDSDJdYzJbY0hdW2NIXVtjSF1bY0hdW2NIXTI=

> <s_epik_cmdline>
J2VwaWtfcHl0aG9uJywgJy1waCcsICc3LjAnLCAnLXRuJywgJzgnLCAnLW1hJywgJzIwMCcsICctbWV0YWxfYmluZGluZycsICctaW1hZScsICc8aW5maWxlLm1hZT4nLCAnLW9tYWUnLCAnPG91dGZpbGUubWFlPic=

> <r_lp_tautomer_probability>
0.999901

> <r_epik_Ionization_Penalty>
0.000786563

> <r_epik_Ionization_Penalty_Charging>
0.000779429

> <r_epik_Ionization_Penalty_Neutral>
7.13436e-06

> <r_epik_State_Penalty>
0.00049961

> <r_epik_Charging_Adjusted_Penalty>
0.00127904

> <i_epik_Tot_Q>
0

> <i_epik_Tot_abs_Q>
0

> <r_epik_Metal_State_Penalty>
0.266924

> <b_epik_Metal_Only>
0

> <s_lp_Force_Field>
OPLS_2005

> <r_lp_Energy>
22.7844

> <b_lp_Chiralities_Consistent>
1

> <s_lp_Variant>
AV-unprocessed.smi:801-1

> <Gold.Version>
5.8.1

> <Gold.Id.Protein>
6NUR|6NUR_protein|mol2

> <Gold.PLP.Fitness>
43.0780

> <Gold.PLP.PLP>
-35.5795

> <Gold.PLP.part.hbond>
-3.0000

> <Gold.PLP.part.metal>
0.0000

> <Gold.PLP.part.buried>
-6.4726

> <Gold.PLP.part.nonpolar>
-25.6046

> <Gold.PLP.part.repulsive>
0.2943

> <Gold.PLP.ligand.clash>
0.0000

> <Gold.PLP.ligand.torsion>
1.2657

> <Gold.PLP.Chemscore.Hbond>
2.9760

> <Gold.PLP.Chemscore.CHOScore>
0.0000

> <Gold.PLP.Chemscore.Metal>
0.0000

> <Gold.Chemscore.Hbonds>
donor molecule, donor type, donor heavy atom, donor atom, acceptor molecule, acceptor atom, score
      P1  H  6896  6908       L1    21  1.00
      P1  H  7989  7998       L1    10  1.00
      P1  H  7997  8009       L1    24  0.76

> <Gold.PLP.Chemscore.Internal.Correction>
1.1019

> <Gold.Rescore>
     Score         DG    S(hbond)    S(metal)    S(lipo)     H(rot)  DE(clash)    DE(int)     intcor
     13.84     -17.87       2.85        0.00      68.51       2.02       0.31       3.72       ----

> <Gold.Chemscore.Fitness>
13.8421

> <Gold.Chemscore.DG>
-17.8653

> <Gold.Chemscore.ZeroCoef>
-5.4800

> <Gold.Chemscore.Hbond>
2.8544

> <Gold.Chemscore.Metal>
0.0000

> <Gold.Chemscore.Lipo>
68.5067

> <Gold.Chemscore.Internal_Hbond>
0.0000

> <Gold.Chemscore.DEClash>
0.3052

> <Gold.Chemscore.DEInternal>
3.7180

> <Gold.Chemscore.Rot>
2.0170

> <Gold.Chemscore.Internal.Correction>
   9.000000E+99

> <Gold.Chemscore.Hbonds>
donor molecule, donor type, donor heavy atom, donor atom, acceptor molecule, acceptor atom, score
      P1  H  6896  6908       L1    21  1.00
      P1  H  7989  7998       L1    10  0.93
      P1  H  7997  8009       L1    24  0.72

> <Gold.Chemscore.Hbond.Weighted>
-9.5336

> <Gold.Chemscore.Metal.Weighted>
-0.0000

> <Gold.Chemscore.Lipo.Weighted>
-8.0153

> <Gold.Chemscore.Internal_Hbond.Weighted>
0.0000

> <Gold.Chemscore.DEClash.Weighted>
0.3052

> <Gold.Chemscore.DEInternal.Weighted>
3.7180

> <Gold.Chemscore.Rot.Weighted>
5.1636

> <Gold.Chemscore.Internal.Correction.Weighted>
   9.000000E+99

> <Gold.Protein.RotatedTorsions>
[ 6907 6896 6895 6894 ] final -165.82 input  -60.11 | X-H torsion
[ 7974 7965 7964 7962 ] final   37.42 input  175.53 | X-H torsion
[ 8008 7997 7996 7995 ] final  147.46 input   59.86 | X-H torsion
[ 10167 10162 10161 10158 ] final  133.29 input  -65.29 | X-H torsion
[ 10718 10713 10712 10709 ] final -125.30 input   66.30 | X-H torsion
[ 10763 10752 10751 10750 ] final  146.01 input  -60.55 | X-H torsion
[ 11005 11000 10999 10996 ] final  138.71 input  -57.11 | X-H torsion

> <Gold.Protein.ActiveResidues>
 VAL166  LYS551  ARG553  GLY616  TRP617  ASP618  TYR619  PRO620  LYS621  CYS622 
 ASP623  PHE694  ASN695  SER759  ASP760  ASP761  ALA762  ILE779  LEU786  VAL792 
 PHE793  MET794  SER795  GLU796  ALA797  LYS798  CYS799  TRP800  GLU811  SER814 

> <Gold.Protein.RotatedAtoms>
  151.4338  133.3662  159.2772 H   0  0  0  0  0  0  0  0  0  0  0  0  # atno 6907 bound_to 6896
  150.9206  134.8625  159.7497 H   0  0  0  0  0  0  0  0  0  0  0  0  # atno 6908 bound_to 6896
  152.4979  134.4276  159.9553 H   0  0  0  0  0  0  0  0  0  0  0  0  # atno 6909 bound_to 6896
  146.1139  139.5896  142.9334 H   0  0  0  0  0  0  0  0  0  0  0  0  # atno 7974 bound_to 7965
  156.2824  140.2155  156.5542 H   0  0  0  0  0  0  0  0  0  0  0  0  # atno 8008 bound_to 7997
  154.7266  140.0499  157.0711 H   0  0  0  0  0  0  0  0  0  0  0  0  # atno 8009 bound_to 7997
  155.0408  140.3145  155.4728 H   0  0  0  0  0  0  0  0  0  0  0  0  # atno 8010 bound_to 7997
  139.5303  144.6622  151.4974 H   0  0  0  0  0  0  0  0  0  0  0  0  # atno 10167 bound_to 10162
  156.1663  130.6637  151.0119 H   0  0  0  0  0  0  0  0  0  0  0  0  # atno 10718 bound_to 10713
  154.0149  135.2911  155.3388 H   0  0  0  0  0  0  0  0  0  0  0  0  # atno 10763 bound_to 10752
  154.7081  135.5161  153.8628 H   0  0  0  0  0  0  0  0  0  0  0  0  # atno 10764 bound_to 10752
  153.0706  135.6646  154.0377 H   0  0  0  0  0  0  0  0  0  0  0  0  # atno 10765 bound_to 10752
  140.0203  134.9400  157.0460 H   0  0  0  0  0  0  0  0  0  0  0  0  # atno 11005 bound_to 11000
  145.5607  141.0404  143.2228 LP  0  0  0  0  0  0  0  0  0  0  0  0  # atno 17320 bound_to 7965
  144.7535  139.7132  143.7263 LP  0  0  0  0  0  0  0  0  0  0  0  0  # atno 17321 bound_to 7965
  140.6477  143.8761  150.6753 LP  0  0  0  0  0  0  0  0  0  0  0  0  # atno 17342 bound_to 10162
  140.2116  143.3879  152.1713 LP  0  0  0  0  0  0  0  0  0  0  0  0  # atno 17343 bound_to 10162
  157.6770  131.0848  150.7468 LP  0  0  0  0  0  0  0  0  0  0  0  0  # atno 17370 bound_to 10713
  156.7529  130.4774  149.5453 LP  0  0  0  0  0  0  0  0  0  0  0  0  # atno 17371 bound_to 10713
  140.4399  134.1691  155.7173 LP  0  0  0  0  0  0  0  0  0  0  0  0  # atno 17394 bound_to 11000
  141.1769  133.8495  157.1390 LP  0  0  0  0  0  0  0  0  0  0  0  0  # atno 17395 bound_to 11000

$$$$
