AV-unprocessed.smi:831|AV-procd|sdf|3875|dock1
  -GOLD-   22720 1333D 1   1.00000     0.00000
 Structure written by MMmdl.
 50 51  0  0  0  0  0  0  0  0  1 V2000
  146.5265  131.9020  155.1426 C   0  0  0  0  0  0  0  0  0  0  0  0
  147.4126  133.1150  154.8179 C   0  0  0  0  0  0  0  0  0  0  0  0
  146.8115  133.9392  153.6701 C   0  0  0  0  0  0  0  0  0  0  0  0
  148.8532  132.6871  154.4955 C   0  0  0  0  0  0  0  0  0  0  0  0
  149.6709  133.8467  154.3865 O   0  0  0  0  0  0  0  0  0  0  0  0
  149.7241  134.6648  155.5510 C   0  0  1  0  0  0  0  0  0  0  0  0
  150.1473  133.7626  156.7197 C   0  0  0  0  0  0  0  0  0  0  0  0
  150.7388  135.8096  155.3420 C   0  0  0  0  0  0  0  0  0  0  0  0
  151.7385  135.8647  156.0559 O   0  0  0  0  0  0  0  0  0  0  0  0
  150.5374  136.7248  154.3789 N   0  0  0  0  0  0  0  0  0  0  0  0
  151.3887  137.8623  154.0479 C   0  0  0  0  0  0  0  0  0  0  0  0
  151.4572  138.9214  155.1379 C   0  0  0  0  0  0  0  0  0  0  0  0
  150.4492  139.8928  155.3185 C   0  0  0  0  0  0  0  0  0  0  0  0
  150.5871  140.8374  156.3534 C   0  0  0  0  0  0  0  0  0  0  0  0
  151.7286  140.7874  157.1884 C   0  0  0  0  0  0  0  0  0  0  0  0
  151.8889  141.7285  158.2285 N   0  0  0  0  0  0  0  0  0  0  0  0
  151.6801  143.1247  157.8521 C   0  0  0  0  0  0  0  0  0  0  0  0
  151.5822  144.0099  159.1066 C   0  0  0  0  0  0  0  0  0  0  0  0
  152.7353  143.8230  159.9203 O   0  0  0  0  0  0  0  0  0  0  0  0
  152.8535  142.4770  160.3686 C   0  0  0  0  0  0  0  0  0  0  0  0
  153.0007  141.5390  159.1588 C   0  0  0  0  0  0  0  0  0  0  0  0
  152.6869  139.8426  157.0217 N   0  0  0  0  0  0  0  0  0  0  0  0
  152.5508  138.9411  156.0268 C   0  0  0  0  0  0  0  0  0  0  0  0
  146.4634  131.2187  154.2951 H   0  0  0  0  0  0  0  0  0  0  0  0
  145.5126  132.2121  155.3966 H   0  0  0  0  0  0  0  0  0  0  0  0
  146.9186  131.3412  155.9917 H   0  0  0  0  0  0  0  0  0  0  0  0
  147.4423  133.7561  155.6997 H   0  0  0  0  0  0  0  0  0  0  0  0
  146.7536  133.3558  152.7506 H   0  0  0  0  0  0  0  0  0  0  0  0
  147.4128  134.8254  153.4647 H   0  0  0  0  0  0  0  0  0  0  0  0
  145.8040  134.2768  153.9149 H   0  0  0  0  0  0  0  0  0  0  0  0
  149.2200  132.0096  155.2676 H   0  0  0  0  0  0  0  0  0  0  0  0
  148.8781  132.1439  153.5496 H   0  0  0  0  0  0  0  0  0  0  0  0
  148.7229  135.0341  155.7697 H   0  0  0  0  0  0  0  0  0  0  0  0
  150.2150  134.3273  157.6503 H   0  0  0  0  0  0  0  0  0  0  0  0
  151.1157  133.2946  156.5389 H   0  0  0  0  0  0  0  0  0  0  0  0
  149.4210  132.9640  156.8727 H   0  0  0  0  0  0  0  0  0  0  0  0
  149.7070  136.6147  153.8151 H   0  0  0  0  0  0  0  0  0  0  0  0
  152.4027  137.5129  153.8486 H   0  0  0  0  0  0  0  0  0  0  0  0
  151.0183  138.3317  153.1352 H   0  0  0  0  0  0  0  0  0  0  0  0
  149.5764  139.9215  154.6835 H   0  0  0  0  0  0  0  0  0  0  0  0
  149.8131  141.5751  156.5030 H   0  0  0  0  0  0  0  0  0  0  0  0
  152.5159  143.4501  157.2314 H   0  0  0  0  0  0  0  0  0  0  0  0
  150.7763  143.2518  157.2582 H   0  0  0  0  0  0  0  0  0  0  0  0
  151.5160  145.0597  158.8206 H   0  0  0  0  0  0  0  0  0  0  0  0
  150.6806  143.7784  159.6762 H   0  0  0  0  0  0  0  0  0  0  0  0
  153.7266  142.3936  161.0157 H   0  0  0  0  0  0  0  0  0  0  0  0
  151.9845  142.2045  160.9699 H   0  0  0  0  0  0  0  0  0  0  0  0
  153.0314  140.5050  159.5047 H   0  0  0  0  0  0  0  0  0  0  0  0
  153.9414  141.7397  158.6441 H   0  0  0  0  0  0  0  0  0  0  0  0
  153.3437  138.2129  155.9371 H   0  0  0  0  0  0  0  0  0  0  0  0
  1  2  1  0  0  0  0
  1 24  1  0  0  0  0
  1 25  1  0  0  0  0
  1 26  1  0  0  0  0
  2  3  1  0  0  0  0
  2  4  1  0  0  0  0
  2 27  1  0  0  0  0
  3 28  1  0  0  0  0
  3 29  1  0  0  0  0
  3 30  1  0  0  0  0
  4  5  1  0  0  0  0
  4 31  1  0  0  0  0
  4 32  1  0  0  0  0
  5  6  1  0  0  0  0
  6  7  1  0  0  0  0
  6  8  1  0  0  0  0
  6 33  1  0  0  0  0
  7 34  1  0  0  0  0
  7 35  1  0  0  0  0
  7 36  1  0  0  0  0
  8  9  2  0  0  0  0
  8 10  1  0  0  0  0
 10 11  1  0  0  0  0
 10 37  1  0  0  0  0
 11 12  1  0  0  0  0
 11 38  1  0  0  0  0
 11 39  1  0  0  0  0
 12 23  1  0  0  0  0
 12 13  2  0  0  0  0
 13 14  1  0  0  0  0
 13 40  1  0  0  0  0
 14 15  2  0  0  0  0
 14 41  1  0  0  0  0
 15 16  1  0  0  0  0
 15 22  1  0  0  0  0
 16 21  1  0  0  0  0
 16 17  1  0  0  0  0
 17 18  1  0  0  0  0
 17 42  1  0  0  0  0
 17 43  1  0  0  0  0
 18 19  1  0  0  0  0
 18 44  1  0  0  0  0
 18 45  1  0  0  0  0
 19 20  1  0  0  0  0
 20 21  1  0  0  0  0
 20 46  1  0  0  0  0
 20 47  1  0  0  0  0
 21 48  1  0  0  0  0
 21 49  1  0  0  0  0
 22 23  2  0  0  0  0
 23 50  1  0  0  0  0
M  END
> <s_m_source_file>
AV-unprocessed.smi

> <i_m_source_file_index>
831

> <i_lp_mmshare_version>
43012

> <i_f3d_flags>
0

> <s_epik_input>
W0NIM11bQ0hdKFtDSDNdKVtDSDJdT1tDQEhdKFtDSDNdKUMoPU8pW05IXVtDSDJdYzFbY0hdW2NIXWMobltjSF0xKU4yW0NIMl1bQ0gyXU9bQ0gyXVtDSDJdMg==

> <s_epik_cmdline>
J2VwaWtfcHl0aG9uJywgJy1waCcsICc3LjAnLCAnLXRuJywgJzgnLCAnLW1hJywgJzIwMCcsICctbWV0YWxfYmluZGluZycsICctaW1hZScsICc8aW5maWxlLm1hZT4nLCAnLW9tYWUnLCAnPG91dGZpbGUubWFlPic=

> <r_lp_tautomer_probability>
1

> <r_epik_Ionization_Penalty>
0.00456501

> <r_epik_Ionization_Penalty_Charging>
0

> <r_epik_Ionization_Penalty_Neutral>
0.00456501

> <r_epik_State_Penalty>
0.00329791

> <r_epik_Charging_Adjusted_Penalty>
0.00329791

> <i_epik_Tot_Q>
0

> <i_epik_Tot_abs_Q>
0

> <r_epik_Metal_State_Penalty>
-0

> <b_epik_Metal_Only>
0

> <s_lp_Force_Field>
OPLS_2005

> <r_lp_Energy>
24.1479

> <b_lp_Chiralities_Consistent>
1

> <s_lp_Variant>
AV-unprocessed.smi:831-2

> <Gold.Version>
5.8.1

> <Gold.Id.Protein>
6NUR|6NUR_protein|mol2

> <Gold.PLP.Fitness>
48.5017

> <Gold.PLP.PLP>
-41.1222

> <Gold.PLP.part.hbond>
-4.0000

> <Gold.PLP.part.metal>
0.0000

> <Gold.PLP.part.buried>
-4.0060

> <Gold.PLP.part.nonpolar>
-33.4193

> <Gold.PLP.part.repulsive>
0.2855

> <Gold.PLP.ligand.clash>
0.0000

> <Gold.PLP.ligand.torsion>
0.5369

> <Gold.PLP.Chemscore.Hbond>
2.6920

> <Gold.PLP.Chemscore.CHOScore>
0.0000

> <Gold.PLP.Chemscore.Metal>
0.0000

> <Gold.Chemscore.Hbonds>
donor molecule, donor type, donor heavy atom, donor atom, acceptor molecule, acceptor atom, score
      L1  H    10    37       P1  7948  0.73
      P1  H  7997  8008       L1    22  0.79
      P1  H 10752 10764       L1     9  0.95

> <Gold.PLP.Chemscore.Internal.Correction>
0.3773

> <Gold.Rescore>
     Score         DG    S(hbond)    S(metal)    S(lipo)     H(rot)  DE(clash)    DE(int)     intcor
     16.28     -17.19       1.47        0.00     100.08       1.92       0.09       0.83       ----

> <Gold.Chemscore.Fitness>
16.2751

> <Gold.Chemscore.DG>
-17.1895

> <Gold.Chemscore.ZeroCoef>
-5.4800

> <Gold.Chemscore.Hbond>
1.4686

> <Gold.Chemscore.Metal>
0.0000

> <Gold.Chemscore.Lipo>
100.0789

> <Gold.Chemscore.Internal_Hbond>
0.0000

> <Gold.Chemscore.DEClash>
0.0859

> <Gold.Chemscore.DEInternal>
0.8286

> <Gold.Chemscore.Rot>
1.9159

> <Gold.Chemscore.Internal.Correction>
   9.000000E+99

> <Gold.Chemscore.Hbonds>
donor molecule, donor type, donor heavy atom, donor atom, acceptor molecule, acceptor atom, score
      L1  H    10    37       P1  7948  0.43
      P1  H  7997  8008       L1    22  0.15
      P1  H 10752 10764       L1     9  0.21

> <Gold.Chemscore.Hbond.Weighted>
-4.9051

> <Gold.Chemscore.Metal.Weighted>
-0.0000

> <Gold.Chemscore.Lipo.Weighted>
-11.7092

> <Gold.Chemscore.Internal_Hbond.Weighted>
0.0000

> <Gold.Chemscore.DEClash.Weighted>
0.0859

> <Gold.Chemscore.DEInternal.Weighted>
0.8286

> <Gold.Chemscore.Rot.Weighted>
4.9047

> <Gold.Chemscore.Internal.Correction.Weighted>
   9.000000E+99

> <Gold.Protein.RotatedTorsions>
[ 6907 6896 6895 6894 ] final -171.20 input  -60.11 | X-H torsion
[ 7974 7965 7964 7962 ] final   68.79 input  175.53 | X-H torsion
[ 8008 7997 7996 7995 ] final  -80.54 input   59.86 | X-H torsion
[ 10167 10162 10161 10158 ] final  147.77 input  -65.29 | X-H torsion
[ 10718 10713 10712 10709 ] final  -67.96 input   66.30 | X-H torsion
[ 10763 10752 10751 10750 ] final  -47.54 input  -60.55 | X-H torsion
[ 11005 11000 10999 10996 ] final -104.71 input  -57.11 | X-H torsion

> <Gold.Protein.ActiveResidues>
 VAL166  LYS551  ARG553  GLY616  TRP617  ASP618  TYR619  PRO620  LYS621  CYS622 
 ASP623  PHE694  ASN695  SER759  ASP760  ASP761  ALA762  ILE779  LEU786  VAL792 
 PHE793  MET794  SER795  GLU796  ALA797  LYS798  CYS799  TRP800  GLU811  SER814 

> <Gold.Protein.RotatedAtoms>
  151.5201  133.3468  159.2899 H   0  0  0  0  0  0  0  0  0  0  0  0  # atno 6907 bound_to 6896
  150.8658  134.8023  159.7128 H   0  0  0  0  0  0  0  0  0  0  0  0  # atno 6908 bound_to 6896
  152.4663  134.5077  159.9796 H   0  0  0  0  0  0  0  0  0  0  0  0  # atno 6909 bound_to 6896
  145.7984  139.2969  143.1169 H   0  0  0  0  0  0  0  0  0  0  0  0  # atno 7974 bound_to 7965
  154.5893  140.0661  156.9216 H   0  0  0  0  0  0  0  0  0  0  0  0  # atno 8008 bound_to 7997
  155.2323  140.3338  155.4283 H   0  0  0  0  0  0  0  0  0  0  0  0  # atno 8009 bound_to 7997
  156.2245  140.1813  156.7382 H   0  0  0  0  0  0  0  0  0  0  0  0  # atno 8010 bound_to 7997
  139.4885  144.5730  151.7018 H   0  0  0  0  0  0  0  0  0  0  0  0  # atno 10167 bound_to 10162
  156.0530  130.4286  150.1931 H   0  0  0  0  0  0  0  0  0  0  0  0  # atno 10718 bound_to 10713
  154.0631  135.6615  153.4814 H   0  0  0  0  0  0  0  0  0  0  0  0  # atno 10763 bound_to 10752
  153.0419  135.5139  154.7640 H   0  0  0  0  0  0  0  0  0  0  0  0  # atno 10764 bound_to 10752
  154.6682  135.3025  154.9744 H   0  0  0  0  0  0  0  0  0  0  0  0  # atno 10765 bound_to 10752
  141.1088  133.8746  157.1645 H   0  0  0  0  0  0  0  0  0  0  0  0  # atno 11005 bound_to 11000
  145.9904  140.8607  143.0069 LP  0  0  0  0  0  0  0  0  0  0  0  0  # atno 17320 bound_to 7965
  144.6772  140.2207  143.7366 LP  0  0  0  0  0  0  0  0  0  0  0  0  # atno 17321 bound_to 7965
  140.5321  144.0713  150.6057 LP  0  0  0  0  0  0  0  0  0  0  0  0  # atno 17342 bound_to 10162
  140.3707  143.2856  152.0281 LP  0  0  0  0  0  0  0  0  0  0  0  0  # atno 17343 bound_to 10162
  157.0011  130.9922  151.3390 LP  0  0  0  0  0  0  0  0  0  0  0  0  # atno 17370 bound_to 10713
  157.5474  130.8160  149.8103 LP  0  0  0  0  0  0  0  0  0  0  0  0  # atno 17371 bound_to 10713
  139.9970  135.0042  157.0106 LP  0  0  0  0  0  0  0  0  0  0  0  0  # atno 17394 bound_to 11000
  140.4832  134.1268  155.7220 LP  0  0  0  0  0  0  0  0  0  0  0  0  # atno 17395 bound_to 11000

$$$$
