AV-unprocessed.smi:1824|AV-procd|sdf|7405|dock1
  -GOLD-   22720 9 73D 1   1.00000     0.00000
 Structure written by MMmdl.
 45 47  0  0  0  0  0  0  0  0  2 V2000
  144.7235  138.5452  156.5885 C   0  0  0  0  0  0  0  0  0  0  0  0
  144.7076  139.7345  155.6221 C   0  0  2  0  0  0  0  0  0  0  0  0
  146.0885  139.9871  154.9880 C   0  0  0  0  0  0  0  0  0  0  0  0
  146.0469  141.1900  154.1206 N   0  3  2  0  0  0  0  0  0  0  0  0
  147.3281  141.4672  153.4219 C   0  0  0  0  0  0  0  0  0  0  0  0
  148.5504  140.9559  154.2093 C   0  0  1  0  0  0  0  0  0  0  0  0
  149.7131  141.1697  153.4311 O   0  0  0  0  0  0  0  0  0  0  0  0
  148.7011  141.6720  155.5656 C   0  0  0  0  0  0  0  0  0  0  0  0
  149.7400  141.0827  156.3921 N   0  0  0  0  0  0  0  0  0  0  0  0
  150.1557  139.8016  156.3788 C   0  0  0  0  0  0  0  0  0  0  0  0
  151.1320  139.4687  157.2181 N   0  0  0  0  0  0  0  0  0  0  0  0
  151.3796  140.6741  157.8521 C   0  0  0  0  0  0  0  0  0  0  0  0
  152.3119  141.0054  158.8610 C   0  0  0  0  0  0  0  0  0  0  0  0
  152.3869  142.3221  159.3609 C   0  0  0  0  0  0  0  0  0  0  0  0
  153.2873  142.6228  160.3266 F   0  0  0  0  0  0  0  0  0  0  0  0
  151.5308  143.3257  158.8608 C   0  0  0  0  0  0  0  0  0  0  0  0
  151.6092  144.5873  159.3461 F   0  0  0  0  0  0  0  0  0  0  0  0
  150.5933  143.0191  157.8559 C   0  0  0  0  0  0  0  0  0  0  0  0
  150.5230  141.7045  157.3593 C   0  0  0  0  0  0  0  0  0  0  0  0
  145.5491  142.3580  154.8843 C   0  0  0  0  0  0  0  0  0  0  0  0
  144.1824  142.0427  155.5212 C   0  0  2  0  0  0  0  0  0  0  0  0
  143.6649  143.1991  156.3838 C   0  0  0  0  0  0  0  0  0  0  0  0
  144.3115  140.8923  156.3496 O   0  0  0  0  0  0  0  0  0  0  0  0
  145.0142  137.6273  156.0771 H   0  0  0  0  0  0  0  0  0  0  0  0
  143.7372  138.3839  157.0243 H   0  0  0  0  0  0  0  0  0  0  0  0
  145.4253  138.7100  157.4066 H   0  0  0  0  0  0  0  0  0  0  0  0
  143.9744  139.5336  154.8387 H   0  0  0  0  0  0  0  0  0  0  0  0
  146.8402  140.1255  155.7669 H   0  0  0  0  0  0  0  0  0  0  0  0
  146.3860  139.1123  154.4105 H   0  0  0  0  0  0  0  0  0  0  0  0
  147.3242  140.9902  152.4403 H   0  0  0  0  0  0  0  0  0  0  0  0
  147.4111  142.5394  153.2363 H   0  0  0  0  0  0  0  0  0  0  0  0
  148.4600  139.8859  154.3941 H   0  0  0  0  0  0  0  0  0  0  0  0
  149.6321  140.6841  152.6242 H   0  0  0  0  0  0  0  0  0  0  0  0
  148.9264  142.7294  155.4209 H   0  0  0  0  0  0  0  0  0  0  0  0
  147.7619  141.6285  156.1188 H   0  0  0  0  0  0  0  0  0  0  0  0
  149.7185  139.0719  155.7128 H   0  0  0  0  0  0  0  0  0  0  0  0
  152.9726  140.2458  159.2513 H   0  0  0  0  0  0  0  0  0  0  0  0
  149.9386  143.7867  157.4715 H   0  0  0  0  0  0  0  0  0  0  0  0
  146.2747  142.6253  155.6547 H   0  0  0  0  0  0  0  0  0  0  0  0
  145.4536  143.2179  154.2200 H   0  0  0  0  0  0  0  0  0  0  0  0
  143.4495  141.8406  154.7379 H   0  0  0  0  0  0  0  0  0  0  0  0
  143.5369  144.1047  155.7905 H   0  0  0  0  0  0  0  0  0  0  0  0
  144.3552  143.4262  157.1970 H   0  0  0  0  0  0  0  0  0  0  0  0
  142.6993  142.9533  156.8264 H   0  0  0  0  0  0  0  0  0  0  0  0
  145.3628  141.0125  153.3984 H   0  0  0  0  0  0  0  0  0  0  0  0
  1  2  1  0  0  0  0
  1 24  1  0  0  0  0
  1 25  1  0  0  0  0
  1 26  1  0  0  0  0
  2 23  1  0  0  0  0
  2  3  1  0  0  0  0
  2 27  1  0  0  0  0
  3  4  1  0  0  0  0
  3 28  1  0  0  0  0
  3 29  1  0  0  0  0
  4  5  1  0  0  0  0
  4 20  1  0  0  0  0
  4 45  1  0  0  0  0
  5  6  1  0  0  0  0
  5 30  1  0  0  0  0
  5 31  1  0  0  0  0
  6  7  1  0  0  0  0
  6  8  1  0  0  0  0
  6 32  1  0  0  0  0
  7 33  1  0  0  0  0
  8  9  1  0  0  0  0
  8 34  1  0  0  0  0
  8 35  1  0  0  0  0
  9 19  1  0  0  0  0
  9 10  1  0  0  0  0
 10 11  2  0  0  0  0
 10 36  1  0  0  0  0
 11 12  1  0  0  0  0
 12 19  2  0  0  0  0
 12 13  1  0  0  0  0
 13 14  2  0  0  0  0
 13 37  1  0  0  0  0
 14 15  1  0  0  0  0
 14 16  1  0  0  0  0
 16 17  1  0  0  0  0
 16 18  2  0  0  0  0
 18 19  1  0  0  0  0
 18 38  1  0  0  0  0
 20 21  1  0  0  0  0
 20 39  1  0  0  0  0
 20 40  1  0  0  0  0
 21 22  1  0  0  0  0
 21 23  1  0  0  0  0
 21 41  1  0  0  0  0
 22 42  1  0  0  0  0
 22 43  1  0  0  0  0
 22 44  1  0  0  0  0
M  CHG  1   4   1
M  END
> <s_m_source_file>
AV-unprocessed.smi

> <i_m_source_file_index>
1824

> <i_lp_mmshare_version>
43012

> <i_f3d_flags>
0

> <s_epik_input>
W0NIM11bQ0BASF0xW0NIMl1OKFtDSDJdW0NASF0oTzEpW0NIM10pW0NIMl1bQ0BIXShbT0hdKVtDSDJdbihbY0hdbjIpYyhjMjMpW2NIXWMoRiljKEYpW2NIXTM=

> <s_epik_cmdline>
J2VwaWtfcHl0aG9uJywgJy1waCcsICc3LjAnLCAnLXRuJywgJzgnLCAnLW1hJywgJzIwMCcsICctbWV0YWxfYmluZGluZycsICctaW1hZScsICc8aW5maWxlLm1hZT4nLCAnLW9tYWUnLCAnPG91dGZpbGUubWFlPic=

> <r_epik_Ionization_Penalty>
0.61967

> <r_epik_Ionization_Penalty_Charging>
0.608065

> <r_epik_Ionization_Penalty_Neutral>
0.0116057

> <r_epik_State_Penalty>
0.664205

> <r_epik_Charging_Adjusted_Penalty>
1.27227

> <i_epik_Tot_Q>
1

> <i_epik_Tot_abs_Q>
1

> <r_epik_Metal_State_Penalty>
0.654947

> <b_epik_Metal_Only>
0

> <s_lp_Force_Field>
OPLS_2005

> <r_lp_Energy>
20.1531

> <b_lp_Chiralities_Consistent>
1

> <s_lp_Variant>
AV-unprocessed.smi:1824-13

> <Gold.Version>
5.8.1

> <Gold.Id.Protein>
6NUR|6NUR_protein|mol2

> <Gold.PLP.Fitness>
52.1488

> <Gold.PLP.PLP>
-41.5815

> <Gold.PLP.part.hbond>
-3.2020

> <Gold.PLP.part.metal>
0.0000

> <Gold.PLP.part.buried>
-3.6635

> <Gold.PLP.part.nonpolar>
-35.1473

> <Gold.PLP.part.repulsive>
0.0688

> <Gold.PLP.ligand.clash>
0.0000

> <Gold.PLP.ligand.torsion>
0.8728

> <Gold.PLP.Chemscore.Hbond>
4.0621

> <Gold.PLP.Chemscore.CHOScore>
0.0000

> <Gold.PLP.Chemscore.Metal>
0.0000

> <Gold.Chemscore.Hbonds>
donor molecule, donor type, donor heavy atom, donor atom, acceptor molecule, acceptor atom, score
      L1  H     4    45       P1 10175  2.00
      L1  H     7    33       P1  7957  1.00
      P1  H  7989  7998       L1     7  0.09

> <Gold.PLP.Chemscore.Internal.Correction>
0.1268

> <Gold.Rescore>
     Score         DG    S(hbond)    S(metal)    S(lipo)     H(rot)  DE(clash)    DE(int)     intcor
     14.58     -16.13       2.05        0.00      83.25       2.33       0.18       1.37       ----

> <Gold.Chemscore.Fitness>
14.5830

> <Gold.Chemscore.DG>
-16.1308

> <Gold.Chemscore.ZeroCoef>
-5.4800

> <Gold.Chemscore.Hbond>
2.0549

> <Gold.Chemscore.Metal>
0.0000

> <Gold.Chemscore.Lipo>
83.2467

> <Gold.Chemscore.Internal_Hbond>
0.0000

> <Gold.Chemscore.DEClash>
0.1802

> <Gold.Chemscore.DEInternal>
1.3677

> <Gold.Chemscore.Rot>
2.3251

> <Gold.Chemscore.Internal.Correction>
   9.000000E+99

> <Gold.Chemscore.Hbonds>
donor molecule, donor type, donor heavy atom, donor atom, acceptor molecule, acceptor atom, score
      L1  H     4    45       P1 10175  0.54
      L1  H     7    33       P1  7957  0.98
      P1  H  7989  7998       L1     7  0.01

> <Gold.Chemscore.Hbond.Weighted>
-6.8633

> <Gold.Chemscore.Metal.Weighted>
-0.0000

> <Gold.Chemscore.Lipo.Weighted>
-9.7399

> <Gold.Chemscore.Internal_Hbond.Weighted>
0.0000

> <Gold.Chemscore.DEClash.Weighted>
0.1802

> <Gold.Chemscore.DEInternal.Weighted>
1.3677

> <Gold.Chemscore.Rot.Weighted>
5.9523

> <Gold.Chemscore.Internal.Correction.Weighted>
   9.000000E+99

> <Gold.Protein.RotatedTorsions>
[ 6907 6896 6895 6894 ] final  -17.58 input  -60.11 | X-H torsion
[ 7974 7965 7964 7962 ] final -111.69 input  175.53 | X-H torsion
[ 8008 7997 7996 7995 ] final  101.59 input   59.86 | X-H torsion
[ 10167 10162 10161 10158 ] final  135.42 input  -65.29 | X-H torsion
[ 10718 10713 10712 10709 ] final  154.73 input   66.30 | X-H torsion
[ 10763 10752 10751 10750 ] final -122.55 input  -60.55 | X-H torsion
[ 11005 11000 10999 10996 ] final -115.43 input  -57.11 | X-H torsion

> <Gold.Protein.ActiveResidues>
 VAL166  LYS551  ARG553  GLY616  TRP617  ASP618  TYR619  PRO620  LYS621  CYS622 
 ASP623  PHE694  ASN695  SER759  ASP760  ASP761  ALA762  ILE779  LEU786  VAL792 
 PHE793  MET794  SER795  GLU796  ALA797  LYS798  CYS799  TRP800  GLU811  SER814 

> <Gold.Protein.RotatedAtoms>
  151.2912  135.0742  159.9204 H   0  0  0  0  0  0  0  0  0  0  0  0  # atno 6907 bound_to 6896
  152.5316  133.9929  159.7869 H   0  0  0  0  0  0  0  0  0  0  0  0  # atno 6908 bound_to 6896
  151.0200  133.5835  159.2703 H   0  0  0  0  0  0  0  0  0  0  0  0  # atno 6909 bound_to 6896
  145.1531  140.8839  143.3635 H   0  0  0  0  0  0  0  0  0  0  0  0  # atno 7974 bound_to 7965
  156.1313  140.3195  155.8353 H   0  0  0  0  0  0  0  0  0  0  0  0  # atno 8008 bound_to 7997
  155.4326  140.0520  157.3034 H   0  0  0  0  0  0  0  0  0  0  0  0  # atno 8009 bound_to 7997
  154.4902  140.2089  155.9579 H   0  0  0  0  0  0  0  0  0  0  0  0  # atno 8010 bound_to 7997
  139.5218  144.6518  151.5280 H   0  0  0  0  0  0  0  0  0  0  0  0  # atno 10167 bound_to 10162
  157.2277  131.0732  151.1872 H   0  0  0  0  0  0  0  0  0  0  0  0  # atno 10718 bound_to 10713
  154.8691  135.4129  154.2800 H   0  0  0  0  0  0  0  0  0  0  0  0  # atno 10763 bound_to 10752
  153.3695  135.7007  153.6655 H   0  0  0  0  0  0  0  0  0  0  0  0  # atno 10764 bound_to 10752
  153.5522  135.3626  155.2736 H   0  0  0  0  0  0  0  0  0  0  0  0  # atno 10765 bound_to 10752
  141.0488  133.9720  157.2872 H   0  0  0  0  0  0  0  0  0  0  0  0  # atno 11005 bound_to 11000
  145.0410  139.3260  143.5976 LP  0  0  0  0  0  0  0  0  0  0  0  0  # atno 17320 bound_to 7965
  146.3492  139.9783  142.8698 LP  0  0  0  0  0  0  0  0  0  0  0  0  # atno 17321 bound_to 7965
  140.6326  143.9046  150.6619 LP  0  0  0  0  0  0  0  0  0  0  0  0  # atno 17342 bound_to 10162
  140.2355  143.3703  152.1530 LP  0  0  0  0  0  0  0  0  0  0  0  0  # atno 17343 bound_to 10162
  157.3510  130.7082  149.6441 LP  0  0  0  0  0  0  0  0  0  0  0  0  # atno 17370 bound_to 10713
  155.9677  130.4252  150.4645 LP  0  0  0  0  0  0  0  0  0  0  0  0  # atno 17371 bound_to 10713
  139.9333  135.0198  156.8474 LP  0  0  0  0  0  0  0  0  0  0  0  0  # atno 17394 bound_to 11000
  140.6095  134.0096  155.7571 LP  0  0  0  0  0  0  0  0  0  0  0  0  # atno 17395 bound_to 11000

$$$$
