AV-unprocessed.smi:2268|AV-procd|sdf|9151|dock7
  -GOLD-   2272012353D 1   1.00000     0.00000
 Structure written by MMmdl.
 37 38  0  0  0  0  0  0  0  0  1 V2000
  150.9062  139.4612  154.3876 C   0  0  0  0  0  0  0  0  0  0  0  0
  149.7520  140.2359  155.0007 C   0  0  0  0  0  0  0  0  0  0  0  0
  148.8526  140.9002  154.1388 C   0  0  0  0  0  0  0  0  0  0  0  0
  147.7600  141.6179  154.6587 C   0  0  0  0  0  0  0  0  0  0  0  0
  146.9032  142.2493  153.8216 F   0  0  0  0  0  0  0  0  0  0  0  0
  147.5567  141.6741  156.0484 C   0  0  0  0  0  0  0  0  0  0  0  0
  148.4489  141.0167  156.9152 C   0  0  0  0  0  0  0  0  0  0  0  0
  149.5575  140.3001  156.4066 C   0  0  0  0  0  0  0  0  0  0  0  0
  150.4991  139.5925  157.3810 C   0  0  1  0  0  0  0  0  0  0  0  0
  150.5871  138.2080  157.1040 O   0  0  0  0  0  0  0  0  0  0  0  0
  151.9160  140.2068  157.3140 C   0  0  0  0  0  0  0  0  0  0  0  0
  152.3246  140.8222  158.5891 N   0  0  0  0  0  0  0  0  0  0  0  0
  151.5257  141.8801  159.0546 C   0  0  0  0  0  0  0  0  0  0  0  0
  151.7838  142.4904  160.1643 N   0  0  0  0  0  0  0  0  0  0  0  0
  152.8835  142.1009  160.9341 C   0  0  0  0  0  0  0  0  0  0  0  0
  153.0960  142.8837  162.2177 C   0  0  0  0  0  0  0  0  0  0  0  0
  153.6979  141.0844  160.5395 C   0  0  0  0  0  0  0  0  0  0  0  0
  154.9103  140.6181  161.3360 C   0  0  0  0  0  0  0  0  0  0  0  0
  153.4166  140.3804  159.2776 C   0  0  0  0  0  0  0  0  0  0  0  0
  154.1144  139.4536  158.8622 O   0  0  0  0  0  0  0  0  0  0  0  0
  150.8264  139.4228  153.3008 H   0  0  0  0  0  0  0  0  0  0  0  0
  150.9182  138.4346  154.7533 H   0  0  0  0  0  0  0  0  0  0  0  0
  151.8575  139.9326  154.6353 H   0  0  0  0  0  0  0  0  0  0  0  0
  148.9947  140.8597  153.0686 H   0  0  0  0  0  0  0  0  0  0  0  0
  146.7157  142.2195  156.4508 H   0  0  0  0  0  0  0  0  0  0  0  0
  148.2731  141.0642  157.9799 H   0  0  0  0  0  0  0  0  0  0  0  0
  150.1048  139.6718  158.3930 H   0  0  0  0  0  0  0  0  0  0  0  0
  149.7149  137.8753  156.9569 H   0  0  0  0  0  0  0  0  0  0  0  0
  152.6383  139.4661  156.9651 H   0  0  0  0  0  0  0  0  0  0  0  0
  151.9327  140.9777  156.5406 H   0  0  0  0  0  0  0  0  0  0  0  0
  150.6789  142.1432  158.4185 H   0  0  0  0  0  0  0  0  0  0  0  0
  153.0524  142.2197  163.0814 H   0  0  0  0  0  0  0  0  0  0  0  0
  152.3309  143.6503  162.3475 H   0  0  0  0  0  0  0  0  0  0  0  0
  154.0671  143.3791  162.2061 H   0  0  0  0  0  0  0  0  0  0  0  0
  155.8162  140.7266  160.7386 H   0  0  0  0  0  0  0  0  0  0  0  0
  154.8043  139.5659  161.6014 H   0  0  0  0  0  0  0  0  0  0  0  0
  155.0590  141.1757  162.2591 H   0  0  0  0  0  0  0  0  0  0  0  0
  1  2  1  0  0  0  0
  1 21  1  0  0  0  0
  1 22  1  0  0  0  0
  1 23  1  0  0  0  0
  2  8  1  0  0  0  0
  2  3  2  0  0  0  0
  3  4  1  0  0  0  0
  3 24  1  0  0  0  0
  4  5  1  0  0  0  0
  4  6  2  0  0  0  0
  6  7  1  0  0  0  0
  6 25  1  0  0  0  0
  7  8  2  0  0  0  0
  7 26  1  0  0  0  0
  8  9  1  0  0  0  0
  9 10  1  0  0  0  0
  9 11  1  0  0  0  0
  9 27  1  0  0  0  0
 10 28  1  0  0  0  0
 11 12  1  0  0  0  0
 11 29  1  0  0  0  0
 11 30  1  0  0  0  0
 12 19  1  0  0  0  0
 12 13  1  0  0  0  0
 13 14  2  0  0  0  0
 13 31  1  0  0  0  0
 14 15  1  0  0  0  0
 15 16  1  0  0  0  0
 15 17  2  0  0  0  0
 16 32  1  0  0  0  0
 16 33  1  0  0  0  0
 16 34  1  0  0  0  0
 17 18  1  0  0  0  0
 17 19  1  0  0  0  0
 18 35  1  0  0  0  0
 18 36  1  0  0  0  0
 18 37  1  0  0  0  0
 19 20  2  0  0  0  0
M  END
> <s_m_source_file>
AV-unprocessed.smi

> <i_m_source_file_index>
2268

> <i_lp_mmshare_version>
43012

> <i_f3d_flags>
0

> <s_epik_input>
W0NIM11jMVtjSF1jKEYpW2NIXVtjSF1jMVtDQEhdKFtPSF0pW0NIMl1uMltjSF1uYyhbQ0gzXSljKFtDSDNdKWMyPU8=

> <s_epik_cmdline>
J2VwaWtfcHl0aG9uJywgJy1waCcsICc3LjAnLCAnLXRuJywgJzgnLCAnLW1hJywgJzIwMCcsICctbWV0YWxfYmluZGluZycsICctaW1hZScsICc8aW5maWxlLm1hZT4nLCAnLW9tYWUnLCAnPG91dGZpbGUubWFlPic=

> <r_lp_tautomer_probability>
1

> <r_epik_Ionization_Penalty>
5.07449e-05

> <r_epik_Ionization_Penalty_Charging>
7.56727e-08

> <r_epik_Ionization_Penalty_Neutral>
5.06692e-05

> <r_epik_State_Penalty>
-0

> <r_epik_Charging_Adjusted_Penalty>
7.56727e-08

> <i_epik_Tot_Q>
0

> <i_epik_Tot_abs_Q>
0

> <r_epik_Metal_State_Penalty>
-0

> <b_epik_Metal_Only>
0

> <s_lp_Force_Field>
OPLS_2005

> <r_lp_Energy>
20.6014

> <b_lp_Chiralities_Consistent>
1

> <s_lp_Variant>
AV-unprocessed.smi:2268-2

> <Gold.Version>
5.8.1

> <Gold.Id.Protein>
6NUR|6NUR_protein|mol2

> <Gold.PLP.Fitness>
41.1177

> <Gold.PLP.PLP>
-39.6669

> <Gold.PLP.part.hbond>
-1.4180

> <Gold.PLP.part.metal>
0.0000

> <Gold.PLP.part.buried>
-2.0771

> <Gold.PLP.part.nonpolar>
-34.0511

> <Gold.PLP.part.repulsive>
0.0176

> <Gold.PLP.ligand.clash>
0.0000

> <Gold.PLP.ligand.torsion>
0.7791

> <Gold.PLP.Chemscore.Hbond>
1.0000

> <Gold.PLP.Chemscore.CHOScore>
0.0000

> <Gold.PLP.Chemscore.Metal>
0.0000

> <Gold.Chemscore.Hbonds>
donor molecule, donor type, donor heavy atom, donor atom, acceptor molecule, acceptor atom, score
      P1  H  7997  8010       L1    20  1.00

> <Gold.PLP.Chemscore.Internal.Correction>
0.0089

> <Gold.Rescore>
     Score         DG    S(hbond)    S(metal)    S(lipo)     H(rot)  DE(clash)    DE(int)     intcor
     10.85     -14.28       0.97        0.00      90.94       1.98       2.07       1.36       ----

> <Gold.Chemscore.Fitness>
10.8476

> <Gold.Chemscore.DG>
-14.2817

> <Gold.Chemscore.ZeroCoef>
-5.4800

> <Gold.Chemscore.Hbond>
0.9689

> <Gold.Chemscore.Metal>
0.0000

> <Gold.Chemscore.Lipo>
90.9417

> <Gold.Chemscore.Internal_Hbond>
0.0000

> <Gold.Chemscore.DEClash>
2.0746

> <Gold.Chemscore.DEInternal>
1.3595

> <Gold.Chemscore.Rot>
1.9823

> <Gold.Chemscore.Internal.Correction>
   9.000000E+99

> <Gold.Chemscore.Hbonds>
donor molecule, donor type, donor heavy atom, donor atom, acceptor molecule, acceptor atom, score
      P1  H  7997  8010       L1    20  0.60

> <Gold.Chemscore.Hbond.Weighted>
-3.2363

> <Gold.Chemscore.Metal.Weighted>
-0.0000

> <Gold.Chemscore.Lipo.Weighted>
-10.6402

> <Gold.Chemscore.Internal_Hbond.Weighted>
0.0000

> <Gold.Chemscore.DEClash.Weighted>
2.0746

> <Gold.Chemscore.DEInternal.Weighted>
1.3595

> <Gold.Chemscore.Rot.Weighted>
5.0748

> <Gold.Chemscore.Internal.Correction.Weighted>
   9.000000E+99

> <Gold.Protein.RotatedTorsions>
[ 6907 6896 6895 6894 ] final   27.70 input  -60.11 | X-H torsion
[ 7974 7965 7964 7962 ] final   97.86 input  175.53 | X-H torsion
[ 8008 7997 7996 7995 ] final   14.65 input   59.86 | X-H torsion
[ 10167 10162 10161 10158 ] final  101.28 input  -65.29 | X-H torsion
[ 10718 10713 10712 10709 ] final   58.55 input   66.30 | X-H torsion
[ 10763 10752 10751 10750 ] final   70.83 input  -60.55 | X-H torsion
[ 11005 11000 10999 10996 ] final -106.40 input  -57.11 | X-H torsion

> <Gold.Protein.ActiveResidues>
 VAL166  LYS551  ARG553  GLY616  TRP617  ASP618  TYR619  PRO620  LYS621  CYS622 
 ASP623  PHE694  ASN695  SER759  ASP760  ASP761  ALA762  ILE779  LEU786  VAL792 
 PHE793  MET794  SER795  GLU796  ALA797  LYS798  CYS799  TRP800  GLU811  SER814 

> <Gold.Protein.RotatedAtoms>
  152.0061  134.9902  160.0566 H   0  0  0  0  0  0  0  0  0  0  0  0  # atno 6907 bound_to 6896
  152.1473  133.4496  159.4804 H   0  0  0  0  0  0  0  0  0  0  0  0  # atno 6908 bound_to 6896
  150.6871  134.2150  159.4417 H   0  0  0  0  0  0  0  0  0  0  0  0  # atno 6909 bound_to 6896
  145.4198  139.2323  143.3202 H   0  0  0  0  0  0  0  0  0  0  0  0  # atno 7974 bound_to 7965
  154.8514  140.2930  155.5596 H   0  0  0  0  0  0  0  0  0  0  0  0  # atno 8008 bound_to 7997
  156.3016  140.2495  156.3406 H   0  0  0  0  0  0  0  0  0  0  0  0  # atno 8009 bound_to 7997
  154.9017  140.0391  157.1886 H   0  0  0  0  0  0  0  0  0  0  0  0  # atno 8010 bound_to 7997
  139.7452  144.7000  151.0515 H   0  0  0  0  0  0  0  0  0  0  0  0  # atno 10167 bound_to 10162
  157.5605  130.8832  149.9104 H   0  0  0  0  0  0  0  0  0  0  0  0  # atno 10718 bound_to 10713
  153.0364  135.5159  154.7501 H   0  0  0  0  0  0  0  0  0  0  0  0  # atno 10763 bound_to 10752
  154.6474  135.2920  155.0031 H   0  0  0  0  0  0  0  0  0  0  0  0  # atno 10764 bound_to 10752
  154.0927  135.6648  153.4908 H   0  0  0  0  0  0  0  0  0  0  0  0  # atno 10765 bound_to 10752
  141.1006  133.8890  157.1851 H   0  0  0  0  0  0  0  0  0  0  0  0  # atno 11005 bound_to 11000
  146.2662  140.4921  142.8833 LP  0  0  0  0  0  0  0  0  0  0  0  0  # atno 17320 bound_to 7965
  144.8253  140.6617  143.6326 LP  0  0  0  0  0  0  0  0  0  0  0  0  # atno 17321 bound_to 7965
  140.7791  143.4876  150.9936 LP  0  0  0  0  0  0  0  0  0  0  0  0  # atno 17342 bound_to 10162
  139.8564  143.7372  152.3176 LP  0  0  0  0  0  0  0  0  0  0  0  0  # atno 17343 bound_to 10162
  156.0658  130.3692  150.0881 LP  0  0  0  0  0  0  0  0  0  0  0  0  # atno 17370 bound_to 10713
  156.9045  130.9631  151.3572 LP  0  0  0  0  0  0  0  0  0  0  0  0  # atno 17371 bound_to 10713
  139.9857  135.0083  156.9856 LP  0  0  0  0  0  0  0  0  0  0  0  0  # atno 17394 bound_to 11000
  140.5031  134.1078  155.7254 LP  0  0  0  0  0  0  0  0  0  0  0  0  # atno 17395 bound_to 11000

$$$$
