AV-unprocessed.smi:193|AV-procd|sdf|1504|dock3
  -GOLD-   2262019333D 1   1.00000     0.00000
 Structure written by MMmdl.
 62 66  0  0  0  0  0  0  0  0  2 V2000
  151.3763  138.5919  158.8119 C   0  0  0  0  0  0  0  0  0  0  0  0
  150.8854  140.0348  158.6106 C   0  0  2  0  0  0  0  0  0  0  0  0
  150.2808  140.1794  157.1981 C   0  0  0  0  0  0  0  0  0  0  0  0
  149.3301  141.2851  157.0609 N   0  0  0  0  0  0  0  0  0  0  0  0
  148.4505  141.2504  156.0258 C   0  0  0  0  0  0  0  0  0  0  0  0
  147.5323  142.2459  155.9062 N   0  0  0  0  0  0  0  0  0  0  0  0
  146.6423  142.2291  154.9097 C   0  0  0  0  0  0  0  0  0  0  0  0
  146.4955  141.3273  153.9380 N   0  0  0  0  0  0  0  0  0  0  0  0
  147.4196  140.3304  154.0438 C   0  0  0  0  0  0  0  0  0  0  0  0
  148.4282  140.2185  155.0427 C   0  0  0  0  0  0  0  0  0  0  0  0
  149.1976  139.0836  154.8099 N   0  0  0  0  0  0  0  0  0  0  0  0
  148.6652  138.5488  153.7454 C   0  0  0  0  0  0  0  0  0  0  0  0
  147.5820  139.2233  153.2293 N   0  0  0  0  0  0  0  0  0  0  0  0
  146.7934  138.8444  152.0667 C   0  0  0  0  0  0  0  0  0  0  0  0
  145.8179  137.6686  152.3258 C   0  0  0  0  0  0  0  0  0  0  0  0
  144.5320  138.2152  152.5621 O   0  0  0  0  0  0  0  0  0  0  0  0
  145.7360  136.7560  151.0858 C   0  0  0  0  0  0  0  0  0  0  0  0
  144.9171  135.4810  151.3549 C   0  0  0  0  0  0  0  0  0  0  0  0
  145.4529  134.7862  152.4743 O   0  0  0  0  0  0  0  0  0  0  0  0
  145.3747  135.5408  153.6771 C   0  0  0  0  0  0  0  0  0  0  0  0
  146.2181  136.8223  153.5545 C   0  0  0  0  0  0  0  0  0  0  0  0
  149.4988  142.5556  157.7652 C   0  0  0  0  0  0  0  0  0  0  0  0
  150.9606  143.0087  157.8650 C   0  0  0  0  0  0  0  0  0  0  0  0
  151.6246  142.4199  159.0520 N   0  3  2  0  0  0  0  0  0  0  0  0
  152.7382  143.2720  159.5318 C   0  0  2  0  0  0  0  0  0  0  0  0
  152.6891  143.5752  161.0125 C   0  0  0  0  0  0  0  0  0  0  0  0
  152.3285  144.6529  160.0135 C   0  0  2  0  0  0  0  0  0  0  0  0
  150.9059  145.1779  159.9384 C   0  0  0  0  0  0  0  0  0  0  0  0
  152.0561  141.0155  158.8458 C   0  0  0  0  0  0  0  0  0  0  0  0
  152.1547  138.3331  158.0931 H   0  0  0  0  0  0  0  0  0  0  0  0
  150.5612  137.8776  158.6910 H   0  0  0  0  0  0  0  0  0  0  0  0
  151.7846  138.4478  159.8126 H   0  0  0  0  0  0  0  0  0  0  0  0
  150.1096  140.2091  159.3580 H   0  0  0  0  0  0  0  0  0  0  0  0
  151.0708  140.2761  156.4520 H   0  0  0  0  0  0  0  0  0  0  0  0
  149.7448  139.2598  156.9572 H   0  0  0  0  0  0  0  0  0  0  0  0
  145.9461  143.0546  154.8887 H   0  0  0  0  0  0  0  0  0  0  0  0
  149.0438  137.6350  153.3105 H   0  0  0  0  0  0  0  0  0  0  0  0
  146.2467  139.7232  151.7206 H   0  0  0  0  0  0  0  0  0  0  0  0
  147.4852  138.5840  151.2646 H   0  0  0  0  0  0  0  0  0  0  0  0
  143.8842  137.6257  152.2074 H   0  0  0  0  0  0  0  0  0  0  0  0
  145.3146  137.2987  150.2385 H   0  0  0  0  0  0  0  0  0  0  0  0
  146.7430  136.4610  150.7877 H   0  0  0  0  0  0  0  0  0  0  0  0
  143.8654  135.7158  151.5268 H   0  0  0  0  0  0  0  0  0  0  0  0
  144.9545  134.8248  150.4853 H   0  0  0  0  0  0  0  0  0  0  0  0
  144.3342  135.7752  153.9066 H   0  0  0  0  0  0  0  0  0  0  0  0
  145.7470  134.9289  154.4988 H   0  0  0  0  0  0  0  0  0  0  0  0
  147.2679  136.5395  153.4696 H   0  0  0  0  0  0  0  0  0  0  0  0
  146.1298  137.4030  154.4734 H   0  0  0  0  0  0  0  0  0  0  0  0
  148.9628  143.3396  157.2294 H   0  0  0  0  0  0  0  0  0  0  0  0
  149.0392  142.4949  158.7525 H   0  0  0  0  0  0  0  0  0  0  0  0
  151.5194  142.8107  156.9487 H   0  0  0  0  0  0  0  0  0  0  0  0
  150.9530  144.0930  157.9818 H   0  0  0  0  0  0  0  0  0  0  0  0
  153.6978  143.1205  159.0400 H   0  0  0  0  0  0  0  0  0  0  0  0
  151.8827  143.1414  161.6012 H   0  0  0  0  0  0  0  0  0  0  0  0
  153.6379  143.6806  161.5351 H   0  0  0  0  0  0  0  0  0  0  0  0
  153.0751  145.4310  159.8676 H   0  0  0  0  0  0  0  0  0  0  0  0
  150.1803  144.4028  160.1863 H   0  0  0  0  0  0  0  0  0  0  0  0
  150.6939  145.5482  158.9353 H   0  0  0  0  0  0  0  0  0  0  0  0
  150.7774  146.0003  160.6422 H   0  0  0  0  0  0  0  0  0  0  0  0
  152.5938  140.7009  159.7412 H   0  0  0  0  0  0  0  0  0  0  0  0
  152.7761  140.9623  158.0275 H   0  0  0  0  0  0  0  0  0  0  0  0
  150.9408  142.4136  159.7953 H   0  0  0  0  0  0  0  0  0  0  0  0
  1  2  1  0  0  0  0
  1 30  1  0  0  0  0
  1 31  1  0  0  0  0
  1 32  1  0  0  0  0
  2 29  1  0  0  0  0
  2  3  1  0  0  0  0
  2 33  1  0  0  0  0
  3  4  1  0  0  0  0
  3 34  1  0  0  0  0
  3 35  1  0  0  0  0
  4  5  1  0  0  0  0
  4 22  1  0  0  0  0
  5 10  1  0  0  0  0
  5  6  2  0  0  0  0
  6  7  1  0  0  0  0
  7  8  2  0  0  0  0
  7 36  1  0  0  0  0
  8  9  1  0  0  0  0
  9 13  1  0  0  0  0
  9 10  2  0  0  0  0
 10 11  1  0  0  0  0
 11 12  2  0  0  0  0
 12 13  1  0  0  0  0
 12 37  1  0  0  0  0
 13 14  1  0  0  0  0
 14 15  1  0  0  0  0
 14 38  1  0  0  0  0
 14 39  1  0  0  0  0
 15 21  1  0  0  0  0
 15 16  1  0  0  0  0
 15 17  1  0  0  0  0
 16 40  1  0  0  0  0
 17 18  1  0  0  0  0
 17 41  1  0  0  0  0
 17 42  1  0  0  0  0
 18 19  1  0  0  0  0
 18 43  1  0  0  0  0
 18 44  1  0  0  0  0
 19 20  1  0  0  0  0
 20 21  1  0  0  0  0
 20 45  1  0  0  0  0
 20 46  1  0  0  0  0
 21 47  1  0  0  0  0
 21 48  1  0  0  0  0
 22 23  1  0  0  0  0
 22 49  1  0  0  0  0
 22 50  1  0  0  0  0
 23 24  1  0  0  0  0
 23 51  1  0  0  0  0
 23 52  1  0  0  0  0
 24 25  1  0  0  0  0
 24 29  1  0  0  0  0
 24 62  1  0  0  0  0
 25 27  1  0  0  0  0
 25 26  1  0  0  0  0
 25 53  1  0  0  0  0
 26 27  1  0  0  0  0
 26 54  1  0  0  0  0
 26 55  1  0  0  0  0
 27 28  1  0  0  0  0
 27 56  1  0  0  0  0
 28 57  1  0  0  0  0
 28 58  1  0  0  0  0
 28 59  1  0  0  0  0
 29 60  1  0  0  0  0
 29 61  1  0  0  0  0
M  CHG  1  24   1
M  END
> <s_m_source_file>
AV-unprocessed.smi

> <i_m_source_file_index>
193

> <i_lp_mmshare_version>
43012

> <i_f3d_flags>
0

> <s_epik_input>
W0NIM11bQ0BASF0xW0NIMl1bQ0BIXTFOKFtDSDJdMilbQ0gyXVtDSDJdTihbQ0gyXVtDQEhdMltDSDNdKWMobltjSF1uMyljKGMzNCluW2NIXW40W0NIMl1DNShbT0hdKVtDSDJdW0NIMl1PW0NIMl1bQ0gyXTU=

> <s_epik_cmdline>
J2VwaWtfcHl0aG9uJywgJy1waCcsICc3LjAnLCAnLXRuJywgJzgnLCAnLW1hJywgJzIwMCcsICctbWV0YWxfYmluZGluZycsICctaW1hZScsICc8aW5maWxlLm1hZT4nLCAnLW9tYWUnLCAnPG91dGZpbGUubWFlPic=

> <r_lp_tautomer_probability>
1

> <r_epik_Ionization_Penalty>
0.0540825

> <r_epik_Ionization_Penalty_Charging>
0.0538476

> <r_epik_Ionization_Penalty_Neutral>
0.000234891

> <r_epik_State_Penalty>
0.0200719

> <r_epik_Charging_Adjusted_Penalty>
0.0739194

> <i_epik_Tot_Q>
1

> <i_epik_Tot_abs_Q>
1

> <r_epik_Metal_State_Penalty>
0.0199414

> <b_epik_Metal_Only>
0

> <s_lp_Force_Field>
OPLS_2005

> <r_lp_Energy>
56.2911

> <b_lp_Chiralities_Consistent>
1

> <s_lp_Variant>
AV-unprocessed.smi:193-9

> <Gold.Version>
5.8.1

> <Gold.Id.Protein>
6NUR|6NUR_protein|mol2

> <Gold.PLP.Fitness>
44.3580

> <Gold.PLP.PLP>
-43.5280

> <Gold.PLP.part.hbond>
-1.9163

> <Gold.PLP.part.metal>
0.0000

> <Gold.PLP.part.buried>
0.1683

> <Gold.PLP.part.nonpolar>
-42.8762

> <Gold.PLP.part.repulsive>
1.8248

> <Gold.PLP.ligand.clash>
0.0000

> <Gold.PLP.ligand.torsion>
1.7437

> <Gold.PLP.Chemscore.Hbond>
0.0000

> <Gold.PLP.Chemscore.CHOScore>
1.0000

> <Gold.PLP.Chemscore.Metal>
0.0000

> <Gold.Chemscore.Hbonds>
donor molecule, donor type, donor heavy atom, donor atom, acceptor molecule, acceptor atom, score
      L1  C    12    37       P1  7948  0.92

> <Gold.PLP.Chemscore.Internal.Correction>
1.3175

> <Gold.Rescore>
     Score         DG    S(hbond)    S(metal)    S(lipo)     H(rot)  DE(clash)    DE(int)     intcor
      7.39     -14.30       0.00        0.00     117.63       1.93       2.94       3.97       ----

> <Gold.Chemscore.Fitness>
7.3884

> <Gold.Chemscore.DG>
-14.3049

> <Gold.Chemscore.ZeroCoef>
-5.4800

> <Gold.Chemscore.Hbond>
0.0000

> <Gold.Chemscore.Metal>
0.0000

> <Gold.Chemscore.Lipo>
117.6339

> <Gold.Chemscore.Internal_Hbond>
0.0000

> <Gold.Chemscore.DEClash>
2.9416

> <Gold.Chemscore.DEInternal>
3.9749

> <Gold.Chemscore.Rot>
1.9290

> <Gold.Chemscore.Internal.Correction>
   9.000000E+99

> <Gold.Chemscore.Hbond.Weighted>
-0.0000

> <Gold.Chemscore.Metal.Weighted>
-0.0000

> <Gold.Chemscore.Lipo.Weighted>
-13.7632

> <Gold.Chemscore.Internal_Hbond.Weighted>
0.0000

> <Gold.Chemscore.DEClash.Weighted>
2.9416

> <Gold.Chemscore.DEInternal.Weighted>
3.9749

> <Gold.Chemscore.Rot.Weighted>
4.9383

> <Gold.Chemscore.Internal.Correction.Weighted>
   9.000000E+99

> <Gold.Protein.RotatedTorsions>
[ 6907 6896 6895 6894 ] final   78.67 input  -60.11 | X-H torsion
[ 7974 7965 7964 7962 ] final   50.33 input  175.53 | X-H torsion
[ 8008 7997 7996 7995 ] final   28.69 input   59.86 | X-H torsion
[ 10167 10162 10161 10158 ] final  -23.77 input  -65.29 | X-H torsion
[ 10718 10713 10712 10709 ] final   40.65 input   66.30 | X-H torsion
[ 10763 10752 10751 10750 ] final -112.72 input  -60.55 | X-H torsion
[ 11005 11000 10999 10996 ] final    7.81 input  -57.11 | X-H torsion

> <Gold.Protein.ActiveResidues>
 VAL166  LYS551  ARG553  GLY616  TRP617  ASP618  TYR619  PRO620  LYS621  CYS622 
 ASP623  PHE694  ASN695  SER759  ASP760  ASP761  ALA762  ILE779  LEU786  VAL792 
 PHE793  MET794  SER795  GLU796  ALA797  LYS798  CYS799  TRP800  GLU811  SER814 

> <Gold.Protein.RotatedAtoms>
  152.5168  134.3629  159.9290 H   0  0  0  0  0  0  0  0  0  0  0  0  # atno 6907 bound_to 6896
  151.3582  133.3893  159.2695 H   0  0  0  0  0  0  0  0  0  0  0  0  # atno 6908 bound_to 6896
  150.9673  134.9070  159.7825 H   0  0  0  0  0  0  0  0  0  0  0  0  # atno 6909 bound_to 6896
  146.0022  139.4452  143.0008 H   0  0  0  0  0  0  0  0  0  0  0  0  # atno 7974 bound_to 7965
  155.0627  140.3192  155.4655 H   0  0  0  0  0  0  0  0  0  0  0  0  # atno 8008 bound_to 7997
  156.2809  140.2126  156.5699 H   0  0  0  0  0  0  0  0  0  0  0  0  # atno 8009 bound_to 7997
  154.7119  140.0497  157.0545 H   0  0  0  0  0  0  0  0  0  0  0  0  # atno 8010 bound_to 7997
  140.7288  143.4413  151.0653 H   0  0  0  0  0  0  0  0  0  0  0  0  # atno 10167 bound_to 10162
  157.3846  130.7772  149.7220 H   0  0  0  0  0  0  0  0  0  0  0  0  # atno 10718 bound_to 10713
  154.8363  135.4480  154.1238 H   0  0  0  0  0  0  0  0  0  0  0  0  # atno 10763 bound_to 10752
  153.2467  135.6922  153.7730 H   0  0  0  0  0  0  0  0  0  0  0  0  # atno 10764 bound_to 10752
  153.7057  135.3364  155.3211 H   0  0  0  0  0  0  0  0  0  0  0  0  # atno 10765 bound_to 10752
  140.5441  134.0346  155.7914 H   0  0  0  0  0  0  0  0  0  0  0  0  # atno 11005 bound_to 11000
  145.7470  140.9987  143.1271 LP  0  0  0  0  0  0  0  0  0  0  0  0  # atno 17320 bound_to 7965
  144.6923  139.9168  143.7466 LP  0  0  0  0  0  0  0  0  0  0  0  0  # atno 17321 bound_to 7965
  139.8080  143.7991  152.3169 LP  0  0  0  0  0  0  0  0  0  0  0  0  # atno 17342 bound_to 10162
  139.8030  144.7366  150.9799 LP  0  0  0  0  0  0  0  0  0  0  0  0  # atno 17343 bound_to 10162
  155.9783  130.4052  150.3654 LP  0  0  0  0  0  0  0  0  0  0  0  0  # atno 17370 bound_to 10713
  157.1762  131.0381  151.2771 LP  0  0  0  0  0  0  0  0  0  0  0  0  # atno 17371 bound_to 10713
  141.1210  133.9461  157.2729 LP  0  0  0  0  0  0  0  0  0  0  0  0  # atno 17394 bound_to 11000
  139.9489  135.0179  156.8935 LP  0  0  0  0  0  0  0  0  0  0  0  0  # atno 17395 bound_to 11000

$$$$
