AV-unprocessed.smi:2538|AV-procd|sdf|9981|dock7
  -GOLD-   2272014 23D 1   1.00000     0.00000
 Structure written by MMmdl.
 48 49  0  0  0  0  0  0  0  0  1 V2000
  152.7203  143.3719  161.6217 C   0  0  0  0  0  0  0  0  0  0  0  0
  152.2310  142.8231  160.2929 C   0  0  0  0  0  0  0  0  0  0  0  0
  152.7936  141.6259  159.7955 C   0  0  0  0  0  0  0  0  0  0  0  0
  152.3674  141.0822  158.5640 C   0  0  0  0  0  0  0  0  0  0  0  0
  152.7741  139.9395  157.8964 N   0  0  0  0  0  0  0  0  0  0  0  0
  152.0081  139.9770  156.8099 C   0  0  0  0  0  0  0  0  0  0  0  0
  151.1513  141.0099  156.6957 N   0  0  0  0  0  0  0  0  0  0  0  0
  150.2192  141.2640  155.6120 C   0  0  0  0  0  0  0  0  0  0  0  0
  150.0164  140.0284  154.7138 C   0  0  2  0  0  0  0  0  0  0  0  0
  149.0157  140.3342  153.7622 O   0  0  0  0  0  0  0  0  0  0  0  0
  149.5698  138.7930  155.5251 C   0  0  0  0  0  0  0  0  0  0  0  0
  150.5644  137.7030  155.5212 N   0  0  0  0  0  0  0  0  0  0  0  0
  151.5562  137.7400  154.4382 C   0  0  0  0  0  0  0  0  0  0  0  0
  150.1948  136.1737  156.2584 S   0  0  0  0  0  0  0  0  0  0  0  0
  151.4467  135.4012  156.2869 O   0  0  0  0  0  0  0  0  0  0  0  0
  149.4804  136.4487  157.5151 O   0  0  0  0  0  0  0  0  0  0  0  0
  149.0301  135.3698  155.0519 C   0  0  0  0  0  0  0  0  0  0  0  0
  147.6636  135.1184  155.7052 C   0  0  0  0  0  0  0  0  0  0  0  0
  149.6338  134.0727  154.4945 C   0  0  0  0  0  0  0  0  0  0  0  0
  151.3553  141.7751  157.8380 C   0  0  0  0  0  0  0  0  0  0  0  0
  150.7878  142.9671  158.3219 C   0  0  0  0  0  0  0  0  0  0  0  0
  151.2239  143.4955  159.5550 C   0  0  0  0  0  0  0  0  0  0  0  0
  150.6031  144.7816  160.0706 C   0  0  0  0  0  0  0  0  0  0  0  0
  153.5372  142.7720  162.0237 H   0  0  0  0  0  0  0  0  0  0  0  0
  151.9126  143.3731  162.3541 H   0  0  0  0  0  0  0  0  0  0  0  0
  153.0838  144.3931  161.5047 H   0  0  0  0  0  0  0  0  0  0  0  0
  153.5597  141.1127  160.3578 H   0  0  0  0  0  0  0  0  0  0  0  0
  152.0707  139.2074  156.0546 H   0  0  0  0  0  0  0  0  0  0  0  0
  149.2694  141.5689  156.0532 H   0  0  0  0  0  0  0  0  0  0  0  0
  150.5793  142.1115  155.0268 H   0  0  0  0  0  0  0  0  0  0  0  0
  150.9510  139.8333  154.1896 H   0  0  0  0  0  0  0  0  0  0  0  0
  149.2926  140.0093  152.9193 H   0  0  0  0  0  0  0  0  0  0  0  0
  149.4123  139.0814  156.5650 H   0  0  0  0  0  0  0  0  0  0  0  0
  148.6008  138.4227  155.1888 H   0  0  0  0  0  0  0  0  0  0  0  0
  151.1513  137.2901  153.5318 H   0  0  0  0  0  0  0  0  0  0  0  0
  152.4495  137.1855  154.7251 H   0  0  0  0  0  0  0  0  0  0  0  0
  151.8537  138.7652  154.2169 H   0  0  0  0  0  0  0  0  0  0  0  0
  148.8836  136.0593  154.2237 H   0  0  0  0  0  0  0  0  0  0  0  0
  146.9715  134.6588  154.9994 H   0  0  0  0  0  0  0  0  0  0  0  0
  147.2097  136.0483  156.0475 H   0  0  0  0  0  0  0  0  0  0  0  0
  147.7537  134.4540  156.5649 H   0  0  0  0  0  0  0  0  0  0  0  0
  148.9771  133.6237  153.7492 H   0  0  0  0  0  0  0  0  0  0  0  0
  149.7932  133.3370  155.2836 H   0  0  0  0  0  0  0  0  0  0  0  0
  150.5938  134.2625  154.0136 H   0  0  0  0  0  0  0  0  0  0  0  0
  150.0220  143.4691  157.7488 H   0  0  0  0  0  0  0  0  0  0  0  0
  149.8077  145.1315  159.4121 H   0  0  0  0  0  0  0  0  0  0  0  0
  151.3554  145.5680  160.1355 H   0  0  0  0  0  0  0  0  0  0  0  0
  150.1736  144.6300  161.0609 H   0  0  0  0  0  0  0  0  0  0  0  0
  1  2  1  0  0  0  0
  1 24  1  0  0  0  0
  1 25  1  0  0  0  0
  1 26  1  0  0  0  0
  2 22  1  0  0  0  0
  2  3  2  0  0  0  0
  3  4  1  0  0  0  0
  3 27  1  0  0  0  0
  4 20  2  0  0  0  0
  4  5  1  0  0  0  0
  5  6  2  0  0  0  0
  6  7  1  0  0  0  0
  6 28  1  0  0  0  0
  7  8  1  0  0  0  0
  7 20  1  0  0  0  0
  8  9  1  0  0  0  0
  8 29  1  0  0  0  0
  8 30  1  0  0  0  0
  9 10  1  0  0  0  0
  9 11  1  0  0  0  0
  9 31  1  0  0  0  0
 10 32  1  0  0  0  0
 11 12  1  0  0  0  0
 11 33  1  0  0  0  0
 11 34  1  0  0  0  0
 12 13  1  0  0  0  0
 12 14  1  0  0  0  0
 13 35  1  0  0  0  0
 13 36  1  0  0  0  0
 13 37  1  0  0  0  0
 14 15  2  0  0  0  0
 14 16  2  0  0  0  0
 14 17  1  0  0  0  0
 17 18  1  0  0  0  0
 17 19  1  0  0  0  0
 17 38  1  0  0  0  0
 18 39  1  0  0  0  0
 18 40  1  0  0  0  0
 18 41  1  0  0  0  0
 19 42  1  0  0  0  0
 19 43  1  0  0  0  0
 19 44  1  0  0  0  0
 20 21  1  0  0  0  0
 21 22  2  0  0  0  0
 21 45  1  0  0  0  0
 22 23  1  0  0  0  0
 23 46  1  0  0  0  0
 23 47  1  0  0  0  0
 23 48  1  0  0  0  0
M  END
> <s_m_source_file>
AV-unprocessed.smi

> <i_m_source_file_index>
2538

> <i_lp_mmshare_version>
43012

> <i_f3d_flags>
0

> <s_epik_input>
W0NIM11jKFtjSF0xKWMoW0NIM10pW2NIXWMoYzEyKW4oW2NIXW4yKVtDSDJdW0NASF0oW09IXSlbQ0gyXU4oW0NIM10pUyg9TykoPU8pW0NIXShbQ0gzXSlbQ0gzXQ==

> <s_epik_cmdline>
J2VwaWtfcHl0aG9uJywgJy1waCcsICc3LjAnLCAnLXRuJywgJzgnLCAnLW1hJywgJzIwMCcsICctbWV0YWxfYmluZGluZycsICctaW1hZScsICc8aW5maWxlLm1hZT4nLCAnLW9tYWUnLCAnPG91dGZpbGUubWFlPic=

> <r_epik_Ionization_Penalty>
0.105018

> <r_epik_Ionization_Penalty_Charging>
0

> <r_epik_Ionization_Penalty_Neutral>
0.105018

> <r_epik_State_Penalty>
0.094904

> <r_epik_Charging_Adjusted_Penalty>
0.094904

> <i_epik_Tot_Q>
0

> <i_epik_Tot_abs_Q>
0

> <r_epik_Metal_State_Penalty>
0.000102919

> <b_epik_Metal_Only>
0

> <s_lp_Force_Field>
OPLS_2005

> <r_lp_Energy>
2.81525

> <b_lp_Chiralities_Consistent>
1

> <s_lp_Variant>
AV-unprocessed.smi:2538-1

> <Gold.Version>
5.8.1

> <Gold.Id.Protein>
6NUR|6NUR_protein|mol2

> <Gold.PLP.Fitness>
51.2571

> <Gold.PLP.PLP>
-44.1051

> <Gold.PLP.part.hbond>
-3.0000

> <Gold.PLP.part.metal>
0.0000

> <Gold.PLP.part.buried>
-4.5168

> <Gold.PLP.part.nonpolar>
-35.6203

> <Gold.PLP.part.repulsive>
0.0101

> <Gold.PLP.ligand.clash>
0.0131

> <Gold.PLP.ligand.torsion>
2.2051

> <Gold.PLP.Chemscore.Hbond>
3.0000

> <Gold.PLP.Chemscore.CHOScore>
0.0000

> <Gold.PLP.Chemscore.Metal>
0.0000

> <Gold.Chemscore.Hbonds>
donor molecule, donor type, donor heavy atom, donor atom, acceptor molecule, acceptor atom, score
      L1  H    10    32       P1  7957  1.00
      P1  H  7997  8009       L1     5  0.95
      P1  H 10752 10765       L1    15  0.84

> <Gold.PLP.Chemscore.Internal.Correction>
2.5752

> <Gold.Rescore>
     Score         DG    S(hbond)    S(metal)    S(lipo)     H(rot)  DE(clash)    DE(int)     intcor
     16.82     -21.00       2.34        0.00     116.08       2.29       0.13       4.05       ----

> <Gold.Chemscore.Fitness>
16.8216

> <Gold.Chemscore.DG>
-20.9979

> <Gold.Chemscore.ZeroCoef>
-5.4800

> <Gold.Chemscore.Hbond>
2.3365

> <Gold.Chemscore.Metal>
0.0000

> <Gold.Chemscore.Lipo>
116.0771

> <Gold.Chemscore.Internal_Hbond>
0.0000

> <Gold.Chemscore.DEClash>
0.1287

> <Gold.Chemscore.DEInternal>
4.0476

> <Gold.Chemscore.Rot>
2.2917

> <Gold.Chemscore.Internal.Correction>
   9.000000E+99

> <Gold.Chemscore.Hbonds>
donor molecule, donor type, donor heavy atom, donor atom, acceptor molecule, acceptor atom, score
      L1  H    10    32       P1  7957  0.99
      P1  H  7997  8009       L1     5  0.18
      P1  H 10752 10765       L1    15  0.82

> <Gold.Chemscore.Hbond.Weighted>
-7.8038

> <Gold.Chemscore.Metal.Weighted>
-0.0000

> <Gold.Chemscore.Lipo.Weighted>
-13.5810

> <Gold.Chemscore.Internal_Hbond.Weighted>
0.0000

> <Gold.Chemscore.DEClash.Weighted>
0.1287

> <Gold.Chemscore.DEInternal.Weighted>
4.0476

> <Gold.Chemscore.Rot.Weighted>
5.8669

> <Gold.Chemscore.Internal.Correction.Weighted>
   9.000000E+99

> <Gold.Protein.RotatedTorsions>
[ 6907 6896 6895 6894 ] final  -28.15 input  -60.11 | X-H torsion
[ 7974 7965 7964 7962 ] final  -38.85 input  175.53 | X-H torsion
[ 8008 7997 7996 7995 ] final  153.88 input   59.86 | X-H torsion
[ 10167 10162 10161 10158 ] final    3.45 input  -65.29 | X-H torsion
[ 10718 10713 10712 10709 ] final   75.74 input   66.30 | X-H torsion
[ 10763 10752 10751 10750 ] final -149.82 input  -60.55 | X-H torsion
[ 11005 11000 10999 10996 ] final   40.93 input  -57.11 | X-H torsion

> <Gold.Protein.ActiveResidues>
 VAL166  LYS551  ARG553  GLY616  TRP617  ASP618  TYR619  PRO620  LYS621  CYS622 
 ASP623  PHE694  ASN695  SER759  ASP760  ASP761  ALA762  ILE779  LEU786  VAL792 
 PHE793  MET794  SER795  GLU796  ALA797  LYS798  CYS799  TRP800  GLU811  SER814 

> <Gold.Protein.RotatedAtoms>
  151.1370  135.0160  159.8608 H   0  0  0  0  0  0  0  0  0  0  0  0  # atno 6907 bound_to 6896
  152.5452  134.1543  159.8542 H   0  0  0  0  0  0  0  0  0  0  0  0  # atno 6908 bound_to 6896
  151.1615  133.4796  159.2627 H   0  0  0  0  0  0  0  0  0  0  0  0  # atno 6909 bound_to 6896
  146.0450  140.6558  142.9069 H   0  0  0  0  0  0  0  0  0  0  0  0  # atno 7974 bound_to 7965
  156.2560  140.1982  156.6559 H   0  0  0  0  0  0  0  0  0  0  0  0  # atno 8008 bound_to 7997
  154.6501  140.0573  156.9971 H   0  0  0  0  0  0  0  0  0  0  0  0  # atno 8009 bound_to 7997
  155.1430  140.3244  155.4450 H   0  0  0  0  0  0  0  0  0  0  0  0  # atno 8010 bound_to 7997
  140.6585  143.7365  150.7696 H   0  0  0  0  0  0  0  0  0  0  0  0  # atno 10167 bound_to 10162
  157.6646  130.9741  150.1397 H   0  0  0  0  0  0  0  0  0  0  0  0  # atno 10718 bound_to 10713
  154.8155  135.3299  154.7188 H   0  0  0  0  0  0  0  0  0  0  0  0  # atno 10763 bound_to 10752
  153.7829  135.6917  153.4889 H   0  0  0  0  0  0  0  0  0  0  0  0  # atno 10764 bound_to 10752
  153.1968  135.4531  155.0165 H   0  0  0  0  0  0  0  0  0  0  0  0  # atno 10765 bound_to 10752
  140.1883  134.4018  155.8161 H   0  0  0  0  0  0  0  0  0  0  0  0  # atno 11005 bound_to 11000
  144.7093  140.3977  143.7093 LP  0  0  0  0  0  0  0  0  0  0  0  0  # atno 17320 bound_to 7965
  145.6821  139.1621  143.2695 LP  0  0  0  0  0  0  0  0  0  0  0  0  # atno 17321 bound_to 7965
  140.1029  143.4770  152.2414 LP  0  0  0  0  0  0  0  0  0  0  0  0  # atno 17342 bound_to 10162
  139.5813  144.7511  151.3633 LP  0  0  0  0  0  0  0  0  0  0  0  0  # atno 17343 bound_to 10162
  156.2223  130.3675  149.8542 LP  0  0  0  0  0  0  0  0  0  0  0  0  # atno 17370 bound_to 10713
  156.6391  130.8697  151.3510 LP  0  0  0  0  0  0  0  0  0  0  0  0  # atno 17371 bound_to 10713
  141.2225  133.7034  156.8051 LP  0  0  0  0  0  0  0  0  0  0  0  0  # atno 17394 bound_to 11000
  140.2188  134.8772  157.3355 LP  0  0  0  0  0  0  0  0  0  0  0  0  # atno 17395 bound_to 11000

$$$$
