AV-unprocessed.smi:116|AV-procd|sdf|1128|dock8
  -GOLD-   2262018253D 1   1.00000     0.00000
 Structure written by MMmdl.
 38 41  0  0  0  0  0  0  0  0  1 V2000
  150.1850  140.4262  154.3252 O   0  0  0  0  0  0  0  0  0  0  0  0
  149.9704  139.2400  154.5797 C   0  0  0  0  0  0  0  0  0  0  0  0
  148.6790  138.5973  154.3621 C   0  0  0  0  0  0  0  0  0  0  0  0
  147.6503  139.3183  153.8846 F   0  0  0  0  0  0  0  0  0  0  0  0
  148.4963  137.2876  154.6346 C   0  0  0  0  0  0  0  0  0  0  0  0
  149.5005  136.4716  155.1274 N   0  0  0  0  0  0  0  0  0  0  0  0
  149.2521  135.0078  155.4159 C   0  0  1  0  0  0  0  0  0  0  0  0
  147.7630  134.6817  155.2562 C   0  0  0  0  0  0  0  0  0  0  0  0
  147.7064  134.1703  153.8332 C   0  0  0  0  0  0  0  0  0  0  0  0
  149.0480  133.4575  153.7112 C   0  0  0  0  0  0  0  0  0  0  0  0
  149.9566  134.2338  154.4876 O   0  0  0  0  0  0  0  0  0  0  0  0
  150.7777  137.0133  155.3904 C   0  0  0  0  0  0  0  0  0  0  0  0
  151.6795  136.3081  155.8488 O   0  0  0  0  0  0  0  0  0  0  0  0
  150.9719  138.3868  155.1070 N   0  0  0  0  0  0  0  0  0  0  0  0
  152.2969  138.9451  155.3289 C   0  0  0  0  0  0  0  0  0  0  0  0
  152.3124  139.8032  156.5577 C   0  0  0  0  0  0  0  0  0  0  0  0
  153.0989  139.5281  157.6065 N   0  0  0  0  0  0  0  0  0  0  0  0
  152.9251  140.4850  158.6020 C   0  0  0  0  0  0  0  0  0  0  0  0
  153.5847  140.5409  159.8519 C   0  0  0  0  0  0  0  0  0  0  0  0
  153.3142  141.5724  160.7731 C   0  0  0  0  0  0  0  0  0  0  0  0
  152.3739  142.5727  160.4613 C   0  0  0  0  0  0  0  0  0  0  0  0
  151.7022  142.5417  159.2256 C   0  0  0  0  0  0  0  0  0  0  0  0
  151.9769  141.5093  158.3095 C   0  0  0  0  0  0  0  0  0  0  0  0
  151.2861  141.2362  156.7137 S   0  0  0  0  0  0  0  0  0  0  0  0
  147.5158  136.8716  154.4577 H   0  0  0  0  0  0  0  0  0  0  0  0
  149.6424  134.8209  156.4175 H   0  0  0  0  0  0  0  0  0  0  0  0
  147.5043  133.8878  155.9577 H   0  0  0  0  0  0  0  0  0  0  0  0
  147.1238  135.5447  155.4461 H   0  0  0  0  0  0  0  0  0  0  0  0
  146.8560  133.5140  153.6466 H   0  0  0  0  0  0  0  0  0  0  0  0
  147.6549  135.0046  153.1327 H   0  0  0  0  0  0  0  0  0  0  0  0
  148.9863  132.4571  154.1417 H   0  0  0  0  0  0  0  0  0  0  0  0
  149.3830  133.3633  152.6780 H   0  0  0  0  0  0  0  0  0  0  0  0
  153.0158  138.1291  155.4122 H   0  0  0  0  0  0  0  0  0  0  0  0
  152.5869  139.5137  154.4437 H   0  0  0  0  0  0  0  0  0  0  0  0
  154.3085  139.7801  160.1040 H   0  0  0  0  0  0  0  0  0  0  0  0
  153.8300  141.5955  161.7217 H   0  0  0  0  0  0  0  0  0  0  0  0
  152.1684  143.3619  161.1694 H   0  0  0  0  0  0  0  0  0  0  0  0
  150.9797  143.3059  158.9803 H   0  0  0  0  0  0  0  0  0  0  0  0
  1  2  2  0  0  0  0
  2 14  1  0  0  0  0
  2  3  1  0  0  0  0
  3  4  1  0  0  0  0
  3  5  2  0  0  0  0
  5  6  1  0  0  0  0
  5 25  1  0  0  0  0
  6  7  1  0  0  0  0
  6 12  1  0  0  0  0
  7 11  1  0  0  0  0
  7  8  1  0  0  0  0
  7 26  1  0  0  0  0
  8  9  1  0  0  0  0
  8 27  1  0  0  0  0
  8 28  1  0  0  0  0
  9 10  1  0  0  0  0
  9 29  1  0  0  0  0
  9 30  1  0  0  0  0
 10 11  1  0  0  0  0
 10 31  1  0  0  0  0
 10 32  1  0  0  0  0
 12 13  2  0  0  0  0
 12 14  1  0  0  0  0
 14 15  1  0  0  0  0
 15 16  1  0  0  0  0
 15 33  1  0  0  0  0
 15 34  1  0  0  0  0
 16 24  1  0  0  0  0
 16 17  2  0  0  0  0
 17 18  1  0  0  0  0
 18 23  2  0  0  0  0
 18 19  1  0  0  0  0
 19 20  2  0  0  0  0
 19 35  1  0  0  0  0
 20 21  1  0  0  0  0
 20 36  1  0  0  0  0
 21 22  2  0  0  0  0
 21 37  1  0  0  0  0
 22 23  1  0  0  0  0
 22 38  1  0  0  0  0
 23 24  1  0  0  0  0
M  END
> <s_m_source_file>
AV-unprocessed.smi

> <i_m_source_file_index>
116

> <i_lp_mmshare_version>
43012

> <i_f3d_flags>
0

> <s_epik_input>
TzFbQ0gyXVtDSDJdW0NIMl1bQ0BIXTFuKFtjSF1jKEYpYzI9TyljKD1PKW4yW0NIMl1jKG4zKXNjKGMzNClbY0hdW2NIXVtjSF1bY0hdNA==

> <s_epik_cmdline>
J2VwaWtfcHl0aG9uJywgJy1waCcsICc3LjAnLCAnLXRuJywgJzgnLCAnLW1hJywgJzIwMCcsICctbWV0YWxfYmluZGluZycsICctaW1hZScsICc8aW5maWxlLm1hZT4nLCAnLW9tYWUnLCAnPG91dGZpbGUubWFlPic=

> <r_lp_tautomer_probability>
1

> <r_epik_Ionization_Penalty>
4.2492e-05

> <r_epik_Ionization_Penalty_Charging>
2.84664e-09

> <r_epik_Ionization_Penalty_Neutral>
4.24891e-05

> <r_epik_State_Penalty>
-0

> <r_epik_Charging_Adjusted_Penalty>
2.84664e-09

> <i_epik_Tot_Q>
0

> <i_epik_Tot_abs_Q>
0

> <r_epik_Metal_State_Penalty>
-0

> <b_epik_Metal_Only>
0

> <s_epik_Chemistry_Notes>
This compound contains an acetal/aminal-like group ( X-CH(R)-Y where X, Y are N, S, or O) that may be acid/base labile, releasing an aldehyde.

> <s_lp_Force_Field>
OPLS_2005

> <r_lp_Energy>
30.7685

> <b_lp_Chiralities_Consistent>
1

> <s_lp_Variant>
AV-unprocessed.smi:116-2

> <Gold.Version>
5.8.1

> <Gold.Id.Protein>
6NUR|6NUR_protein|mol2

> <Gold.PLP.Fitness>
46.5339

> <Gold.PLP.PLP>
-40.1674

> <Gold.PLP.part.hbond>
-3.0000

> <Gold.PLP.part.metal>
0.0000

> <Gold.PLP.part.buried>
-2.2538

> <Gold.PLP.part.nonpolar>
-34.7874

> <Gold.PLP.part.repulsive>
0.2541

> <Gold.PLP.ligand.clash>
0.0000

> <Gold.PLP.ligand.torsion>
0.3386

> <Gold.PLP.Chemscore.Hbond>
2.3440

> <Gold.PLP.Chemscore.CHOScore>
0.0000

> <Gold.PLP.Chemscore.Metal>
0.0000

> <Gold.Chemscore.Hbonds>
donor molecule, donor type, donor heavy atom, donor atom, acceptor molecule, acceptor atom, score
      P1  H  7989  7998       L1     1  0.91
      P1  H  7997  8010       L1    17  0.25
      P1  H 10752 10763       L1    13  1.00

> <Gold.PLP.Chemscore.Internal.Correction>
0.0118

> <Gold.Rescore>
     Score         DG    S(hbond)    S(metal)    S(lipo)     H(rot)  DE(clash)    DE(int)     intcor
     16.74     -19.59       2.11        0.00      93.62       1.52       0.68       2.16       ----

> <Gold.Chemscore.Fitness>
16.7405

> <Gold.Chemscore.DG>
-19.5851

> <Gold.Chemscore.ZeroCoef>
-5.4800

> <Gold.Chemscore.Hbond>
2.1065

> <Gold.Chemscore.Metal>
0.0000

> <Gold.Chemscore.Lipo>
93.6182

> <Gold.Chemscore.Internal_Hbond>
0.0000

> <Gold.Chemscore.DEClash>
0.6822

> <Gold.Chemscore.DEInternal>
2.1624

> <Gold.Chemscore.Rot>
1.5172

> <Gold.Chemscore.Internal.Correction>
   9.000000E+99

> <Gold.Chemscore.Hbonds>
donor molecule, donor type, donor heavy atom, donor atom, acceptor molecule, acceptor atom, score
      P1  H  7989  7998       L1     1  0.88
      P1  H  7997  8010       L1    17  0.02
      P1  H 10752 10763       L1    13  1.00

> <Gold.Chemscore.Hbond.Weighted>
-7.0359

> <Gold.Chemscore.Metal.Weighted>
-0.0000

> <Gold.Chemscore.Lipo.Weighted>
-10.9533

> <Gold.Chemscore.Internal_Hbond.Weighted>
0.0000

> <Gold.Chemscore.DEClash.Weighted>
0.6822

> <Gold.Chemscore.DEInternal.Weighted>
2.1624

> <Gold.Chemscore.Rot.Weighted>
3.8841

> <Gold.Chemscore.Internal.Correction.Weighted>
   9.000000E+99

> <Gold.Protein.RotatedTorsions>
[ 6907 6896 6895 6894 ] final   48.80 input  -60.11 | X-H torsion
[ 7974 7965 7964 7962 ] final  -96.06 input  175.53 | X-H torsion
[ 8008 7997 7996 7995 ] final    1.33 input   59.86 | X-H torsion
[ 10167 10162 10161 10158 ] final   90.50 input  -65.29 | X-H torsion
[ 10718 10713 10712 10709 ] final -102.60 input   66.30 | X-H torsion
[ 10763 10752 10751 10750 ] final   75.74 input  -60.55 | X-H torsion
[ 11005 11000 10999 10996 ] final  -81.54 input  -57.11 | X-H torsion

> <Gold.Protein.ActiveResidues>
 VAL166  LYS551  ARG553  GLY616  TRP617  ASP618  TYR619  PRO620  LYS621  CYS622 
 ASP623  PHE694  ASN695  SER759  ASP760  ASP761  ALA762  ILE779  LEU786  VAL792 
 PHE793  MET794  SER795  GLU796  ALA797  LYS798  CYS799  TRP800  GLU811  SER814 

> <Gold.Protein.RotatedAtoms>
  152.2836  134.7801  160.0391 H   0  0  0  0  0  0  0  0  0  0  0  0  # atno 6907 bound_to 6896
  151.8372  133.3412  159.3640 H   0  0  0  0  0  0  0  0  0  0  0  0  # atno 6908 bound_to 6896
  150.7200  134.5355  159.5765 H   0  0  0  0  0  0  0  0  0  0  0  0  # atno 6909 bound_to 6896
  145.3519  140.9478  143.2550 H   0  0  0  0  0  0  0  0  0  0  0  0  # atno 7974 bound_to 7965
  154.6785  140.2627  155.6933 H   0  0  0  0  0  0  0  0  0  0  0  0  # atno 8008 bound_to 7997
  156.2687  140.2815  156.1243 H   0  0  0  0  0  0  0  0  0  0  0  0  # atno 8009 bound_to 7997
  155.1065  140.0375  157.2702 H   0  0  0  0  0  0  0  0  0  0  0  0  # atno 8010 bound_to 7997
  139.8467  144.6614  150.9218 H   0  0  0  0  0  0  0  0  0  0  0  0  # atno 10167 bound_to 10162
  156.0235  130.5428  150.7132 H   0  0  0  0  0  0  0  0  0  0  0  0  # atno 10718 bound_to 10713
  153.0676  135.4977  154.8233 H   0  0  0  0  0  0  0  0  0  0  0  0  # atno 10763 bound_to 10752
  154.6975  135.2995  154.9392 H   0  0  0  0  0  0  0  0  0  0  0  0  # atno 10764 bound_to 10752
  154.0126  135.6752  153.4819 H   0  0  0  0  0  0  0  0  0  0  0  0  # atno 10765 bound_to 10752
  141.1666  133.7201  156.8438 H   0  0  0  0  0  0  0  0  0  0  0  0  # atno 11005 bound_to 11000
  144.8711  139.5036  143.6767 LP  0  0  0  0  0  0  0  0  0  0  0  0  # atno 17320 bound_to 7965
  146.2964  139.7292  142.9123 LP  0  0  0  0  0  0  0  0  0  0  0  0  # atno 17321 bound_to 7965
  140.7792  143.3863  151.1387 LP  0  0  0  0  0  0  0  0  0  0  0  0  # atno 17342 bound_to 10162
  139.7505  143.8786  152.3075 LP  0  0  0  0  0  0  0  0  0  0  0  0  # atno 17343 bound_to 10162
  157.4765  131.0898  151.0584 LP  0  0  0  0  0  0  0  0  0  0  0  0  # atno 17370 bound_to 10713
  157.1029  130.5989  149.5464 LP  0  0  0  0  0  0  0  0  0  0  0  0  # atno 17371 bound_to 10713
  140.1964  134.8928  157.3120 LP  0  0  0  0  0  0  0  0  0  0  0  0  # atno 17394 bound_to 11000
  140.2234  134.3996  155.7555 LP  0  0  0  0  0  0  0  0  0  0  0  0  # atno 17395 bound_to 11000

$$$$
