AV-unprocessed.smi:1726|AV-procd|sdf|6959|dock4
  -GOLD-   22720 8173D 1   1.00000     0.00000
 Structure written by MMmdl.
 43 44  0  0  0  0  0  0  0  0  2 V2000
  145.2682  132.5456  150.8807 C   0  0  0  0  0  0  0  0  0  0  0  0
  146.5005  133.4595  150.8172 C   0  0  0  0  0  0  0  0  0  0  0  0
  146.3572  134.6615  151.6759 N   0  3  1  0  0  0  0  0  0  0  0  0
  145.2364  135.5365  151.2435 C   0  0  0  0  0  0  0  0  0  0  0  0
  145.2064  136.8452  152.0526 C   0  0  0  0  0  0  0  0  0  0  0  0
  145.1605  136.5698  153.5650 C   0  0  0  0  0  0  0  0  0  0  0  0
  146.2979  135.6225  153.9868 C   0  0  2  0  0  0  0  0  0  0  0  0
  147.5845  136.3113  153.8777 N   0  0  0  0  0  0  0  0  0  0  0  0
  148.1619  137.0395  154.8442 C   0  0  0  0  0  0  0  0  0  0  0  0
  147.6616  137.1927  155.9574 O   0  0  0  0  0  0  0  0  0  0  0  0
  149.3345  137.5473  154.4221 N   0  0  0  0  0  0  0  0  0  0  0  0
  150.2626  138.3615  155.0955 C   0  0  0  0  0  0  0  0  0  0  0  0
  149.9568  139.4605  155.8347 C   0  0  0  0  0  0  0  0  0  0  0  0
  150.9785  140.2527  156.4992 C   0  0  0  0  0  0  0  0  0  0  0  0
  150.6322  141.5189  157.2675 C   0  0  0  0  0  0  0  0  0  0  0  0
  151.2601  142.5620  156.7269 F   0  0  0  0  0  0  0  0  0  0  0  0
  149.3211  141.7610  157.2349 F   0  0  0  0  0  0  0  0  0  0  0  0
  151.0083  141.4237  158.5431 F   0  0  0  0  0  0  0  0  0  0  0  0
  152.2523  139.8551  156.3284 C   0  0  0  0  0  0  0  0  0  0  0  0
  152.5750  138.7213  155.5802 N   0  0  0  0  0  0  0  0  0  0  0  0
  151.6672  137.9436  154.9494 C   0  0  0  0  0  0  0  0  0  0  0  0
  152.0324  136.9595  154.3068 O   0  0  0  0  0  0  0  0  0  0  0  0
  146.2572  134.3410  153.1247 C   0  0  0  0  0  0  0  0  0  0  0  0
  153.5531  138.4794  155.5120 H   0  0  0  0  0  0  0  0  0  0  0  0
  145.4410  131.6308  150.3132 H   0  0  0  0  0  0  0  0  0  0  0  0
  144.3811  133.0202  150.4628 H   0  0  0  0  0  0  0  0  0  0  0  0
  145.0438  132.2584  151.9083 H   0  0  0  0  0  0  0  0  0  0  0  0
  147.3602  132.8783  151.1536 H   0  0  0  0  0  0  0  0  0  0  0  0
  146.7113  133.7549  149.7884 H   0  0  0  0  0  0  0  0  0  0  0  0
  145.3401  135.7758  150.1844 H   0  0  0  0  0  0  0  0  0  0  0  0
  144.2919  135.0015  151.3562 H   0  0  0  0  0  0  0  0  0  0  0  0
  146.0871  137.4420  151.8121 H   0  0  0  0  0  0  0  0  0  0  0  0
  144.3436  137.4439  151.7588 H   0  0  0  0  0  0  0  0  0  0  0  0
  145.2128  137.5054  154.1231 H   0  0  0  0  0  0  0  0  0  0  0  0
  144.2013  136.1164  153.8185 H   0  0  0  0  0  0  0  0  0  0  0  0
  146.1475  135.3515  155.0333 H   0  0  0  0  0  0  0  0  0  0  0  0
  148.0605  136.2448  152.9895 H   0  0  0  0  0  0  0  0  0  0  0  0
  149.6045  137.3128  153.4776 H   0  0  0  0  0  0  0  0  0  0  0  0
  148.9391  139.7897  155.9563 H   0  0  0  0  0  0  0  0  0  0  0  0
  153.1098  140.3669  156.7400 H   0  0  0  0  0  0  0  0  0  0  0  0
  145.3285  133.7988  153.3100 H   0  0  0  0  0  0  0  0  0  0  0  0
  147.0622  133.6717  153.4247 H   0  0  0  0  0  0  0  0  0  0  0  0
  147.2019  135.2013  151.5516 H   0  0  0  0  0  0  0  0  0  0  0  0
  1  2  1  0  0  0  0
  1 25  1  0  0  0  0
  1 26  1  0  0  0  0
  1 27  1  0  0  0  0
  2  3  1  0  0  0  0
  2 28  1  0  0  0  0
  2 29  1  0  0  0  0
  3 23  1  0  0  0  0
  3  4  1  0  0  0  0
  3 43  1  0  0  0  0
  4  5  1  0  0  0  0
  4 30  1  0  0  0  0
  4 31  1  0  0  0  0
  5  6  1  0  0  0  0
  5 32  1  0  0  0  0
  5 33  1  0  0  0  0
  6  7  1  0  0  0  0
  6 34  1  0  0  0  0
  6 35  1  0  0  0  0
  7  8  1  0  0  0  0
  7 23  1  0  0  0  0
  7 36  1  0  0  0  0
  8  9  1  0  0  0  0
  8 37  1  0  0  0  0
  9 10  2  0  0  0  0
  9 11  1  0  0  0  0
 11 12  1  0  0  0  0
 11 38  1  0  0  0  0
 12 21  1  0  0  0  0
 12 13  2  0  0  0  0
 13 14  1  0  0  0  0
 13 39  1  0  0  0  0
 14 15  1  0  0  0  0
 14 19  2  0  0  0  0
 15 16  1  0  0  0  0
 15 17  1  0  0  0  0
 15 18  1  0  0  0  0
 19 20  1  0  0  0  0
 19 40  1  0  0  0  0
 20 24  1  0  0  0  0
 20 21  1  0  0  0  0
 21 22  2  0  0  0  0
 23 41  1  0  0  0  0
 23 42  1  0  0  0  0
M  CHG  1   3   1
M  END
> <s_m_source_file>
AV-unprocessed.smi

> <i_m_source_file_index>
1726

> <i_lp_mmshare_version>
43012

> <i_f3d_flags>
0

> <s_epik_input>
W0NIM11bQ0gyXU4xW0NIMl1bQ0gyXVtDSDJdW0NASF0oW0NIMl0xKVtOSF1DKD1PKVtOSF1jMltjSF1jKEMoRikoRilGKVtjSF1bbkhdYzI9Tw==

> <s_epik_cmdline>
J2VwaWtfcHl0aG9uJywgJy1waCcsICc3LjAnLCAnLXRuJywgJzgnLCAnLW1hJywgJzIwMCcsICctbWV0YWxfYmluZGluZycsICctaW1hZScsICc8aW5maWxlLm1hZT4nLCAnLW9tYWUnLCAnPG91dGZpbGUubWFlPic=

> <r_lp_tautomer_probability>
1

> <r_epik_Ionization_Penalty>
0.00745721

> <r_epik_Ionization_Penalty_Charging>
0.00743804

> <r_epik_Ionization_Penalty_Neutral>
1.91703e-05

> <r_epik_State_Penalty>
-0

> <r_epik_Charging_Adjusted_Penalty>
0.00743804

> <i_epik_Tot_Q>
1

> <i_epik_Tot_abs_Q>
1

> <r_epik_Metal_State_Penalty>
0.37929

> <b_epik_Metal_Only>
0

> <s_lp_Force_Field>
OPLS_2005

> <r_lp_Energy>
34.9839

> <b_lp_Chiralities_Consistent>
1

> <s_lp_Variant>
AV-unprocessed.smi:1726-3

> <Gold.Version>
5.8.1

> <Gold.Id.Protein>
6NUR|6NUR_protein|mol2

> <Gold.PLP.Fitness>
44.0548

> <Gold.PLP.PLP>
-31.4446

> <Gold.PLP.part.hbond>
-3.7899

> <Gold.PLP.part.metal>
0.0000

> <Gold.PLP.part.buried>
-5.5554

> <Gold.PLP.part.nonpolar>
-24.2270

> <Gold.PLP.part.repulsive>
0.4097

> <Gold.PLP.ligand.clash>
0.0000

> <Gold.PLP.ligand.torsion>
0.7883

> <Gold.PLP.Chemscore.Hbond>
4.7090

> <Gold.PLP.Chemscore.CHOScore>
0.0000

> <Gold.PLP.Chemscore.Metal>
0.0000

> <Gold.Chemscore.Hbonds>
donor molecule, donor type, donor heavy atom, donor atom, acceptor molecule, acceptor atom, score
      L1  H     3    43       P1  7948  2.00
      L1  H     8    37       P1  7948  0.76
      L1  H    11    38       P1  7948  0.85
      P1  H 10752 10764       L1    22  1.00

> <Gold.PLP.Chemscore.Internal.Correction>
0.0597

> <Gold.Rescore>
     Score         DG    S(hbond)    S(metal)    S(lipo)     H(rot)  DE(clash)    DE(int)     intcor
     19.70     -20.46       3.48        0.00      56.85       1.29       0.01       0.74       ----

> <Gold.Chemscore.Fitness>
19.7038

> <Gold.Chemscore.DG>
-20.4619

> <Gold.Chemscore.ZeroCoef>
-5.4800

> <Gold.Chemscore.Hbond>
3.4816

> <Gold.Chemscore.Metal>
0.0000

> <Gold.Chemscore.Lipo>
56.8516

> <Gold.Chemscore.Internal_Hbond>
0.0000

> <Gold.Chemscore.DEClash>
0.0137

> <Gold.Chemscore.DEInternal>
0.7445

> <Gold.Chemscore.Rot>
1.2884

> <Gold.Chemscore.Internal.Correction>
   9.000000E+99

> <Gold.Chemscore.Hbonds>
donor molecule, donor type, donor heavy atom, donor atom, acceptor molecule, acceptor atom, score
      L1  H     3    43       P1  7948  0.86
      L1  H     8    37       P1  7948  0.77
      L1  H    11    38       P1  7948  0.64
      P1  H 10752 10764       L1    22  0.94

> <Gold.Chemscore.Hbond.Weighted>
-11.6286

> <Gold.Chemscore.Metal.Weighted>
-0.0000

> <Gold.Chemscore.Lipo.Weighted>
-6.6516

> <Gold.Chemscore.Internal_Hbond.Weighted>
0.0000

> <Gold.Chemscore.DEClash.Weighted>
0.0137

> <Gold.Chemscore.DEInternal.Weighted>
0.7445

> <Gold.Chemscore.Rot.Weighted>
3.2983

> <Gold.Chemscore.Internal.Correction.Weighted>
   9.000000E+99

> <Gold.Protein.RotatedTorsions>
[ 6907 6896 6895 6894 ] final  101.92 input  -60.11 | X-H torsion
[ 7974 7965 7964 7962 ] final -155.31 input  175.53 | X-H torsion
[ 8008 7997 7996 7995 ] final   34.23 input   59.86 | X-H torsion
[ 10167 10162 10161 10158 ] final -120.47 input  -65.29 | X-H torsion
[ 10718 10713 10712 10709 ] final  -51.66 input   66.30 | X-H torsion
[ 10763 10752 10751 10750 ] final  -82.34 input  -60.55 | X-H torsion
[ 11005 11000 10999 10996 ] final   -0.91 input  -57.11 | X-H torsion

> <Gold.Protein.ActiveResidues>
 VAL166  LYS551  ARG553  GLY616  TRP617  ASP618  TYR619  PRO620  LYS621  CYS622 
 ASP623  PHE694  ASN695  SER759  ASP760  ASP761  ALA762  ILE779  LEU786  VAL792 
 PHE793  MET794  SER795  GLU796  ALA797  LYS798  CYS799  TRP800  GLU811  SER814 

> <Gold.Protein.RotatedAtoms>
  152.5337  134.0053  159.7913 H   0  0  0  0  0  0  0  0  0  0  0  0  # atno 6907 bound_to 6896
  151.0264  133.5822  159.2672 H   0  0  0  0  0  0  0  0  0  0  0  0  # atno 6908 bound_to 6896
  151.2842  135.0730  159.9234 H   0  0  0  0  0  0  0  0  0  0  0  0  # atno 6909 bound_to 6896
  144.7646  140.4268  143.5951 H   0  0  0  0  0  0  0  0  0  0  0  0  # atno 7974 bound_to 7965
  155.1515  140.3275  155.4430 H   0  0  0  0  0  0  0  0  0  0  0  0  # atno 8008 bound_to 7997
  156.2573  140.1976  156.6576 H   0  0  0  0  0  0  0  0  0  0  0  0  # atno 8009 bound_to 7997
  154.6470  140.0563  156.9898 H   0  0  0  0  0  0  0  0  0  0  0  0  # atno 8010 bound_to 7997
  140.0354  143.5206  152.2156 H   0  0  0  0  0  0  0  0  0  0  0  0  # atno 10167 bound_to 10162
  156.1690  130.4149  149.9675 H   0  0  0  0  0  0  0  0  0  0  0  0  # atno 10718 bound_to 10713
  154.5745  135.5595  153.7127 H   0  0  0  0  0  0  0  0  0  0  0  0  # atno 10763 bound_to 10752
  153.0060  135.6305  154.2068 H   0  0  0  0  0  0  0  0  0  0  0  0  # atno 10764 bound_to 10752
  154.2008  135.2878  155.2971 H   0  0  0  0  0  0  0  0  0  0  0  0  # atno 10765 bound_to 10752
  140.6415  133.9485  155.8329 H   0  0  0  0  0  0  0  0  0  0  0  0  # atno 11005 bound_to 11000
  145.6509  139.1565  143.2862 LP  0  0  0  0  0  0  0  0  0  0  0  0  # atno 17320 bound_to 7965
  146.1742  140.6598  142.9219 LP  0  0  0  0  0  0  0  0  0  0  0  0  # atno 17321 bound_to 7965
  139.6048  144.7593  151.3087 LP  0  0  0  0  0  0  0  0  0  0  0  0  # atno 17342 bound_to 10162
  140.7283  143.6938  150.7900 LP  0  0  0  0  0  0  0  0  0  0  0  0  # atno 17343 bound_to 10162
  156.7481  130.9105  151.3636 LP  0  0  0  0  0  0  0  0  0  0  0  0  # atno 17370 bound_to 10713
  157.6789  130.9121  150.0218 LP  0  0  0  0  0  0  0  0  0  0  0  0  # atno 17371 bound_to 10713
  141.0603  134.0356  157.3667 LP  0  0  0  0  0  0  0  0  0  0  0  0  # atno 17394 bound_to 11000
  139.9078  135.0184  156.7563 LP  0  0  0  0  0  0  0  0  0  0  0  0  # atno 17395 bound_to 11000

$$$$
