AV-unprocessed.smi:2807|AV-procd|sdf|10817|dock2
  -GOLD-   2272015253D 1   1.00000     0.00000
 Structure written by MMmdl.
 32 33  0  0  0  0  0  0  0  0  1 V2000
  150.2041  140.9144  158.6820 O   0  0  0  0  0  0  0  0  0  0  0  0
  149.9781  142.0429  158.2434 C   0  0  0  0  0  0  0  0  0  0  0  0
  149.1175  142.2814  157.2399 N   0  0  0  0  0  0  0  0  0  0  0  0
  148.4000  141.2599  156.4776 C   0  0  1  0  0  0  0  0  0  0  0  0
  147.3167  141.9164  155.6034 C   0  0  0  0  0  0  0  0  0  0  0  0
  147.8434  141.8553  154.1707 C   0  0  0  0  0  0  0  0  0  0  0  0
  148.6412  140.5556  154.1270 C   0  0  0  0  0  0  0  0  0  0  0  0
  149.3090  140.4570  155.5046 C   0  0  1  0  0  0  0  0  0  0  0  0
  150.6268  140.9715  155.4093 O   0  0  0  0  0  0  0  0  0  0  0  0
  150.7166  143.2633  158.8117 C   0  0  0  0  0  0  0  0  0  0  0  0
  151.3647  143.8692  157.8142 F   0  0  0  0  0  0  0  0  0  0  0  0
  149.8292  144.1276  159.3103 F   0  0  0  0  0  0  0  0  0  0  0  0
  151.6878  142.8238  159.9053 C   0  0  0  0  0  0  0  0  0  0  0  0
  152.7925  141.9921  159.6103 C   0  0  0  0  0  0  0  0  0  0  0  0
  153.6357  141.5902  160.6641 C   0  0  0  0  0  0  0  0  0  0  0  0
  153.3480  142.0309  161.9697 C   0  0  0  0  0  0  0  0  0  0  0  0
  152.2245  142.8573  162.1646 C   0  0  0  0  0  0  0  0  0  0  0  0
  151.4088  143.2463  161.1617 N   0  0  0  0  0  0  0  0  0  0  0  0
  148.9957  143.2380  156.9404 H   0  0  0  0  0  0  0  0  0  0  0  0
  147.9061  140.5748  157.1691 H   0  0  0  0  0  0  0  0  0  0  0  0
  146.3987  141.3308  155.6700 H   0  0  0  0  0  0  0  0  0  0  0  0
  147.0684  142.9341  155.9086 H   0  0  0  0  0  0  0  0  0  0  0  0
  147.0456  141.8847  153.4281 H   0  0  0  0  0  0  0  0  0  0  0  0
  148.5064  142.7014  153.9842 H   0  0  0  0  0  0  0  0  0  0  0  0
  147.9518  139.7199  154.0001 H   0  0  0  0  0  0  0  0  0  0  0  0
  149.3480  140.5206  153.2968 H   0  0  0  0  0  0  0  0  0  0  0  0
  149.3857  139.4153  155.8178 H   0  0  0  0  0  0  0  0  0  0  0  0
  151.0074  140.9802  156.2744 H   0  0  0  0  0  0  0  0  0  0  0  0
  152.9887  141.6580  158.6024 H   0  0  0  0  0  0  0  0  0  0  0  0
  154.4861  140.9522  160.4746 H   0  0  0  0  0  0  0  0  0  0  0  0
  153.9721  141.7417  162.8022 H   0  0  0  0  0  0  0  0  0  0  0  0
  151.9725  143.2129  163.1527 H   0  0  0  0  0  0  0  0  0  0  0  0
  1  2  2  0  0  0  0
  2  3  1  0  0  0  0
  2 10  1  0  0  0  0
  3  4  1  0  0  0  0
  3 19  1  0  0  0  0
  4  8  1  0  0  0  0
  4  5  1  0  0  0  0
  4 20  1  0  0  0  0
  5  6  1  0  0  0  0
  5 21  1  0  0  0  0
  5 22  1  0  0  0  0
  6  7  1  0  0  0  0
  6 23  1  0  0  0  0
  6 24  1  0  0  0  0
  7  8  1  0  0  0  0
  7 25  1  0  0  0  0
  7 26  1  0  0  0  0
  8  9  1  0  0  0  0
  8 27  1  0  0  0  0
  9 28  1  0  0  0  0
 10 11  1  0  0  0  0
 10 12  1  0  0  0  0
 10 13  1  0  0  0  0
 13 18  1  0  0  0  0
 13 14  2  0  0  0  0
 14 15  1  0  0  0  0
 14 29  1  0  0  0  0
 15 16  2  0  0  0  0
 15 30  1  0  0  0  0
 16 17  1  0  0  0  0
 16 31  1  0  0  0  0
 17 18  2  0  0  0  0
 17 32  1  0  0  0  0
M  END
> <s_m_source_file>
AV-unprocessed.smi

> <i_m_source_file_index>
2807

> <i_lp_mmshare_version>
43012

> <i_f3d_flags>
0

> <s_epik_input>
bjFbY0hdW2NIXVtjSF1bY0hdYzFDKEYpKEYpQyg9TylbTkhdW0NAQEhdMltDSDJdW0NIMl1bQ0gyXVtDQEhdMltPSF0=

> <s_epik_cmdline>
J2VwaWtfcHl0aG9uJywgJy1waCcsICc3LjAnLCAnLXRuJywgJzgnLCAnLW1hJywgJzIwMCcsICctbWV0YWxfYmluZGluZycsICctaW1hZScsICc8aW5maWxlLm1hZT4nLCAnLW9tYWUnLCAnPG91dGZpbGUubWFlPic=

> <r_lp_tautomer_probability>
1

> <r_epik_Ionization_Penalty>
4.08325e-05

> <r_epik_Ionization_Penalty_Charging>
0

> <r_epik_Ionization_Penalty_Neutral>
4.08325e-05

> <r_epik_State_Penalty>
-0

> <r_epik_Charging_Adjusted_Penalty>
0

> <i_epik_Tot_Q>
0

> <i_epik_Tot_abs_Q>
0

> <r_epik_Metal_State_Penalty>
0.034564

> <b_epik_Metal_Only>
0

> <s_lp_Force_Field>
OPLS_2005

> <r_lp_Energy>
28.4248

> <b_lp_Chiralities_Consistent>
1

> <s_lp_Variant>
AV-unprocessed.smi:2807-2

> <Gold.Version>
5.8.1

> <Gold.Id.Protein>
6NUR|6NUR_protein|mol2

> <Gold.PLP.Fitness>
45.4665

> <Gold.PLP.PLP>
-40.4448

> <Gold.PLP.part.hbond>
-2.2513

> <Gold.PLP.part.metal>
0.0000

> <Gold.PLP.part.buried>
-3.2489

> <Gold.PLP.part.nonpolar>
-34.3657

> <Gold.PLP.part.repulsive>
0.1294

> <Gold.PLP.ligand.clash>
0.0000

> <Gold.PLP.ligand.torsion>
0.2214

> <Gold.PLP.Chemscore.Hbond>
1.8160

> <Gold.PLP.Chemscore.CHOScore>
0.0000

> <Gold.PLP.Chemscore.Metal>
0.0000

> <Gold.Chemscore.Hbonds>
donor molecule, donor type, donor heavy atom, donor atom, acceptor molecule, acceptor atom, score
      L1  H     3    19       P1  8028  1.00
      P1  H  6933  6945       L1    18  0.01
      P1  H  7989  7998       L1     9  0.51

> <Gold.PLP.Chemscore.Internal.Correction>
0.0167

> <Gold.Rescore>
     Score         DG    S(hbond)    S(metal)    S(lipo)     H(rot)  DE(clash)    DE(int)     intcor
     15.65     -17.23       1.87        0.00      91.82       2.05       0.08       1.51       ----

> <Gold.Chemscore.Fitness>
15.6479

> <Gold.Chemscore.DG>
-17.2314

> <Gold.Chemscore.ZeroCoef>
-5.4800

> <Gold.Chemscore.Hbond>
1.8698

> <Gold.Chemscore.Metal>
0.0000

> <Gold.Chemscore.Lipo>
91.8220

> <Gold.Chemscore.Internal_Hbond>
0.0000

> <Gold.Chemscore.DEClash>
0.0755

> <Gold.Chemscore.DEInternal>
1.5079

> <Gold.Chemscore.Rot>
2.0457

> <Gold.Chemscore.Internal.Correction>
   9.000000E+99

> <Gold.Chemscore.Hbonds>
donor molecule, donor type, donor heavy atom, donor atom, acceptor molecule, acceptor atom, score
      L1  H     3    19       P1  8028  0.80
      P1  H  7989  7998       L1     9  0.49

> <Gold.Chemscore.Hbond.Weighted>
-6.2453

> <Gold.Chemscore.Metal.Weighted>
-0.0000

> <Gold.Chemscore.Lipo.Weighted>
-10.7432

> <Gold.Chemscore.Internal_Hbond.Weighted>
0.0000

> <Gold.Chemscore.DEClash.Weighted>
0.0755

> <Gold.Chemscore.DEInternal.Weighted>
1.5079

> <Gold.Chemscore.Rot.Weighted>
5.2371

> <Gold.Chemscore.Internal.Correction.Weighted>
   9.000000E+99

> <Gold.Protein.RotatedTorsions>
[ 6907 6896 6895 6894 ] final   -1.69 input  -60.11 | X-H torsion
[ 7974 7965 7964 7962 ] final  143.12 input  175.53 | X-H torsion
[ 8008 7997 7996 7995 ] final  -51.29 input   59.86 | X-H torsion
[ 10167 10162 10161 10158 ] final -121.90 input  -65.29 | X-H torsion
[ 10718 10713 10712 10709 ] final  -10.60 input   66.30 | X-H torsion
[ 10763 10752 10751 10750 ] final -111.39 input  -60.55 | X-H torsion
[ 11005 11000 10999 10996 ] final -146.36 input  -57.11 | X-H torsion

> <Gold.Protein.ActiveResidues>
 VAL166  LYS551  ARG553  GLY616  TRP617  ASP618  TYR619  PRO620  LYS621  CYS622 
 ASP623  PHE694  ASN695  SER759  ASP760  ASP761  ALA762  ILE779  LEU786  VAL792 
 PHE793  MET794  SER795  GLU796  ALA797  LYS798  CYS799  TRP800  GLU811  SER814 

> <Gold.Protein.RotatedAtoms>
  151.5420  135.1068  159.9928 H   0  0  0  0  0  0  0  0  0  0  0  0  # atno 6907 bound_to 6896
  152.4531  133.7664  159.6785 H   0  0  0  0  0  0  0  0  0  0  0  0  # atno 6908 bound_to 6896
  150.8465  133.7786  159.3065 H   0  0  0  0  0  0  0  0  0  0  0  0  # atno 6909 bound_to 6896
  144.8948  139.5506  143.5781 H   0  0  0  0  0  0  0  0  0  0  0  0  # atno 7974 bound_to 7965
  154.4080  140.1251  156.4805 H   0  0  0  0  0  0  0  0  0  0  0  0  # atno 8008 bound_to 7997
  155.7089  140.3494  155.4946 H   0  0  0  0  0  0  0  0  0  0  0  0  # atno 8009 bound_to 7997
  155.9318  140.1071  157.1116 H   0  0  0  0  0  0  0  0  0  0  0  0  # atno 8010 bound_to 7997
  140.0200  143.5354  152.2225 H   0  0  0  0  0  0  0  0  0  0  0  0  # atno 10167 bound_to 10162
  156.6712  130.5010  149.6000 H   0  0  0  0  0  0  0  0  0  0  0  0  # atno 10718 bound_to 10713
  154.8298  135.4529  154.1032 H   0  0  0  0  0  0  0  0  0  0  0  0  # atno 10763 bound_to 10752
  153.2315  135.6906  153.7890 H   0  0  0  0  0  0  0  0  0  0  0  0  # atno 10764 bound_to 10752
  153.7271  135.3332  155.3255 H   0  0  0  0  0  0  0  0  0  0  0  0  # atno 10765 bound_to 10752
  140.7827  134.3060  157.5040 H   0  0  0  0  0  0  0  0  0  0  0  0  # atno 11005 bound_to 11000
  146.3075  139.7629  142.9045 LP  0  0  0  0  0  0  0  0  0  0  0  0  # atno 17320 bound_to 7965
  145.3719  141.0344  143.3226 LP  0  0  0  0  0  0  0  0  0  0  0  0  # atno 17321 bound_to 7965
  139.6146  144.7616  151.2875 LP  0  0  0  0  0  0  0  0  0  0  0  0  # atno 17342 bound_to 10162
  140.7346  143.6760  150.8041 LP  0  0  0  0  0  0  0  0  0  0  0  0  # atno 17343 bound_to 10162
  156.1937  130.6576  151.1090 LP  0  0  0  0  0  0  0  0  0  0  0  0  # atno 17370 bound_to 10713
  157.7076  131.0749  150.6612 LP  0  0  0  0  0  0  0  0  0  0  0  0  # atno 17371 bound_to 10713
  139.8740  134.9328  156.3564 LP  0  0  0  0  0  0  0  0  0  0  0  0  # atno 17394 bound_to 11000
  140.9466  133.7479  156.0217 LP  0  0  0  0  0  0  0  0  0  0  0  0  # atno 17395 bound_to 11000

$$$$
