AV-unprocessed.smi:1768|AV-procd|sdf|7149|dock4
  -GOLD-   22720 8383D 1   1.00000     0.00000
 Structure written by MMmdl.
 32 33  0  0  0  0  0  0  0  0  2 V2000
  155.6914  134.7945  160.3037 C   0  0  0  0  0  0  0  0  0  0  0  0
  154.8299  135.9138  159.8291 C   0  0  0  0  0  0  0  0  0  0  0  0
  153.5260  135.9887  160.1069 N   0  0  0  0  0  0  0  0  0  0  0  0
  152.9398  137.1212  159.5602 N   0  0  0  0  0  0  0  0  0  0  0  0
  153.8076  137.8902  158.8873 C   0  0  0  0  0  0  0  0  0  0  0  0
  153.4385  139.0315  158.2825 N   0  5  0  0  0  0  0  0  0  0  0  0
  152.2464  139.5984  158.5783 C   0  0  0  0  0  0  0  0  0  0  0  0
  151.2708  139.0299  159.0746 O   0  0  0  0  0  0  0  0  0  0  0  0
  152.1808  140.9037  158.2792 N   0  0  0  0  0  0  0  0  0  0  0  0
  151.0316  141.7817  158.4894 C   0  0  2  0  0  0  0  0  0  0  0  0
  150.3507  142.0742  157.1404 C   0  0  0  0  0  0  0  0  0  0  0  0
  151.5033  143.0676  159.1950 C   0  0  1  0  0  0  0  0  0  0  0  0
  152.4633  143.9337  158.3770 C   0  0  0  0  0  0  0  0  0  0  0  0
  152.2499  145.3348  158.9298 C   0  0  0  0  0  0  0  0  0  0  0  0
  150.9574  145.2233  159.7421 C   0  0  0  0  0  0  0  0  0  0  0  0
  150.4154  143.9566  159.3994 O   0  0  0  0  0  0  0  0  0  0  0  0
  155.4475  137.2419  158.8612 S   0  0  0  0  0  0  0  0  0  0  0  0
  155.9494  134.9425  161.3525 H   0  0  0  0  0  0  0  0  0  0  0  0
  156.6105  134.7501  159.7192 H   0  0  0  0  0  0  0  0  0  0  0  0
  155.1668  133.8443  160.2007 H   0  0  0  0  0  0  0  0  0  0  0  0
  153.0055  141.3259  157.8787 H   0  0  0  0  0  0  0  0  0  0  0  0
  150.3145  141.2800  159.1416 H   0  0  0  0  0  0  0  0  0  0  0  0
  149.4678  142.7004  157.2677 H   0  0  0  0  0  0  0  0  0  0  0  0
  150.0249  141.1539  156.6546 H   0  0  0  0  0  0  0  0  0  0  0  0
  151.0285  142.5877  156.4579 H   0  0  0  0  0  0  0  0  0  0  0  0
  151.9510  142.8308  160.1625 H   0  0  0  0  0  0  0  0  0  0  0  0
  153.4992  143.6024  158.4564 H   0  0  0  0  0  0  0  0  0  0  0  0
  152.1842  143.9133  157.3225 H   0  0  0  0  0  0  0  0  0  0  0  0
  153.0787  145.6468  159.5660 H   0  0  0  0  0  0  0  0  0  0  0  0
  152.1553  146.0603  158.1212 H   0  0  0  0  0  0  0  0  0  0  0  0
  151.1735  145.2432  160.8112 H   0  0  0  0  0  0  0  0  0  0  0  0
  150.2522  146.0249  159.5218 H   0  0  0  0  0  0  0  0  0  0  0  0
  1  2  1  0  0  0  0
  1 18  1  0  0  0  0
  1 19  1  0  0  0  0
  1 20  1  0  0  0  0
  2 17  1  0  0  0  0
  2  3  2  0  0  0  0
  3  4  1  0  0  0  0
  4  5  2  0  0  0  0
  5  6  1  0  0  0  0
  5 17  1  0  0  0  0
  6  7  1  0  0  0  0
  7  8  2  0  0  0  0
  7  9  1  0  0  0  0
  9 10  1  0  0  0  0
  9 21  1  0  0  0  0
 10 11  1  0  0  0  0
 10 12  1  0  0  0  0
 10 22  1  0  0  0  0
 11 23  1  0  0  0  0
 11 24  1  0  0  0  0
 11 25  1  0  0  0  0
 12 16  1  0  0  0  0
 12 13  1  0  0  0  0
 12 26  1  0  0  0  0
 13 14  1  0  0  0  0
 13 27  1  0  0  0  0
 13 28  1  0  0  0  0
 14 15  1  0  0  0  0
 14 29  1  0  0  0  0
 14 30  1  0  0  0  0
 15 16  1  0  0  0  0
 15 31  1  0  0  0  0
 15 32  1  0  0  0  0
M  CHG  1   6  -1
M  END
> <s_m_source_file>
AV-unprocessed.smi

> <i_m_source_file_index>
1768

> <i_lp_mmshare_version>
43012

> <i_f3d_flags>
0

> <s_epik_input>
W0NIM11jMW5uYyhzMSlbTkhdQyg9TylbTkhdW0NASF0oW0NIM10pW0NAQEhdMltDSDJdW0NIMl1bQ0gyXU8y

> <s_epik_cmdline>
J2VwaWtfcHl0aG9uJywgJy1waCcsICc3LjAnLCAnLXRuJywgJzgnLCAnLW1hJywgJzIwMCcsICctbWV0YWxfYmluZGluZycsICctaW1hZScsICc8aW5maWxlLm1hZT4nLCAnLW9tYWUnLCAnPG91dGZpbGUubWFlPic=

> <r_lp_tautomer_probability>
1

> <r_epik_Ionization_Penalty>
4.3376

> <r_epik_Ionization_Penalty_Charging>
4.19392

> <r_epik_Ionization_Penalty_Neutral>
0.143681

> <r_epik_State_Penalty>
4.19342

> <r_epik_Charging_Adjusted_Penalty>
8.38735

> <i_epik_Tot_Q>
-1

> <i_epik_Tot_abs_Q>
1

> <r_epik_Metal_State_Penalty>
0.686065

> <b_epik_Metal_Only>
1

> <s_lp_Force_Field>
OPLS_2005

> <r_lp_Energy>
16.4236

> <b_lp_Chiralities_Consistent>
1

> <s_lp_Variant>
AV-unprocessed.smi:1768-7

> <Gold.Version>
5.8.1

> <Gold.Id.Protein>
6NUR|6NUR_protein|mol2

> <Gold.PLP.Fitness>
35.5696

> <Gold.PLP.PLP>
-27.1299

> <Gold.PLP.part.hbond>
-2.0000

> <Gold.PLP.part.metal>
0.0000

> <Gold.PLP.part.buried>
-5.3350

> <Gold.PLP.part.nonpolar>
-19.8639

> <Gold.PLP.part.repulsive>
0.2115

> <Gold.PLP.ligand.clash>
0.0000

> <Gold.PLP.ligand.torsion>
0.2985

> <Gold.PLP.Chemscore.Hbond>
3.0000

> <Gold.PLP.Chemscore.CHOScore>
0.0000

> <Gold.PLP.Chemscore.Metal>
0.0000

> <Gold.Chemscore.Hbonds>
donor molecule, donor type, donor heavy atom, donor atom, acceptor molecule, acceptor atom, score
      P1  H  6896  6907       L1     3  1.00
      P1  H  7997  8010       L1     6  2.00

> <Gold.PLP.Chemscore.Internal.Correction>
0.0367

> <Gold.Rescore>
     Score         DG    S(hbond)    S(metal)    S(lipo)     H(rot)  DE(clash)    DE(int)     intcor
     14.76     -16.80       1.91        0.00      70.28       1.28       0.01       2.03       ----

> <Gold.Chemscore.Fitness>
14.7571

> <Gold.Chemscore.DG>
-16.7976

> <Gold.Chemscore.ZeroCoef>
-5.4800

> <Gold.Chemscore.Hbond>
1.9057

> <Gold.Chemscore.Metal>
0.0000

> <Gold.Chemscore.Lipo>
70.2831

> <Gold.Chemscore.Internal_Hbond>
0.0000

> <Gold.Chemscore.DEClash>
0.0073

> <Gold.Chemscore.DEInternal>
2.0331

> <Gold.Chemscore.Rot>
1.2776

> <Gold.Chemscore.Internal.Correction>
   9.000000E+99

> <Gold.Chemscore.Hbonds>
donor molecule, donor type, donor heavy atom, donor atom, acceptor molecule, acceptor atom, score
      P1  H  6896  6907       L1     3  0.65
      P1  H  7997  8010       L1     6  0.82

> <Gold.Chemscore.Hbond.Weighted>
-6.3651

> <Gold.Chemscore.Metal.Weighted>
-0.0000

> <Gold.Chemscore.Lipo.Weighted>
-8.2231

> <Gold.Chemscore.Internal_Hbond.Weighted>
0.0000

> <Gold.Chemscore.DEClash.Weighted>
0.0073

> <Gold.Chemscore.DEInternal.Weighted>
2.0331

> <Gold.Chemscore.Rot.Weighted>
3.2706

> <Gold.Chemscore.Internal.Correction.Weighted>
   9.000000E+99

> <Gold.Protein.RotatedTorsions>
[ 6907 6896 6895 6894 ] final   56.75 input  -60.11 | X-H torsion
[ 7974 7965 7964 7962 ] final  153.56 input  175.53 | X-H torsion
[ 8008 7997 7996 7995 ] final   45.91 input   59.86 | X-H torsion
[ 10167 10162 10161 10158 ] final  149.87 input  -65.29 | X-H torsion
[ 10718 10713 10712 10709 ] final  151.69 input   66.30 | X-H torsion
[ 10763 10752 10751 10750 ] final   52.55 input  -60.55 | X-H torsion
[ 11005 11000 10999 10996 ] final  -79.15 input  -57.11 | X-H torsion

> <Gold.Protein.ActiveResidues>
 VAL166  LYS551  ARG553  GLY616  TRP617  ASP618  TYR619  PRO620  LYS621  CYS622 
 ASP623  PHE694  ASN695  SER759  ASP760  ASP761  ALA762  ILE779  LEU786  VAL792 
 PHE793  MET794  SER795  GLU796  ALA797  LYS798  CYS799  TRP800  GLU811  SER814 

> <Gold.Protein.RotatedAtoms>
  152.3666  134.6795  160.0189 H   0  0  0  0  0  0  0  0  0  0  0  0  # atno 6907 bound_to 6896
  151.7101  133.3307  159.3296 H   0  0  0  0  0  0  0  0  0  0  0  0  # atno 6908 bound_to 6896
  150.7643  134.6474  159.6314 H   0  0  0  0  0  0  0  0  0  0  0  0  # atno 6909 bound_to 6896
  144.8147  139.6816  143.6126 H   0  0  0  0  0  0  0  0  0  0  0  0  # atno 7974 bound_to 7965
  155.3437  140.3409  155.4239 H   0  0  0  0  0  0  0  0  0  0  0  0  # atno 8008 bound_to 7997
  156.1800  140.1661  156.8328 H   0  0  0  0  0  0  0  0  0  0  0  0  # atno 8009 bound_to 7997
  154.5323  140.0742  156.8350 H   0  0  0  0  0  0  0  0  0  0  0  0  # atno 8010 bound_to 7997
  139.4856  144.5567  151.7304 H   0  0  0  0  0  0  0  0  0  0  0  0  # atno 10167 bound_to 10162
  157.2674  131.0810  151.1623 H   0  0  0  0  0  0  0  0  0  0  0  0  # atno 10718 bound_to 10713
  152.9789  135.5808  154.4597 H   0  0  0  0  0  0  0  0  0  0  0  0  # atno 10763 bound_to 10752
  154.4175  135.2771  155.1999 H   0  0  0  0  0  0  0  0  0  0  0  0  # atno 10764 bound_to 10752
  154.3762  135.6157  153.5820 H   0  0  0  0  0  0  0  0  0  0  0  0  # atno 10765 bound_to 10752
  141.1667  133.7093  156.8079 H   0  0  0  0  0  0  0  0  0  0  0  0  # atno 11005 bound_to 11000
  146.2449  139.6077  142.9466 LP  0  0  0  0  0  0  0  0  0  0  0  0  # atno 17320 bound_to 7965
  145.5243  141.0430  143.2418 LP  0  0  0  0  0  0  0  0  0  0  0  0  # atno 17321 bound_to 7965
  140.5130  144.0996  150.6000 LP  0  0  0  0  0  0  0  0  0  0  0  0  # atno 17342 bound_to 10162
  140.3928  143.2743  152.0040 LP  0  0  0  0  0  0  0  0  0  0  0  0  # atno 17343 bound_to 10162
  157.3109  130.6889  149.6215 LP  0  0  0  0  0  0  0  0  0  0  0  0  # atno 17370 bound_to 10713
  155.9663  130.4364  150.5132 LP  0  0  0  0  0  0  0  0  0  0  0  0  # atno 17371 bound_to 10713
  140.2209  134.8758  157.3376 LP  0  0  0  0  0  0  0  0  0  0  0  0  # atno 17394 bound_to 11000
  140.1989  134.4279  155.7674 LP  0  0  0  0  0  0  0  0  0  0  0  0  # atno 17395 bound_to 11000

$$$$
