#       Name:                AV-unprocessed.smi:3201
#       Creating user name   scv26
#       Creation time:       Fri Mar 27 18:07:28 2020


#       File generated by GOLD software.
#

@<TRIPOS>MOLECULE
AV-unprocessed.smi:3201
    42    44     1
SMALL
NO_CHARGES


@<TRIPOS>ATOM
      1 ****        -2.8017   1.7149   1.6272 C.3            1 S1                 0.0000
      2 ****        -3.0440   0.2580   1.8574 C.2            1 S1                 0.0000
      3 ****        -2.1678  -0.7888   1.9638 C.2            1 S1                 0.0000
      4 ****        -0.6662  -0.7802   1.8780 C.3            1 S1                 0.0000
      5 ****        -0.1866  -0.7496   0.4210 C.3            1 S1                 0.0000
      6 ****         1.2886  -0.7404   0.3491 N.4            1 S1                 1.0000
      7 ****         1.8431  -0.7073  -1.0225 C.3            1 S1                 0.0000
      8 ****         3.3584  -1.0093  -1.0246 C.3            1 S1                 0.0000
      9 ****         3.9580   0.2276  -1.7181 C.3            1 S1                 0.0000
     10 ****         3.5690   0.2243  -3.2079 C.3            1 S1                 0.0000
     11 ****         2.0700   0.5767  -3.1674 C.3            1 S1                 0.0000
     12 ****         1.7900   0.7028  -1.6578 C.3            1 S1                 0.0000
     13 ****         3.0833   1.3448  -1.1642 C.3            1 S1                 0.0000
     14 ****        -3.0124  -1.9148   2.1764 C.2            1 S1                 0.0000
     15 ****        -4.2944  -1.5978   2.1985 N.2            1 S1                 0.0000
     16 ****        -4.3160  -0.2630   2.0053 N.pl3          1 S1                 0.0000
     17 ****        -5.5889   0.4309   1.9730 C.3            1 S1                 0.0000
     18 ****        -1.7490   1.9146   1.4291 H              1 S1                 0.0000
     19 ****        -3.0944   2.2979   2.5006 H              1 S1                 0.0000
     20 ****        -3.3754   2.0741   0.7726 H              1 S1                 0.0000
     21 ****        -0.2589   0.0793   2.4119 H              1 S1                 0.0000
     22 ****        -0.2521  -1.6586   2.3747 H              1 S1                 0.0000
     23 ****        -0.5660  -1.6216  -0.1136 H              1 S1                 0.0000
     24 ****        -0.5849   0.1326  -0.0802 H              1 S1                 0.0000
     25 ****         1.6424   0.0550   0.8611 H              1 S1                 0.0000
     26 ****         1.3116  -1.4379  -1.6347 H              1 S1                 0.0000
     27 ****         3.7522  -1.1018  -0.0111 H              1 S1                 0.0000
     28 ****         3.5950  -1.9330  -1.5542 H              1 S1                 0.0000
     29 ****         5.0276   0.3505  -1.5451 H              1 S1                 0.0000
     30 ****         4.1260   0.9838  -3.7581 H              1 S1                 0.0000
     31 ****         3.7582  -0.7391  -3.6828 H              1 S1                 0.0000
     32 ****         1.8873   1.5246  -3.6753 H              1 S1                 0.0000
     33 ****         1.4491  -0.1817  -3.6458 H              1 S1                 0.0000
     34 ****         0.8847   1.2693  -1.4397 H              1 S1                 0.0000
     35 ****         3.1365   1.4397  -0.0783 H              1 S1                 0.0000
     36 ****         3.2850   2.3170  -1.6179 H              1 S1                 0.0000
     37 ****        -2.7319  -2.9488   2.3129 H              1 S1                 0.0000
     38 ****        -5.5737   1.2606   2.6801 H              1 S1                 0.0000
     39 ****        -6.4032  -0.2439   2.2413 H              1 S1                 0.0000
     40 ****        -5.7681   0.8199   0.9705 H              1 S1                 0.0000
     41 ****         1.6191  -1.5833   0.7968 H              1 S1                 0.0000
     42 ****        -5.0742  -2.2100   2.3291 LP             1 S1                 0.0000
@<TRIPOS>BOND
    1    1    2 1     
    2    1   18 1     
    3    1   19 1     
    4    1   20 1     
    5    2   16 1     
    6    2    3 2     
    7    3    4 1     
    8    3   14 1     
    9    4    5 1     
   10    4   21 1     
   11    4   22 1     
   12    5    6 1     
   13    5   23 1     
   14    5   24 1     
   15    6    7 1     
   16    6   25 1     
   17    6   41 1     
   18    7   12 1     
   19    7    8 1     
   20    7   26 1     
   21    8    9 1     
   22    8   27 1     
   23    8   28 1     
   24    9   13 1     
   25    9   10 1     
   26    9   29 1     
   27   10   11 1     
   28   10   30 1     
   29   10   31 1     
   30   11   12 1     
   31   11   32 1     
   32   11   33 1     
   33   12   13 1     
   34   12   34 1     
   35   13   35 1     
   36   13   36 1     
   37   14   15 2     
   38   14   37 1     
   39   15   16 1     
   40   16   17 1     
   41   17   38 1     
   42   17   39 1     
   43   17   40 1     
   44   15   42 1     
@<TRIPOS>SUBSTRUCTURE
      1 S1             1
@<TRIPOS>SET
LONE_PAIRS      STATIC     ATOMS    <user>   **** ""
1 42
DONOR_HYDROGENS      STATIC     ATOMS    <user>   **** ""
2 25 41
ATOM$BLUE        STATIC     ATOMS    COLORGROUP SYSTEM
1 42
ATOM$RED        STATIC     ATOMS    COLORGROUP SYSTEM
2 25 41
