AV-unprocessed.smi:528|AV-procd|sdf|2836|dock8
  -GOLD-   2262023323D 1   1.00000     0.00000
 Structure written by MMmdl.
 45 47  0  0  0  0  0  0  0  0  1 V2000
  153.3936  140.1725  159.5277 C   0  0  0  0  0  0  0  0  0  0  0  0
  152.7339  141.1886  158.5804 C   0  0  1  0  0  0  0  0  0  0  0  0
  151.8097  140.4659  157.7076 N   0  0  0  0  0  0  0  0  0  0  0  0
  151.0009  139.4590  158.0726 C   0  0  0  0  0  0  0  0  0  0  0  0
  150.9008  139.0504  159.2301 O   0  0  0  0  0  0  0  0  0  0  0  0
  150.1734  138.8204  156.9497 C   0  0  0  0  0  0  0  0  0  0  0  0
  149.4223  139.8139  156.1643 N   0  0  0  0  0  0  0  0  0  0  0  0
  148.4093  140.5315  156.8308 C   0  0  0  0  0  0  0  0  0  0  0  0
  147.6420  141.4548  156.2198 C   0  0  0  0  0  0  0  0  0  0  0  0
  146.5921  142.2528  156.9774 C   0  0  0  0  0  0  0  0  0  0  0  0
  145.7115  141.4454  157.5690 F   0  0  0  0  0  0  0  0  0  0  0  0
  147.1771  142.9902  157.9203 F   0  0  0  0  0  0  0  0  0  0  0  0
  145.9270  143.0722  156.1621 F   0  0  0  0  0  0  0  0  0  0  0  0
  147.9295  141.7101  154.8219 C   0  0  0  0  0  0  0  0  0  0  0  0
  148.8990  141.0377  154.1713 C   0  0  0  0  0  0  0  0  0  0  0  0
  149.7101  140.0202  154.8436 C   0  0  0  0  0  0  0  0  0  0  0  0
  150.5935  139.3934  154.2573 O   0  0  0  0  0  0  0  0  0  0  0  0
  151.9690  142.3076  159.3323 C   0  0  2  0  0  0  0  0  0  0  0  0
  150.9430  143.0685  158.4528 C   0  0  0  0  0  0  0  0  0  0  0  0
  151.3317  144.5439  158.6471 C   0  0  1  0  0  0  0  0  0  0  0  0
  150.9965  144.9825  160.0841 C   0  0  0  0  0  0  0  0  0  0  0  0
  152.0719  144.2598  160.9164 C   0  0  0  0  0  0  0  0  0  0  0  0
  152.8548  143.4696  159.8497 C   0  0  2  0  0  0  0  0  0  0  0  0
  152.8509  144.4538  158.6841 C   0  0  0  0  0  0  0  0  0  0  0  0
  154.1612  140.6339  160.1477 H   0  0  0  0  0  0  0  0  0  0  0  0
  153.8778  139.3734  158.9651 H   0  0  0  0  0  0  0  0  0  0  0  0
  152.6606  139.7128  160.1914 H   0  0  0  0  0  0  0  0  0  0  0  0
  153.5255  141.6485  157.9868 H   0  0  0  0  0  0  0  0  0  0  0  0
  151.8132  140.7315  156.7336 H   0  0  0  0  0  0  0  0  0  0  0  0
  150.8509  138.2496  156.3136 H   0  0  0  0  0  0  0  0  0  0  0  0
  149.4844  138.0837  157.3676 H   0  0  0  0  0  0  0  0  0  0  0  0
  148.2920  140.2805  157.8750 H   0  0  0  0  0  0  0  0  0  0  0  0
  147.3534  142.4491  154.2847 H   0  0  0  0  0  0  0  0  0  0  0  0
  149.0830  141.2511  153.1284 H   0  0  0  0  0  0  0  0  0  0  0  0
  151.4489  141.8467  160.1739 H   0  0  0  0  0  0  0  0  0  0  0  0
  151.0400  142.8054  157.3987 H   0  0  0  0  0  0  0  0  0  0  0  0
  149.9128  142.8659  158.7475 H   0  0  0  0  0  0  0  0  0  0  0  0
  150.9271  145.2062  157.8813 H   0  0  0  0  0  0  0  0  0  0  0  0
  151.0883  146.0638  160.1934 H   0  0  0  0  0  0  0  0  0  0  0  0
  149.9842  144.6998  160.3755 H   0  0  0  0  0  0  0  0  0  0  0  0
  152.7197  144.9831  161.4134 H   0  0  0  0  0  0  0  0  0  0  0  0
  151.6430  143.6159  161.6852 H   0  0  0  0  0  0  0  0  0  0  0  0
  153.8460  143.1735  160.1903 H   0  0  0  0  0  0  0  0  0  0  0  0
  153.2841  144.0489  157.7680 H   0  0  0  0  0  0  0  0  0  0  0  0
  153.3346  145.4039  158.9178 H   0  0  0  0  0  0  0  0  0  0  0  0
  1  2  1  0  0  0  0
  1 25  1  0  0  0  0
  1 26  1  0  0  0  0
  1 27  1  0  0  0  0
  2  3  1  0  0  0  0
  2 18  1  0  0  0  0
  2 28  1  0  0  0  0
  3  4  1  0  0  0  0
  3 29  1  0  0  0  0
  4  5  2  0  0  0  0
  4  6  1  0  0  0  0
  6  7  1  0  0  0  0
  6 30  1  0  0  0  0
  6 31  1  0  0  0  0
  7 16  1  0  0  0  0
  7  8  1  0  0  0  0
  8  9  2  0  0  0  0
  8 32  1  0  0  0  0
  9 10  1  0  0  0  0
  9 14  1  0  0  0  0
 10 11  1  0  0  0  0
 10 12  1  0  0  0  0
 10 13  1  0  0  0  0
 14 15  2  0  0  0  0
 14 33  1  0  0  0  0
 15 16  1  0  0  0  0
 15 34  1  0  0  0  0
 16 17  2  0  0  0  0
 18 23  1  0  0  0  0
 18 19  1  0  0  0  0
 18 35  1  0  0  0  0
 19 20  1  0  0  0  0
 19 36  1  0  0  0  0
 19 37  1  0  0  0  0
 20 24  1  0  0  0  0
 20 21  1  0  0  0  0
 20 38  1  0  0  0  0
 21 22  1  0  0  0  0
 21 39  1  0  0  0  0
 21 40  1  0  0  0  0
 22 23  1  0  0  0  0
 22 41  1  0  0  0  0
 22 42  1  0  0  0  0
 23 24  1  0  0  0  0
 23 43  1  0  0  0  0
 24 44  1  0  0  0  0
 24 45  1  0  0  0  0
M  END
> <s_m_source_file>
AV-unprocessed.smi

> <i_m_source_file_index>
528

> <i_lp_mmshare_version>
43012

> <i_f3d_flags>
0

> <s_epik_input>
W0NIMl0xW0NIMl1bQ0BASF0oW0NIMl0yKVtDQEBIXShbQ0gyXVtDQEhdMTIpW0NASF0oW0NIM10pW05IXUMoPU8pW0NIMl1uM1tjSF1jKEMoRikoRilGKVtjSF1bY0hdYzM9Tw==

> <s_epik_cmdline>
J2VwaWtfcHl0aG9uJywgJy1waCcsICc3LjAnLCAnLXRuJywgJzgnLCAnLW1hJywgJzIwMCcsICctbWV0YWxfYmluZGluZycsICctaW1hZScsICc8aW5maWxlLm1hZT4nLCAnLW9tYWUnLCAnPG91dGZpbGUubWFlPic=

> <r_lp_tautomer_probability>
1

> <r_epik_Ionization_Penalty>
4.09479e-08

> <r_epik_Ionization_Penalty_Charging>
1.9321e-08

> <r_epik_Ionization_Penalty_Neutral>
2.16269e-08

> <r_epik_State_Penalty>
-0

> <r_epik_Charging_Adjusted_Penalty>
1.9321e-08

> <i_epik_Tot_Q>
0

> <i_epik_Tot_abs_Q>
0

> <r_epik_Metal_State_Penalty>
-0

> <b_epik_Metal_Only>
0

> <s_lp_Force_Field>
OPLS_2005

> <r_lp_Energy>
62.8614

> <b_lp_Chiralities_Consistent>
1

> <s_lp_Variant>
AV-unprocessed.smi:528-6

> <Gold.Version>
5.8.1

> <Gold.Id.Protein>
6NUR|6NUR_protein|mol2

> <Gold.PLP.Fitness>
44.8467

> <Gold.PLP.PLP>
-43.4858

> <Gold.PLP.part.hbond>
-1.6017

> <Gold.PLP.part.metal>
0.0000

> <Gold.PLP.part.buried>
-5.9049

> <Gold.PLP.part.nonpolar>
-35.9771

> <Gold.PLP.part.repulsive>
0.2328

> <Gold.PLP.ligand.clash>
0.0023

> <Gold.PLP.ligand.torsion>
0.8519

> <Gold.PLP.Chemscore.Hbond>
1.0000

> <Gold.PLP.Chemscore.CHOScore>
0.0000

> <Gold.PLP.Chemscore.Metal>
0.0000

> <Gold.Chemscore.Hbonds>
donor molecule, donor type, donor heavy atom, donor atom, acceptor molecule, acceptor atom, score
      P1  H  7989  7998       L1    17  1.00

> <Gold.PLP.Chemscore.Internal.Correction>
0.0669

> <Gold.Rescore>
     Score         DG    S(hbond)    S(metal)    S(lipo)     H(rot)  DE(clash)    DE(int)     intcor
     15.87     -18.28       0.94        0.00     119.97       1.71       0.18       2.24       ----

> <Gold.Chemscore.Fitness>
15.8651

> <Gold.Chemscore.DG>
-18.2822

> <Gold.Chemscore.ZeroCoef>
-5.4800

> <Gold.Chemscore.Hbond>
0.9432

> <Gold.Chemscore.Metal>
0.0000

> <Gold.Chemscore.Lipo>
119.9652

> <Gold.Chemscore.Internal_Hbond>
0.0000

> <Gold.Chemscore.DEClash>
0.1771

> <Gold.Chemscore.DEInternal>
2.2400

> <Gold.Chemscore.Rot>
1.7125

> <Gold.Chemscore.Internal.Correction>
   9.000000E+99

> <Gold.Chemscore.Hbonds>
donor molecule, donor type, donor heavy atom, donor atom, acceptor molecule, acceptor atom, score
      P1  H  7989  7998       L1    17  0.30

> <Gold.Chemscore.Hbond.Weighted>
-3.1503

> <Gold.Chemscore.Metal.Weighted>
-0.0000

> <Gold.Chemscore.Lipo.Weighted>
-14.0359

> <Gold.Chemscore.Internal_Hbond.Weighted>
0.0000

> <Gold.Chemscore.DEClash.Weighted>
0.1771

> <Gold.Chemscore.DEInternal.Weighted>
2.2400

> <Gold.Chemscore.Rot.Weighted>
4.3840

> <Gold.Chemscore.Internal.Correction.Weighted>
   9.000000E+99

> <Gold.Protein.RotatedTorsions>
[ 6907 6896 6895 6894 ] final  111.93 input  -60.11 | X-H torsion
[ 7974 7965 7964 7962 ] final   94.52 input  175.53 | X-H torsion
[ 8008 7997 7996 7995 ] final  -33.19 input   59.86 | X-H torsion
[ 10167 10162 10161 10158 ] final -108.30 input  -65.29 | X-H torsion
[ 10718 10713 10712 10709 ] final   14.25 input   66.30 | X-H torsion
[ 10763 10752 10751 10750 ] final  157.78 input  -60.55 | X-H torsion
[ 11005 11000 10999 10996 ] final -168.61 input  -57.11 | X-H torsion

> <Gold.Protein.ActiveResidues>
 VAL166  LYS551  ARG553  GLY616  TRP617  ASP618  TYR619  PRO620  LYS621  CYS622 
 ASP623  PHE694  ASN695  SER759  ASP760  ASP761  ALA762  ILE779  LEU786  VAL792 
 PHE793  MET794  SER795  GLU796  ALA797  LYS798  CYS799  TRP800  GLU811  SER814 

> <Gold.Protein.RotatedAtoms>
  152.4943  133.8587  159.7238 H   0  0  0  0  0  0  0  0  0  0  0  0  # atno 6907 bound_to 6896
  150.9105  133.6995  159.2863 H   0  0  0  0  0  0  0  0  0  0  0  0  # atno 6908 bound_to 6896
  151.4406  135.1024  159.9721 H   0  0  0  0  0  0  0  0  0  0  0  0  # atno 6909 bound_to 6896
  145.4645  139.2285  143.2969 H   0  0  0  0  0  0  0  0  0  0  0  0  # atno 7974 bound_to 7965
  154.4156  140.1717  156.1848 H   0  0  0  0  0  0  0  0  0  0  0  0  # atno 8008 bound_to 7997
  155.9652  140.3390  155.6502 H   0  0  0  0  0  0  0  0  0  0  0  0  # atno 8009 bound_to 7997
  155.6696  140.0710  157.2515 H   0  0  0  0  0  0  0  0  0  0  0  0  # atno 8010 bound_to 7997
  140.1677  143.4068  152.1378 H   0  0  0  0  0  0  0  0  0  0  0  0  # atno 10167 bound_to 10162
  157.0364  130.6213  149.5743 H   0  0  0  0  0  0  0  0  0  0  0  0  # atno 10718 bound_to 10713
  154.2056  135.2788  155.2976 H   0  0  0  0  0  0  0  0  0  0  0  0  # atno 10763 bound_to 10752
  154.5819  135.5586  153.7197 H   0  0  0  0  0  0  0  0  0  0  0  0  # atno 10764 bound_to 10752
  153.0077  135.6347  154.2195 H   0  0  0  0  0  0  0  0  0  0  0  0  # atno 10765 bound_to 10752
  140.5401  134.5531  157.5097 H   0  0  0  0  0  0  0  0  0  0  0  0  # atno 11005 bound_to 11000
  146.2432  140.5417  142.8925 LP  0  0  0  0  0  0  0  0  0  0  0  0  # atno 17320 bound_to 7965
  144.7982  140.6164  143.6496 LP  0  0  0  0  0  0  0  0  0  0  0  0  # atno 17321 bound_to 7965
  139.5352  144.7202  151.4918 LP  0  0  0  0  0  0  0  0  0  0  0  0  # atno 17342 bound_to 10162
  140.6602  143.8514  150.6880 LP  0  0  0  0  0  0  0  0  0  0  0  0  # atno 17343 bound_to 10162
  156.0052  130.5138  150.7806 LP  0  0  0  0  0  0  0  0  0  0  0  0  # atno 17370 bound_to 10713
  157.5138  131.0927  151.0165 LP  0  0  0  0  0  0  0  0  0  0  0  0  # atno 17371 bound_to 10713
  139.9508  134.7620  156.0452 LP  0  0  0  0  0  0  0  0  0  0  0  0  # atno 17394 bound_to 11000
  141.1232  133.6607  156.3268 LP  0  0  0  0  0  0  0  0  0  0  0  0  # atno 17395 bound_to 11000

$$$$
