AV-unprocessed.smi:1030|AV-procd|sdf|4478|dock2
  -GOLD-   22720 2453D 1   1.00000     0.00000
 Structure written by MMmdl.
 29 30  0  0  0  0  0  0  0  0  1 V2000
  150.0672  142.6650  156.3940 N   0  0  0  0  0  0  0  0  0  0  0  0
  149.7282  141.5427  157.6545 S   0  0  0  0  0  0  0  0  0  0  0  0
  148.9435  142.2611  158.6706 O   0  0  0  0  0  0  0  0  0  0  0  0
  149.1999  140.3174  157.0350 O   0  0  0  0  0  0  0  0  0  0  0  0
  151.3609  141.2052  158.3300 C   0  0  0  0  0  0  0  0  0  0  0  0
  151.8921  142.0716  159.3082 C   0  0  0  0  0  0  0  0  0  0  0  0
  153.1709  141.8011  159.8301 C   0  0  0  0  0  0  0  0  0  0  0  0
  153.8653  140.6743  159.3501 C   0  0  0  0  0  0  0  0  0  0  0  0
  153.3663  139.8400  158.4135 N   0  0  0  0  0  0  0  0  0  0  0  0
  152.1347  140.0944  157.9068 C   0  0  0  0  0  0  0  0  0  0  0  0
  151.6427  139.2066  156.9382 N   0  0  0  0  0  0  0  0  0  0  0  0
  151.6913  137.8073  157.3402 C   0  0  0  0  0  0  0  0  0  0  0  0
  150.9704  136.9404  156.2938 C   0  0  0  0  0  0  0  0  0  0  0  0
  151.5482  137.1613  155.0095 O   0  0  0  0  0  0  0  0  0  0  0  0
  151.4349  138.5207  154.5960 C   0  0  0  0  0  0  0  0  0  0  0  0
  152.1694  139.4274  155.5981 C   0  0  0  0  0  0  0  0  0  0  0  0
  149.5481  143.5331  156.5225 H   0  0  0  0  0  0  0  0  0  0  0  0
  149.8815  142.2570  155.4781 H   0  0  0  0  0  0  0  0  0  0  0  0
  151.3381  142.9292  159.6592 H   0  0  0  0  0  0  0  0  0  0  0  0
  153.6089  142.4417  160.5810 H   0  0  0  0  0  0  0  0  0  0  0  0
  154.8484  140.4363  159.7285 H   0  0  0  0  0  0  0  0  0  0  0  0
  152.7297  137.4870  157.4365 H   0  0  0  0  0  0  0  0  0  0  0  0
  151.2222  137.6847  158.3172 H   0  0  0  0  0  0  0  0  0  0  0  0
  151.0640  135.8851  156.5497 H   0  0  0  0  0  0  0  0  0  0  0  0
  149.9039  137.1700  156.2684 H   0  0  0  0  0  0  0  0  0  0  0  0
  151.8692  138.6283  153.6022 H   0  0  0  0  0  0  0  0  0  0  0  0
  150.3830  138.8010  154.5176 H   0  0  0  0  0  0  0  0  0  0  0  0
  152.0448  140.4744  155.3192 H   0  0  0  0  0  0  0  0  0  0  0  0
  153.2385  139.2115  155.5802 H   0  0  0  0  0  0  0  0  0  0  0  0
  1  2  1  0  0  0  0
  1 17  1  0  0  0  0
  1 18  1  0  0  0  0
  2  3  2  0  0  0  0
  2  4  2  0  0  0  0
  2  5  1  0  0  0  0
  5 10  1  0  0  0  0
  5  6  2  0  0  0  0
  6  7  1  0  0  0  0
  6 19  1  0  0  0  0
  7  8  2  0  0  0  0
  7 20  1  0  0  0  0
  8  9  1  0  0  0  0
  8 21  1  0  0  0  0
  9 10  2  0  0  0  0
 10 11  1  0  0  0  0
 11 16  1  0  0  0  0
 11 12  1  0  0  0  0
 12 13  1  0  0  0  0
 12 22  1  0  0  0  0
 12 23  1  0  0  0  0
 13 14  1  0  0  0  0
 13 24  1  0  0  0  0
 13 25  1  0  0  0  0
 14 15  1  0  0  0  0
 15 16  1  0  0  0  0
 15 26  1  0  0  0  0
 15 27  1  0  0  0  0
 16 28  1  0  0  0  0
 16 29  1  0  0  0  0
M  END
> <s_m_source_file>
AV-unprocessed.smi

> <i_m_source_file_index>
1030

> <i_lp_mmshare_version>
43012

> <i_f3d_flags>
0

> <s_epik_input>
W05IMl1TKD1PKSg9TyljMVtjSF1bY0hdW2NIXW5jMU4yW0NIMl1bQ0gyXU9bQ0gyXVtDSDJdMg==

> <s_epik_cmdline>
J2VwaWtfcHl0aG9uJywgJy1waCcsICc3LjAnLCAnLXRuJywgJzgnLCAnLW1hJywgJzIwMCcsICctbWV0YWxfYmluZGluZycsICctaW1hZScsICc8aW5maWxlLm1hZT4nLCAnLW9tYWUnLCAnPG91dGZpbGUubWFlPic=

> <r_lp_tautomer_probability>
1

> <r_epik_Ionization_Penalty>
0.00223263

> <r_epik_Ionization_Penalty_Charging>
0

> <r_epik_Ionization_Penalty_Neutral>
0.00223263

> <r_epik_State_Penalty>
-0

> <r_epik_Charging_Adjusted_Penalty>
0

> <i_epik_Tot_Q>
0

> <i_epik_Tot_abs_Q>
0

> <r_epik_Metal_State_Penalty>
0.346078

> <b_epik_Metal_Only>
0

> <s_lp_Force_Field>
OPLS_2005

> <r_lp_Energy>
28.1978

> <b_lp_Chiralities_Consistent>
1

> <s_lp_Variant>
AV-unprocessed.smi:1030-1

> <Gold.Version>
5.8.1

> <Gold.Id.Protein>
6NUR|6NUR_protein|mol2

> <Gold.PLP.Fitness>
33.4660

> <Gold.PLP.PLP>
-24.9986

> <Gold.PLP.part.hbond>
-3.4429

> <Gold.PLP.part.metal>
0.0000

> <Gold.PLP.part.buried>
-4.3069

> <Gold.PLP.part.nonpolar>
-17.4386

> <Gold.PLP.part.repulsive>
0.1950

> <Gold.PLP.ligand.clash>
0.0000

> <Gold.PLP.ligand.torsion>
1.3254

> <Gold.PLP.Chemscore.Hbond>
3.0000

> <Gold.PLP.Chemscore.CHOScore>
0.0000

> <Gold.PLP.Chemscore.Metal>
0.0000

> <Gold.Chemscore.Hbonds>
donor molecule, donor type, donor heavy atom, donor atom, acceptor molecule, acceptor atom, score
      L1  H     1    17       P1  8028  0.82
      P1  H  7997  8010       L1     9  1.00
      P1  H 10752 10765       L1    14  0.56

> <Gold.PLP.Chemscore.Internal.Correction>
2.1183

> <Gold.Rescore>
     Score         DG    S(hbond)    S(metal)    S(lipo)     H(rot)  DE(clash)    DE(int)     intcor
     14.55     -17.42       2.27        0.00      59.13       1.00       0.09       2.78       ----

> <Gold.Chemscore.Fitness>
14.5534

> <Gold.Chemscore.DG>
-17.4243

> <Gold.Chemscore.ZeroCoef>
-5.4800

> <Gold.Chemscore.Hbond>
2.2713

> <Gold.Chemscore.Metal>
0.0000

> <Gold.Chemscore.Lipo>
59.1294

> <Gold.Chemscore.Internal_Hbond>
0.0000

> <Gold.Chemscore.DEClash>
0.0863

> <Gold.Chemscore.DEInternal>
2.7846

> <Gold.Chemscore.Rot>
1.0000

> <Gold.Chemscore.Internal.Correction>
   9.000000E+99

> <Gold.Chemscore.Hbonds>
donor molecule, donor type, donor heavy atom, donor atom, acceptor molecule, acceptor atom, score
      L1  H     1    17       P1  8028  0.80
      P1  H  7997  8010       L1     9  0.19
      P1  H 10752 10765       L1    14  0.21

> <Gold.Chemscore.Hbond.Weighted>
-7.5861

> <Gold.Chemscore.Metal.Weighted>
-0.0000

> <Gold.Chemscore.Lipo.Weighted>
-6.9181

> <Gold.Chemscore.Internal_Hbond.Weighted>
0.0000

> <Gold.Chemscore.DEClash.Weighted>
0.0863

> <Gold.Chemscore.DEInternal.Weighted>
2.7846

> <Gold.Chemscore.Rot.Weighted>
2.5600

> <Gold.Chemscore.Internal.Correction.Weighted>
   9.000000E+99

> <Gold.Protein.RotatedTorsions>
[ 6907 6896 6895 6894 ] final -168.20 input  -60.11 | X-H torsion
[ 7974 7965 7964 7962 ] final -168.85 input  175.53 | X-H torsion
[ 8008 7997 7996 7995 ] final   39.17 input   59.86 | X-H torsion
[ 10167 10162 10161 10158 ] final   -9.82 input  -65.29 | X-H torsion
[ 10718 10713 10712 10709 ] final -164.17 input   66.30 | X-H torsion
[ 10763 10752 10751 10750 ] final -163.71 input  -60.55 | X-H torsion
[ 11005 11000 10999 10996 ] final  -87.13 input  -57.11 | X-H torsion

> <Gold.Protein.ActiveResidues>
 VAL166  LYS551  ARG553  GLY616  TRP617  ASP618  TYR619  PRO620  LYS621  CYS622 
 ASP623  PHE694  ASN695  SER759  ASP760  ASP761  ALA762  ILE779  LEU786  VAL792 
 PHE793  MET794  SER795  GLU796  ALA797  LYS798  CYS799  TRP800  GLU811  SER814 

> <Gold.Protein.RotatedAtoms>
  151.4718  133.3567  159.2824 H   0  0  0  0  0  0  0  0  0  0  0  0  # atno 6907 bound_to 6896
  150.8956  134.8366  159.7335 H   0  0  0  0  0  0  0  0  0  0  0  0  # atno 6908 bound_to 6896
  152.4849  134.4632  159.9664 H   0  0  0  0  0  0  0  0  0  0  0  0  # atno 6909 bound_to 6896
  144.7195  140.2308  143.6304 H   0  0  0  0  0  0  0  0  0  0  0  0  # atno 7974 bound_to 7965
  155.2323  140.3339  155.4302 H   0  0  0  0  0  0  0  0  0  0  0  0  # atno 8008 bound_to 7997
  156.2290  140.1842  156.7337 H   0  0  0  0  0  0  0  0  0  0  0  0  # atno 8009 bound_to 7997
  154.5946  140.0632  156.9271 H   0  0  0  0  0  0  0  0  0  0  0  0  # atno 8010 bound_to 7997
  140.7097  143.5816  150.8986 H   0  0  0  0  0  0  0  0  0  0  0  0  # atno 10167 bound_to 10162
  156.6352  130.8946  151.2985 H   0  0  0  0  0  0  0  0  0  0  0  0  # atno 10718 bound_to 10713
  154.7097  135.3004  154.9216 H   0  0  0  0  0  0  0  0  0  0  0  0  # atno 10763 bound_to 10752
  154.0122  135.6693  153.4770 H   0  0  0  0  0  0  0  0  0  0  0  0  # atno 10764 bound_to 10752
  153.0745  135.5042  154.8288 H   0  0  0  0  0  0  0  0  0  0  0  0  # atno 10765 bound_to 10752
  141.1621  133.7494  156.9262 H   0  0  0  0  0  0  0  0  0  0  0  0  # atno 11005 bound_to 11000
  145.8412  139.2131  143.1826 LP  0  0  0  0  0  0  0  0  0  0  0  0  # atno 17320 bound_to 7965
  146.0344  140.8226  142.9860 LP  0  0  0  0  0  0  0  0  0  0  0  0  # atno 17321 bound_to 7965
  139.9542  143.6237  152.3020 LP  0  0  0  0  0  0  0  0  0  0  0  0  # atno 17342 bound_to 10162
  139.6767  144.7658  151.1683 LP  0  0  0  0  0  0  0  0  0  0  0  0  # atno 17343 bound_to 10162
  157.7188  130.9531  150.1356 LP  0  0  0  0  0  0  0  0  0  0  0  0  # atno 17370 bound_to 10713
  156.2203  130.3673  149.8564 LP  0  0  0  0  0  0  0  0  0  0  0  0  # atno 17371 bound_to 10713
  140.1418  134.9289  157.2476 LP  0  0  0  0  0  0  0  0  0  0  0  0  # atno 17394 bound_to 11000
  140.2828  134.3330  155.7338 LP  0  0  0  0  0  0  0  0  0  0  0  0  # atno 17395 bound_to 11000

$$$$
