AV-unprocessed.smi:31|AV-procd|sdf|195|dock7
  -GOLD-   2262015463D 1   1.00000     0.00000
 Structure written by MMmdl.
 49 52  0  0  0  0  0  0  0  0  1 V2000
  147.3897  138.2133  153.8619 O   0  0  0  0  0  0  0  0  0  0  0  0
  147.2402  137.6660  154.9554 C   0  0  0  0  0  0  0  0  0  0  0  0
  146.3843  136.3953  155.0813 C   0  0  0  0  0  0  0  0  0  0  0  0
  146.8221  135.2979  154.1908 N   0  0  0  0  0  0  0  0  0  0  0  0
  147.9378  134.5124  154.5737 C   0  0  0  0  0  0  0  0  0  0  0  0
  148.5524  134.7410  155.6165 O   0  0  0  0  0  0  0  0  0  0  0  0
  148.2871  133.4283  153.6625 C   0  0  0  0  0  0  0  0  0  0  0  0
  149.3287  132.6284  153.9479 F   0  0  0  0  0  0  0  0  0  0  0  0
  147.5760  133.2102  152.5374 C   0  0  0  0  0  0  0  0  0  0  0  0
  146.4899  133.9861  152.1756 N   0  0  0  0  0  0  0  0  0  0  0  0
  145.6986  133.6974  150.9192 C   0  0  2  0  0  0  0  0  0  0  0  0
  144.2617  133.3032  151.2785 C   0  0  0  0  0  0  0  0  0  0  0  0
  144.3549  131.7938  151.3213 C   0  0  0  0  0  0  0  0  0  0  0  0
  145.3655  131.5183  150.2137 C   0  0  0  0  0  0  0  0  0  0  0  0
  146.2779  132.6128  150.2519 O   0  0  0  0  0  0  0  0  0  0  0  0
  146.0816  135.0485  153.0107 C   0  0  0  0  0  0  0  0  0  0  0  0
  145.0966  135.7326  152.7237 O   0  0  0  0  0  0  0  0  0  0  0  0
  147.8000  138.0922  156.1022 N   0  0  0  0  0  0  0  0  0  0  0  0
  148.6479  139.2139  156.3070 C   0  0  0  0  0  0  0  0  0  0  0  0
  148.7247  140.1657  155.2730 C   0  0  0  0  0  0  0  0  0  0  0  0
  149.5412  141.3020  155.4132 C   0  0  0  0  0  0  0  0  0  0  0  0
  150.3029  141.5054  156.5810 C   0  0  0  0  0  0  0  0  0  0  0  0
  150.2888  140.5099  157.6017 C   0  0  0  0  0  0  0  0  0  0  0  0
  149.4463  139.3881  157.4616 C   0  0  0  0  0  0  0  0  0  0  0  0
  151.0712  140.5494  158.7353 O   0  0  0  0  0  0  0  0  0  0  0  0
  152.3570  141.1339  158.5888 C   0  0  0  0  0  0  0  0  0  0  0  0
  152.2911  142.6564  158.7262 C   0  0  0  0  0  0  0  0  0  0  0  0
  151.1205  143.2629  157.9500 C   0  0  0  0  0  0  0  0  0  0  0  0
  151.0089  142.6859  156.6572 O   0  0  0  0  0  0  0  0  0  0  0  0
  146.3922  136.0696  156.1229 H   0  0  0  0  0  0  0  0  0  0  0  0
  145.3429  136.6638  154.8972 H   0  0  0  0  0  0  0  0  0  0  0  0
  147.8758  132.3874  151.9057 H   0  0  0  0  0  0  0  0  0  0  0  0
  145.7723  134.5920  150.2991 H   0  0  0  0  0  0  0  0  0  0  0  0
  143.9248  133.7558  152.2121 H   0  0  0  0  0  0  0  0  0  0  0  0
  143.6009  133.6224  150.4717 H   0  0  0  0  0  0  0  0  0  0  0  0
  144.7483  131.4663  152.2844 H   0  0  0  0  0  0  0  0  0  0  0  0
  143.3969  131.2998  151.1578 H   0  0  0  0  0  0  0  0  0  0  0  0
  145.8784  130.5648  150.3402 H   0  0  0  0  0  0  0  0  0  0  0  0
  144.8697  131.5113  149.2422 H   0  0  0  0  0  0  0  0  0  0  0  0
  147.6659  137.4969  156.9066 H   0  0  0  0  0  0  0  0  0  0  0  0
  148.1401  140.0397  154.3731 H   0  0  0  0  0  0  0  0  0  0  0  0
  149.5637  142.0402  154.6250 H   0  0  0  0  0  0  0  0  0  0  0  0
  149.4552  138.6469  158.2456 H   0  0  0  0  0  0  0  0  0  0  0  0
  153.0148  140.7253  159.3562 H   0  0  0  0  0  0  0  0  0  0  0  0
  152.7985  140.8492  157.6316 H   0  0  0  0  0  0  0  0  0  0  0  0
  152.1991  142.9325  159.7769 H   0  0  0  0  0  0  0  0  0  0  0  0
  153.2314  143.0834  158.3766 H   0  0  0  0  0  0  0  0  0  0  0  0
  150.1859  143.1451  158.5020 H   0  0  0  0  0  0  0  0  0  0  0  0
  151.2708  144.3370  157.8409 H   0  0  0  0  0  0  0  0  0  0  0  0
  1  2  2  0  0  0  0
  2  3  1  0  0  0  0
  2 18  1  0  0  0  0
  3  4  1  0  0  0  0
  3 30  1  0  0  0  0
  3 31  1  0  0  0  0
  4 16  1  0  0  0  0
  4  5  1  0  0  0  0
  5  6  2  0  0  0  0
  5  7  1  0  0  0  0
  7  8  1  0  0  0  0
  7  9  2  0  0  0  0
  9 10  1  0  0  0  0
  9 32  1  0  0  0  0
 10 11  1  0  0  0  0
 10 16  1  0  0  0  0
 11 15  1  0  0  0  0
 11 12  1  0  0  0  0
 11 33  1  0  0  0  0
 12 13  1  0  0  0  0
 12 34  1  0  0  0  0
 12 35  1  0  0  0  0
 13 14  1  0  0  0  0
 13 36  1  0  0  0  0
 13 37  1  0  0  0  0
 14 15  1  0  0  0  0
 14 38  1  0  0  0  0
 14 39  1  0  0  0  0
 16 17  2  0  0  0  0
 18 19  1  0  0  0  0
 18 40  1  0  0  0  0
 19 24  1  0  0  0  0
 19 20  2  0  0  0  0
 20 21  1  0  0  0  0
 20 41  1  0  0  0  0
 21 22  2  0  0  0  0
 21 42  1  0  0  0  0
 22 29  1  0  0  0  0
 22 23  1  0  0  0  0
 23 24  2  0  0  0  0
 23 25  1  0  0  0  0
 24 43  1  0  0  0  0
 25 26  1  0  0  0  0
 26 27  1  0  0  0  0
 26 44  1  0  0  0  0
 26 45  1  0  0  0  0
 27 28  1  0  0  0  0
 27 46  1  0  0  0  0
 27 47  1  0  0  0  0
 28 29  1  0  0  0  0
 28 48  1  0  0  0  0
 28 49  1  0  0  0  0
M  END
> <s_m_source_file>
AV-unprocessed.smi

> <i_m_source_file_index>
31

> <i_lp_mmshare_version>
43012

> <i_f3d_flags>
0

> <s_epik_input>
TzFbQ0gyXVtDSDJdW0NIMl1PYyhjMTIpW2NIXWMoW2NIXVtjSF0yKVtOSF1DKD1PKVtDSDJdbjNjKD1PKWMoRilbY0hdbihjMz1PKVtDQEBIXTRbQ0gyXVtDSDJdW0NIMl1PNA==

> <s_epik_cmdline>
J2VwaWtfcHl0aG9uJywgJy1waCcsICc3LjAnLCAnLXRuJywgJzgnLCAnLW1hJywgJzIwMCcsICctbWV0YWxfYmluZGluZycsICctaW1hZScsICc8aW5maWxlLm1hZT4nLCAnLW9tYWUnLCAnPG91dGZpbGUubWFlPic=

> <r_lp_tautomer_probability>
1

> <r_epik_Ionization_Penalty>
1.0483e-05

> <r_epik_Ionization_Penalty_Charging>
3.88729e-08

> <r_epik_Ionization_Penalty_Neutral>
1.04441e-05

> <r_epik_State_Penalty>
-0

> <r_epik_Charging_Adjusted_Penalty>
3.88729e-08

> <i_epik_Tot_Q>
0

> <i_epik_Tot_abs_Q>
0

> <r_epik_Metal_State_Penalty>
-0

> <b_epik_Metal_Only>
0

> <s_epik_Chemistry_Notes>
This compound contains an acetal/aminal-like group ( X-CH(R)-Y where X, Y are N, S, or O) that may be acid/base labile, releasing an aldehyde.

> <s_lp_Force_Field>
OPLS_2005

> <r_lp_Energy>
45.2544

> <b_lp_Chiralities_Consistent>
1

> <s_lp_Variant>
AV-unprocessed.smi:31-1

> <Gold.Version>
5.8.1

> <Gold.Id.Protein>
6NUR|6NUR_protein|mol2

> <Gold.PLP.Fitness>
39.9444

> <Gold.PLP.PLP>
-37.5753

> <Gold.PLP.part.hbond>
0.0000

> <Gold.PLP.part.metal>
0.0000

> <Gold.PLP.part.buried>
-4.3929

> <Gold.PLP.part.nonpolar>
-34.0058

> <Gold.PLP.part.repulsive>
0.7505

> <Gold.PLP.ligand.clash>
0.0000

> <Gold.PLP.ligand.torsion>
0.3269

> <Gold.PLP.Chemscore.Hbond>
0.0000

> <Gold.PLP.Chemscore.CHOScore>
1.0000

> <Gold.PLP.Chemscore.Metal>
0.0000

> <Gold.Chemscore.Hbonds>
donor molecule, donor type, donor heavy atom, donor atom, acceptor molecule, acceptor atom, score
      L1  C     9    32       P1 10747  1.00

> <Gold.PLP.Chemscore.Internal.Correction>
0.0228

> <Gold.Rescore>
     Score         DG    S(hbond)    S(metal)    S(lipo)     H(rot)  DE(clash)    DE(int)     intcor
      9.35     -11.95       0.00        0.00      91.28       1.64       0.10       2.51       ----

> <Gold.Chemscore.Fitness>
9.3480

> <Gold.Chemscore.DG>
-11.9540

> <Gold.Chemscore.ZeroCoef>
-5.4800

> <Gold.Chemscore.Hbond>
0.0000

> <Gold.Chemscore.Metal>
0.0000

> <Gold.Chemscore.Lipo>
91.2761

> <Gold.Chemscore.Internal_Hbond>
0.0000

> <Gold.Chemscore.DEClash>
0.1001

> <Gold.Chemscore.DEInternal>
2.5058

> <Gold.Chemscore.Rot>
1.6427

> <Gold.Chemscore.Internal.Correction>
   9.000000E+99

> <Gold.Chemscore.Hbond.Weighted>
-0.0000

> <Gold.Chemscore.Metal.Weighted>
-0.0000

> <Gold.Chemscore.Lipo.Weighted>
-10.6793

> <Gold.Chemscore.Internal_Hbond.Weighted>
0.0000

> <Gold.Chemscore.DEClash.Weighted>
0.1001

> <Gold.Chemscore.DEInternal.Weighted>
2.5058

> <Gold.Chemscore.Rot.Weighted>
4.2053

> <Gold.Chemscore.Internal.Correction.Weighted>
   9.000000E+99

> <Gold.Protein.RotatedTorsions>
[ 6907 6896 6895 6894 ] final   -4.08 input  -60.11 | X-H torsion
[ 7974 7965 7964 7962 ] final  -62.91 input  175.53 | X-H torsion
[ 8008 7997 7996 7995 ] final  -50.48 input   59.86 | X-H torsion
[ 10167 10162 10161 10158 ] final   -7.82 input  -65.29 | X-H torsion
[ 10718 10713 10712 10709 ] final  120.37 input   66.30 | X-H torsion
[ 10763 10752 10751 10750 ] final -129.73 input  -60.55 | X-H torsion
[ 11005 11000 10999 10996 ] final -171.24 input  -57.11 | X-H torsion

> <Gold.Protein.ActiveResidues>
 VAL166  LYS551  ARG553  GLY616  TRP617  ASP618  TYR619  PRO620  LYS621  CYS622 
 ASP623  PHE694  ASN695  SER759  ASP760  ASP761  ALA762  ILE779  LEU786  VAL792 
 PHE793  MET794  SER795  GLU796  ALA797  LYS798  CYS799  TRP800  GLU811  SER814 

> <Gold.Protein.RotatedAtoms>
  151.5035  135.1062  159.9834 H   0  0  0  0  0  0  0  0  0  0  0  0  # atno 6907 bound_to 6896
  152.4692  133.7987  159.6951 H   0  0  0  0  0  0  0  0  0  0  0  0  # atno 6908 bound_to 6896
  150.8691  133.7468  159.2993 H   0  0  0  0  0  0  0  0  0  0  0  0  # atno 6909 bound_to 6896
  145.7856  140.8738  143.0307 H   0  0  0  0  0  0  0  0  0  0  0  0  # atno 7974 bound_to 7965
  154.4063  140.1271  156.4673 H   0  0  0  0  0  0  0  0  0  0  0  0  # atno 8008 bound_to 7997
  155.7214  140.3492  155.4998 H   0  0  0  0  0  0  0  0  0  0  0  0  # atno 8009 bound_to 7997
  155.9211  140.1053  157.1196 H   0  0  0  0  0  0  0  0  0  0  0  0  # atno 8010 bound_to 7997
  140.7040  143.6038  150.8771 H   0  0  0  0  0  0  0  0  0  0  0  0  # atno 10167 bound_to 10162
  157.5895  131.1066  150.8026 H   0  0  0  0  0  0  0  0  0  0  0  0  # atno 10718 bound_to 10713
  154.8757  135.3886  154.3968 H   0  0  0  0  0  0  0  0  0  0  0  0  # atno 10763 bound_to 10752
  153.4697  135.7030  153.6006 H   0  0  0  0  0  0  0  0  0  0  0  0  # atno 10764 bound_to 10752
  153.4468  135.3843  155.2229 H   0  0  0  0  0  0  0  0  0  0  0  0  # atno 10765 bound_to 10752
  140.5105  134.5806  157.5017 H   0  0  0  0  0  0  0  0  0  0  0  0  # atno 11005 bound_to 11000
  144.6789  140.0050  143.7484 LP  0  0  0  0  0  0  0  0  0  0  0  0  # atno 17320 bound_to 7965
  146.0030  139.3106  143.0916 LP  0  0  0  0  0  0  0  0  0  0  0  0  # atno 17321 bound_to 7965
  139.9762  143.6002  152.2958 LP  0  0  0  0  0  0  0  0  0  0  0  0  # atno 17342 bound_to 10162
  139.6606  144.7662  151.1970 LP  0  0  0  0  0  0  0  0  0  0  0  0  # atno 17343 bound_to 10162
  156.8451  130.5061  149.5317 LP  0  0  0  0  0  0  0  0  0  0  0  0  # atno 17370 bound_to 10713
  156.0948  130.5924  150.9795 LP  0  0  0  0  0  0  0  0  0  0  0  0  # atno 17371 bound_to 10713
  139.9661  134.7370  156.0135 LP  0  0  0  0  0  0  0  0  0  0  0  0  # atno 17394 bound_to 11000
  141.1388  133.6569  156.3670 LP  0  0  0  0  0  0  0  0  0  0  0  0  # atno 17395 bound_to 11000

$$$$
