AV-unprocessed.smi:1749|AV-procd|sdf|7050|dock5
  -GOLD-   22720 8263D 1   1.00000     0.00000
 Structure written by MMmdl.
 31 32  0  0  0  0  0  0  0  0  2 V2000
  152.7824  143.2089  162.3077 C   0  0  0  0  0  0  0  0  0  0  0  0
  152.8274  143.3203  160.7771 C   0  0  2  0  0  0  0  0  0  0  0  0
  151.9312  144.4651  160.2678 C   0  0  0  0  0  0  0  0  0  0  0  0
  151.9802  144.5781  158.7361 C   0  0  0  0  0  0  0  0  0  0  0  0
  151.5981  143.2488  158.0678 C   0  0  0  0  0  0  0  0  0  0  0  0
  152.4893  142.0956  158.5631 C   0  0  2  0  0  0  0  0  0  0  0  0
  152.0543  140.8483  157.9412 N   0  0  0  0  0  0  0  0  0  0  0  0
  152.6847  139.6588  158.0040 C   0  0  0  0  0  0  0  0  0  0  0  0
  153.7222  139.5682  158.6590 O   0  0  0  0  0  0  0  0  0  0  0  0
  152.1340  138.6123  157.3337 N   0  5  0  0  0  0  0  0  0  0  0  0
  151.5112  138.7562  156.1492 C   0  0  0  0  0  0  0  0  0  0  0  0
  151.1751  139.9575  155.6521 N   0  0  0  0  0  0  0  0  0  0  0  0
  150.5460  139.8806  154.4170 N   0  0  0  0  0  0  0  0  0  0  0  0
  150.4135  138.6162  154.0171 C   0  0  0  0  0  0  0  0  0  0  0  0
  151.0450  137.4053  155.1126 S   0  0  0  0  0  0  0  0  0  0  0  0
  152.4396  141.9900  160.1019 C   0  0  0  0  0  0  0  0  0  0  0  0
  151.7761  142.9801  162.6598 H   0  0  0  0  0  0  0  0  0  0  0  0
  153.0969  144.1409  162.7784 H   0  0  0  0  0  0  0  0  0  0  0  0
  153.4467  142.4207  162.6630 H   0  0  0  0  0  0  0  0  0  0  0  0
  153.8565  143.5494  160.4966 H   0  0  0  0  0  0  0  0  0  0  0  0
  150.9015  144.2978  160.5867 H   0  0  0  0  0  0  0  0  0  0  0  0
  152.2427  145.4104  160.7135 H   0  0  0  0  0  0  0  0  0  0  0  0
  151.3088  145.3687  158.4000 H   0  0  0  0  0  0  0  0  0  0  0  0
  152.9833  144.8695  158.4224 H   0  0  0  0  0  0  0  0  0  0  0  0
  150.5516  143.0250  158.2807 H   0  0  0  0  0  0  0  0  0  0  0  0
  151.6791  143.3455  156.9843 H   0  0  0  0  0  0  0  0  0  0  0  0
  153.5155  142.3043  158.2546 H   0  0  0  0  0  0  0  0  0  0  0  0
  151.1998  140.8880  157.4054 H   0  0  0  0  0  0  0  0  0  0  0  0
  149.9402  138.3950  153.0723 H   0  0  0  0  0  0  0  0  0  0  0  0
  153.1101  141.1994  160.4412 H   0  0  0  0  0  0  0  0  0  0  0  0
  151.4367  141.6976  160.4172 H   0  0  0  0  0  0  0  0  0  0  0  0
  1  2  1  0  0  0  0
  1 17  1  0  0  0  0
  1 18  1  0  0  0  0
  1 19  1  0  0  0  0
  2 16  1  0  0  0  0
  2  3  1  0  0  0  0
  2 20  1  0  0  0  0
  3  4  1  0  0  0  0
  3 21  1  0  0  0  0
  3 22  1  0  0  0  0
  4  5  1  0  0  0  0
  4 23  1  0  0  0  0
  4 24  1  0  0  0  0
  5  6  1  0  0  0  0
  5 25  1  0  0  0  0
  5 26  1  0  0  0  0
  6  7  1  0  0  0  0
  6 16  1  0  0  0  0
  6 27  1  0  0  0  0
  7  8  1  0  0  0  0
  7 28  1  0  0  0  0
  8  9  2  0  0  0  0
  8 10  1  0  0  0  0
 10 11  1  0  0  0  0
 11 15  1  0  0  0  0
 11 12  2  0  0  0  0
 12 13  1  0  0  0  0
 13 14  2  0  0  0  0
 14 15  1  0  0  0  0
 14 29  1  0  0  0  0
 16 30  1  0  0  0  0
 16 31  1  0  0  0  0
M  CHG  1  10  -1
M  END
> <s_m_source_file>
AV-unprocessed.smi

> <i_m_source_file_index>
1749

> <i_lp_mmshare_version>
43012

> <i_f3d_flags>
0

> <s_epik_input>
W0NIM11bQ0BASF0xW0NIMl1bQ0gyXVtDSDJdW0NASF0oW0NIMl0xKVtOSF1DKD1PKVtOSF1jMm5uW2NIXXMy

> <s_epik_cmdline>
J2VwaWtfcHl0aG9uJywgJy1waCcsICc3LjAnLCAnLXRuJywgJzgnLCAnLW1hJywgJzIwMCcsICctbWV0YWxfYmluZGluZycsICctaW1hZScsICc8aW5maWxlLm1hZT4nLCAnLW9tYWUnLCAnPG91dGZpbGUubWFlPic=

> <r_lp_tautomer_probability>
1

> <r_epik_Ionization_Penalty>
4.55442

> <r_epik_Ionization_Penalty_Charging>
4.5081

> <r_epik_Ionization_Penalty_Neutral>
0.0463156

> <r_epik_State_Penalty>
4.50781

> <r_epik_Charging_Adjusted_Penalty>
9.01591

> <i_epik_Tot_Q>
-1

> <i_epik_Tot_abs_Q>
1

> <r_epik_Metal_State_Penalty>
0.823335

> <b_epik_Metal_Only>
1

> <s_lp_Force_Field>
OPLS_2005

> <r_lp_Energy>
8.86182

> <b_lp_Chiralities_Consistent>
1

> <s_lp_Variant>
AV-unprocessed.smi:1749-7

> <Gold.Version>
5.8.1

> <Gold.Id.Protein>
6NUR|6NUR_protein|mol2

> <Gold.PLP.Fitness>
45.2957

> <Gold.PLP.PLP>
-34.8720

> <Gold.PLP.part.hbond>
-2.0307

> <Gold.PLP.part.metal>
0.0000

> <Gold.PLP.part.buried>
-4.7858

> <Gold.PLP.part.nonpolar>
-27.8442

> <Gold.PLP.part.repulsive>
0.2032

> <Gold.PLP.ligand.clash>
0.0000

> <Gold.PLP.ligand.torsion>
0.3417

> <Gold.PLP.Chemscore.Hbond>
2.0000

> <Gold.PLP.Chemscore.CHOScore>
1.7007

> <Gold.PLP.Chemscore.Metal>
0.0000

> <Gold.Chemscore.Hbonds>
donor molecule, donor type, donor heavy atom, donor atom, acceptor molecule, acceptor atom, score
      P1  H  7989  7998       L1    13  1.00
      P1  H  7997  8010       L1     9  1.00
      L1  C    14    29       P1  7948  0.78
      L1  C    14    29       P1  7957  0.93

> <Gold.PLP.Chemscore.Internal.Correction>
0.0051

> <Gold.Rescore>
     Score         DG    S(hbond)    S(metal)    S(lipo)     H(rot)  DE(clash)    DE(int)     intcor
     15.27     -17.26       0.87        0.00      97.65       1.00       0.01       1.99       ----

> <Gold.Chemscore.Fitness>
15.2688

> <Gold.Chemscore.DG>
-17.2643

> <Gold.Chemscore.ZeroCoef>
-5.4800

> <Gold.Chemscore.Hbond>
0.8739

> <Gold.Chemscore.Metal>
0.0000

> <Gold.Chemscore.Lipo>
97.6529

> <Gold.Chemscore.Internal_Hbond>
0.0000

> <Gold.Chemscore.DEClash>
0.0086

> <Gold.Chemscore.DEInternal>
1.9868

> <Gold.Chemscore.Rot>
1.0000

> <Gold.Chemscore.Internal.Correction>
   9.000000E+99

> <Gold.Chemscore.Hbonds>
donor molecule, donor type, donor heavy atom, donor atom, acceptor molecule, acceptor atom, score
      P1  H  7989  7998       L1    13  0.24
      P1  H  7997  8010       L1     9  0.24

> <Gold.Chemscore.Hbond.Weighted>
-2.9189

> <Gold.Chemscore.Metal.Weighted>
-0.0000

> <Gold.Chemscore.Lipo.Weighted>
-11.4254

> <Gold.Chemscore.Internal_Hbond.Weighted>
0.0000

> <Gold.Chemscore.DEClash.Weighted>
0.0086

> <Gold.Chemscore.DEInternal.Weighted>
1.9868

> <Gold.Chemscore.Rot.Weighted>
2.5600

> <Gold.Chemscore.Internal.Correction.Weighted>
   9.000000E+99

> <Gold.Protein.RotatedTorsions>
[ 6907 6896 6895 6894 ] final  179.80 input  -60.11 | X-H torsion
[ 7974 7965 7964 7962 ] final  157.79 input  175.53 | X-H torsion
[ 8008 7997 7996 7995 ] final    3.44 input   59.86 | X-H torsion
[ 10167 10162 10161 10158 ] final -112.77 input  -65.29 | X-H torsion
[ 10718 10713 10712 10709 ] final  114.84 input   66.30 | X-H torsion
[ 10763 10752 10751 10750 ] final   13.11 input  -60.55 | X-H torsion
[ 11005 11000 10999 10996 ] final  101.65 input  -57.11 | X-H torsion

> <Gold.Protein.ActiveResidues>
 VAL166  LYS551  ARG553  GLY616  TRP617  ASP618  TYR619  PRO620  LYS621  CYS622 
 ASP623  PHE694  ASN695  SER759  ASP760  ASP761  ALA762  ILE779  LEU786  VAL792 
 PHE793  MET794  SER795  GLU796  ALA797  LYS798  CYS799  TRP800  GLU811  SER814 

> <Gold.Protein.RotatedAtoms>
  151.6658  133.3315  159.3184 H   0  0  0  0  0  0  0  0  0  0  0  0  # atno 6907 bound_to 6896
  150.7891  134.6905  159.6503 H   0  0  0  0  0  0  0  0  0  0  0  0  # atno 6908 bound_to 6896
  152.3968  134.6356  160.0138 H   0  0  0  0  0  0  0  0  0  0  0  0  # atno 6909 bound_to 6896
  144.7883  139.7389  143.6232 H   0  0  0  0  0  0  0  0  0  0  0  0  # atno 7974 bound_to 7965
  154.7037  140.2678  155.6695 H   0  0  0  0  0  0  0  0  0  0  0  0  # atno 8008 bound_to 7997
  156.2773  140.2767  156.1580 H   0  0  0  0  0  0  0  0  0  0  0  0  # atno 8009 bound_to 7997
  155.0729  140.0372  157.2604 H   0  0  0  0  0  0  0  0  0  0  0  0  # atno 8010 bound_to 7997
  140.1191  143.4459  152.1702 H   0  0  0  0  0  0  0  0  0  0  0  0  # atno 10167 bound_to 10162
  157.6257  131.1004  150.7244 H   0  0  0  0  0  0  0  0  0  0  0  0  # atno 10718 bound_to 10713
  153.1754  135.6819  153.8550 H   0  0  0  0  0  0  0  0  0  0  0  0  # atno 10763 bound_to 10752
  153.7900  135.3170  155.3378 H   0  0  0  0  0  0  0  0  0  0  0  0  # atno 10764 bound_to 10752
  154.8025  135.4769  154.0404 H   0  0  0  0  0  0  0  0  0  0  0  0  # atno 10765 bound_to 10752
  139.8774  134.9192  156.4939 H   0  0  0  0  0  0  0  0  0  0  0  0  # atno 11005 bound_to 11000
  146.2124  139.5489  142.9672 LP  0  0  0  0  0  0  0  0  0  0  0  0  # atno 17320 bound_to 7965
  145.5863  141.0376  143.2094 LP  0  0  0  0  0  0  0  0  0  0  0  0  # atno 17321 bound_to 7965
  139.5578  144.7385  151.4243 LP  0  0  0  0  0  0  0  0  0  0  0  0  # atno 17342 bound_to 10162
  140.6882  143.7924  150.7217 LP  0  0  0  0  0  0  0  0  0  0  0  0  # atno 17343 bound_to 10162
  156.7592  130.4793  149.5440 LP  0  0  0  0  0  0  0  0  0  0  0  0  # atno 17370 bound_to 10713
  156.1428  130.6256  151.0491 LP  0  0  0  0  0  0  0  0  0  0  0  0  # atno 17371 bound_to 10713
  140.8639  133.8039  155.9293 LP  0  0  0  0  0  0  0  0  0  0  0  0  # atno 17394 bound_to 11000
  140.9022  134.2364  157.5035 LP  0  0  0  0  0  0  0  0  0  0  0  0  # atno 17395 bound_to 11000

$$$$
