AV-unprocessed.smi:265|AV-procd|sdf|2017|dock7
  -GOLD-   2262021213D 1   1.00000     0.00000
 Structure written by MMmdl.
 52 56  0  0  0  0  0  0  0  0  1 V2000
  148.3125  131.8687  156.5827 C   0  0  0  0  0  0  0  0  0  0  0  0
  149.5207  132.6326  156.0189 C   0  0  2  0  0  0  0  0  0  0  0  0
  150.6990  131.8279  156.0464 O   0  0  0  0  0  0  0  0  0  0  0  0
  151.7914  132.5649  156.5825 C   0  0  0  0  0  0  0  0  0  0  0  0
  151.3800  134.0285  156.4669 C   0  0  0  0  0  0  0  0  0  0  0  0
  149.8779  133.9689  156.7102 C   0  0  2  0  0  0  0  0  0  0  0  0
  149.6526  133.8770  158.1072 O   0  0  0  0  0  0  0  0  0  0  0  0
  149.0751  135.2051  156.2273 C   0  0  0  0  0  0  0  0  0  0  0  0
  149.6062  136.4896  156.6563 N   0  0  0  0  0  0  0  0  0  0  0  0
  149.7603  136.9280  157.9533 C   0  0  0  0  0  0  0  0  0  0  0  0
  150.2628  138.1257  158.0825 N   0  0  0  0  0  0  0  0  0  0  0  0
  150.4906  138.5350  156.7755 C   0  0  0  0  0  0  0  0  0  0  0  0
  151.0159  139.7151  156.1896 C   0  0  0  0  0  0  0  0  0  0  0  0
  151.4204  140.7636  156.9364 N   0  0  0  0  0  0  0  0  0  0  0  0
  150.4335  141.8411  157.0141 C   0  0  0  0  0  0  0  0  0  0  0  0
  151.0261  143.0869  157.7000 C   0  0  0  0  0  0  0  0  0  0  0  0
  151.6085  142.7005  159.0665 C   0  0  2  0  0  0  0  0  0  0  0  0
  152.2638  143.7907  159.6964 O   0  0  0  0  0  0  0  0  0  0  0  0
  152.6721  143.5072  161.0394 C   0  0  0  0  0  0  0  0  0  0  0  0
  153.3857  142.1445  161.1748 C   0  0  0  0  0  0  0  0  0  0  0  0
  153.9936  141.8724  162.2076 O   0  0  0  0  0  0  0  0  0  0  0  0
  153.2823  141.2700  160.1602 N   0  0  0  0  0  0  0  0  0  0  0  0
  152.6664  141.6006  158.8821 C   0  0  1  0  0  0  0  0  0  0  0  0
  152.0322  140.3743  158.2068 C   0  0  0  0  0  0  0  0  0  0  0  0
  151.1042  139.7723  154.8349 N   0  0  0  0  0  0  0  0  0  0  0  0
  150.7001  138.7324  154.0982 C   0  0  0  0  0  0  0  0  0  0  0  0
  150.1849  137.5696  154.5054 N   0  0  0  0  0  0  0  0  0  0  0  0
  150.0951  137.5155  155.8659 C   0  0  0  0  0  0  0  0  0  0  0  0
  150.7955  142.3489  159.7057 H   0  0  0  0  0  0  0  0  0  0  0  0
  153.4629  141.9777  158.2378 H   0  0  0  0  0  0  0  0  0  0  0  0
  147.4154  132.4878  156.5654 H   0  0  0  0  0  0  0  0  0  0  0  0
  148.4822  131.5467  157.6103 H   0  0  0  0  0  0  0  0  0  0  0  0
  148.1113  130.9763  155.9900 H   0  0  0  0  0  0  0  0  0  0  0  0
  149.3402  132.8121  154.9603 H   0  0  0  0  0  0  0  0  0  0  0  0
  151.9246  132.2849  157.6281 H   0  0  0  0  0  0  0  0  0  0  0  0
  152.7187  132.3461  156.0528 H   0  0  0  0  0  0  0  0  0  0  0  0
  151.9124  134.6811  157.1598 H   0  0  0  0  0  0  0  0  0  0  0  0
  151.6004  134.3666  155.4551 H   0  0  0  0  0  0  0  0  0  0  0  0
  148.9580  133.2545  158.2588 H   0  0  0  0  0  0  0  0  0  0  0  0
  149.0236  135.2106  155.1376 H   0  0  0  0  0  0  0  0  0  0  0  0
  148.0436  135.1378  156.5760 H   0  0  0  0  0  0  0  0  0  0  0  0
  149.4769  136.3294  158.8071 H   0  0  0  0  0  0  0  0  0  0  0  0
  150.0894  142.0995  156.0117 H   0  0  0  0  0  0  0  0  0  0  0  0
  149.5617  141.4941  157.5710 H   0  0  0  0  0  0  0  0  0  0  0  0
  151.8062  143.5183  157.0714 H   0  0  0  0  0  0  0  0  0  0  0  0
  150.2591  143.8524  157.8182 H   0  0  0  0  0  0  0  0  0  0  0  0
  153.3298  144.3044  161.3865 H   0  0  0  0  0  0  0  0  0  0  0  0
  151.7948  143.5082  161.6876 H   0  0  0  0  0  0  0  0  0  0  0  0
  153.7179  140.3637  160.2521 H   0  0  0  0  0  0  0  0  0  0  0  0
  151.2764  139.9346  158.8595 H   0  0  0  0  0  0  0  0  0  0  0  0
  152.7909  139.6104  158.0300 H   0  0  0  0  0  0  0  0  0  0  0  0
  150.8035  138.8487  153.0293 H   0  0  0  0  0  0  0  0  0  0  0  0
  1  2  1  0  0  0  0
  1 31  1  0  0  0  0
  1 32  1  0  0  0  0
  1 33  1  0  0  0  0
  2  6  1  0  0  0  0
  2  3  1  0  0  0  0
  2 34  1  0  0  0  0
  3  4  1  0  0  0  0
  4  5  1  0  0  0  0
  4 35  1  0  0  0  0
  4 36  1  0  0  0  0
  5  6  1  0  0  0  0
  5 37  1  0  0  0  0
  5 38  1  0  0  0  0
  6  7  1  0  0  0  0
  6  8  1  0  0  0  0
  7 39  1  0  0  0  0
  8  9  1  0  0  0  0
  8 40  1  0  0  0  0
  8 41  1  0  0  0  0
  9 28  1  0  0  0  0
  9 10  1  0  0  0  0
 10 11  2  0  0  0  0
 10 42  1  0  0  0  0
 11 12  1  0  0  0  0
 12 28  2  0  0  0  0
 12 13  1  0  0  0  0
 13 14  1  0  0  0  0
 13 25  2  0  0  0  0
 14 24  1  0  0  0  0
 14 15  1  0  0  0  0
 15 16  1  0  0  0  0
 15 43  1  0  0  0  0
 15 44  1  0  0  0  0
 16 17  1  0  0  0  0
 16 45  1  0  0  0  0
 16 46  1  0  0  0  0
 17 29  1  0  0  0  0
 17 23  1  0  0  0  0
 17 18  1  0  0  0  0
 18 19  1  0  0  0  0
 19 20  1  0  0  0  0
 19 47  1  0  0  0  0
 19 48  1  0  0  0  0
 20 21  2  0  0  0  0
 20 22  1  0  0  0  0
 22 23  1  0  0  0  0
 22 49  1  0  0  0  0
 23 30  1  0  0  0  0
 23 24  1  0  0  0  0
 24 50  1  0  0  0  0
 24 51  1  0  0  0  0
 25 26  1  0  0  0  0
 26 27  2  0  0  0  0
 26 52  1  0  0  0  0
 27 28  1  0  0  0  0
M  END
> <s_m_source_file>
AV-unprocessed.smi

> <i_m_source_file_index>
265

> <i_lp_mmshare_version>
43012

> <i_f3d_flags>
0

> <s_epik_input>
W0NIMl0xW0NIMl1PW0NAQEhdKFtDSDNdKVtDQEBdMShbT0hdKVtDSDJdbihbY0hdbjIpYyhjMjMpbltjSF1uYzNOKFtDSDJdW0NIMl00KVtDSDJdW0NAQEhdKFtDQEhdNDUpW05IXUMoPU8pW0NIMl1PNQ==

> <s_epik_cmdline>
J2VwaWtfcHl0aG9uJywgJy1waCcsICc3LjAnLCAnLXRuJywgJzgnLCAnLW1hJywgJzIwMCcsICctbWV0YWxfYmluZGluZycsICctaW1hZScsICc8aW5maWxlLm1hZT4nLCAnLW9tYWUnLCAnPG91dGZpbGUubWFlPic=

> <r_lp_tautomer_probability>
1

> <r_epik_Ionization_Penalty>
0.00221504

> <r_epik_Ionization_Penalty_Charging>
0

> <r_epik_Ionization_Penalty_Neutral>
0.00221504

> <r_epik_State_Penalty>
-0

> <r_epik_Charging_Adjusted_Penalty>
0

> <i_epik_Tot_Q>
0

> <i_epik_Tot_abs_Q>
0

> <r_epik_Metal_State_Penalty>
-0

> <b_epik_Metal_Only>
0

> <s_lp_Force_Field>
OPLS_2005

> <r_lp_Energy>
49.4841

> <b_lp_Chiralities_Consistent>
1

> <s_lp_Variant>
AV-unprocessed.smi:265-3

> <Gold.Version>
5.8.1

> <Gold.Id.Protein>
6NUR|6NUR_protein|mol2

> <Gold.PLP.Fitness>
43.5099

> <Gold.PLP.PLP>
-35.9127

> <Gold.PLP.part.hbond>
-2.9238

> <Gold.PLP.part.metal>
0.0000

> <Gold.PLP.part.buried>
-9.4716

> <Gold.PLP.part.nonpolar>
-24.6079

> <Gold.PLP.part.repulsive>
0.3777

> <Gold.PLP.ligand.clash>
0.0000

> <Gold.PLP.ligand.torsion>
0.7367

> <Gold.PLP.Chemscore.Hbond>
1.9500

> <Gold.PLP.Chemscore.CHOScore>
1.0000

> <Gold.PLP.Chemscore.Metal>
0.0000

> <Gold.Chemscore.Hbonds>
donor molecule, donor type, donor heavy atom, donor atom, acceptor molecule, acceptor atom, score
      P1  H  6896  6908       L1     7  1.00
      P1  H  7989  7998       L1    25  0.95
      L1  C    26    52       P1  7957  1.00

> <Gold.PLP.Chemscore.Internal.Correction>
0.2206

> <Gold.Rescore>
     Score         DG    S(hbond)    S(metal)    S(lipo)     H(rot)  DE(clash)    DE(int)     intcor
     12.40     -14.62       1.75        0.00      77.40       2.25       0.12       2.10       ----

> <Gold.Chemscore.Fitness>
12.4037

> <Gold.Chemscore.DG>
-14.6215

> <Gold.Chemscore.ZeroCoef>
-5.4800

> <Gold.Chemscore.Hbond>
1.7466

> <Gold.Chemscore.Metal>
0.0000

> <Gold.Chemscore.Lipo>
77.3994

> <Gold.Chemscore.Internal_Hbond>
0.0000

> <Gold.Chemscore.DEClash>
0.1171

> <Gold.Chemscore.DEInternal>
2.1006

> <Gold.Chemscore.Rot>
2.2453

> <Gold.Chemscore.Internal.Correction>
   9.000000E+99

> <Gold.Chemscore.Hbonds>
donor molecule, donor type, donor heavy atom, donor atom, acceptor molecule, acceptor atom, score
      P1  H  6896  6908       L1     7  0.87
      P1  H  7989  7998       L1    25  0.22

> <Gold.Chemscore.Hbond.Weighted>
-5.8336

> <Gold.Chemscore.Metal.Weighted>
-0.0000

> <Gold.Chemscore.Lipo.Weighted>
-9.0557

> <Gold.Chemscore.Internal_Hbond.Weighted>
0.0000

> <Gold.Chemscore.DEClash.Weighted>
0.1171

> <Gold.Chemscore.DEInternal.Weighted>
2.1006

> <Gold.Chemscore.Rot.Weighted>
5.7479

> <Gold.Chemscore.Internal.Correction.Weighted>
   9.000000E+99

> <Gold.Protein.RotatedTorsions>
[ 6907 6896 6895 6894 ] final  135.23 input  -60.11 | X-H torsion
[ 7974 7965 7964 7962 ] final -144.91 input  175.53 | X-H torsion
[ 8008 7997 7996 7995 ] final -113.35 input   59.86 | X-H torsion
[ 10167 10162 10161 10158 ] final  -18.20 input  -65.29 | X-H torsion
[ 10718 10713 10712 10709 ] final  -72.04 input   66.30 | X-H torsion
[ 10763 10752 10751 10750 ] final  165.08 input  -60.55 | X-H torsion
[ 11005 11000 10999 10996 ] final   16.64 input  -57.11 | X-H torsion

> <Gold.Protein.ActiveResidues>
 VAL166  LYS551  ARG553  GLY616  TRP617  ASP618  TYR619  PRO620  LYS621  CYS622 
 ASP623  PHE694  ASN695  SER759  ASP760  ASP761  ALA762  ILE779  LEU786  VAL792 
 PHE793  MET794  SER795  GLU796  ALA797  LYS798  CYS799  TRP800  GLU811  SER814 

> <Gold.Protein.RotatedAtoms>
  152.3027  133.5672  159.5628 H   0  0  0  0  0  0  0  0  0  0  0  0  # atno 6907 bound_to 6896
  150.7285  134.0268  159.3728 H   0  0  0  0  0  0  0  0  0  0  0  0  # atno 6908 bound_to 6896
  151.8166  135.0665  160.0470 H   0  0  0  0  0  0  0  0  0  0  0  0  # atno 6909 bound_to 6896
  144.8264  140.5650  143.5544 H   0  0  0  0  0  0  0  0  0  0  0  0  # atno 7974 bound_to 7965
  155.0194  140.0393  157.2431 H   0  0  0  0  0  0  0  0  0  0  0  0  # atno 8008 bound_to 7997
  154.7391  140.2745  155.6365 H   0  0  0  0  0  0  0  0  0  0  0  0  # atno 8009 bound_to 7997
  156.2860  140.2669  156.2113 H   0  0  0  0  0  0  0  0  0  0  0  0  # atno 8010 bound_to 7997
  140.7256  143.4940  150.9955 H   0  0  0  0  0  0  0  0  0  0  0  0  # atno 10167 bound_to 10162
  156.0337  130.4364  150.2534 H   0  0  0  0  0  0  0  0  0  0  0  0  # atno 10718 bound_to 10713
  154.3185  135.2756  155.2531 H   0  0  0  0  0  0  0  0  0  0  0  0  # atno 10763 bound_to 10752
  154.4895  135.5837  153.6452 H   0  0  0  0  0  0  0  0  0  0  0  0  # atno 10764 bound_to 10752
  152.9879  135.6131  154.3368 H   0  0  0  0  0  0  0  0  0  0  0  0  # atno 10765 bound_to 10752
  140.4448  134.1284  155.7695 H   0  0  0  0  0  0  0  0  0  0  0  0  # atno 11005 bound_to 11000
  145.4991  139.1484  143.3667 LP  0  0  0  0  0  0  0  0  0  0  0  0  # atno 17320 bound_to 7965
  146.2569  140.5130  142.8870 LP  0  0  0  0  0  0  0  0  0  0  0  0  # atno 17321 bound_to 7965
  139.8646  143.7271  152.3171 LP  0  0  0  0  0  0  0  0  0  0  0  0  # atno 17342 bound_to 10162
  139.7498  144.7537  151.0524 LP  0  0  0  0  0  0  0  0  0  0  0  0  # atno 17343 bound_to 10162
  157.0634  131.0096  151.3215 LP  0  0  0  0  0  0  0  0  0  0  0  0  # atno 17370 bound_to 10713
  157.5053  130.7905  149.7647 LP  0  0  0  0  0  0  0  0  0  0  0  0  # atno 17371 bound_to 10713
  141.1690  133.8647  157.1629 LP  0  0  0  0  0  0  0  0  0  0  0  0  # atno 17394 bound_to 11000
  140.0045  135.0014  157.0263 LP  0  0  0  0  0  0  0  0  0  0  0  0  # atno 17395 bound_to 11000

$$$$
