#       Name:                AV-unprocessed.smi:1291
#       Creating user name   scv26
#       Creation time:       Fri Mar 27 04:54:37 2020


#       File generated by GOLD software.
#

@<TRIPOS>MOLECULE
AV-unprocessed.smi:1291
    50    52     1
SMALL
NO_CHARGES


@<TRIPOS>ATOM
      1 ****        -2.3441   2.3863  -3.7185 O.3            1 S1                 0.0000
      2 ****        -2.2324   1.4649  -2.6523 C.3            1 S1                 0.0000
      3 ****        -2.6631   2.0143  -1.3215 C.2            1 S1                 0.0000
      4 ****        -3.2180   3.2202  -1.1762 N.2            1 S1                 0.0000
      5 ****        -3.4519   3.2889   0.1827 C.ar           1 S1                 0.0000
      6 ****        -4.0237   4.3175   0.9654 C.ar           1 S1                 0.0000
      7 ****        -4.1638   4.1594   2.3599 C.ar           1 S1                 0.0000
      8 ****        -3.7362   2.9728   2.9900 C.ar           1 S1                 0.0000
      9 ****        -3.1656   1.9351   2.2282 C.ar           1 S1                 0.0000
     10 ****        -3.0266   2.0985   0.8366 C.ar           1 S1                 0.0000
     11 ****        -2.5173   1.2954  -0.1799 N.pl3          1 S1                 0.0000
     12 ****        -1.9556  -0.0409  -0.0248 C.3            1 S1                 0.0000
     13 ****        -0.4230  -0.0372   0.1540 C.3            1 S1                 0.0000
     14 ****        -0.0854   0.7303   1.2932 O.3            1 S1                 0.0000
     15 ****         0.1295  -1.4587   0.3456 C.3            1 S1                 0.0000
     16 ****         1.5113  -1.4687   0.0272 O.3            1 S1                 0.0000
     17 ****         2.1036  -2.7497   0.1780 C.3            1 S1                 0.0000
     18 ****         3.5851  -2.7601  -0.1607 C.ar           1 S1                 0.0000
     19 ****         4.1727  -1.6967  -0.8822 C.ar           1 S1                 0.0000
     20 ****         5.5452  -1.7249  -1.1968 C.ar           1 S1                 0.0000
     21 ****         6.3380  -2.8175  -0.7976 C.ar           1 S1                 0.0000
     22 ****         5.7564  -3.8838  -0.0859 C.ar           1 S1                 0.0000
     23 ****         4.3838  -3.8575   0.2298 C.ar           1 S1                 0.0000
     24 ****         3.8355  -4.8927   0.9104 F              1 S1                 0.0000
     25 ****        -2.0565   1.9639  -4.5131 H              1 S1                 0.0000
     26 ****        -2.8375   0.5892  -2.8876 H              1 S1                 0.0000
     27 ****        -1.1945   1.1393  -2.5904 H              1 S1                 0.0000
     28 ****        -4.3543   5.2297   0.4915 H              1 S1                 0.0000
     29 ****        -4.6010   4.9523   2.9486 H              1 S1                 0.0000
     30 ****        -3.8458   2.8600   4.0587 H              1 S1                 0.0000
     31 ****        -2.8362   1.0260   2.7087 H              1 S1                 0.0000
     32 ****        -2.4326  -0.5173   0.8327 H              1 S1                 0.0000
     33 ****        -2.2334  -0.6407  -0.8918 H              1 S1                 0.0000
     34 ****         0.0394   0.4185  -0.7218 H              1 S1                 0.0000
     35 ****        -0.4724   0.3262   2.0545 H              1 S1                 0.0000
     36 ****        -0.0491  -1.8169   1.3612 H              1 S1                 0.0000
     37 ****        -0.3804  -2.1450  -0.3324 H              1 S1                 0.0000
     38 ****         1.9766  -3.0871   1.2080 H              1 S1                 0.0000
     39 ****         1.5992  -3.4709  -0.4669 H              1 S1                 0.0000
     40 ****         3.5790  -0.8522  -1.1997 H              1 S1                 0.0000
     41 ****         5.9895  -0.9075  -1.7454 H              1 S1                 0.0000
     42 ****         7.3905  -2.8387  -1.0388 H              1 S1                 0.0000
     43 ****         6.3636  -4.7238   0.2177 H              1 S1                 0.0000
     44 ****        -1.7709   3.1850  -3.5350 LP             1 S1                 0.0000
     45 ****        -3.2965   2.6749  -3.8160 LP             1 S1                 0.0000
     46 ****        -3.4153   3.9044  -1.8782 LP             1 S1                 0.0000
     47 ****        -0.4381   1.6603   1.1895 LP             1 S1                 0.0000
     48 ****         0.9088   0.7605   1.3966 LP             1 S1                 0.0000
     49 ****         1.9826  -0.8261   0.6314 LP             1 S1                 0.0000
     50 ****         1.6221  -1.1758  -0.9225 LP             1 S1                 0.0000
@<TRIPOS>BOND
    1    1    2 1     
    2    1   25 1     
    3    2    3 1     
    4    2   26 1     
    5    2   27 1     
    6    3   11 1     
    7    3    4 2     
    8    4    5 1     
    9    5   10 ar    
   10    5    6 ar    
   11    6    7 ar    
   12    6   28 1     
   13    7    8 ar    
   14    7   29 1     
   15    8    9 ar    
   16    8   30 1     
   17    9   10 ar    
   18    9   31 1     
   19   10   11 1     
   20   11   12 1     
   21   12   13 1     
   22   12   32 1     
   23   12   33 1     
   24   13   14 1     
   25   13   15 1     
   26   13   34 1     
   27   14   35 1     
   28   15   16 1     
   29   15   36 1     
   30   15   37 1     
   31   16   17 1     
   32   17   18 1     
   33   17   38 1     
   34   17   39 1     
   35   18   23 ar    
   36   18   19 ar    
   37   19   20 ar    
   38   19   40 1     
   39   20   21 ar    
   40   20   41 1     
   41   21   22 ar    
   42   21   42 1     
   43   22   23 ar    
   44   22   43 1     
   45   23   24 1     
   46    1   44 1     
   47    1   45 1     
   48    4   46 1     
   49   14   47 1     
   50   14   48 1     
   51   16   49 1     
   52   16   50 1     
@<TRIPOS>SUBSTRUCTURE
      1 S1             1
@<TRIPOS>SET
LONE_PAIRS      STATIC     ATOMS    <user>   **** ""
7 44 45 46 47 48 49 50
DONOR_HYDROGENS      STATIC     ATOMS    <user>   **** ""
2 25 35
ATOM$BLUE        STATIC     ATOMS    COLORGROUP SYSTEM
7 44 45 46 47 48 49 50
ATOM$RED        STATIC     ATOMS    COLORGROUP SYSTEM
2 25 35
