AV-unprocessed.smi:668|AV-procd|sdf|3261|dock6
  -GOLD-   22720 0213D 1   1.00000     0.00000
 Structure written by MMmdl.
 38 39  0  0  0  0  0  0  0  0  1 V2000
  153.1460  135.9455  157.5648 C   0  0  0  0  0  0  0  0  0  0  0  0
  152.4652  134.6958  157.5401 O   0  0  0  0  0  0  0  0  0  0  0  0
  151.5035  134.4928  156.5716 C   0  0  0  0  0  0  0  0  0  0  0  0
  150.8830  133.2307  156.4913 C   0  0  0  0  0  0  0  0  0  0  0  0
  149.8964  133.0162  155.5094 C   0  0  0  0  0  0  0  0  0  0  0  0
  149.5618  134.0756  154.6313 C   0  0  0  0  0  0  0  0  0  0  0  0
  148.5803  134.0065  153.6033 N   0  0  0  0  0  0  0  0  0  0  0  0
  147.5933  133.1126  153.4197 C   0  0  0  0  0  0  0  0  0  0  0  0
  147.3699  132.1322  154.1284 O   0  0  0  0  0  0  0  0  0  0  0  0
  146.8663  133.4180  152.3358 N   0  0  0  0  0  0  0  0  0  0  0  0
  145.7170  132.6536  151.8445 C   0  0  2  0  0  0  0  0  0  0  0  0
  146.0912  131.7699  150.6346 C   0  0  0  0  0  0  0  0  0  0  0  0
  145.0790  132.0775  149.5280 C   0  0  0  0  0  0  0  0  0  0  0  0
  143.8964  132.7352  150.2389 C   0  0  0  0  0  0  0  0  0  0  0  0
  144.5063  133.5261  151.4070 C   0  0  2  0  0  0  0  0  0  0  0  0
  144.8484  134.9681  150.9725 C   0  0  0  0  0  0  0  0  0  0  0  0
  143.8219  135.7788  150.7024 N   0  0  0  0  0  0  0  0  0  0  0  0
  146.0150  135.3474  150.8846 O   0  0  0  0  0  0  0  0  0  0  0  0
  150.2417  135.3003  154.7976 C   0  0  0  0  0  0  0  0  0  0  0  0
  151.1874  135.5129  155.7366 N   0  0  0  0  0  0  0  0  0  0  0  0
  153.8609  135.9509  158.3874 H   0  0  0  0  0  0  0  0  0  0  0  0
  152.4537  136.7738  157.7236 H   0  0  0  0  0  0  0  0  0  0  0  0
  153.7019  136.1150  156.6417 H   0  0  0  0  0  0  0  0  0  0  0  0
  151.1561  132.4402  157.1747 H   0  0  0  0  0  0  0  0  0  0  0  0
  149.4213  132.0499  155.4642 H   0  0  0  0  0  0  0  0  0  0  0  0
  148.6439  134.7339  152.9063 H   0  0  0  0  0  0  0  0  0  0  0  0
  147.1267  134.2352  151.8031 H   0  0  0  0  0  0  0  0  0  0  0  0
  145.3716  132.0024  152.6500 H   0  0  0  0  0  0  0  0  0  0  0  0
  147.1083  131.9459  150.2810 H   0  0  0  0  0  0  0  0  0  0  0  0
  146.0317  130.7185  150.9185 H   0  0  0  0  0  0  0  0  0  0  0  0
  145.5168  132.7758  148.8139 H   0  0  0  0  0  0  0  0  0  0  0  0
  144.7856  131.1862  148.9728 H   0  0  0  0  0  0  0  0  0  0  0  0
  143.3038  133.3506  149.5601 H   0  0  0  0  0  0  0  0  0  0  0  0
  143.2326  131.9645  150.6329 H   0  0  0  0  0  0  0  0  0  0  0  0
  143.7849  133.5833  152.2242 H   0  0  0  0  0  0  0  0  0  0  0  0
  143.9922  136.7321  150.4162 H   0  0  0  0  0  0  0  0  0  0  0  0
  142.8766  135.4345  150.7878 H   0  0  0  0  0  0  0  0  0  0  0  0
  150.0198  136.1409  154.1563 H   0  0  0  0  0  0  0  0  0  0  0  0
  1  2  1  0  0  0  0
  1 21  1  0  0  0  0
  1 22  1  0  0  0  0
  1 23  1  0  0  0  0
  2  3  1  0  0  0  0
  3 20  1  0  0  0  0
  3  4  2  0  0  0  0
  4  5  1  0  0  0  0
  4 24  1  0  0  0  0
  5  6  2  0  0  0  0
  5 25  1  0  0  0  0
  6  7  1  0  0  0  0
  6 19  1  0  0  0  0
  7  8  1  0  0  0  0
  7 26  1  0  0  0  0
  8  9  2  0  0  0  0
  8 10  1  0  0  0  0
 10 11  1  0  0  0  0
 10 27  1  0  0  0  0
 11 15  1  0  0  0  0
 11 12  1  0  0  0  0
 11 28  1  0  0  0  0
 12 13  1  0  0  0  0
 12 29  1  0  0  0  0
 12 30  1  0  0  0  0
 13 14  1  0  0  0  0
 13 31  1  0  0  0  0
 13 32  1  0  0  0  0
 14 15  1  0  0  0  0
 14 33  1  0  0  0  0
 14 34  1  0  0  0  0
 15 16  1  0  0  0  0
 15 35  1  0  0  0  0
 16 17  1  0  0  0  0
 16 18  2  0  0  0  0
 17 36  1  0  0  0  0
 17 37  1  0  0  0  0
 19 20  2  0  0  0  0
 19 38  1  0  0  0  0
M  END
> <s_m_source_file>
AV-unprocessed.smi

> <i_m_source_file_index>
668

> <i_lp_mmshare_version>
43012

> <i_f3d_flags>
0

> <s_epik_input>
W0NIM11PYzFbY0hdW2NIXWMoW2NIXW4xKVtOSF1DKD1PKVtOSF1bQ0BASF0yW0NIMl1bQ0gyXVtDSDJdW0NASF0yQyg9TylbTkgyXQ==

> <s_epik_cmdline>
J2VwaWtfcHl0aG9uJywgJy1waCcsICc3LjAnLCAnLXRuJywgJzgnLCAnLW1hJywgJzIwMCcsICctbWV0YWxfYmluZGluZycsICctaW1hZScsICc8aW5maWxlLm1hZT4nLCAnLW9tYWUnLCAnPG91dGZpbGUubWFlPic=

> <r_lp_tautomer_probability>
1

> <r_epik_Ionization_Penalty>
9.0916e-05

> <r_epik_Ionization_Penalty_Charging>
0

> <r_epik_Ionization_Penalty_Neutral>
9.0916e-05

> <r_epik_State_Penalty>
-0

> <r_epik_Charging_Adjusted_Penalty>
0

> <i_epik_Tot_Q>
0

> <i_epik_Tot_abs_Q>
0

> <r_epik_Metal_State_Penalty>
-0

> <b_epik_Metal_Only>
0

> <s_lp_Force_Field>
OPLS_2005

> <r_lp_Energy>
18.8655

> <b_lp_Chiralities_Consistent>
1

> <s_lp_Variant>
AV-unprocessed.smi:668-3

> <Gold.Version>
5.8.1

> <Gold.Id.Protein>
6NUR|6NUR_protein|mol2

> <Gold.PLP.Fitness>
40.2673

> <Gold.PLP.PLP>
-29.7375

> <Gold.PLP.part.hbond>
-4.0666

> <Gold.PLP.part.metal>
0.0000

> <Gold.PLP.part.buried>
-0.3883

> <Gold.PLP.part.nonpolar>
-25.1787

> <Gold.PLP.part.repulsive>
0.4271

> <Gold.PLP.ligand.clash>
0.0000

> <Gold.PLP.ligand.torsion>
0.4033

> <Gold.PLP.Chemscore.Hbond>
2.8664

> <Gold.PLP.Chemscore.CHOScore>
0.9072

> <Gold.PLP.Chemscore.Metal>
0.0000

> <Gold.Chemscore.Hbonds>
donor molecule, donor type, donor heavy atom, donor atom, acceptor molecule, acceptor atom, score
      L1  H     7    26       P1  7948  0.95
      L1  H    17    36       P1 10171  1.00
      P1  H 10752 10763       L1    20  0.79
      L1  C    19    38       P1  7948  0.95

> <Gold.PLP.Chemscore.Internal.Correction>
0.0156

> <Gold.Rescore>
     Score         DG    S(hbond)    S(metal)    S(lipo)     H(rot)  DE(clash)    DE(int)     intcor
     10.74     -14.08       1.76        0.00      63.96       1.86       0.23       3.11       ----

> <Gold.Chemscore.Fitness>
10.7433

> <Gold.Chemscore.DG>
-14.0819

> <Gold.Chemscore.ZeroCoef>
-5.4800

> <Gold.Chemscore.Hbond>
1.7642

> <Gold.Chemscore.Metal>
0.0000

> <Gold.Chemscore.Lipo>
63.9600

> <Gold.Chemscore.Internal_Hbond>
0.0000

> <Gold.Chemscore.DEClash>
0.2322

> <Gold.Chemscore.DEInternal>
3.1064

> <Gold.Chemscore.Rot>
1.8648

> <Gold.Chemscore.Internal.Correction>
   9.000000E+99

> <Gold.Chemscore.Hbonds>
donor molecule, donor type, donor heavy atom, donor atom, acceptor molecule, acceptor atom, score
      L1  H     7    26       P1  7948  0.22
      L1  H    17    36       P1 10171  0.99
      P1  H  6896  6909       L1     2  0.01
      P1  H 10752 10763       L1    20  0.06

> <Gold.Chemscore.Hbond.Weighted>
-5.8925

> <Gold.Chemscore.Metal.Weighted>
-0.0000

> <Gold.Chemscore.Lipo.Weighted>
-7.4833

> <Gold.Chemscore.Internal_Hbond.Weighted>
0.0000

> <Gold.Chemscore.DEClash.Weighted>
0.2322

> <Gold.Chemscore.DEInternal.Weighted>
3.1064

> <Gold.Chemscore.Rot.Weighted>
4.7739

> <Gold.Chemscore.Internal.Correction.Weighted>
   9.000000E+99

> <Gold.Protein.RotatedTorsions>
[ 6907 6896 6895 6894 ] final  -95.65 input  -60.11 | X-H torsion
[ 7974 7965 7964 7962 ] final   -8.38 input  175.53 | X-H torsion
[ 8008 7997 7996 7995 ] final  -20.04 input   59.86 | X-H torsion
[ 10167 10162 10161 10158 ] final  -97.04 input  -65.29 | X-H torsion
[ 10718 10713 10712 10709 ] final -165.21 input   66.30 | X-H torsion
[ 10763 10752 10751 10750 ] final   58.04 input  -60.55 | X-H torsion
[ 11005 11000 10999 10996 ] final   20.06 input  -57.11 | X-H torsion

> <Gold.Protein.ActiveResidues>
 VAL166  LYS551  ARG553  GLY616  TRP617  ASP618  TYR619  PRO620  LYS621  CYS622 
 ASP623  PHE694  ASN695  SER759  ASP760  ASP761  ALA762  ILE779  LEU786  VAL792 
 PHE793  MET794  SER795  GLU796  ALA797  LYS798  CYS799  TRP800  GLU811  SER814 

> <Gold.Protein.RotatedAtoms>
  150.6969  134.1624  159.4181 H   0  0  0  0  0  0  0  0  0  0  0  0  # atno 6907 bound_to 6896
  151.9604  135.0124  160.0556 H   0  0  0  0  0  0  0  0  0  0  0  0  # atno 6908 bound_to 6896
  152.1931  133.4752  159.5055 H   0  0  0  0  0  0  0  0  0  0  0  0  # atno 6909 bound_to 6896
  146.2282  140.2460  142.8345 H   0  0  0  0  0  0  0  0  0  0  0  0  # atno 7974 bound_to 7965
  154.4796  140.2072  155.9796 H   0  0  0  0  0  0  0  0  0  0  0  0  # atno 8008 bound_to 7997
  156.1144  140.3224  155.8087 H   0  0  0  0  0  0  0  0  0  0  0  0  # atno 8009 bound_to 7997
  155.4579  140.0522  157.2985 H   0  0  0  0  0  0  0  0  0  0  0  0  # atno 8010 bound_to 7997
  140.2876  143.3242  152.0379 H   0  0  0  0  0  0  0  0  0  0  0  0  # atno 10167 bound_to 10162
  156.6501  130.9004  151.3012 H   0  0  0  0  0  0  0  0  0  0  0  0  # atno 10718 bound_to 10713
  152.9862  135.5620  154.5488 H   0  0  0  0  0  0  0  0  0  0  0  0  # atno 10763 bound_to 10752
  154.4929  135.2793  155.1484 H   0  0  0  0  0  0  0  0  0  0  0  0  # atno 10764 bound_to 10752
  154.2946  135.6319  153.5452 H   0  0  0  0  0  0  0  0  0  0  0  0  # atno 10765 bound_to 10752
  140.4068  134.1660  155.7665 H   0  0  0  0  0  0  0  0  0  0  0  0  # atno 11005 bound_to 11000
  144.9448  140.8117  143.5608 LP  0  0  0  0  0  0  0  0  0  0  0  0  # atno 17320 bound_to 7965
  145.2415  139.2070  143.4990 LP  0  0  0  0  0  0  0  0  0  0  0  0  # atno 17321 bound_to 7965
  139.4946  144.6548  151.6597 LP  0  0  0  0  0  0  0  0  0  0  0  0  # atno 17342 bound_to 10162
  140.5759  144.0029  150.6242 LP  0  0  0  0  0  0  0  0  0  0  0  0  # atno 17343 bound_to 10162
  157.7143  130.9478  150.1200 LP  0  0  0  0  0  0  0  0  0  0  0  0  # atno 17370 bound_to 10713
  156.2091  130.3665  149.8693 LP  0  0  0  0  0  0  0  0  0  0  0  0  # atno 17371 bound_to 10713
  141.1836  133.8361  157.1168 LP  0  0  0  0  0  0  0  0  0  0  0  0  # atno 17394 bound_to 11000
  140.0296  134.9907  157.0755 LP  0  0  0  0  0  0  0  0  0  0  0  0  # atno 17395 bound_to 11000

$$$$
