AV-unprocessed.smi:1695|AV-procd|sdf|6793|dock8
  -GOLD-   22720 7553D 1   1.00000     0.00000
 Structure written by MMmdl.
 52 54  0  0  0  0  0  0  0  0  3 V2000
  152.5219  142.9547  160.5246 C   0  0  0  0  0  0  0  0  0  0  0  0
  152.0970  142.2466  159.2492 C   0  0  0  0  0  0  0  0  0  0  0  0
  151.1150  142.8547  158.4354 C   0  0  0  0  0  0  0  0  0  0  0  0
  150.7468  142.1829  157.2759 C   0  0  0  0  0  0  0  0  0  0  0  0
  149.8239  142.5153  156.2824 N   0  3  0  0  0  0  0  0  0  0  0  0
  149.8078  141.5405  155.3322 C   0  0  0  0  0  0  0  0  0  0  0  0
  150.7104  140.5911  155.7014 N   0  0  0  0  0  0  0  0  0  0  0  0
  151.0719  139.3361  155.0271 C   0  0  0  0  0  0  0  0  0  0  0  0
  149.8628  138.4071  154.7990 C   0  0  2  0  0  0  0  0  0  0  0  0
  150.3179  137.2818  154.0756 O   0  0  0  0  0  0  0  0  0  0  0  0
  148.7076  139.0685  154.0163 C   0  0  0  0  0  0  0  0  0  0  0  0
  147.7669  138.0769  153.4341 N   0  3  1  0  0  0  0  0  0  0  0  0
  147.0617  137.2649  154.4612 C   0  0  0  0  0  0  0  0  0  0  0  0
  146.1866  136.1749  153.8125 C   0  0  0  0  0  0  0  0  0  0  0  0
  145.1876  136.7297  152.7752 C   0  0  1  0  0  0  0  0  0  0  0  0
  143.9729  137.4195  153.4241 C   0  0  0  0  0  0  0  0  0  0  0  0
  143.0802  137.9750  152.6007 N   0  0  0  0  0  0  0  0  0  0  0  0
  143.8351  137.4545  154.6450 O   0  0  0  0  0  0  0  0  0  0  0  0
  145.9368  137.6459  151.7852 C   0  0  0  0  0  0  0  0  0  0  0  0
  146.8163  138.7033  152.4798 C   0  0  0  0  0  0  0  0  0  0  0  0
  151.3179  140.9471  156.9127 C   0  0  0  0  0  0  0  0  0  0  0  0
  152.2867  140.3342  157.7050 C   0  0  0  0  0  0  0  0  0  0  0  0
  152.6745  141.0018  158.8887 C   0  0  0  0  0  0  0  0  0  0  0  0
  153.7291  140.3562  159.7717 C   0  0  0  0  0  0  0  0  0  0  0  0
  152.0288  143.9217  160.6276 H   0  0  0  0  0  0  0  0  0  0  0  0
  153.5980  143.1296  160.5285 H   0  0  0  0  0  0  0  0  0  0  0  0
  152.2650  142.3547  161.3980 H   0  0  0  0  0  0  0  0  0  0  0  0
  150.6700  143.8018  158.7041 H   0  0  0  0  0  0  0  0  0  0  0  0
  149.1889  141.5236  154.4462 H   0  0  0  0  0  0  0  0  0  0  0  0
  151.5844  139.5593  154.0912 H   0  0  0  0  0  0  0  0  0  0  0  0
  151.8059  138.8384  155.6624 H   0  0  0  0  0  0  0  0  0  0  0  0
  149.5136  138.0583  155.7703 H   0  0  0  0  0  0  0  0  0  0  0  0
  149.7642  137.1602  153.3191 H   0  0  0  0  0  0  0  0  0  0  0  0
  148.1419  139.7502  154.6520 H   0  0  0  0  0  0  0  0  0  0  0  0
  149.1384  139.6820  153.2233 H   0  0  0  0  0  0  0  0  0  0  0  0
  147.7831  136.7804  155.1174 H   0  0  0  0  0  0  0  0  0  0  0  0
  146.4623  137.9158  155.0979 H   0  0  0  0  0  0  0  0  0  0  0  0
  146.8356  135.4487  153.3213 H   0  0  0  0  0  0  0  0  0  0  0  0
  145.6567  135.6203  154.5881 H   0  0  0  0  0  0  0  0  0  0  0  0
  144.8019  135.8814  152.2069 H   0  0  0  0  0  0  0  0  0  0  0  0
  142.2654  138.4398  152.9744 H   0  0  0  0  0  0  0  0  0  0  0  0
  143.2234  137.9282  151.6019 H   0  0  0  0  0  0  0  0  0  0  0  0
  146.5682  137.0291  151.1442 H   0  0  0  0  0  0  0  0  0  0  0  0
  145.2293  138.1390  151.1173 H   0  0  0  0  0  0  0  0  0  0  0  0
  146.2053  139.4415  152.9996 H   0  0  0  0  0  0  0  0  0  0  0  0
  147.3740  139.2476  151.7168 H   0  0  0  0  0  0  0  0  0  0  0  0
  152.7315  139.3887  157.4344 H   0  0  0  0  0  0  0  0  0  0  0  0
  154.0368  139.3852  159.3825 H   0  0  0  0  0  0  0  0  0  0  0  0
  153.3443  140.2023  160.7801 H   0  0  0  0  0  0  0  0  0  0  0  0
  154.6160  140.9875  159.8315 H   0  0  0  0  0  0  0  0  0  0  0  0
  148.3307  137.4394  152.8895 H   0  0  0  0  0  0  0  0  0  0  0  0
  149.2433  143.3440  156.2547 H   0  0  0  0  0  0  0  0  0  0  0  0
  1  2  1  0  0  0  0
  1 25  1  0  0  0  0
  1 26  1  0  0  0  0
  1 27  1  0  0  0  0
  2 23  1  0  0  0  0
  2  3  2  0  0  0  0
  3  4  1  0  0  0  0
  3 28  1  0  0  0  0
  4 21  2  0  0  0  0
  4  5  1  0  0  0  0
  5  6  2  0  0  0  0
  5 52  1  0  0  0  0
  6  7  1  0  0  0  0
  6 29  1  0  0  0  0
  7  8  1  0  0  0  0
  7 21  1  0  0  0  0
  8  9  1  0  0  0  0
  8 30  1  0  0  0  0
  8 31  1  0  0  0  0
  9 10  1  0  0  0  0
  9 11  1  0  0  0  0
  9 32  1  0  0  0  0
 10 33  1  0  0  0  0
 11 12  1  0  0  0  0
 11 34  1  0  0  0  0
 11 35  1  0  0  0  0
 12 20  1  0  0  0  0
 12 13  1  0  0  0  0
 12 51  1  0  0  0  0
 13 14  1  0  0  0  0
 13 36  1  0  0  0  0
 13 37  1  0  0  0  0
 14 15  1  0  0  0  0
 14 38  1  0  0  0  0
 14 39  1  0  0  0  0
 15 16  1  0  0  0  0
 15 19  1  0  0  0  0
 15 40  1  0  0  0  0
 16 17  1  0  0  0  0
 16 18  2  0  0  0  0
 17 41  1  0  0  0  0
 17 42  1  0  0  0  0
 19 20  1  0  0  0  0
 19 43  1  0  0  0  0
 19 44  1  0  0  0  0
 20 45  1  0  0  0  0
 20 46  1  0  0  0  0
 21 22  1  0  0  0  0
 22 23  2  0  0  0  0
 22 47  1  0  0  0  0
 23 24  1  0  0  0  0
 24 48  1  0  0  0  0
 24 49  1  0  0  0  0
 24 50  1  0  0  0  0
M  CHG  1   5   1
M  CHG  1  12   1
M  END
> <s_m_source_file>
AV-unprocessed.smi

> <i_m_source_file_index>
1695

> <i_lp_mmshare_version>
43012

> <i_f3d_flags>
0

> <s_epik_input>
W0NIM11jKFtjSF0xKWMoW0NIM10pW2NIXWMoYzEyKW4oW2NIXW4yKVtDSDJdW0NASF0oW09IXSlbQ0gyXU4zW0NIMl1bQ0gyXVtDSF0oQyg9TylbTkgyXSlbQ0gyXVtDSDJdMw==

> <s_epik_cmdline>
J2VwaWtfcHl0aG9uJywgJy1waCcsICc3LjAnLCAnLXRuJywgJzgnLCAnLW1hJywgJzIwMCcsICctbWV0YWxfYmluZGluZycsICctaW1hZScsICc8aW5maWxlLm1hZT4nLCAnLW9tYWUnLCAnPG91dGZpbGUubWFlPic=

> <r_epik_Ionization_Penalty>
1.20173

> <r_epik_Ionization_Penalty_Charging>
1.20172

> <r_epik_Ionization_Penalty_Neutral>
1.7852e-06

> <r_epik_State_Penalty>
1.28089

> <r_epik_Charging_Adjusted_Penalty>
2.48261

> <i_epik_Tot_Q>
2

> <i_epik_Tot_abs_Q>
2

> <r_epik_Metal_State_Penalty>
1.35652

> <b_epik_Metal_Only>
0

> <s_lp_Force_Field>
OPLS_2005

> <r_lp_Energy>
28.6872

> <b_lp_Chiralities_Consistent>
1

> <s_lp_Variant>
AV-unprocessed.smi:1695-5

> <Gold.Version>
5.8.1

> <Gold.Id.Protein>
6NUR|6NUR_protein|mol2

> <Gold.PLP.Fitness>
61.9782

> <Gold.PLP.PLP>
-44.4382

> <Gold.PLP.part.hbond>
-5.7031

> <Gold.PLP.part.metal>
0.0000

> <Gold.PLP.part.buried>
-2.1261

> <Gold.PLP.part.nonpolar>
-38.3616

> <Gold.PLP.part.repulsive>
0.2392

> <Gold.PLP.ligand.clash>
0.0000

> <Gold.PLP.ligand.torsion>
0.2623

> <Gold.PLP.Chemscore.Hbond>
6.0000

> <Gold.PLP.Chemscore.CHOScore>
0.0000

> <Gold.PLP.Chemscore.Metal>
0.0000

> <Gold.Chemscore.Hbonds>
donor molecule, donor type, donor heavy atom, donor atom, acceptor molecule, acceptor atom, score
      L1  H     5    52       P1  8028  2.00
      L1  H    10    33       P1  7948  1.00
      L1  H    12    51       P1  7948  2.00
      L1  H    17    42       P1 10171  1.00

> <Gold.PLP.Chemscore.Internal.Correction>
0.0646

> <Gold.Rescore>
     Score         DG    S(hbond)    S(metal)    S(lipo)     H(rot)  DE(clash)    DE(int)     intcor
     20.20     -21.72       3.36        0.00     106.60       2.91       0.18       1.34       ----

> <Gold.Chemscore.Fitness>
20.1975

> <Gold.Chemscore.DG>
-21.7183

> <Gold.Chemscore.ZeroCoef>
-5.4800

> <Gold.Chemscore.Hbond>
3.3599

> <Gold.Chemscore.Metal>
0.0000

> <Gold.Chemscore.Lipo>
106.6033

> <Gold.Chemscore.Internal_Hbond>
0.0000

> <Gold.Chemscore.DEClash>
0.1792

> <Gold.Chemscore.DEInternal>
1.3416

> <Gold.Chemscore.Rot>
2.9127

> <Gold.Chemscore.Internal.Correction>
   9.000000E+99

> <Gold.Chemscore.Hbonds>
donor molecule, donor type, donor heavy atom, donor atom, acceptor molecule, acceptor atom, score
      L1  H     5    52       P1  8028  0.90
      L1  H    10    33       P1  7948  0.55
      L1  H    12    51       P1  7948  1.00
      L1  H    17    42       P1 10171  0.62

> <Gold.Chemscore.Hbond.Weighted>
-11.2222

> <Gold.Chemscore.Metal.Weighted>
-0.0000

> <Gold.Chemscore.Lipo.Weighted>
-12.4726

> <Gold.Chemscore.Internal_Hbond.Weighted>
0.0000

> <Gold.Chemscore.DEClash.Weighted>
0.1792

> <Gold.Chemscore.DEInternal.Weighted>
1.3416

> <Gold.Chemscore.Rot.Weighted>
7.4565

> <Gold.Chemscore.Internal.Correction.Weighted>
   9.000000E+99

> <Gold.Protein.RotatedTorsions>
[ 6907 6896 6895 6894 ] final   33.16 input  -60.11 | X-H torsion
[ 7974 7965 7964 7962 ] final  135.93 input  175.53 | X-H torsion
[ 8008 7997 7996 7995 ] final  -38.19 input   59.86 | X-H torsion
[ 10167 10162 10161 10158 ] final  128.06 input  -65.29 | X-H torsion
[ 10718 10713 10712 10709 ] final  163.36 input   66.30 | X-H torsion
[ 10763 10752 10751 10750 ] final   62.00 input  -60.55 | X-H torsion
[ 11005 11000 10999 10996 ] final -120.50 input  -57.11 | X-H torsion

> <Gold.Protein.ActiveResidues>
 VAL166  LYS551  ARG553  GLY616  TRP617  ASP618  TYR619  PRO620  LYS621  CYS622 
 ASP623  PHE694  ASN695  SER759  ASP760  ASP761  ALA762  ILE779  LEU786  VAL792 
 PHE793  MET794  SER795  GLU796  ALA797  LYS798  CYS799  TRP800  GLU811  SER814 

> <Gold.Protein.RotatedAtoms>
  152.0846  134.9448  160.0572 H   0  0  0  0  0  0  0  0  0  0  0  0  # atno 6907 bound_to 6896
  152.0723  133.4108  159.4473 H   0  0  0  0  0  0  0  0  0  0  0  0  # atno 6908 bound_to 6896
  150.6836  134.2997  159.4745 H   0  0  0  0  0  0  0  0  0  0  0  0  # atno 6909 bound_to 6896
  144.9615  139.4705  143.5477 H   0  0  0  0  0  0  0  0  0  0  0  0  # atno 7974 bound_to 7965
  154.4041  140.1584  156.2659 H   0  0  0  0  0  0  0  0  0  0  0  0  # atno 8008 bound_to 7997
  155.8996  140.3434  155.5994 H   0  0  0  0  0  0  0  0  0  0  0  0  # atno 8009 bound_to 7997
  155.7464  140.0799  157.2212 H   0  0  0  0  0  0  0  0  0  0  0  0  # atno 8010 bound_to 7997
  139.5546  144.6839  151.4221 H   0  0  0  0  0  0  0  0  0  0  0  0  # atno 10167 bound_to 10162
  157.1095  131.0464  151.2463 H   0  0  0  0  0  0  0  0  0  0  0  0  # atno 10718 bound_to 10713
  152.9968  135.5480  154.6123 H   0  0  0  0  0  0  0  0  0  0  0  0  # atno 10763 bound_to 10752
  154.5441  135.2822  155.1071 H   0  0  0  0  0  0  0  0  0  0  0  0  # atno 10764 bound_to 10752
  154.2336  135.6429  153.5236 H   0  0  0  0  0  0  0  0  0  0  0  0  # atno 10765 bound_to 10752
  141.0139  134.0225  157.3377 H   0  0  0  0  0  0  0  0  0  0  0  0  # atno 11005 bound_to 11000
  146.3354  139.8768  142.8831 LP  0  0  0  0  0  0  0  0  0  0  0  0  # atno 17320 bound_to 7965
  145.2693  141.0103  143.3781 LP  0  0  0  0  0  0  0  0  0  0  0  0  # atno 17321 bound_to 7965
  140.6816  143.8068  150.7129 LP  0  0  0  0  0  0  0  0  0  0  0  0  # atno 17342 bound_to 10162
  140.1524  143.4346  152.2122 LP  0  0  0  0  0  0  0  0  0  0  0  0  # atno 17343 bound_to 10162
  157.4571  130.7632  149.7203 LP  0  0  0  0  0  0  0  0  0  0  0  0  # atno 17370 bound_to 10713
  155.9854  130.3983  150.3265 LP  0  0  0  0  0  0  0  0  0  0  0  0  # atno 17371 bound_to 10713
  139.9105  135.0189  156.7672 LP  0  0  0  0  0  0  0  0  0  0  0  0  # atno 17394 bound_to 11000
  140.6688  133.9578  155.7845 LP  0  0  0  0  0  0  0  0  0  0  0  0  # atno 17395 bound_to 11000

$$$$
