AV-unprocessed.smi:1233|AV-procd|sdf|5171|dock3
  -GOLD-   22720 4243D 1   1.00000     0.00000
 Structure written by MMmdl.
 38 39  0  0  0  0  0  0  0  0  1 V2000
  151.8369  145.7891  160.2026 C   0  0  0  0  0  0  0  0  0  0  0  0
  151.4377  144.6225  159.4915 O   0  0  0  0  0  0  0  0  0  0  0  0
  152.0602  143.4245  159.7868 C   0  0  0  0  0  0  0  0  0  0  0  0
  152.9362  143.3905  160.8226 N   0  0  0  0  0  0  0  0  0  0  0  0
  153.5473  142.2227  161.1095 C   0  0  0  0  0  0  0  0  0  0  0  0
  153.3279  141.0391  160.3812 C   0  0  0  0  0  0  0  0  0  0  0  0
  152.4199  141.0717  159.3066 C   0  0  0  0  0  0  0  0  0  0  0  0
  151.7573  142.2859  159.0042 C   0  0  0  0  0  0  0  0  0  0  0  0
  150.8369  142.4322  157.9302 N   0  0  0  0  0  0  0  0  0  0  0  0
  150.2271  141.4711  157.2163 C   0  0  0  0  0  0  0  0  0  0  0  0
  150.3794  140.2599  157.3760 O   0  0  0  0  0  0  0  0  0  0  0  0
  149.3967  141.9996  156.3048 N   0  0  0  0  0  0  0  0  0  0  0  0
  148.5211  141.2398  155.4105 C   0  0  2  0  0  0  0  0  0  0  0  0
  147.7097  140.2380  156.2707 C   0  0  0  0  0  0  0  0  0  0  0  0
  147.0317  139.0727  155.5153 C   0  0  0  0  0  0  0  0  0  0  0  0
  146.3184  139.4661  154.2057 C   0  0  0  0  0  0  0  0  0  0  0  0
  147.2010  140.0837  153.0901 C   0  0  0  0  0  0  0  0  0  0  0  0
  148.6427  139.9551  153.3030 N   0  0  0  0  0  0  0  0  0  0  0  0
  149.3267  140.4746  154.3365 C   0  0  0  0  0  0  0  0  0  0  0  0
  150.5438  140.3242  154.4400 O   0  0  0  0  0  0  0  0  0  0  0  0
  151.2491  146.6397  159.8577 H   0  0  0  0  0  0  0  0  0  0  0  0
  152.8885  146.0209  160.0281 H   0  0  0  0  0  0  0  0  0  0  0  0
  151.6658  145.6824  161.2747 H   0  0  0  0  0  0  0  0  0  0  0  0
  154.2371  142.2344  161.9404 H   0  0  0  0  0  0  0  0  0  0  0  0
  153.8475  140.1278  160.6378 H   0  0  0  0  0  0  0  0  0  0  0  0
  152.2610  140.1740  158.7294 H   0  0  0  0  0  0  0  0  0  0  0  0
  150.5413  143.3792  157.7429 H   0  0  0  0  0  0  0  0  0  0  0  0
  149.3325  143.0054  156.2508 H   0  0  0  0  0  0  0  0  0  0  0  0
  147.8364  141.9361  154.9241 H   0  0  0  0  0  0  0  0  0  0  0  0
  148.3495  139.8060  157.0421 H   0  0  0  0  0  0  0  0  0  0  0  0
  146.9425  140.7978  156.8071 H   0  0  0  0  0  0  0  0  0  0  0  0
  147.7677  138.2962  155.3025 H   0  0  0  0  0  0  0  0  0  0  0  0
  146.3106  138.6002  156.1828 H   0  0  0  0  0  0  0  0  0  0  0  0
  145.8442  138.5690  153.8060 H   0  0  0  0  0  0  0  0  0  0  0  0
  145.4987  140.1490  154.4306 H   0  0  0  0  0  0  0  0  0  0  0  0
  146.9571  139.6190  152.1344 H   0  0  0  0  0  0  0  0  0  0  0  0
  146.9595  141.1404  152.9668 H   0  0  0  0  0  0  0  0  0  0  0  0
  149.1630  139.4427  152.6055 H   0  0  0  0  0  0  0  0  0  0  0  0
  1  2  1  0  0  0  0
  1 21  1  0  0  0  0
  1 22  1  0  0  0  0
  1 23  1  0  0  0  0
  2  3  1  0  0  0  0
  3  8  1  0  0  0  0
  3  4  2  0  0  0  0
  4  5  1  0  0  0  0
  5  6  2  0  0  0  0
  5 24  1  0  0  0  0
  6  7  1  0  0  0  0
  6 25  1  0  0  0  0
  7  8  2  0  0  0  0
  7 26  1  0  0  0  0
  8  9  1  0  0  0  0
  9 10  1  0  0  0  0
  9 27  1  0  0  0  0
 10 11  2  0  0  0  0
 10 12  1  0  0  0  0
 12 13  1  0  0  0  0
 12 28  1  0  0  0  0
 13 19  1  0  0  0  0
 13 14  1  0  0  0  0
 13 29  1  0  0  0  0
 14 15  1  0  0  0  0
 14 30  1  0  0  0  0
 14 31  1  0  0  0  0
 15 16  1  0  0  0  0
 15 32  1  0  0  0  0
 15 33  1  0  0  0  0
 16 17  1  0  0  0  0
 16 34  1  0  0  0  0
 16 35  1  0  0  0  0
 17 18  1  0  0  0  0
 17 36  1  0  0  0  0
 17 37  1  0  0  0  0
 18 19  1  0  0  0  0
 18 38  1  0  0  0  0
 19 20  2  0  0  0  0
M  END
> <s_m_source_file>
AV-unprocessed.smi

> <i_m_source_file_index>
1233

> <i_lp_mmshare_version>
43012

> <i_f3d_flags>
0

> <s_epik_input>
W0NIM11PYzFuW2NIXVtjSF1bY0hdYzFbTkhdQyg9TylbTkhdW0NAQEhdMltDSDJdW0NIMl1bQ0gyXVtDSDJdW05IXUMyPU8=

> <s_epik_cmdline>
J2VwaWtfcHl0aG9uJywgJy1waCcsICc3LjAnLCAnLXRuJywgJzgnLCAnLW1hJywgJzIwMCcsICctbWV0YWxfYmluZGluZycsICctaW1hZScsICc8aW5maWxlLm1hZT4nLCAnLW9tYWUnLCAnPG91dGZpbGUubWFlPic=

> <r_lp_tautomer_probability>
1

> <r_epik_Ionization_Penalty>
8.308e-05

> <r_epik_Ionization_Penalty_Charging>
0

> <r_epik_Ionization_Penalty_Neutral>
8.308e-05

> <r_epik_State_Penalty>
-0

> <r_epik_Charging_Adjusted_Penalty>
0

> <i_epik_Tot_Q>
0

> <i_epik_Tot_abs_Q>
0

> <r_epik_Metal_State_Penalty>
-0

> <b_epik_Metal_Only>
0

> <s_lp_Force_Field>
OPLS_2005

> <r_lp_Energy>
19.4298

> <b_lp_Chiralities_Consistent>
1

> <s_lp_Variant>
AV-unprocessed.smi:1233-1

> <Gold.Version>
5.8.1

> <Gold.Id.Protein>
6NUR|6NUR_protein|mol2

> <Gold.PLP.Fitness>
41.1905

> <Gold.PLP.PLP>
-33.9815

> <Gold.PLP.part.hbond>
-2.7871

> <Gold.PLP.part.metal>
0.0000

> <Gold.PLP.part.buried>
-5.7661

> <Gold.PLP.part.nonpolar>
-25.8188

> <Gold.PLP.part.repulsive>
0.4348

> <Gold.PLP.ligand.clash>
0.0000

> <Gold.PLP.ligand.torsion>
0.1642

> <Gold.PLP.Chemscore.Hbond>
2.5120

> <Gold.PLP.Chemscore.CHOScore>
0.0000

> <Gold.PLP.Chemscore.Metal>
0.0000

> <Gold.Chemscore.Hbonds>
donor molecule, donor type, donor heavy atom, donor atom, acceptor molecule, acceptor atom, score
      L1  H    12    28       P1  8028  1.00
      L1  H    18    38       P1  7957  0.51
      P1  H  7989  7998       L1    20  1.00

> <Gold.PLP.Chemscore.Internal.Correction>
0.0014

> <Gold.Rescore>
     Score         DG    S(hbond)    S(metal)    S(lipo)     H(rot)  DE(clash)    DE(int)     intcor
     15.75     -18.75       2.69        0.00      65.20       1.31       0.07       2.93       ----

> <Gold.Chemscore.Fitness>
15.7528

> <Gold.Chemscore.DG>
-18.7457

> <Gold.Chemscore.ZeroCoef>
-5.4800

> <Gold.Chemscore.Hbond>
2.6912

> <Gold.Chemscore.Metal>
0.0000

> <Gold.Chemscore.Lipo>
65.1986

> <Gold.Chemscore.Internal_Hbond>
0.0000

> <Gold.Chemscore.DEClash>
0.0667

> <Gold.Chemscore.DEInternal>
2.9262

> <Gold.Chemscore.Rot>
1.3090

> <Gold.Chemscore.Internal.Correction>
   9.000000E+99

> <Gold.Chemscore.Hbonds>
donor molecule, donor type, donor heavy atom, donor atom, acceptor molecule, acceptor atom, score
      L1  H    12    28       P1  8028  1.00
      L1  H    18    38       P1  7957  0.50
      P1  H  7989  7998       L1    20  0.92

> <Gold.Chemscore.Hbond.Weighted>
-8.9885

> <Gold.Chemscore.Metal.Weighted>
-0.0000

> <Gold.Chemscore.Lipo.Weighted>
-7.6282

> <Gold.Chemscore.Internal_Hbond.Weighted>
0.0000

> <Gold.Chemscore.DEClash.Weighted>
0.0667

> <Gold.Chemscore.DEInternal.Weighted>
2.9262

> <Gold.Chemscore.Rot.Weighted>
3.3509

> <Gold.Chemscore.Internal.Correction.Weighted>
   9.000000E+99

> <Gold.Protein.RotatedTorsions>
[ 6907 6896 6895 6894 ] final -172.19 input  -60.11 | X-H torsion
[ 7974 7965 7964 7962 ] final   47.37 input  175.53 | X-H torsion
[ 8008 7997 7996 7995 ] final   95.86 input   59.86 | X-H torsion
[ 10167 10162 10161 10158 ] final -138.85 input  -65.29 | X-H torsion
[ 10718 10713 10712 10709 ] final   -8.93 input   66.30 | X-H torsion
[ 10763 10752 10751 10750 ] final  136.62 input  -60.55 | X-H torsion
[ 11005 11000 10999 10996 ] final   -6.57 input  -57.11 | X-H torsion

> <Gold.Protein.ActiveResidues>
 VAL166  LYS551  ARG553  GLY616  TRP617  ASP618  TYR619  PRO620  LYS621  CYS622 
 ASP623  PHE694  ASN695  SER759  ASP760  ASP761  ALA762  ILE779  LEU786  VAL792 
 PHE793  MET794  SER795  GLU796  ALA797  LYS798  CYS799  TRP800  GLU811  SER814 

> <Gold.Protein.RotatedAtoms>
  151.5360  133.3441  159.2926 H   0  0  0  0  0  0  0  0  0  0  0  0  # atno 6907 bound_to 6896
  150.8565  134.7907  159.7060 H   0  0  0  0  0  0  0  0  0  0  0  0  # atno 6908 bound_to 6896
  152.4597  134.5221  159.9837 H   0  0  0  0  0  0  0  0  0  0  0  0  # atno 6909 bound_to 6896
  146.0304  139.4756  142.9841 H   0  0  0  0  0  0  0  0  0  0  0  0  # atno 7974 bound_to 7965
  156.0734  140.3280  155.7604 H   0  0  0  0  0  0  0  0  0  0  0  0  # atno 8008 bound_to 7997
  155.5269  140.0590  157.2913 H   0  0  0  0  0  0  0  0  0  0  0  0  # atno 8009 bound_to 7997
  154.4542  140.1934  156.0445 H   0  0  0  0  0  0  0  0  0  0  0  0  # atno 8010 bound_to 7997
  139.8437  143.7288  152.2662 H   0  0  0  0  0  0  0  0  0  0  0  0  # atno 10167 bound_to 10162
  156.6955  130.5077  149.5931 H   0  0  0  0  0  0  0  0  0  0  0  0  # atno 10718 bound_to 10713
  153.8595  135.3069  155.3437 H   0  0  0  0  0  0  0  0  0  0  0  0  # atno 10763 bound_to 10752
  154.7855  135.4812  153.9939 H   0  0  0  0  0  0  0  0  0  0  0  0  # atno 10764 bound_to 10752
  153.1470  135.6835  153.9034 H   0  0  0  0  0  0  0  0  0  0  0  0  # atno 10765 bound_to 10752
  140.7034  133.8970  155.8699 H   0  0  0  0  0  0  0  0  0  0  0  0  # atno 11005 bound_to 11000
  145.7050  141.0124  143.1484 LP  0  0  0  0  0  0  0  0  0  0  0  0  # atno 17320 bound_to 7965
  144.7028  139.8690  143.7439 LP  0  0  0  0  0  0  0  0  0  0  0  0  # atno 17321 bound_to 7965
  139.7533  144.7528  151.0473 LP  0  0  0  0  0  0  0  0  0  0  0  0  # atno 17342 bound_to 10162
  140.7795  143.4834  150.9988 LP  0  0  0  0  0  0  0  0  0  0  0  0  # atno 17343 bound_to 10162
  156.1767  130.6472  151.0902 LP  0  0  0  0  0  0  0  0  0  0  0  0  # atno 17370 bound_to 10713
  157.6993  131.0782  150.6871 LP  0  0  0  0  0  0  0  0  0  0  0  0  # atno 17371 bound_to 10713
  141.0145  134.0975  157.4187 LP  0  0  0  0  0  0  0  0  0  0  0  0  # atno 17394 bound_to 11000
  139.8890  135.0102  156.6657 LP  0  0  0  0  0  0  0  0  0  0  0  0  # atno 17395 bound_to 11000

$$$$
