AV-unprocessed.smi:2895|AV-procd|sdf|11128|dock1
  -GOLD-   2272016 03D 1   1.00000     0.00000
 Structure written by MMmdl.
 53 56  0  0  0  0  0  0  0  0  2 V2000
  149.3405  141.5636  153.8531 O   0  0  0  0  0  0  0  0  0  0  0  0
  149.0878  140.7206  154.7147 C   0  0  0  0  0  0  0  0  0  0  0  0
  149.7842  140.6440  155.8617 N   0  0  0  0  0  0  0  0  0  0  0  0
  150.9014  141.5067  156.2291 C   0  0  0  0  0  0  0  0  0  0  0  0
  151.5905  141.0295  157.5184 C   0  0  0  0  0  0  0  0  0  0  0  0
  152.0609  142.1868  158.3776 C   0  0  0  0  0  0  0  0  0  0  0  0
  152.6005  141.9570  159.6601 C   0  0  0  0  0  0  0  0  0  0  0  0
  153.0253  143.0663  160.4186 C   0  0  0  0  0  0  0  0  0  0  0  0
  152.9419  144.3408  159.9795 N   0  0  0  0  0  0  0  0  0  0  0  0
  152.4242  144.5525  158.7504 C   0  0  0  0  0  0  0  0  0  0  0  0
  151.9717  143.5146  157.9114 C   0  0  0  0  0  0  0  0  0  0  0  0
  148.0734  139.8253  154.6018 N   0  0  0  0  0  0  0  0  0  0  0  0
  147.9164  138.5831  155.3757 C   0  0  0  0  0  0  0  0  0  0  0  0
  148.1225  137.3692  154.4445 C   0  0  0  0  0  0  0  0  0  0  0  0
  147.2220  137.4073  153.2558 N   0  3  0  0  0  0  0  0  0  0  0  0
  145.8287  136.9539  153.5512 C   0  0  2  0  0  0  0  0  0  0  0  0
  145.7290  135.4788  154.0128 C   0  0  0  0  0  0  0  0  0  0  0  0
  144.6250  134.8992  153.1080 C   0  0  2  0  0  0  0  0  0  0  0  0
  145.2048  134.6760  151.7009 C   0  0  0  0  0  0  0  0  0  0  0  0
  145.3714  136.1134  151.1772 C   0  0  0  0  0  0  0  0  0  0  0  0
  144.8495  136.9730  152.3493 C   0  0  1  0  0  0  0  0  0  0  0  0
  143.7172  136.1020  152.8831 C   0  0  0  0  0  0  0  0  0  0  0  0
  147.3086  138.7196  152.5530 C   0  0  0  0  0  0  0  0  0  0  0  0
  147.0897  139.9024  153.5158 C   0  0  0  0  0  0  0  0  0  0  0  0
  149.5133  139.9413  156.5341 H   0  0  0  0  0  0  0  0  0  0  0  0
  151.6174  141.5593  155.4070 H   0  0  0  0  0  0  0  0  0  0  0  0
  150.5143  142.5164  156.3687 H   0  0  0  0  0  0  0  0  0  0  0  0
  150.9082  140.4061  158.0981 H   0  0  0  0  0  0  0  0  0  0  0  0
  152.4514  140.4032  157.2805 H   0  0  0  0  0  0  0  0  0  0  0  0
  152.6893  140.9555  160.0549 H   0  0  0  0  0  0  0  0  0  0  0  0
  153.4437  142.9254  161.4042 H   0  0  0  0  0  0  0  0  0  0  0  0
  152.3687  145.5807  158.4248 H   0  0  0  0  0  0  0  0  0  0  0  0
  151.5666  143.7369  156.9349 H   0  0  0  0  0  0  0  0  0  0  0  0
  148.5965  138.4990  156.2228 H   0  0  0  0  0  0  0  0  0  0  0  0
  146.9172  138.5641  155.8117 H   0  0  0  0  0  0  0  0  0  0  0  0
  149.1520  137.3709  154.0838 H   0  0  0  0  0  0  0  0  0  0  0  0
  148.0080  136.4422  155.0052 H   0  0  0  0  0  0  0  0  0  0  0  0
  145.4132  137.5928  154.3315 H   0  0  0  0  0  0  0  0  0  0  0  0
  146.6597  134.9221  153.8960 H   0  0  0  0  0  0  0  0  0  0  0  0
  145.4424  135.4281  155.0641 H   0  0  0  0  0  0  0  0  0  0  0  0
  144.1334  134.0183  153.5224 H   0  0  0  0  0  0  0  0  0  0  0  0
  146.1462  134.1258  151.7191 H   0  0  0  0  0  0  0  0  0  0  0  0
  144.5048  134.1191  151.0765 H   0  0  0  0  0  0  0  0  0  0  0  0
  146.4030  136.3404  150.9080 H   0  0  0  0  0  0  0  0  0  0  0  0
  144.7592  136.2649  150.2872 H   0  0  0  0  0  0  0  0  0  0  0  0
  144.5287  137.9723  152.0540 H   0  0  0  0  0  0  0  0  0  0  0  0
  142.9291  135.9186  152.1503 H   0  0  0  0  0  0  0  0  0  0  0  0
  143.2685  136.4847  153.8017 H   0  0  0  0  0  0  0  0  0  0  0  0
  148.3058  138.7991  152.1181 H   0  0  0  0  0  0  0  0  0  0  0  0
  146.6235  138.7764  151.7088 H   0  0  0  0  0  0  0  0  0  0  0  0
  146.0843  139.8730  153.9374 H   0  0  0  0  0  0  0  0  0  0  0  0
  147.1442  140.8400  152.9610 H   0  0  0  0  0  0  0  0  0  0  0  0
  147.5818  136.7227  152.6060 H   0  0  0  0  0  0  0  0  0  0  0  0
  1  2  2  0  0  0  0
  2  3  1  0  0  0  0
  2 12  1  0  0  0  0
  3  4  1  0  0  0  0
  3 25  1  0  0  0  0
  4  5  1  0  0  0  0
  4 26  1  0  0  0  0
  4 27  1  0  0  0  0
  5  6  1  0  0  0  0
  5 28  1  0  0  0  0
  5 29  1  0  0  0  0
  6 11  1  0  0  0  0
  6  7  2  0  0  0  0
  7  8  1  0  0  0  0
  7 30  1  0  0  0  0
  8  9  2  0  0  0  0
  8 31  1  0  0  0  0
  9 10  1  0  0  0  0
 10 11  2  0  0  0  0
 10 32  1  0  0  0  0
 11 33  1  0  0  0  0
 12 24  1  0  0  0  0
 12 13  1  0  0  0  0
 13 14  1  0  0  0  0
 13 34  1  0  0  0  0
 13 35  1  0  0  0  0
 14 15  1  0  0  0  0
 14 36  1  0  0  0  0
 14 37  1  0  0  0  0
 15 16  1  0  0  0  0
 15 23  1  0  0  0  0
 15 53  1  0  0  0  0
 16 21  1  0  0  0  0
 16 17  1  0  0  0  0
 16 38  1  0  0  0  0
 17 18  1  0  0  0  0
 17 39  1  0  0  0  0
 17 40  1  0  0  0  0
 18 22  1  0  0  0  0
 18 19  1  0  0  0  0
 18 41  1  0  0  0  0
 19 20  1  0  0  0  0
 19 42  1  0  0  0  0
 19 43  1  0  0  0  0
 20 21  1  0  0  0  0
 20 44  1  0  0  0  0
 20 45  1  0  0  0  0
 21 22  1  0  0  0  0
 21 46  1  0  0  0  0
 22 47  1  0  0  0  0
 22 48  1  0  0  0  0
 23 24  1  0  0  0  0
 23 49  1  0  0  0  0
 23 50  1  0  0  0  0
 24 51  1  0  0  0  0
 24 52  1  0  0  0  0
M  CHG  1  15   1
M  END
> <s_m_source_file>
AV-unprocessed.smi

> <i_m_source_file_index>
2895

> <i_lp_mmshare_version>
43012

> <i_f3d_flags>
0

> <s_epik_input>
W0NIMl0xW0NIMl1bQ0BASF0oW0NIMl0yKVtDQEBIXShbQ0gyXVtDQEhdMTIpTihbQ0gyXVtDSDJdMylbQ0gyXVtDSDJdTjNDKD1PKVtOSF1bQ0gyXVtDSDJdYzRbY0hdW2NIXW5bY0hdW2NIXTQ=

> <s_epik_cmdline>
J2VwaWtfcHl0aG9uJywgJy1waCcsICc3LjAnLCAnLXRuJywgJzgnLCAnLW1hJywgJzIwMCcsICctbWV0YWxfYmluZGluZycsICctaW1hZScsICc8aW5maWxlLm1hZT4nLCAnLW9tYWUnLCAnPG91dGZpbGUubWFlPic=

> <r_epik_Ionization_Penalty>
0.0566172

> <r_epik_Ionization_Penalty_Charging>
0.00262064

> <r_epik_Ionization_Penalty_Neutral>
0.0539965

> <r_epik_State_Penalty>
0.0463959

> <r_epik_Charging_Adjusted_Penalty>
0.0490165

> <i_epik_Tot_Q>
1

> <i_epik_Tot_abs_Q>
1

> <r_epik_Metal_State_Penalty>
0.0424856

> <b_epik_Metal_Only>
0

> <s_lp_Force_Field>
OPLS_2005

> <r_lp_Energy>
99.7754

> <b_lp_Chiralities_Consistent>
1

> <s_lp_Variant>
AV-unprocessed.smi:2895-1

> <Gold.Version>
5.8.1

> <Gold.Id.Protein>
6NUR|6NUR_protein|mol2

> <Gold.PLP.Fitness>
47.2904

> <Gold.PLP.PLP>
-40.4635

> <Gold.PLP.part.hbond>
-3.0000

> <Gold.PLP.part.metal>
0.0000

> <Gold.PLP.part.buried>
0.7379

> <Gold.PLP.part.nonpolar>
-37.4813

> <Gold.PLP.part.repulsive>
0.3818

> <Gold.PLP.ligand.clash>
0.0000

> <Gold.PLP.ligand.torsion>
0.4652

> <Gold.PLP.Chemscore.Hbond>
2.5120

> <Gold.PLP.Chemscore.CHOScore>
0.0000

> <Gold.PLP.Chemscore.Metal>
0.0000

> <Gold.Chemscore.Hbonds>
donor molecule, donor type, donor heavy atom, donor atom, acceptor molecule, acceptor atom, score
      L1  H    15    53       P1  7948  1.73
      P1  H  7989  7998       L1     1  0.02
      P1  H  8011  8017       L1     1  0.69

> <Gold.PLP.Chemscore.Internal.Correction>
0.2214

> <Gold.Rescore>
     Score         DG    S(hbond)    S(metal)    S(lipo)     H(rot)  DE(clash)    DE(int)     intcor
     19.51     -20.23       1.52        0.00     112.81       1.37       0.04       0.67       ----

> <Gold.Chemscore.Fitness>
19.5133

> <Gold.Chemscore.DG>
-20.2253

> <Gold.Chemscore.ZeroCoef>
-5.4800

> <Gold.Chemscore.Hbond>
1.5155

> <Gold.Chemscore.Metal>
0.0000

> <Gold.Chemscore.Lipo>
112.8103

> <Gold.Chemscore.Internal_Hbond>
0.0000

> <Gold.Chemscore.DEClash>
0.0406

> <Gold.Chemscore.DEInternal>
0.6714

> <Gold.Chemscore.Rot>
1.3731

> <Gold.Chemscore.Internal.Correction>
   9.000000E+99

> <Gold.Chemscore.Hbonds>
donor molecule, donor type, donor heavy atom, donor atom, acceptor molecule, acceptor atom, score
      L1  H    15    53       P1  7948  0.84
      P1  H  8011  8017       L1     1  0.70

> <Gold.Chemscore.Hbond.Weighted>
-5.0616

> <Gold.Chemscore.Metal.Weighted>
-0.0000

> <Gold.Chemscore.Lipo.Weighted>
-13.1988

> <Gold.Chemscore.Internal_Hbond.Weighted>
0.0000

> <Gold.Chemscore.DEClash.Weighted>
0.0406

> <Gold.Chemscore.DEInternal.Weighted>
0.6714

> <Gold.Chemscore.Rot.Weighted>
3.5152

> <Gold.Chemscore.Internal.Correction.Weighted>
   9.000000E+99

> <Gold.Protein.RotatedTorsions>
[ 6907 6896 6895 6894 ] final  119.76 input  -60.11 | X-H torsion
[ 7974 7965 7964 7962 ] final  126.79 input  175.53 | X-H torsion
[ 8008 7997 7996 7995 ] final  -83.23 input   59.86 | X-H torsion
[ 10167 10162 10161 10158 ] final  -56.77 input  -65.29 | X-H torsion
[ 10718 10713 10712 10709 ] final  -90.66 input   66.30 | X-H torsion
[ 10763 10752 10751 10750 ] final   18.08 input  -60.55 | X-H torsion
[ 11005 11000 10999 10996 ] final  141.18 input  -57.11 | X-H torsion

> <Gold.Protein.ActiveResidues>
 VAL166  LYS551  ARG553  GLY616  TRP617  ASP618  TYR619  PRO620  LYS621  CYS622 
 ASP623  PHE694  ASN695  SER759  ASP760  ASP761  ALA762  ILE779  LEU786  VAL792 
 PHE793  MET794  SER795  GLU796  ALA797  LYS798  CYS799  TRP800  GLU811  SER814 

> <Gold.Protein.RotatedAtoms>
  152.4448  133.7516  159.6696 H   0  0  0  0  0  0  0  0  0  0  0  0  # atno 6907 bound_to 6896
  150.8346  133.8025  159.3091 H   0  0  0  0  0  0  0  0  0  0  0  0  # atno 6908 bound_to 6896
  151.5668  135.1066  160.0037 H   0  0  0  0  0  0  0  0  0  0  0  0  # atno 6909 bound_to 6896
  145.0577  139.3830  143.5021 H   0  0  0  0  0  0  0  0  0  0  0  0  # atno 7974 bound_to 7965
  154.6169  140.0622  156.9566 H   0  0  0  0  0  0  0  0  0  0  0  0  # atno 8008 bound_to 7997
  155.1881  140.3305  155.4345 H   0  0  0  0  0  0  0  0  0  0  0  0  # atno 8009 bound_to 7997
  156.2409  140.1886  156.6973 H   0  0  0  0  0  0  0  0  0  0  0  0  # atno 8010 bound_to 7997
  140.6297  143.2454  151.5272 H   0  0  0  0  0  0  0  0  0  0  0  0  # atno 10167 bound_to 10162
  155.9989  130.4918  150.5357 H   0  0  0  0  0  0  0  0  0  0  0  0  # atno 10718 bound_to 10713
  153.1281  135.6734  153.9224 H   0  0  0  0  0  0  0  0  0  0  0  0  # atno 10763 bound_to 10752
  153.8719  135.3068  155.3443 H   0  0  0  0  0  0  0  0  0  0  0  0  # atno 10764 bound_to 10752
  154.7682  135.4953  153.9678 H   0  0  0  0  0  0  0  0  0  0  0  0  # atno 10765 bound_to 10752
  140.0382  134.9318  157.0793 H   0  0  0  0  0  0  0  0  0  0  0  0  # atno 11005 bound_to 11000
  146.3522  140.0260  142.8654 LP  0  0  0  0  0  0  0  0  0  0  0  0  # atno 17320 bound_to 7965
  145.1447  140.9591  143.4468 LP  0  0  0  0  0  0  0  0  0  0  0  0  # atno 17321 bound_to 7965
  139.5513  144.2389  152.1535 LP  0  0  0  0  0  0  0  0  0  0  0  0  # atno 17342 bound_to 10162
  140.1629  144.5008  150.6622 LP  0  0  0  0  0  0  0  0  0  0  0  0  # atno 17343 bound_to 10162
  157.3300  131.0698  151.1868 LP  0  0  0  0  0  0  0  0  0  0  0  0  # atno 17370 bound_to 10713
  157.2752  130.6723  149.6038 LP  0  0  0  0  0  0  0  0  0  0  0  0  # atno 17371 bound_to 10713
  140.4112  134.1979  155.7163 LP  0  0  0  0  0  0  0  0  0  0  0  0  # atno 17394 bound_to 11000
  141.1869  133.8293  157.1052 LP  0  0  0  0  0  0  0  0  0  0  0  0  # atno 17395 bound_to 11000

$$$$
