AV-unprocessed.smi:290|AV-procd|sdf|2242|dock2
  -GOLD-   2262022123D 1   1.00000     0.00000
 Structure written by MMmdl.
 59 62  0  0  0  0  0  0  0  0  2 V2000
  151.7519  140.5014  157.2405 C   0  0  0  0  0  0  0  0  0  0  0  0
  151.8828  140.2284  155.7336 C   0  0  1  0  0  0  0  0  0  0  0  0
  153.0736  139.4710  155.5352 O   0  0  0  0  0  0  0  0  0  0  0  0
  152.9034  138.6400  154.4010 C   0  0  0  0  0  0  0  0  0  0  0  0
  151.4689  138.1603  154.5610 C   0  0  0  0  0  0  0  0  0  0  0  0
  150.7438  139.4050  155.0671 C   0  0  2  0  0  0  0  0  0  0  0  0
  150.2935  140.1328  153.9369 O   0  0  0  0  0  0  0  0  0  0  0  0
  149.5121  139.0891  155.9561 C   0  0  0  0  0  0  0  0  0  0  0  0
  148.5167  138.2561  155.2979 N   0  0  0  0  0  0  0  0  0  0  0  0
  148.1337  136.9869  155.6664 C   0  0  0  0  0  0  0  0  0  0  0  0
  147.2135  136.4450  154.9171 N   0  0  0  0  0  0  0  0  0  0  0  0
  146.9263  137.4178  153.9658 C   0  0  0  0  0  0  0  0  0  0  0  0
  146.0308  137.5002  152.8594 C   0  0  0  0  0  0  0  0  0  0  0  0
  145.1652  136.5178  152.4991 N   0  0  0  0  0  0  0  0  0  0  0  0
  144.2545  136.6480  151.3795 C   0  0  0  0  0  0  0  0  0  0  0  0
  143.8202  135.2132  151.1153 C   0  0  0  0  0  0  0  0  0  0  0  0
  143.7543  134.5807  152.5183 C   0  0  1  0  0  0  0  0  0  0  0  0
  143.9435  133.0961  152.5008 N   0  3  2  0  0  0  0  0  0  0  0  0
  145.3772  132.7227  152.3750 C   0  0  0  0  0  0  0  0  0  0  0  0
  143.0952  132.3859  151.5005 C   0  0  0  0  0  0  0  0  0  0  0  0
  143.6796  132.4015  150.0753 C   0  0  0  0  0  0  0  0  0  0  0  0
  142.6697  132.1059  149.1334 O   0  0  0  0  0  0  0  0  0  0  0  0
  144.8174  135.3713  153.3338 C   0  0  2  0  0  0  0  0  0  0  0  0
  144.2583  135.8288  154.7000 C   0  0  0  0  0  0  0  0  0  0  0  0
  146.0568  138.6398  152.1199 N   0  0  0  0  0  0  0  0  0  0  0  0
  146.8789  139.6409  152.4461 C   0  0  0  0  0  0  0  0  0  0  0  0
  147.7506  139.7088  153.4534 N   0  0  0  0  0  0  0  0  0  0  0  0
  147.7448  138.5620  154.1905 C   0  0  0  0  0  0  0  0  0  0  0  0
  142.7648  134.7930  152.9285 H   0  0  0  0  0  0  0  0  0  0  0  0
  145.7140  134.7649  153.4608 H   0  0  0  0  0  0  0  0  0  0  0  0
  150.8577  141.0833  157.4643 H   0  0  0  0  0  0  0  0  0  0  0  0
  152.6087  141.0698  157.6031 H   0  0  0  0  0  0  0  0  0  0  0  0
  151.7107  139.5748  157.8135 H   0  0  0  0  0  0  0  0  0  0  0  0
  152.0102  141.1840  155.2214 H   0  0  0  0  0  0  0  0  0  0  0  0
  153.0252  139.2269  153.4894 H   0  0  0  0  0  0  0  0  0  0  0  0
  153.6248  137.8227  154.3880 H   0  0  0  0  0  0  0  0  0  0  0  0
  151.0495  137.7452  153.6435 H   0  0  0  0  0  0  0  0  0  0  0  0
  151.4455  137.3781  155.3210 H   0  0  0  0  0  0  0  0  0  0  0  0
  149.8738  139.5323  153.3399 H   0  0  0  0  0  0  0  0  0  0  0  0
  149.8209  138.5683  156.8626 H   0  0  0  0  0  0  0  0  0  0  0  0
  149.0278  140.0113  156.2799 H   0  0  0  0  0  0  0  0  0  0  0  0
  148.5634  136.4708  156.5127 H   0  0  0  0  0  0  0  0  0  0  0  0
  143.4076  137.2723  151.6672 H   0  0  0  0  0  0  0  0  0  0  0  0
  144.7340  137.0882  150.5043 H   0  0  0  0  0  0  0  0  0  0  0  0
  142.8746  135.1637  150.5744 H   0  0  0  0  0  0  0  0  0  0  0  0
  144.5812  134.7150  150.5123 H   0  0  0  0  0  0  0  0  0  0  0  0
  145.7779  133.0394  151.4111 H   0  0  0  0  0  0  0  0  0  0  0  0
  145.5281  131.6489  152.4681 H   0  0  0  0  0  0  0  0  0  0  0  0
  145.9859  133.1745  153.1574 H   0  0  0  0  0  0  0  0  0  0  0  0
  142.9763  131.3382  151.7670 H   0  0  0  0  0  0  0  0  0  0  0  0
  142.0939  132.8189  151.5036 H   0  0  0  0  0  0  0  0  0  0  0  0
  144.0671  133.3962  149.8533 H   0  0  0  0  0  0  0  0  0  0  0  0
  144.5159  131.7152  149.9519 H   0  0  0  0  0  0  0  0  0  0  0  0
  141.9845  132.7531  149.2119 H   0  0  0  0  0  0  0  0  0  0  0  0
  143.9068  134.9916  155.3010 H   0  0  0  0  0  0  0  0  0  0  0  0
  143.4153  136.5087  154.5707 H   0  0  0  0  0  0  0  0  0  0  0  0
  145.0081  136.3520  155.2921 H   0  0  0  0  0  0  0  0  0  0  0  0
  146.8297  140.5128  151.8106 H   0  0  0  0  0  0  0  0  0  0  0  0
  143.6349  132.7672  153.4050 H   0  0  0  0  0  0  0  0  0  0  0  0
  1  2  1  0  0  0  0
  1 31  1  0  0  0  0
  1 32  1  0  0  0  0
  1 33  1  0  0  0  0
  2  6  1  0  0  0  0
  2  3  1  0  0  0  0
  2 34  1  0  0  0  0
  3  4  1  0  0  0  0
  4  5  1  0  0  0  0
  4 35  1  0  0  0  0
  4 36  1  0  0  0  0
  5  6  1  0  0  0  0
  5 37  1  0  0  0  0
  5 38  1  0  0  0  0
  6  7  1  0  0  0  0
  6  8  1  0  0  0  0
  7 39  1  0  0  0  0
  8  9  1  0  0  0  0
  8 40  1  0  0  0  0
  8 41  1  0  0  0  0
  9 28  1  0  0  0  0
  9 10  1  0  0  0  0
 10 11  2  0  0  0  0
 10 42  1  0  0  0  0
 11 12  1  0  0  0  0
 12 28  2  0  0  0  0
 12 13  1  0  0  0  0
 13 14  1  0  0  0  0
 13 25  2  0  0  0  0
 14 23  1  0  0  0  0
 14 15  1  0  0  0  0
 15 16  1  0  0  0  0
 15 43  1  0  0  0  0
 15 44  1  0  0  0  0
 16 17  1  0  0  0  0
 16 45  1  0  0  0  0
 16 46  1  0  0  0  0
 17 29  1  0  0  0  0
 17 18  1  0  0  0  0
 17 23  1  0  0  0  0
 18 19  1  0  0  0  0
 18 20  1  0  0  0  0
 18 59  1  0  0  0  0
 19 47  1  0  0  0  0
 19 48  1  0  0  0  0
 19 49  1  0  0  0  0
 20 21  1  0  0  0  0
 20 50  1  0  0  0  0
 20 51  1  0  0  0  0
 21 22  1  0  0  0  0
 21 52  1  0  0  0  0
 21 53  1  0  0  0  0
 22 54  1  0  0  0  0
 23 30  1  0  0  0  0
 23 24  1  0  0  0  0
 24 55  1  0  0  0  0
 24 56  1  0  0  0  0
 24 57  1  0  0  0  0
 25 26  1  0  0  0  0
 26 27  2  0  0  0  0
 26 58  1  0  0  0  0
 27 28  1  0  0  0  0
M  CHG  1  18   1
M  END
> <s_m_source_file>
AV-unprocessed.smi

> <i_m_source_file_index>
290

> <i_lp_mmshare_version>
43012

> <i_f3d_flags>
0

> <s_epik_input>
W0NIMl0xW0NIMl1PW0NAQEhdKFtDSDNdKVtDQEBdMShbT0hdKVtDSDJdbihbY0hdbjIpYyhjMjMpbltjSF1uYzNONFtDSDJdW0NIMl1bQ0BIXShbQ0BIXTRbQ0gzXSlOKFtDSDNdKVtDSDJdW0NIMl1bT0hd

> <s_epik_cmdline>
J2VwaWtfcHl0aG9uJywgJy1waCcsICc3LjAnLCAnLXRuJywgJzgnLCAnLW1hJywgJzIwMCcsICctbWV0YWxfYmluZGluZycsICctaW1hZScsICc8aW5maWxlLm1hZT4nLCAnLW9tYWUnLCAnPG91dGZpbGUubWFlPic=

> <r_lp_tautomer_probability>
1

> <r_epik_Ionization_Penalty>
0.0036983

> <r_epik_Ionization_Penalty_Charging>
0.0032725

> <r_epik_Ionization_Penalty_Neutral>
0.000425798

> <r_epik_State_Penalty>
-0

> <r_epik_Charging_Adjusted_Penalty>
0.0032725

> <i_epik_Tot_Q>
1

> <i_epik_Tot_abs_Q>
1

> <r_epik_Metal_State_Penalty>
-0

> <b_epik_Metal_Only>
0

> <s_lp_Force_Field>
OPLS_2005

> <r_lp_Energy>
64.6527

> <b_lp_Chiralities_Consistent>
1

> <s_lp_Variant>
AV-unprocessed.smi:290-28

> <Gold.Version>
5.8.1

> <Gold.Id.Protein>
6NUR|6NUR_protein|mol2

> <Gold.PLP.Fitness>
54.2162

> <Gold.PLP.PLP>
-36.7706

> <Gold.PLP.part.hbond>
-6.9732

> <Gold.PLP.part.metal>
0.0000

> <Gold.PLP.part.buried>
-2.4759

> <Gold.PLP.part.nonpolar>
-31.9830

> <Gold.PLP.part.repulsive>
1.8088

> <Gold.PLP.ligand.clash>
0.0000

> <Gold.PLP.ligand.torsion>
0.5488

> <Gold.PLP.Chemscore.Hbond>
5.9627

> <Gold.PLP.Chemscore.CHOScore>
0.1277

> <Gold.PLP.Chemscore.Metal>
0.0000

> <Gold.Chemscore.Hbonds>
donor molecule, donor type, donor heavy atom, donor atom, acceptor molecule, acceptor atom, score
      L1  H     7    39       P1  7957  0.20
      L1  H    18    59       P1 10957  2.00
      L1  H    22    54       P1 10186  1.00
      P1  H  7989  7998       L1     7  0.93
      P1  H  7997  8009       L1     3  1.00
      P1  H 10785 10796       L1    22  0.86
      L1  C    26    58       P1  7957  0.03

> <Gold.PLP.Chemscore.Internal.Correction>
0.2719

> <Gold.Rescore>
     Score         DG    S(hbond)    S(metal)    S(lipo)     H(rot)  DE(clash)    DE(int)     intcor
     12.91     -19.61       3.98        0.00      80.40       3.35       3.26       3.44       ----

> <Gold.Chemscore.Fitness>
12.9120

> <Gold.Chemscore.DG>
-19.6142

> <Gold.Chemscore.ZeroCoef>
-5.4800

> <Gold.Chemscore.Hbond>
3.9844

> <Gold.Chemscore.Metal>
0.0000

> <Gold.Chemscore.Lipo>
80.4004

> <Gold.Chemscore.Internal_Hbond>
0.0000

> <Gold.Chemscore.DEClash>
3.2599

> <Gold.Chemscore.DEInternal>
3.4423

> <Gold.Chemscore.Rot>
3.3518

> <Gold.Chemscore.Internal.Correction>
   9.000000E+99

> <Gold.Chemscore.Hbonds>
donor molecule, donor type, donor heavy atom, donor atom, acceptor molecule, acceptor atom, score
      L1  H     7    39       P1  7957  0.19
      L1  H    18    59       P1 10957  0.54
      L1  H    22    54       P1 10186  0.99
      P1  H  7989  7998       L1     7  0.30
      P1  H  7997  8009       L1     3  0.84
      P1  H 10785 10796       L1    22  0.19

> <Gold.Chemscore.Hbond.Weighted>
-13.3079

> <Gold.Chemscore.Metal.Weighted>
-0.0000

> <Gold.Chemscore.Lipo.Weighted>
-9.4068

> <Gold.Chemscore.Internal_Hbond.Weighted>
0.0000

> <Gold.Chemscore.DEClash.Weighted>
3.2599

> <Gold.Chemscore.DEInternal.Weighted>
3.4423

> <Gold.Chemscore.Rot.Weighted>
8.5806

> <Gold.Chemscore.Internal.Correction.Weighted>
   9.000000E+99

> <Gold.Protein.RotatedTorsions>
[ 6907 6896 6895 6894 ] final   17.74 input  -60.11 | X-H torsion
[ 7974 7965 7964 7962 ] final  -46.37 input  175.53 | X-H torsion
[ 8008 7997 7996 7995 ] final -159.10 input   59.86 | X-H torsion
[ 10167 10162 10161 10158 ] final   52.74 input  -65.29 | X-H torsion
[ 10718 10713 10712 10709 ] final  -90.28 input   66.30 | X-H torsion
[ 10763 10752 10751 10750 ] final  114.00 input  -60.55 | X-H torsion
[ 11005 11000 10999 10996 ] final -142.45 input  -57.11 | X-H torsion

> <Gold.Protein.ActiveResidues>
 VAL166  LYS551  ARG553  GLY616  TRP617  ASP618  TYR619  PRO620  LYS621  CYS622 
 ASP623  PHE694  ASN695  SER759  ASP760  ASP761  ALA762  ILE779  LEU786  VAL792 
 PHE793  MET794  SER795  GLU796  ALA797  LYS798  CYS799  TRP800  GLU811  SER814 

> <Gold.Protein.RotatedAtoms>
  151.8544  135.0546  160.0462 H   0  0  0  0  0  0  0  0  0  0  0  0  # atno 6907 bound_to 6896
  152.2711  133.5379  159.5448 H   0  0  0  0  0  0  0  0  0  0  0  0  # atno 6908 bound_to 6896
  150.7152  134.0612  159.3874 H   0  0  0  0  0  0  0  0  0  0  0  0  # atno 6909 bound_to 6896
  145.9726  140.7367  142.9403 H   0  0  0  0  0  0  0  0  0  0  0  0  # atno 7974 bound_to 7965
  155.7575  140.0835  157.2171 H   0  0  0  0  0  0  0  0  0  0  0  0  # atno 8008 bound_to 7997
  154.4006  140.1549  156.2851 H   0  0  0  0  0  0  0  0  0  0  0  0  # atno 8009 bound_to 7997
  155.8871  140.3417  155.5932 H   0  0  0  0  0  0  0  0  0  0  0  0  # atno 8010 bound_to 7997
  140.2482  144.3508  150.6357 H   0  0  0  0  0  0  0  0  0  0  0  0  # atno 10167 bound_to 10162
  155.9987  130.4904  150.5298 H   0  0  0  0  0  0  0  0  0  0  0  0  # atno 10718 bound_to 10713
  153.5007  135.3638  155.2538 H   0  0  0  0  0  0  0  0  0  0  0  0  # atno 10763 bound_to 10752
  154.8748  135.3999  154.3481 H   0  0  0  0  0  0  0  0  0  0  0  0  # atno 10764 bound_to 10752
  153.4117  135.7078  153.6421 H   0  0  0  0  0  0  0  0  0  0  0  0  # atno 10765 bound_to 10752
  140.8224  134.2615  157.4894 H   0  0  0  0  0  0  0  0  0  0  0  0  # atno 11005 bound_to 11000
  144.6841  140.2774  143.7297 LP  0  0  0  0  0  0  0  0  0  0  0  0  # atno 17320 bound_to 7965
  145.7884  139.1917  143.2117 LP  0  0  0  0  0  0  0  0  0  0  0  0  # atno 17321 bound_to 7965
  140.6061  143.2168  151.6978 LP  0  0  0  0  0  0  0  0  0  0  0  0  # atno 17342 bound_to 10162
  139.5055  144.3716  152.0464 LP  0  0  0  0  0  0  0  0  0  0  0  0  # atno 17343 bound_to 10162
  157.3249  131.0689  151.1904 LP  0  0  0  0  0  0  0  0  0  0  0  0  # atno 17370 bound_to 10713
  157.2805  130.6748  149.6063 LP  0  0  0  0  0  0  0  0  0  0  0  0  # atno 17371 bound_to 10713
  139.8708  134.9542  156.4169 LP  0  0  0  0  0  0  0  0  0  0  0  0  # atno 17394 bound_to 11000
  140.9085  133.7728  155.9764 LP  0  0  0  0  0  0  0  0  0  0  0  0  # atno 17395 bound_to 11000

$$$$
