#       Name:                AV-unprocessed.smi:1010
#       Creating user name   scv26
#       Creation time:       Fri Mar 27 02:36:08 2020


#       File generated by GOLD software.
#

@<TRIPOS>MOLECULE
AV-unprocessed.smi:1010
    61    63     1
SMALL
NO_CHARGES


@<TRIPOS>ATOM
      1 ****        -2.8844   0.5186   1.6948 C.3            1 S1                 0.0000
      2 ****        -1.6223  -0.0698   2.2104 N.4            1 S1                 1.0000
      3 ****        -1.3903   0.3648   3.6131 C.3            1 S1                 0.0000
      4 ****        -1.3983  -1.5412   1.9458 C.3            1 S1                 0.0000
      5 ****         0.1426  -1.8114   1.9498 C.3            1 S1                 0.0000
      6 ****         0.8612  -1.1288   0.8745 N.am           1 S1                 0.0000
      7 ****         1.4080   0.0926   0.9390 C.2            1 S1                 0.0000
      8 ****         1.3662   0.8056   1.9410 O.2            1 S1                 0.0000
      9 ****         1.9673   0.4318  -0.2331 N.am           1 S1                 0.0000
     10 ****         2.5205   1.6879  -0.6063 C.ar           1 S1                 0.0000
     11 ****         3.2329   2.4886   0.3194 C.ar           1 S1                 0.0000
     12 ****         3.8188   3.6895  -0.1164 C.ar           1 S1                 0.0000
     13 ****         3.6853   4.0413  -1.4699 C.ar           1 S1                 0.0000
     14 ****         3.0227   3.2829  -2.3660 N.ar           1 S1                 0.0000
     15 ****         2.4411   2.1283  -1.9584 C.ar           1 S1                 0.0000
     16 ****         1.7465   1.3808  -2.9370 N.3            1 S1                 0.0000
     17 ****         1.9385   1.6612  -4.3560 C.3            1 S1                 0.0000
     18 ****         0.7761   0.9635  -5.0564 C.3            1 S1                 0.0000
     19 ****        -0.3611   1.1447  -4.0558 C.3            1 S1                 0.0000
     20 ****         0.3392   1.0759  -2.6941 C.3            1 S1                 0.0000
     21 ****        -2.0964  -2.4141   3.0259 C.3            1 S1                 0.0000
     22 ****        -2.0860  -3.9194   2.6904 C.3            1 S1                 0.0000
     23 ****        -2.6555  -4.1511   1.4088 O.3            1 S1                 0.0000
     24 ****        -1.9464  -3.5058   0.3596 C.3            1 S1                 0.0000
     25 ****        -2.0007  -1.9835   0.5749 C.3            1 S1                 0.0000
     26 ****        -3.7570  -0.0033   2.0887 H              1 S1                 0.0000
     27 ****        -2.9195   0.5016   0.6058 H              1 S1                 0.0000
     28 ****        -2.9669   1.5673   1.9828 H              1 S1                 0.0000
     29 ****        -2.1986   0.0410   4.2696 H              1 S1                 0.0000
     30 ****        -1.3424   1.4529   3.6646 H              1 S1                 0.0000
     31 ****        -0.4516  -0.0080   4.0185 H              1 S1                 0.0000
     32 ****         0.5923  -1.5624   2.9107 H              1 S1                 0.0000
     33 ****         0.3574  -2.8705   1.8253 H              1 S1                 0.0000
     34 ****         0.9530  -1.6359   0.0058 H              1 S1                 0.0000
     35 ****         1.8585  -0.2304  -0.9875 H              1 S1                 0.0000
     36 ****         3.3586   2.1897   1.3490 H              1 S1                 0.0000
     37 ****         4.3688   4.3184   0.5677 H              1 S1                 0.0000
     38 ****         4.1271   4.9523  -1.8455 H              1 S1                 0.0000
     39 ****         1.8865   2.7331  -4.5503 H              1 S1                 0.0000
     40 ****         2.9036   1.2947  -4.7070 H              1 S1                 0.0000
     41 ****         0.5558   1.3854  -6.0373 H              1 S1                 0.0000
     42 ****         0.9964  -0.0974  -5.1827 H              1 S1                 0.0000
     43 ****        -0.8095   2.1303  -4.1888 H              1 S1                 0.0000
     44 ****        -1.1494   0.3997  -4.1660 H              1 S1                 0.0000
     45 ****         0.2634   0.0665  -2.2891 H              1 S1                 0.0000
     46 ****        -0.1132   1.7640  -1.9785 H              1 S1                 0.0000
     47 ****        -1.6303  -2.2758   4.0017 H              1 S1                 0.0000
     48 ****        -3.1349  -2.0997   3.1355 H              1 S1                 0.0000
     49 ****        -1.0791  -4.3349   2.7331 H              1 S1                 0.0000
     50 ****        -2.6722  -4.4641   3.4306 H              1 S1                 0.0000
     51 ****        -0.9244  -3.8792   0.2963 H              1 S1                 0.0000
     52 ****        -2.4262  -3.7610  -0.5854 H              1 S1                 0.0000
     53 ****        -3.0578  -1.7274   0.5143 H              1 S1                 0.0000
     54 ****        -1.5175  -1.4688  -0.2562 H              1 S1                 0.0000
     55 ****        -0.8975   0.3905   1.6776 H              1 S1                 0.0000
     56 ****         0.9053   0.4808   2.7668 LP             1 S1                 0.0000
     57 ****         1.7932   1.7098   1.9294 LP             1 S1                 0.0000
     58 ****         2.9608   3.5692  -3.3221 LP             1 S1                 0.0000
     59 ****         2.2913   0.5622  -2.7548 LP             1 S1                 0.0000
     60 ****        -3.5964  -3.8125   1.4125 LP             1 S1                 0.0000
     61 ****        -2.6563  -5.1357   1.2340 LP             1 S1                 0.0000
@<TRIPOS>BOND
    1    1    2 1     
    2    1   26 1     
    3    1   27 1     
    4    1   28 1     
    5    2    3 1     
    6    2    4 1     
    7    2   55 1     
    8    3   29 1     
    9    3   30 1     
   10    3   31 1     
   11    4   25 1     
   12    4    5 1     
   13    4   21 1     
   14    5    6 1     
   15    5   32 1     
   16    5   33 1     
   17    6    7 am    
   18    6   34 1     
   19    7    8 2     
   20    7    9 am    
   21    9   10 1     
   22    9   35 1     
   23   10   15 ar    
   24   10   11 ar    
   25   11   12 ar    
   26   11   36 1     
   27   12   13 ar    
   28   12   37 1     
   29   13   14 ar    
   30   13   38 1     
   31   14   15 ar    
   32   15   16 1     
   33   16   20 1     
   34   16   17 1     
   35   17   18 1     
   36   17   39 1     
   37   17   40 1     
   38   18   19 1     
   39   18   41 1     
   40   18   42 1     
   41   19   20 1     
   42   19   43 1     
   43   19   44 1     
   44   20   45 1     
   45   20   46 1     
   46   21   22 1     
   47   21   47 1     
   48   21   48 1     
   49   22   23 1     
   50   22   49 1     
   51   22   50 1     
   52   23   24 1     
   53   24   25 1     
   54   24   51 1     
   55   24   52 1     
   56   25   53 1     
   57   25   54 1     
   58    8   56 1     
   59    8   57 1     
   60   14   58 1     
   61   16   59 1     
   62   23   60 1     
   63   23   61 1     
@<TRIPOS>SUBSTRUCTURE
      1 S1             1
@<TRIPOS>SET
LONE_PAIRS      STATIC     ATOMS    <user>   **** ""
6 56 57 58 59 60 61
DONOR_HYDROGENS      STATIC     ATOMS    <user>   **** ""
3 55 34 35
ATOM$BLUE        STATIC     ATOMS    COLORGROUP SYSTEM
6 56 57 58 59 60 61
ATOM$RED        STATIC     ATOMS    COLORGROUP SYSTEM
3 55 34 35
