AV-unprocessed.smi:36|AV-procd|sdf|295|dock10
  -GOLD-   2262016 93D 1   1.00000     0.00000
 Structure written by MMmdl.
 63 66  0  0  0  0  0  0  0  0  2 V2000
  144.5147  134.5971  149.8226 C   0  0  0  0  0  0  0  0  0  0  0  0
  145.0685  133.8746  151.0619 C   0  0  0  0  0  0  0  0  0  0  0  0
  144.4332  132.4781  151.1733 C   0  0  0  0  0  0  0  0  0  0  0  0
  146.5971  133.7483  150.9548 C   0  0  0  0  0  0  0  0  0  0  0  0
  144.6230  134.8803  152.6235 Si  0  0  0  0  0  0  0  0  0  0  0  0
  142.7370  134.9783  152.8523 C   0  0  0  0  0  0  0  0  0  0  0  0
  145.4150  134.1266  154.1772 C   0  0  0  0  0  0  0  0  0  0  0  0
  145.2466  136.4425  152.4268 O   0  0  0  0  0  0  0  0  0  0  0  0
  145.0998  137.4810  153.3737 C   0  0  0  0  0  0  0  0  0  0  0  0
  146.3741  138.3359  153.3850 C   0  0  2  0  0  0  0  0  0  0  0  0
  146.1846  139.4691  154.2268 O   0  0  0  0  0  0  0  0  0  0  0  0
  146.9543  140.5418  153.7706 C   0  0  1  0  0  0  0  0  0  0  0  0
  147.9874  140.8496  154.8044 N   0  0  0  0  0  0  0  0  0  0  0  0
  147.9138  141.7105  155.8404 C   0  0  0  0  0  0  0  0  0  0  0  0
  148.9829  141.8141  156.6280 N   0  0  0  0  0  0  0  0  0  0  0  0
  149.8585  140.9173  156.0324 C   0  0  0  0  0  0  0  0  0  0  0  0
  151.1909  140.5268  156.3416 C   0  0  0  0  0  0  0  0  0  0  0  0
  151.8731  141.0244  157.3848 N   0  5  0  0  0  0  0  0  0  0  0  0
  151.6001  142.2741  157.8384 C   0  0  0  0  0  0  0  0  0  0  0  0
  151.0789  143.2055  157.2214 O   0  0  0  0  0  0  0  0  0  0  0  0
  152.0745  142.5135  159.2472 C   0  0  0  0  0  0  0  0  0  0  0  0
  151.6285  143.6555  159.9511 C   0  0  0  0  0  0  0  0  0  0  0  0
  152.0415  143.8866  161.2778 C   0  0  0  0  0  0  0  0  0  0  0  0
  152.8985  142.9728  161.9186 C   0  0  0  0  0  0  0  0  0  0  0  0
  153.3383  141.8250  161.2332 C   0  0  0  0  0  0  0  0  0  0  0  0
  152.9252  141.5929  159.9067 C   0  0  0  0  0  0  0  0  0  0  0  0
  151.7604  139.5936  155.5363 N   0  0  0  0  0  0  0  0  0  0  0  0
  151.0821  139.0914  154.4976 C   0  0  0  0  0  0  0  0  0  0  0  0
  149.8403  139.3711  154.0894 N   0  0  0  0  0  0  0  0  0  0  0  0
  149.2551  140.3033  154.8965 C   0  0  0  0  0  0  0  0  0  0  0  0
  147.6187  140.1044  152.4617 C   0  0  0  0  0  0  0  0  0  0  0  0
  146.7195  138.9625  152.0342 C   0  0  1  0  0  0  0  0  0  0  0  0
  147.4049  138.0658  151.1836 O   0  0  0  0  0  0  0  0  0  0  0  0
  144.7371  134.0447  148.9090 H   0  0  0  0  0  0  0  0  0  0  0  0
  144.9454  135.5928  149.7161 H   0  0  0  0  0  0  0  0  0  0  0  0
  143.4320  134.7117  149.8823 H   0  0  0  0  0  0  0  0  0  0  0  0
  143.3494  132.5434  151.2772 H   0  0  0  0  0  0  0  0  0  0  0  0
  144.8128  131.9349  152.0388 H   0  0  0  0  0  0  0  0  0  0  0  0
  144.6433  131.8743  150.2900 H   0  0  0  0  0  0  0  0  0  0  0  0
  146.8861  133.1740  150.0741 H   0  0  0  0  0  0  0  0  0  0  0  0
  147.0168  133.2455  151.8266 H   0  0  0  0  0  0  0  0  0  0  0  0
  147.0718  134.7268  150.8792 H   0  0  0  0  0  0  0  0  0  0  0  0
  142.3042  133.9920  153.0178 H   0  0  0  0  0  0  0  0  0  0  0  0
  142.2455  135.4033  151.9776 H   0  0  0  0  0  0  0  0  0  0  0  0
  142.4671  135.5965  153.7081 H   0  0  0  0  0  0  0  0  0  0  0  0
  145.0667  133.1090  154.3518 H   0  0  0  0  0  0  0  0  0  0  0  0
  145.1778  134.7081  155.0677 H   0  0  0  0  0  0  0  0  0  0  0  0
  146.5010  134.0895  154.0951 H   0  0  0  0  0  0  0  0  0  0  0  0
  144.2342  138.0892  153.1089 H   0  0  0  0  0  0  0  0  0  0  0  0
  144.9035  137.0580  154.3590 H   0  0  0  0  0  0  0  0  0  0  0  0
  147.2272  137.7654  153.7550 H   0  0  0  0  0  0  0  0  0  0  0  0
  146.3406  141.4386  153.6805 H   0  0  0  0  0  0  0  0  0  0  0  0
  147.0258  142.2961  156.0272 H   0  0  0  0  0  0  0  0  0  0  0  0
  150.9694  144.3665  159.4743 H   0  0  0  0  0  0  0  0  0  0  0  0
  151.6989  144.7654  161.8034 H   0  0  0  0  0  0  0  0  0  0  0  0
  153.2149  143.1498  162.9358 H   0  0  0  0  0  0  0  0  0  0  0  0
  153.9905  141.1192  161.7255 H   0  0  0  0  0  0  0  0  0  0  0  0
  153.2660  140.7000  159.4027 H   0  0  0  0  0  0  0  0  0  0  0  0
  151.6118  138.3582  153.9077 H   0  0  0  0  0  0  0  0  0  0  0  0
  147.6613  140.9253  151.7455 H   0  0  0  0  0  0  0  0  0  0  0  0
  148.6325  139.7497  152.6582 H   0  0  0  0  0  0  0  0  0  0  0  0
  145.8247  139.3468  151.5425 H   0  0  0  0  0  0  0  0  0  0  0  0
  147.7948  137.3864  151.7126 H   0  0  0  0  0  0  0  0  0  0  0  0
  1  2  1  0  0  0  0
  1 34  1  0  0  0  0
  1 35  1  0  0  0  0
  1 36  1  0  0  0  0
  2  3  1  0  0  0  0
  2  4  1  0  0  0  0
  2  5  1  0  0  0  0
  3 37  1  0  0  0  0
  3 38  1  0  0  0  0
  3 39  1  0  0  0  0
  4 40  1  0  0  0  0
  4 41  1  0  0  0  0
  4 42  1  0  0  0  0
  5  6  1  0  0  0  0
  5  7  1  0  0  0  0
  5  8  1  0  0  0  0
  6 43  1  0  0  0  0
  6 44  1  0  0  0  0
  6 45  1  0  0  0  0
  7 46  1  0  0  0  0
  7 47  1  0  0  0  0
  7 48  1  0  0  0  0
  8  9  1  0  0  0  0
  9 10  1  0  0  0  0
  9 49  1  0  0  0  0
  9 50  1  0  0  0  0
 10 32  1  0  0  0  0
 10 11  1  0  0  0  0
 10 51  1  0  0  0  0
 11 12  1  0  0  0  0
 12 13  1  0  0  0  0
 12 31  1  0  0  0  0
 12 52  1  0  0  0  0
 13 30  1  0  0  0  0
 13 14  1  0  0  0  0
 14 15  2  0  0  0  0
 14 53  1  0  0  0  0
 15 16  1  0  0  0  0
 16 30  2  0  0  0  0
 16 17  1  0  0  0  0
 17 18  1  0  0  0  0
 17 27  2  0  0  0  0
 18 19  1  0  0  0  0
 19 20  2  0  0  0  0
 19 21  1  0  0  0  0
 21 26  1  0  0  0  0
 21 22  2  0  0  0  0
 22 23  1  0  0  0  0
 22 54  1  0  0  0  0
 23 24  2  0  0  0  0
 23 55  1  0  0  0  0
 24 25  1  0  0  0  0
 24 56  1  0  0  0  0
 25 26  2  0  0  0  0
 25 57  1  0  0  0  0
 26 58  1  0  0  0  0
 27 28  1  0  0  0  0
 28 29  2  0  0  0  0
 28 59  1  0  0  0  0
 29 30  1  0  0  0  0
 31 32  1  0  0  0  0
 31 60  1  0  0  0  0
 31 61  1  0  0  0  0
 32 33  1  0  0  0  0
 32 62  1  0  0  0  0
 33 63  1  0  0  0  0
M  CHG  1  18  -1
M  END
> <s_m_source_file>
AV-unprocessed.smi

> <i_m_source_file_index>
36

> <i_lp_mmshare_version>
43012

> <i_f3d_flags>
0

> <s_epik_input>
W0NIM11DKFtDSDNdKShbQ0gzXSlbU2ldKFtDSDNdKShbQ0gzXSlPW0NIMl1bQ0BASF0xT1tDQEhdKFtDSDJdW0NASF0xW09IXSluKFtjSF1uMiljKGMyMyluW2NIXW5jM1tOSF1DKD1PKWM0W2NIXVtjSF1bY0hdW2NIXVtjSF00

> <s_epik_cmdline>
J2VwaWtfcHl0aG9uJywgJy1waCcsICc3LjAnLCAnLXRuJywgJzgnLCAnLW1hJywgJzIwMCcsICctbWV0YWxfYmluZGluZycsICctaW1hZScsICc8aW5maWxlLm1hZT4nLCAnLW9tYWUnLCAnPG91dGZpbGUubWFlPic=

> <r_lp_tautomer_probability>
1

> <r_epik_Ionization_Penalty>
4.75685

> <r_epik_Ionization_Penalty_Charging>
3.55822

> <r_epik_Ionization_Penalty_Neutral>
1.19863

> <r_epik_State_Penalty>
3.564

> <r_epik_Charging_Adjusted_Penalty>
7.12222

> <i_epik_Tot_Q>
-1

> <i_epik_Tot_abs_Q>
1

> <r_epik_Metal_State_Penalty>
0.523258

> <b_epik_Metal_Only>
1

> <s_epik_Chemistry_Notes>
This compound contains an acetal/aminal-like group ( X-CH(R)-Y where X, Y are N, S, or O) that may be acid/base labile, releasing an aldehyde.

> <s_lp_Force_Field>
OPLS_2005

> <r_lp_Energy>
36.9476

> <b_lp_Chiralities_Consistent>
1

> <s_lp_Variant>
AV-unprocessed.smi:36-17

> <Gold.Version>
5.8.1

> <Gold.Id.Protein>
6NUR|6NUR_protein|mol2

> <Gold.PLP.Fitness>
60.9494

> <Gold.PLP.PLP>
-57.7568

> <Gold.PLP.part.hbond>
-2.8389

> <Gold.PLP.part.metal>
0.0000

> <Gold.PLP.part.buried>
-1.9843

> <Gold.PLP.part.nonpolar>
-53.2036

> <Gold.PLP.part.repulsive>
1.6054

> <Gold.PLP.ligand.clash>
0.0000

> <Gold.PLP.ligand.torsion>
1.3860

> <Gold.PLP.Chemscore.Hbond>
1.8800

> <Gold.PLP.Chemscore.CHOScore>
0.0000

> <Gold.PLP.Chemscore.Metal>
0.0000

> <Gold.Chemscore.Hbonds>
donor molecule, donor type, donor heavy atom, donor atom, acceptor molecule, acceptor atom, score
      L1  H    33    63       P1  7948  0.91
      P1  H  7954  7966       L1    33  0.94

> <Gold.PLP.Chemscore.Internal.Correction>
0.3245

> <Gold.Rescore>
     Score         DG    S(hbond)    S(metal)    S(lipo)     H(rot)  DE(clash)    DE(int)     intcor
      8.26     -17.73       1.32        0.00     125.46       2.67       1.65       7.82       ----

> <Gold.Chemscore.Fitness>
8.2634

> <Gold.Chemscore.DG>
-17.7310

> <Gold.Chemscore.ZeroCoef>
-5.4800

> <Gold.Chemscore.Hbond>
1.3196

> <Gold.Chemscore.Metal>
0.0000

> <Gold.Chemscore.Lipo>
125.4640

> <Gold.Chemscore.Internal_Hbond>
0.0000

> <Gold.Chemscore.DEClash>
1.6458

> <Gold.Chemscore.DEInternal>
7.8218

> <Gold.Chemscore.Rot>
2.6702

> <Gold.Chemscore.Internal.Correction>
   9.000000E+99

> <Gold.Chemscore.Hbonds>
donor molecule, donor type, donor heavy atom, donor atom, acceptor molecule, acceptor atom, score
      L1  H    33    63       P1  7948  0.89
      P1  H  7954  7966       L1    33  0.23

> <Gold.Chemscore.Hbond.Weighted>
-4.4074

> <Gold.Chemscore.Metal.Weighted>
-0.0000

> <Gold.Chemscore.Lipo.Weighted>
-14.6793

> <Gold.Chemscore.Internal_Hbond.Weighted>
0.0000

> <Gold.Chemscore.DEClash.Weighted>
1.6458

> <Gold.Chemscore.DEInternal.Weighted>
7.8218

> <Gold.Chemscore.Rot.Weighted>
6.8358

> <Gold.Chemscore.Internal.Correction.Weighted>
   9.000000E+99

> <Gold.Protein.RotatedTorsions>
[ 6907 6896 6895 6894 ] final  118.23 input  -60.11 | X-H torsion
[ 7974 7965 7964 7962 ] final   -0.83 input  175.53 | X-H torsion
[ 8008 7997 7996 7995 ] final   44.78 input   59.86 | X-H torsion
[ 10167 10162 10161 10158 ] final -177.57 input  -65.29 | X-H torsion
[ 10718 10713 10712 10709 ] final -100.47 input   66.30 | X-H torsion
[ 10763 10752 10751 10750 ] final   32.61 input  -60.55 | X-H torsion
[ 11005 11000 10999 10996 ] final   83.60 input  -57.11 | X-H torsion

> <Gold.Protein.ActiveResidues>
 VAL166  LYS551  ARG553  GLY616  TRP617  ASP618  TYR619  PRO620  LYS621  CYS622 
 ASP623  PHE694  ASN695  SER759  ASP760  ASP761  ALA762  ILE779  LEU786  VAL792 
 PHE793  MET794  SER795  GLU796  ALA797  LYS798  CYS799  TRP800  GLU811  SER814 

> <Gold.Protein.RotatedAtoms>
  152.4557  133.7719  159.6803 H   0  0  0  0  0  0  0  0  0  0  0  0  # atno 6907 bound_to 6896
  150.8483  133.7817  159.3041 H   0  0  0  0  0  0  0  0  0  0  0  0  # atno 6908 bound_to 6896
  151.5420  135.1071  159.9980 H   0  0  0  0  0  0  0  0  0  0  0  0  # atno 6909 bound_to 6896
  146.2423  140.1328  142.8337 H   0  0  0  0  0  0  0  0  0  0  0  0  # atno 7974 bound_to 7965
  155.3250  140.3399  155.4240 H   0  0  0  0  0  0  0  0  0  0  0  0  # atno 8008 bound_to 7997
  156.1890  140.1691  156.8166 H   0  0  0  0  0  0  0  0  0  0  0  0  # atno 8009 bound_to 7997
  154.5420  140.0723  156.8509 H   0  0  0  0  0  0  0  0  0  0  0  0  # atno 8010 bound_to 7997
  139.5474  144.2199  152.1013 H   0  0  0  0  0  0  0  0  0  0  0  0  # atno 10167 bound_to 10162
  156.0164  130.5329  150.6822 H   0  0  0  0  0  0  0  0  0  0  0  0  # atno 10718 bound_to 10713
  153.0253  135.6408  154.1383 H   0  0  0  0  0  0  0  0  0  0  0  0  # atno 10763 bound_to 10752
  154.1112  135.2853  155.3231 H   0  0  0  0  0  0  0  0  0  0  0  0  # atno 10764 bound_to 10752
  154.6330  135.5486  153.7764 H   0  0  0  0  0  0  0  0  0  0  0  0  # atno 10765 bound_to 10752
  139.9026  134.8156  156.2331 H   0  0  0  0  0  0  0  0  0  0  0  0  # atno 11005 bound_to 11000
  145.0312  140.8872  143.5108 LP  0  0  0  0  0  0  0  0  0  0  0  0  # atno 17320 bound_to 7965
  145.1393  139.2582  143.5499 LP  0  0  0  0  0  0  0  0  0  0  0  0  # atno 17321 bound_to 7965
  140.1688  144.4955  150.6591 LP  0  0  0  0  0  0  0  0  0  0  0  0  # atno 17342 bound_to 10162
  140.6726  143.2292  151.5586 LP  0  0  0  0  0  0  0  0  0  0  0  0  # atno 17343 bound_to 10162
  157.4522  131.0874  151.0834 LP  0  0  0  0  0  0  0  0  0  0  0  0  # atno 17370 bound_to 10713
  157.1347  130.6117  149.5539 LP  0  0  0  0  0  0  0  0  0  0  0  0  # atno 17371 bound_to 10713
  141.0333  133.6977  156.1468 LP  0  0  0  0  0  0  0  0  0  0  0  0  # atno 17394 bound_to 11000
  140.7064  134.4508  157.5584 LP  0  0  0  0  0  0  0  0  0  0  0  0  # atno 17395 bound_to 11000

$$$$
