AV-unprocessed.smi:1018|AV-procd|sdf|4441|dock5
  -GOLD-   22720 2403D 1   1.00000     0.00000
 Structure written by MMmdl.
 52 53  0  0  0  0  0  0  0  0  1 V2000
  151.0596  145.1810  159.4418 C   0  0  0  0  0  0  0  0  0  0  0  0
  151.8697  144.0393  158.8191 C   0  0  2  0  0  0  0  0  0  0  0  0
  150.9992  143.1282  157.9328 C   0  0  0  0  0  0  0  0  0  0  0  0
  151.7858  142.0021  157.4491 N   0  0  0  0  0  0  0  0  0  0  0  0
  151.0932  141.2038  156.5292 C   0  0  0  0  0  0  0  0  0  0  0  0
  151.7343  140.1624  155.8200 C   0  0  0  0  0  0  0  0  0  0  0  0
  150.9764  139.3964  154.9146 C   0  0  0  0  0  0  0  0  0  0  0  0
  149.6104  139.6932  154.7365 C   0  0  0  0  0  0  0  0  0  0  0  0
  148.8674  138.8935  153.8266 N   0  0  0  0  0  0  0  0  0  0  0  0
  147.5542  138.9467  153.5461 C   0  0  0  0  0  0  0  0  0  0  0  0
  146.7523  139.7400  154.0382 O   0  0  0  0  0  0  0  0  0  0  0  0
  147.2207  138.0310  152.6258 N   0  0  0  0  0  0  0  0  0  0  0  0
  145.8814  137.8227  152.0729 C   0  0  0  0  0  0  0  0  0  0  0  0
  145.3664  136.3606  152.2032 C   0  0  0  0  0  0  0  0  0  0  0  0
  143.8360  136.4063  152.3963 C   0  0  0  0  0  0  0  0  0  0  0  0
  145.6634  135.5699  150.9038 C   0  0  0  0  0  0  0  0  0  0  0  0
  145.9886  135.6879  153.4546 C   0  0  0  0  0  0  0  0  0  0  0  0
  147.3135  135.5143  153.5059 N   0  0  0  0  0  0  0  0  0  0  0  0
  145.2676  135.3268  154.3834 O   0  0  0  0  0  0  0  0  0  0  0  0
  149.0595  140.7455  155.5076 C   0  0  0  0  0  0  0  0  0  0  0  0
  149.7805  141.4825  156.3794 N   0  0  0  0  0  0  0  0  0  0  0  0
  152.4210  141.2574  158.5285 C   0  0  0  0  0  0  0  0  0  0  0  0
  153.2674  142.2087  159.3952 C   0  0  2  0  0  0  0  0  0  0  0  0
  153.8841  141.4946  160.6023 C   0  0  0  0  0  0  0  0  0  0  0  0
  152.4349  143.2632  159.8743 O   0  0  0  0  0  0  0  0  0  0  0  0
  150.6142  145.8113  158.6717 H   0  0  0  0  0  0  0  0  0  0  0  0
  151.6931  145.8138  160.0637 H   0  0  0  0  0  0  0  0  0  0  0  0
  150.2541  144.7974  160.0684 H   0  0  0  0  0  0  0  0  0  0  0  0
  152.6758  144.4702  158.2225 H   0  0  0  0  0  0  0  0  0  0  0  0
  150.1437  142.7591  158.5003 H   0  0  0  0  0  0  0  0  0  0  0  0
  150.6060  143.6926  157.0861 H   0  0  0  0  0  0  0  0  0  0  0  0
  152.7825  139.9476  155.9668 H   0  0  0  0  0  0  0  0  0  0  0  0
  151.4425  138.5935  154.3623 H   0  0  0  0  0  0  0  0  0  0  0  0
  149.4109  138.2412  153.2806 H   0  0  0  0  0  0  0  0  0  0  0  0
  147.9496  137.4264  152.2754 H   0  0  0  0  0  0  0  0  0  0  0  0
  145.2105  138.5031  152.5990 H   0  0  0  0  0  0  0  0  0  0  0  0
  145.8479  138.1397  151.0290 H   0  0  0  0  0  0  0  0  0  0  0  0
  143.3431  136.8592  151.5353 H   0  0  0  0  0  0  0  0  0  0  0  0
  143.5538  136.9909  153.2731 H   0  0  0  0  0  0  0  0  0  0  0  0
  143.4176  135.4065  152.5208 H   0  0  0  0  0  0  0  0  0  0  0  0
  145.2491  136.0807  150.0340 H   0  0  0  0  0  0  0  0  0  0  0  0
  145.2221  134.5727  150.9293 H   0  0  0  0  0  0  0  0  0  0  0  0
  146.7325  135.4517  150.7251 H   0  0  0  0  0  0  0  0  0  0  0  0
  147.7332  135.0812  154.3156 H   0  0  0  0  0  0  0  0  0  0  0  0
  147.8897  135.8206  152.7353 H   0  0  0  0  0  0  0  0  0  0  0  0
  148.0139  141.0061  155.4567 H   0  0  0  0  0  0  0  0  0  0  0  0
  151.6611  140.7740  159.1438 H   0  0  0  0  0  0  0  0  0  0  0  0
  153.0493  140.4697  158.1104 H   0  0  0  0  0  0  0  0  0  0  0  0
  154.0735  142.6344  158.7947 H   0  0  0  0  0  0  0  0  0  0  0  0
  154.5392  140.6832  160.2847 H   0  0  0  0  0  0  0  0  0  0  0  0
  153.1132  141.0710  161.2465 H   0  0  0  0  0  0  0  0  0  0  0  0
  154.4772  142.1853  161.2023 H   0  0  0  0  0  0  0  0  0  0  0  0
  1  2  1  0  0  0  0
  1 26  1  0  0  0  0
  1 27  1  0  0  0  0
  1 28  1  0  0  0  0
  2 25  1  0  0  0  0
  2  3  1  0  0  0  0
  2 29  1  0  0  0  0
  3  4  1  0  0  0  0
  3 30  1  0  0  0  0
  3 31  1  0  0  0  0
  4  5  1  0  0  0  0
  4 22  1  0  0  0  0
  5 21  1  0  0  0  0
  5  6  2  0  0  0  0
  6  7  1  0  0  0  0
  6 32  1  0  0  0  0
  7  8  2  0  0  0  0
  7 33  1  0  0  0  0
  8  9  1  0  0  0  0
  8 20  1  0  0  0  0
  9 10  1  0  0  0  0
  9 34  1  0  0  0  0
 10 11  2  0  0  0  0
 10 12  1  0  0  0  0
 12 13  1  0  0  0  0
 12 35  1  0  0  0  0
 13 14  1  0  0  0  0
 13 36  1  0  0  0  0
 13 37  1  0  0  0  0
 14 15  1  0  0  0  0
 14 16  1  0  0  0  0
 14 17  1  0  0  0  0
 15 38  1  0  0  0  0
 15 39  1  0  0  0  0
 15 40  1  0  0  0  0
 16 41  1  0  0  0  0
 16 42  1  0  0  0  0
 16 43  1  0  0  0  0
 17 18  1  0  0  0  0
 17 19  2  0  0  0  0
 18 44  1  0  0  0  0
 18 45  1  0  0  0  0
 20 21  2  0  0  0  0
 20 46  1  0  0  0  0
 22 23  1  0  0  0  0
 22 47  1  0  0  0  0
 22 48  1  0  0  0  0
 23 24  1  0  0  0  0
 23 25  1  0  0  0  0
 23 49  1  0  0  0  0
 24 50  1  0  0  0  0
 24 51  1  0  0  0  0
 24 52  1  0  0  0  0
M  END
> <s_m_source_file>
AV-unprocessed.smi

> <i_m_source_file_index>
1018

> <i_lp_mmshare_version>
43012

> <i_f3d_flags>
0

> <s_epik_input>
W0NIM11bQ0BASF0xW0NIMl1OKFtDSDJdW0NASF0oTzEpW0NIM10pYzJbY0hdW2NIXWMoW2NIXW4yKVtOSF1DKD1PKVtOSF1bQ0gyXUMoW0NIM10pKFtDSDNdKUMoPU8pW05IMl0=

> <s_epik_cmdline>
J2VwaWtfcHl0aG9uJywgJy1waCcsICc3LjAnLCAnLXRuJywgJzgnLCAnLW1hJywgJzIwMCcsICctbWV0YWxfYmluZGluZycsICctaW1hZScsICc8aW5maWxlLm1hZT4nLCAnLW9tYWUnLCAnPG91dGZpbGUubWFlPic=

> <r_lp_tautomer_probability>
1

> <r_epik_Ionization_Penalty>
0.002562

> <r_epik_Ionization_Penalty_Charging>
0

> <r_epik_Ionization_Penalty_Neutral>
0.002562

> <r_epik_State_Penalty>
0.00175377

> <r_epik_Charging_Adjusted_Penalty>
0.00175377

> <i_epik_Tot_Q>
0

> <i_epik_Tot_abs_Q>
0

> <r_epik_Metal_State_Penalty>
-0

> <b_epik_Metal_Only>
0

> <s_lp_Force_Field>
OPLS_2005

> <r_lp_Energy>
23.1449

> <b_lp_Chiralities_Consistent>
1

> <s_lp_Variant>
AV-unprocessed.smi:1018-2

> <Gold.Version>
5.8.1

> <Gold.Id.Protein>
6NUR|6NUR_protein|mol2

> <Gold.PLP.Fitness>
51.2430

> <Gold.PLP.PLP>
-46.5914

> <Gold.PLP.part.hbond>
-3.1562

> <Gold.PLP.part.metal>
0.0000

> <Gold.PLP.part.buried>
-4.0093

> <Gold.PLP.part.nonpolar>
-40.8821

> <Gold.PLP.part.repulsive>
0.4196

> <Gold.PLP.ligand.clash>
0.0000

> <Gold.PLP.ligand.torsion>
0.7482

> <Gold.PLP.Chemscore.Hbond>
2.0000

> <Gold.PLP.Chemscore.CHOScore>
0.0000

> <Gold.PLP.Chemscore.Metal>
0.0000

> <Gold.Chemscore.Hbonds>
donor molecule, donor type, donor heavy atom, donor atom, acceptor molecule, acceptor atom, score
      L1  H    12    35       P1  7948  1.00
      L1  H    18    45       P1  7948  0.75

> <Gold.PLP.Chemscore.Internal.Correction>
0.1480

> <Gold.Rescore>
     Score         DG    S(hbond)    S(metal)    S(lipo)     H(rot)  DE(clash)    DE(int)     intcor
     16.32     -19.81       2.00        0.00     111.33       2.09       0.09       3.40       ----

> <Gold.Chemscore.Fitness>
16.3184

> <Gold.Chemscore.DG>
-19.8086

> <Gold.Chemscore.ZeroCoef>
-5.4800

> <Gold.Chemscore.Hbond>
1.9958

> <Gold.Chemscore.Metal>
0.0000

> <Gold.Chemscore.Lipo>
111.3250

> <Gold.Chemscore.Internal_Hbond>
0.0000

> <Gold.Chemscore.DEClash>
0.0859

> <Gold.Chemscore.DEInternal>
3.4044

> <Gold.Chemscore.Rot>
2.0947

> <Gold.Chemscore.Internal.Correction>
   9.000000E+99

> <Gold.Chemscore.Hbonds>
donor molecule, donor type, donor heavy atom, donor atom, acceptor molecule, acceptor atom, score
      L1  H     9    34       P1  7948  0.02
      L1  H    12    35       P1  7948  0.98
      L1  H    18    45       P1  7948  0.73

> <Gold.Chemscore.Hbond.Weighted>
-6.6660

> <Gold.Chemscore.Metal.Weighted>
-0.0000

> <Gold.Chemscore.Lipo.Weighted>
-13.0250

> <Gold.Chemscore.Internal_Hbond.Weighted>
0.0000

> <Gold.Chemscore.DEClash.Weighted>
0.0859

> <Gold.Chemscore.DEInternal.Weighted>
3.4044

> <Gold.Chemscore.Rot.Weighted>
5.3624

> <Gold.Chemscore.Internal.Correction.Weighted>
   9.000000E+99

> <Gold.Protein.RotatedTorsions>
[ 6907 6896 6895 6894 ] final   98.23 input  -60.11 | X-H torsion
[ 7974 7965 7964 7962 ] final -160.93 input  175.53 | X-H torsion
[ 8008 7997 7996 7995 ] final -165.34 input   59.86 | X-H torsion
[ 10167 10162 10161 10158 ] final  162.51 input  -65.29 | X-H torsion
[ 10718 10713 10712 10709 ] final  166.18 input   66.30 | X-H torsion
[ 10763 10752 10751 10750 ] final   73.62 input  -60.55 | X-H torsion
[ 11005 11000 10999 10996 ] final   36.92 input  -57.11 | X-H torsion

> <Gold.Protein.ActiveResidues>
 VAL166  LYS551  ARG553  GLY616  TRP617  ASP618  TYR619  PRO620  LYS621  CYS622 
 ASP623  PHE694  ASN695  SER759  ASP760  ASP761  ALA762  ILE779  LEU786  VAL792 
 PHE793  MET794  SER795  GLU796  ALA797  LYS798  CYS799  TRP800  GLU811  SER814 

> <Gold.Protein.RotatedAtoms>
  152.5412  134.0613  159.8152 H   0  0  0  0  0  0  0  0  0  0  0  0  # atno 6907 bound_to 6896
  151.0740  133.5435  159.2632 H   0  0  0  0  0  0  0  0  0  0  0  0  # atno 6908 bound_to 6896
  151.2288  135.0555  159.9033 H   0  0  0  0  0  0  0  0  0  0  0  0  # atno 6909 bound_to 6896
  144.7409  140.3471  143.6123 H   0  0  0  0  0  0  0  0  0  0  0  0  # atno 7974 bound_to 7965
  155.8484  140.0959  157.1690 H   0  0  0  0  0  0  0  0  0  0  0  0  # atno 8008 bound_to 7997
  154.3984  140.1388  156.3876 H   0  0  0  0  0  0  0  0  0  0  0  0  # atno 8009 bound_to 7997
  155.7988  140.3453  155.5393 H   0  0  0  0  0  0  0  0  0  0  0  0  # atno 8010 bound_to 7997
  139.4861  144.4430  151.8928 H   0  0  0  0  0  0  0  0  0  0  0  0  # atno 10167 bound_to 10162
  157.0696  131.0362  151.2617 H   0  0  0  0  0  0  0  0  0  0  0  0  # atno 10718 bound_to 10713
  153.0533  135.5056  154.7920 H   0  0  0  0  0  0  0  0  0  0  0  0  # atno 10763 bound_to 10752
  154.6766  135.2961  154.9673 H   0  0  0  0  0  0  0  0  0  0  0  0  # atno 10764 bound_to 10752
  154.0473  135.6709  153.4849 H   0  0  0  0  0  0  0  0  0  0  0  0  # atno 10765 bound_to 10752
  140.2277  134.3565  155.7977 H   0  0  0  0  0  0  0  0  0  0  0  0  # atno 11005 bound_to 11000
  145.7314  139.1737  143.2428 LP  0  0  0  0  0  0  0  0  0  0  0  0  # atno 17320 bound_to 7965
  146.1203  140.7317  142.9461 LP  0  0  0  0  0  0  0  0  0  0  0  0  # atno 17321 bound_to 7965
  140.3883  144.2648  150.5902 LP  0  0  0  0  0  0  0  0  0  0  0  0  # atno 17342 bound_to 10162
  140.5170  143.2275  151.8448 LP  0  0  0  0  0  0  0  0  0  0  0  0  # atno 17343 bound_to 10162
  157.4889  130.7810  149.7488 LP  0  0  0  0  0  0  0  0  0  0  0  0  # atno 17370 bound_to 10713
  155.9954  130.3912  150.2819 LP  0  0  0  0  0  0  0  0  0  0  0  0  # atno 17371 bound_to 10713
  141.2219  133.7228  156.8680 LP  0  0  0  0  0  0  0  0  0  0  0  0  # atno 17394 bound_to 11000
  140.1783  134.9051  157.2918 LP  0  0  0  0  0  0  0  0  0  0  0  0  # atno 17395 bound_to 11000

$$$$
