#       Name:                AV-unprocessed.smi:155
#       Creating user name   scv26
#       Creation time:       Thu Mar 26 18:55:06 2020


#       File generated by GOLD software.
#

@<TRIPOS>MOLECULE
AV-unprocessed.smi:155
    71    74     1
SMALL
NO_CHARGES


@<TRIPOS>ATOM
      1 ****        -4.5015   2.5685  -0.8394 C.3            1 S1                 0.0000
      2 ****        -4.0244   1.2231  -0.4462 N.4            1 S1                 1.0000
      3 ****        -2.5631   1.2255  -0.2040 C.3            1 S1                 0.0000
      4 ****        -4.4756   0.1747  -1.4015 C.3            1 S1                 0.0000
      5 ****        -4.5116  -1.2486  -0.7963 C.3            1 S1                 0.0000
      6 ****        -3.1818  -1.9132  -0.7291 N.4            1 S1                 1.0000
      7 ****        -3.1013  -2.9749   0.3096 C.3            1 S1                 0.0000
      8 ****        -1.7935  -2.8424   1.1096 C.3            1 S1                 0.0000
      9 ****        -0.5287  -3.2313   0.3212 C.3            1 S1                 0.0000
     10 ****        -0.4076  -2.5255  -0.9539 N.pl3          1 S1                 0.0000
     11 ****         0.1066  -1.2604  -1.0365 C.ar           1 S1                 0.0000
     12 ****         0.1164  -0.6622  -2.2589 N.ar           1 S1                 0.0000
     13 ****         0.5842   0.5769  -2.4205 C.ar           1 S1                 0.0000
     14 ****         1.0788   1.4029  -1.5012 N.ar           1 S1                 0.0000
     15 ****         1.0883   0.8205  -0.2695 C.ar           1 S1                 0.0000
     16 ****         0.6239  -0.4901   0.0537 C.ar           1 S1                 0.0000
     17 ****         0.7787  -0.6998   1.4205 N.2            1 S1                 0.0000
     18 ****         1.3062   0.4039   1.8709 C.2            1 S1                 0.0000
     19 ****         1.5363   1.3686   0.9195 N.pl3          1 S1                 0.0000
     20 ****         2.1145   2.6849   1.1405 C.3            1 S1                 0.0000
     21 ****         3.6252   2.7832   0.8239 C.3            1 S1                 0.0000
     22 ****         3.8768   2.5470  -0.5477 O.3            1 S1                 0.0000
     23 ****         4.5452   1.8999   1.6977 C.3            1 S1                 0.0000
     24 ****         6.0491   2.0628   1.4562 C.3            1 S1                 0.0000
     25 ****         6.5810   0.7415   1.9632 C.3            1 S1                 0.0000
     26 ****         5.4966  -0.2247   1.4966 C.3            1 S1                 0.0000
     27 ****         4.2761   0.5060   1.5620 O.3            1 S1                 0.0000
     28 ****        -1.2780  -3.0164  -2.0273 C.3            1 S1                 0.0000
     29 ****        -2.6721  -2.3490  -2.0602 C.3            1 S1                 0.0000
     30 ****        -4.0830   2.8657  -1.8020 H              1 S1                 0.0000
     31 ****        -4.2136   3.3141  -0.0972 H              1 S1                 0.0000
     32 ****        -5.5892   2.5899  -0.9169 H              1 S1                 0.0000
     33 ****        -2.0120   1.3486  -1.1369 H              1 S1                 0.0000
     34 ****        -2.2360   0.3038   0.2728 H              1 S1                 0.0000
     35 ****        -2.2811   2.0407   0.4633 H              1 S1                 0.0000
     36 ****        -5.5022   0.4103  -1.6858 H              1 S1                 0.0000
     37 ****        -3.9031   0.2299  -2.3267 H              1 S1                 0.0000
     38 ****        -4.9565  -1.1728   0.1967 H              1 S1                 0.0000
     39 ****        -5.1833  -1.8822  -1.3773 H              1 S1                 0.0000
     40 ****        -3.9246  -2.8827   1.0183 H              1 S1                 0.0000
     41 ****        -3.2033  -3.9679  -0.1309 H              1 S1                 0.0000
     42 ****        -1.7060  -1.8249   1.4900 H              1 S1                 0.0000
     43 ****        -1.8533  -3.4812   1.9911 H              1 S1                 0.0000
     44 ****         0.3687  -3.1049   0.9245 H              1 S1                 0.0000
     45 ****        -0.5643  -4.3013   0.1133 H              1 S1                 0.0000
     46 ****         0.5540   0.9627  -3.4290 H              1 S1                 0.0000
     47 ****         1.5564   0.5405   2.9132 H              1 S1                 0.0000
     48 ****         1.5602   3.4048   0.5371 H              1 S1                 0.0000
     49 ****         1.9395   2.9643   2.1801 H              1 S1                 0.0000
     50 ****         3.9168   3.8188   1.0016 H              1 S1                 0.0000
     51 ****         3.3485   3.1409  -1.0585 H              1 S1                 0.0000
     52 ****         4.3522   2.1392   2.7446 H              1 S1                 0.0000
     53 ****         6.2759   2.1629   0.3941 H              1 S1                 0.0000
     54 ****         6.4726   2.9225   1.9761 H              1 S1                 0.0000
     55 ****         7.5683   0.4957   1.5713 H              1 S1                 0.0000
     56 ****         6.6354   0.7507   3.0525 H              1 S1                 0.0000
     57 ****         5.6689  -0.5167   0.4600 H              1 S1                 0.0000
     58 ****         5.4532  -1.1307   2.1013 H              1 S1                 0.0000
     59 ****        -0.7885  -2.9299  -2.9981 H              1 S1                 0.0000
     60 ****        -1.4146  -4.0888  -1.8843 H              1 S1                 0.0000
     61 ****        -3.3864  -3.0235  -2.5342 H              1 S1                 0.0000
     62 ****        -2.6021  -1.4771  -2.7081 H              1 S1                 0.0000
     63 ****        -4.4690   1.0242   0.4390 H              1 S1                 0.0000
     64 ****        -2.5443  -1.1996  -0.4069 H              1 S1                 0.0000
     65 ****        -0.2339  -1.1611  -3.0516 LP             1 S1                 0.0000
     66 ****         1.4015   2.3304  -1.6901 LP             1 S1                 0.0000
     67 ****         0.5381  -1.5179   1.9428 LP             1 S1                 0.0000
     68 ****         3.6386   1.6031  -0.7760 LP             1 S1                 0.0000
     69 ****         4.8448   2.7034  -0.7443 LP             1 S1                 0.0000
     70 ****         3.7523   0.3504   0.7245 LP             1 S1                 0.0000
     71 ****         3.7455   0.1935   2.3499 LP             1 S1                 0.0000
@<TRIPOS>BOND
    1    1    2 1     
    2    1   30 1     
    3    1   31 1     
    4    1   32 1     
    5    2    3 1     
    6    2    4 1     
    7    2   63 1     
    8    3   33 1     
    9    3   34 1     
   10    3   35 1     
   11    4    5 1     
   12    4   36 1     
   13    4   37 1     
   14    5    6 1     
   15    5   38 1     
   16    5   39 1     
   17    6   29 1     
   18    6    7 1     
   19    6   64 1     
   20    7    8 1     
   21    7   40 1     
   22    7   41 1     
   23    8    9 1     
   24    8   42 1     
   25    8   43 1     
   26    9   10 1     
   27    9   44 1     
   28    9   45 1     
   29   10   11 1     
   30   10   28 1     
   31   11   16 ar    
   32   11   12 ar    
   33   12   13 ar    
   34   13   14 ar    
   35   13   46 1     
   36   14   15 ar    
   37   15   19 1     
   38   15   16 ar    
   39   16   17 1     
   40   17   18 2     
   41   18   19 1     
   42   18   47 1     
   43   19   20 1     
   44   20   21 1     
   45   20   48 1     
   46   20   49 1     
   47   21   22 1     
   48   21   23 1     
   49   21   50 1     
   50   22   51 1     
   51   23   27 1     
   52   23   24 1     
   53   23   52 1     
   54   24   25 1     
   55   24   53 1     
   56   24   54 1     
   57   25   26 1     
   58   25   55 1     
   59   25   56 1     
   60   26   27 1     
   61   26   57 1     
   62   26   58 1     
   63   28   29 1     
   64   28   59 1     
   65   28   60 1     
   66   29   61 1     
   67   29   62 1     
   68   12   65 1     
   69   14   66 1     
   70   17   67 1     
   71   22   68 1     
   72   22   69 1     
   73   27   70 1     
   74   27   71 1     
@<TRIPOS>SUBSTRUCTURE
      1 S1             1
@<TRIPOS>SET
LONE_PAIRS      STATIC     ATOMS    <user>   **** ""
7 65 66 67 68 69 70 71
DONOR_HYDROGENS      STATIC     ATOMS    <user>   **** ""
3 63 64 51
ATOM$BLUE        STATIC     ATOMS    COLORGROUP SYSTEM
7 65 66 67 68 69 70 71
ATOM$RED        STATIC     ATOMS    COLORGROUP SYSTEM
3 63 64 51
