AV-unprocessed.smi:40|AV-procd|sdf|379|dock3
  -GOLD-   2262016233D 1   1.00000     0.00000
 Structure written by MMmdl.
 47 48  0  0  0  0  0  0  0  0  1 V2000
  150.6328  145.0482  159.5770 C   0  0  0  0  0  0  0  0  0  0  0  0
  152.0084  145.1415  158.9075 C   0  0  0  0  0  0  0  0  0  0  0  0
  152.6691  143.7674  158.7303 C   0  0  0  0  0  0  0  0  0  0  0  0
  152.6927  142.9466  160.0309 C   0  0  0  0  0  0  0  0  0  0  0  0
  153.1776  141.5043  159.8254 C   0  0  0  0  0  0  0  0  0  0  0  0
  152.5049  140.9522  158.7068 O   0  0  0  0  0  0  0  0  0  0  0  0
  152.4547  139.6254  158.5096 C   0  0  0  0  0  0  0  0  0  0  0  0
  152.8459  138.7958  159.3305 O   0  0  0  0  0  0  0  0  0  0  0  0
  151.8872  139.2898  157.2097 N   0  0  0  0  0  0  0  0  0  0  0  0
  151.6638  138.0811  156.6299 C   0  0  0  0  0  0  0  0  0  0  0  0
  151.1938  137.0302  157.2833 N   0  0  0  0  0  0  0  0  0  0  0  0
  150.9490  135.8104  156.7156 C   0  0  0  0  0  0  0  0  0  0  0  0
  150.4810  134.8946  157.3879 O   0  0  0  0  0  0  0  0  0  0  0  0
  151.2472  135.6639  155.3389 N   0  0  0  0  0  0  0  0  0  0  0  0
  150.9603  134.3648  154.6130 C   0  0  2  0  0  0  0  0  0  0  0  0
  149.5868  134.1283  154.6349 O   0  0  0  0  0  0  0  0  0  0  0  0
  149.3675  132.7239  154.6415 C   0  0  2  0  0  0  0  0  0  0  0  0
  147.9418  132.3873  155.1029 C   0  0  0  0  0  0  0  0  0  0  0  0
  150.5164  132.1562  155.4906 C   0  0  2  0  0  0  0  0  0  0  0  0
  150.1821  132.1238  156.8668 O   0  0  0  0  0  0  0  0  0  0  0  0
  151.6705  133.1097  155.1755 C   0  0  2  0  0  0  0  0  0  0  0  0
  152.5648  133.3246  156.2548 O   0  0  0  0  0  0  0  0  0  0  0  0
  151.7266  136.7539  154.6291 C   0  0  0  0  0  0  0  0  0  0  0  0
  151.9512  137.9492  155.2170 C   0  0  0  0  0  0  0  0  0  0  0  0
  152.4236  138.9859  154.5029 F   0  0  0  0  0  0  0  0  0  0  0  0
  151.2480  134.5441  153.5762 H   0  0  0  0  0  0  0  0  0  0  0  0
  149.4956  132.3753  153.6151 H   0  0  0  0  0  0  0  0  0  0  0  0
  150.7588  131.1356  155.1926 H   0  0  0  0  0  0  0  0  0  0  0  0
  152.2524  132.6915  154.3533 H   0  0  0  0  0  0  0  0  0  0  0  0
  150.1881  146.0369  159.6905 H   0  0  0  0  0  0  0  0  0  0  0  0
  150.7084  144.6024  160.5696 H   0  0  0  0  0  0  0  0  0  0  0  0
  149.9473  144.4399  158.9865 H   0  0  0  0  0  0  0  0  0  0  0  0
  151.9077  145.6287  157.9372 H   0  0  0  0  0  0  0  0  0  0  0  0
  152.6534  145.7820  159.5104 H   0  0  0  0  0  0  0  0  0  0  0  0
  152.1296  143.2166  157.9592 H   0  0  0  0  0  0  0  0  0  0  0  0
  153.6872  143.8949  158.3607 H   0  0  0  0  0  0  0  0  0  0  0  0
  153.3413  143.4388  160.7561 H   0  0  0  0  0  0  0  0  0  0  0  0
  151.6956  142.9298  160.4727 H   0  0  0  0  0  0  0  0  0  0  0  0
  154.2554  141.4807  159.6595 H   0  0  0  0  0  0  0  0  0  0  0  0
  152.9668  140.9123  160.7172 H   0  0  0  0  0  0  0  0  0  0  0  0
  151.5952  140.0964  156.6769 H   0  0  0  0  0  0  0  0  0  0  0  0
  147.7878  131.3090  155.1456 H   0  0  0  0  0  0  0  0  0  0  0  0
  147.2053  132.8022  154.4146 H   0  0  0  0  0  0  0  0  0  0  0  0
  147.7321  132.7983  156.0910 H   0  0  0  0  0  0  0  0  0  0  0  0
  150.5657  131.3491  157.2486 H   0  0  0  0  0  0  0  0  0  0  0  0
  152.7229  132.4972  156.6826 H   0  0  0  0  0  0  0  0  0  0  0  0
  151.9366  136.6589  153.5734 H   0  0  0  0  0  0  0  0  0  0  0  0
  1  2  1  0  0  0  0
  1 30  1  0  0  0  0
  1 31  1  0  0  0  0
  1 32  1  0  0  0  0
  2  3  1  0  0  0  0
  2 33  1  0  0  0  0
  2 34  1  0  0  0  0
  3  4  1  0  0  0  0
  3 35  1  0  0  0  0
  3 36  1  0  0  0  0
  4  5  1  0  0  0  0
  4 37  1  0  0  0  0
  4 38  1  0  0  0  0
  5  6  1  0  0  0  0
  5 39  1  0  0  0  0
  5 40  1  0  0  0  0
  6  7  1  0  0  0  0
  7  8  2  0  0  0  0
  7  9  1  0  0  0  0
  9 10  1  0  0  0  0
  9 41  1  0  0  0  0
 10 24  1  0  0  0  0
 10 11  2  0  0  0  0
 11 12  1  0  0  0  0
 12 13  2  0  0  0  0
 12 14  1  0  0  0  0
 14 15  1  0  0  0  0
 14 23  1  0  0  0  0
 15 26  1  0  0  0  0
 15 21  1  0  0  0  0
 15 16  1  0  0  0  0
 16 17  1  0  0  0  0
 17 27  1  0  0  0  0
 17 18  1  0  0  0  0
 17 19  1  0  0  0  0
 18 42  1  0  0  0  0
 18 43  1  0  0  0  0
 18 44  1  0  0  0  0
 19 28  1  0  0  0  0
 19 20  1  0  0  0  0
 19 21  1  0  0  0  0
 20 45  1  0  0  0  0
 21 29  1  0  0  0  0
 21 22  1  0  0  0  0
 22 46  1  0  0  0  0
 23 24  2  0  0  0  0
 23 47  1  0  0  0  0
 24 25  1  0  0  0  0
M  END
> <s_m_source_file>
AV-unprocessed.smi

> <i_m_source_file_index>
40

> <i_lp_mmshare_version>
43012

> <i_f3d_flags>
0

> <s_epik_input>
W0NIM11bQ0gyXVtDSDJdW0NIMl1bQ0gyXU9DKD1PKVtOSF1jMW5jKD1PKW4oW2NIXWMxRilbQ0BASF0yT1tDQEhdKFtDSDNdKVtDQEBIXShbT0hdKVtDQEhdMltPSF0=

> <s_epik_cmdline>
J2VwaWtfcHl0aG9uJywgJy1waCcsICc3LjAnLCAnLXRuJywgJzgnLCAnLW1hJywgJzIwMCcsICctbWV0YWxfYmluZGluZycsICctaW1hZScsICc8aW5maWxlLm1hZT4nLCAnLW9tYWUnLCAnPG91dGZpbGUubWFlPic=

> <r_lp_tautomer_probability>
1

> <r_epik_Ionization_Penalty>
2.29506e-06

> <r_epik_Ionization_Penalty_Charging>
8.26867e-09

> <r_epik_Ionization_Penalty_Neutral>
2.2868e-06

> <r_epik_State_Penalty>
-0

> <r_epik_Charging_Adjusted_Penalty>
8.26867e-09

> <i_epik_Tot_Q>
0

> <i_epik_Tot_abs_Q>
0

> <r_epik_Metal_State_Penalty>
-0

> <b_epik_Metal_Only>
0

> <s_epik_Chemistry_Notes>
This compound has an ester and may undergo hydrolysis at high or low pH. This compound contains an acetal/aminal-like group ( X-CH(R)-Y where X, Y are N, S, or O) that may be acid/base labile, releasing an aldehyde.

> <s_lp_Force_Field>
OPLS_2005

> <r_lp_Energy>
38.6632

> <b_lp_Chiralities_Consistent>
1

> <s_lp_Variant>
AV-unprocessed.smi:40-13

> <Gold.Version>
5.8.1

> <Gold.Id.Protein>
6NUR|6NUR_protein|mol2

> <Gold.PLP.Fitness>
44.8745

> <Gold.PLP.PLP>
-39.9566

> <Gold.PLP.part.hbond>
-1.0000

> <Gold.PLP.part.metal>
0.0000

> <Gold.PLP.part.buried>
-5.9700

> <Gold.PLP.part.nonpolar>
-33.0404

> <Gold.PLP.part.repulsive>
0.1250

> <Gold.PLP.ligand.clash>
0.0000

> <Gold.PLP.ligand.torsion>
0.5818

> <Gold.PLP.Chemscore.Hbond>
0.9920

> <Gold.PLP.Chemscore.CHOScore>
1.0000

> <Gold.PLP.Chemscore.Metal>
0.0000

> <Gold.Chemscore.Hbonds>
donor molecule, donor type, donor heavy atom, donor atom, acceptor molecule, acceptor atom, score
      P1  H  6896  6907       L1    13  0.43
      L1  C    23    47       P1  7949  1.00

> <Gold.PLP.Chemscore.Internal.Correction>
0.1056

> <Gold.Rescore>
     Score         DG    S(hbond)    S(metal)    S(lipo)     H(rot)  DE(clash)    DE(int)     intcor
      6.72      -9.33       0.93        0.00      87.26       3.70       0.04       2.57       ----

> <Gold.Chemscore.Fitness>
6.7233

> <Gold.Chemscore.DG>
-9.3327

> <Gold.Chemscore.ZeroCoef>
-5.4800

> <Gold.Chemscore.Hbond>
0.9295

> <Gold.Chemscore.Metal>
0.0000

> <Gold.Chemscore.Lipo>
87.2567

> <Gold.Chemscore.Internal_Hbond>
0.0000

> <Gold.Chemscore.DEClash>
0.0352

> <Gold.Chemscore.DEInternal>
2.5742

> <Gold.Chemscore.Rot>
3.6957

> <Gold.Chemscore.Internal.Correction>
   9.000000E+99

> <Gold.Chemscore.Hbonds>
donor molecule, donor type, donor heavy atom, donor atom, acceptor molecule, acceptor atom, score
      P1  H  6896  6907       L1    13  0.42

> <Gold.Chemscore.Hbond.Weighted>
-3.1046

> <Gold.Chemscore.Metal.Weighted>
-0.0000

> <Gold.Chemscore.Lipo.Weighted>
-10.2090

> <Gold.Chemscore.Internal_Hbond.Weighted>
0.0000

> <Gold.Chemscore.DEClash.Weighted>
0.0352

> <Gold.Chemscore.DEInternal.Weighted>
2.5742

> <Gold.Chemscore.Rot.Weighted>
9.4610

> <Gold.Chemscore.Internal.Correction.Weighted>
   9.000000E+99

> <Gold.Protein.RotatedTorsions>
[ 6907 6896 6895 6894 ] final  -84.54 input  -60.11 | X-H torsion
[ 7974 7965 7964 7962 ] final   30.77 input  175.53 | X-H torsion
[ 8008 7997 7996 7995 ] final   77.24 input   59.86 | X-H torsion
[ 10167 10162 10161 10158 ] final -166.80 input  -65.29 | X-H torsion
[ 10718 10713 10712 10709 ] final   79.85 input   66.30 | X-H torsion
[ 10763 10752 10751 10750 ] final  142.43 input  -60.55 | X-H torsion
[ 11005 11000 10999 10996 ] final  -25.64 input  -57.11 | X-H torsion

> <Gold.Protein.ActiveResidues>
 VAL166  LYS551  ARG553  GLY616  TRP617  ASP618  TYR619  PRO620  LYS621  CYS622 
 ASP623  PHE694  ASN695  SER759  ASP760  ASP761  ALA762  ILE779  LEU786  VAL792 
 PHE793  MET794  SER795  GLU796  ALA797  LYS798  CYS799  TRP800  GLU811  SER814 

> <Gold.Protein.RotatedAtoms>
  150.6876  134.3342  159.4839 H   0  0  0  0  0  0  0  0  0  0  0  0  # atno 6907 bound_to 6896
  152.1203  134.9208  160.0572 H   0  0  0  0  0  0  0  0  0  0  0  0  # atno 6908 bound_to 6896
  152.0416  133.3945  159.4376 H   0  0  0  0  0  0  0  0  0  0  0  0  # atno 6909 bound_to 6896
  146.1591  139.6745  142.9046 H   0  0  0  0  0  0  0  0  0  0  0  0  # atno 7974 bound_to 7965
  155.8388  140.3463  155.5618 H   0  0  0  0  0  0  0  0  0  0  0  0  # atno 8008 bound_to 7997
  155.8163  140.0906  157.1894 H   0  0  0  0  0  0  0  0  0  0  0  0  # atno 8009 bound_to 7997
  154.4005  140.1438  156.3434 H   0  0  0  0  0  0  0  0  0  0  0  0  # atno 8010 bound_to 7997
  139.6091  144.0852  152.1823 H   0  0  0  0  0  0  0  0  0  0  0  0  # atno 10167 bound_to 10162
  157.6789  130.9933  150.1992 H   0  0  0  0  0  0  0  0  0  0  0  0  # atno 10718 bound_to 10713
  153.9557  135.2965  155.3436 H   0  0  0  0  0  0  0  0  0  0  0  0  # atno 10763 bound_to 10752
  154.7402  135.5028  153.9113 H   0  0  0  0  0  0  0  0  0  0  0  0  # atno 10764 bound_to 10752
  153.0972  135.6724  153.9851 H   0  0  0  0  0  0  0  0  0  0  0  0  # atno 10765 bound_to 10752
  140.8956  133.7559  156.0477 H   0  0  0  0  0  0  0  0  0  0  0  0  # atno 11005 bound_to 11000
  145.4633  141.0433  143.2739 LP  0  0  0  0  0  0  0  0  0  0  0  0  # atno 17320 bound_to 7965
  144.8003  139.6153  143.7074 LP  0  0  0  0  0  0  0  0  0  0  0  0  # atno 17321 bound_to 7965
  140.0466  144.5965  150.7369 LP  0  0  0  0  0  0  0  0  0  0  0  0  # atno 17342 bound_to 10162
  140.7306  143.2685  151.3965 LP  0  0  0  0  0  0  0  0  0  0  0  0  # atno 17343 bound_to 10162
  156.2687  130.3719  149.8054 LP  0  0  0  0  0  0  0  0  0  0  0  0  # atno 17370 bound_to 10713
  156.5778  130.8452  151.3374 LP  0  0  0  0  0  0  0  0  0  0  0  0  # atno 17371 bound_to 10713
  140.8293  134.3197  157.5354 LP  0  0  0  0  0  0  0  0  0  0  0  0  # atno 17394 bound_to 11000
  139.8735  134.9354  156.3633 LP  0  0  0  0  0  0  0  0  0  0  0  0  # atno 17395 bound_to 11000

$$$$
