AV-unprocessed.smi:2162|AV-procd|sdf|8803|dock8
  -GOLD-   2272011583D 1   1.00000     0.00000
 Structure written by MMmdl.
 41 42  0  0  0  0  0  0  0  0  1 V2000
  144.5730  135.7306  150.9072 C   0  0  0  0  0  0  0  0  0  0  0  0
  145.5710  134.7718  151.4592 C   0  0  0  0  0  0  0  0  0  0  0  0
  146.1752  134.9322  152.6393 N   0  0  0  0  0  0  0  0  0  0  0  0
  147.0495  133.8841  152.9431 C   0  0  0  0  0  0  0  0  0  0  0  0
  147.7774  133.8696  154.2572 C   0  0  0  0  0  0  0  0  0  0  0  0
  147.5982  135.1595  155.0850 C   0  0  0  0  0  0  0  0  0  0  0  0
  147.9022  136.3630  154.3128 N   0  0  0  0  0  0  0  0  0  0  0  0
  148.0298  137.5982  154.8235 C   0  0  0  0  0  0  0  0  0  0  0  0
  147.8192  137.8656  156.0072 O   0  0  0  0  0  0  0  0  0  0  0  0
  148.5131  138.6934  153.8597 C   0  0  1  0  0  0  0  0  0  0  0  0
  147.5422  139.8882  153.8047 C   0  0  0  0  0  0  0  0  0  0  0  0
  148.2602  140.9713  154.5956 C   0  0  0  0  0  0  0  0  0  0  0  0
  147.7185  142.0282  154.9156 O   0  0  0  0  0  0  0  0  0  0  0  0
  149.5083  140.5958  154.9066 N   0  0  0  0  0  0  0  0  0  0  0  0
  150.4413  141.3411  155.7612 C   0  0  0  0  0  0  0  0  0  0  0  0
  151.7933  140.6234  155.9274 C   0  0  0  0  0  0  0  0  0  0  0  0
  149.7841  141.6472  157.1167 C   0  0  0  0  0  0  0  0  0  0  0  0
  149.8485  139.3030  154.3284 C   0  0  0  0  0  0  0  0  0  0  0  0
  147.1229  132.9371  151.9515 C   0  0  0  0  0  0  0  0  0  0  0  0
  146.0708  133.3116  150.6151 S   0  0  0  0  0  0  0  0  0  0  0  0
  144.1846  136.3757  151.6959 H   0  0  0  0  0  0  0  0  0  0  0  0
  143.7399  135.1871  150.4614 H   0  0  0  0  0  0  0  0  0  0  0  0
  145.0376  136.3513  150.1412 H   0  0  0  0  0  0  0  0  0  0  0  0
  147.4373  133.0211  154.8523 H   0  0  0  0  0  0  0  0  0  0  0  0
  148.8413  133.6998  154.0894 H   0  0  0  0  0  0  0  0  0  0  0  0
  146.5689  135.2286  155.4373 H   0  0  0  0  0  0  0  0  0  0  0  0
  148.2200  135.1131  155.9806 H   0  0  0  0  0  0  0  0  0  0  0  0
  148.0912  136.2361  153.3291 H   0  0  0  0  0  0  0  0  0  0  0  0
  148.6309  138.2634  152.8637 H   0  0  0  0  0  0  0  0  0  0  0  0
  147.3960  140.2275  152.7789 H   0  0  0  0  0  0  0  0  0  0  0  0
  146.5607  139.6788  154.2330 H   0  0  0  0  0  0  0  0  0  0  0  0
  150.6530  142.2943  155.2736 H   0  0  0  0  0  0  0  0  0  0  0  0
  152.4963  141.2476  156.4796 H   0  0  0  0  0  0  0  0  0  0  0  0
  152.2442  140.4026  154.9594 H   0  0  0  0  0  0  0  0  0  0  0  0
  151.6935  139.6861  156.4757 H   0  0  0  0  0  0  0  0  0  0  0  0
  150.4490  142.2324  157.7522 H   0  0  0  0  0  0  0  0  0  0  0  0
  149.5343  140.7302  157.6507 H   0  0  0  0  0  0  0  0  0  0  0  0
  148.8634  142.2180  156.9913 H   0  0  0  0  0  0  0  0  0  0  0  0
  150.3640  138.6754  155.0563 H   0  0  0  0  0  0  0  0  0  0  0  0
  150.5203  139.4481  153.4814 H   0  0  0  0  0  0  0  0  0  0  0  0
  147.7164  132.0353  151.9346 H   0  0  0  0  0  0  0  0  0  0  0  0
  1  2  1  0  0  0  0
  1 21  1  0  0  0  0
  1 22  1  0  0  0  0
  1 23  1  0  0  0  0
  2 20  1  0  0  0  0
  2  3  2  0  0  0  0
  3  4  1  0  0  0  0
  4  5  1  0  0  0  0
  4 19  2  0  0  0  0
  5  6  1  0  0  0  0
  5 24  1  0  0  0  0
  5 25  1  0  0  0  0
  6  7  1  0  0  0  0
  6 26  1  0  0  0  0
  6 27  1  0  0  0  0
  7  8  1  0  0  0  0
  7 28  1  0  0  0  0
  8  9  2  0  0  0  0
  8 10  1  0  0  0  0
 10 18  1  0  0  0  0
 10 11  1  0  0  0  0
 10 29  1  0  0  0  0
 11 12  1  0  0  0  0
 11 30  1  0  0  0  0
 11 31  1  0  0  0  0
 12 13  2  0  0  0  0
 12 14  1  0  0  0  0
 14 15  1  0  0  0  0
 14 18  1  0  0  0  0
 15 16  1  0  0  0  0
 15 17  1  0  0  0  0
 15 32  1  0  0  0  0
 16 33  1  0  0  0  0
 16 34  1  0  0  0  0
 16 35  1  0  0  0  0
 17 36  1  0  0  0  0
 17 37  1  0  0  0  0
 17 38  1  0  0  0  0
 18 39  1  0  0  0  0
 18 40  1  0  0  0  0
 19 20  1  0  0  0  0
 19 41  1  0  0  0  0
M  END
> <s_m_source_file>
AV-unprocessed.smi

> <i_m_source_file_index>
2162

> <i_lp_mmshare_version>
43012

> <i_f3d_flags>
0

> <s_epik_input>
W0NIM11jMW5jKFtjSF1zMSlbQ0gyXVtDSDJdW05IXUMoPU8pW0NAQEhdMltDSDJdQyg9TylOKFtDSDJdMilbQ0hdKFtDSDNdKVtDSDNd

> <s_epik_cmdline>
J2VwaWtfcHl0aG9uJywgJy1waCcsICc3LjAnLCAnLXRuJywgJzgnLCAnLW1hJywgJzIwMCcsICctbWV0YWxfYmluZGluZycsICctaW1hZScsICc8aW5maWxlLm1hZT4nLCAnLW9tYWUnLCAnPG91dGZpbGUubWFlPic=

> <r_epik_Ionization_Penalty>
0.000973993

> <r_epik_Ionization_Penalty_Charging>
0

> <r_epik_Ionization_Penalty_Neutral>
0.000973993

> <r_epik_State_Penalty>
0.000633765

> <r_epik_Charging_Adjusted_Penalty>
0.000633765

> <i_epik_Tot_Q>
0

> <i_epik_Tot_abs_Q>
0

> <r_epik_Metal_State_Penalty>
-0

> <b_epik_Metal_Only>
0

> <s_lp_Force_Field>
OPLS_2005

> <r_lp_Energy>
12.9276

> <b_lp_Chiralities_Consistent>
1

> <s_lp_Variant>
AV-unprocessed.smi:2162-2

> <Gold.Version>
5.8.1

> <Gold.Id.Protein>
6NUR|6NUR_protein|mol2

> <Gold.PLP.Fitness>
36.1047

> <Gold.PLP.PLP>
-30.3563

> <Gold.PLP.part.hbond>
-1.0000

> <Gold.PLP.part.metal>
0.0000

> <Gold.PLP.part.buried>
-1.9308

> <Gold.PLP.part.nonpolar>
-28.0702

> <Gold.PLP.part.repulsive>
1.0128

> <Gold.PLP.ligand.clash>
0.0000

> <Gold.PLP.ligand.torsion>
0.1604

> <Gold.PLP.Chemscore.Hbond>
1.0000

> <Gold.PLP.Chemscore.CHOScore>
1.0000

> <Gold.PLP.Chemscore.Metal>
0.0000

> <Gold.Chemscore.Hbonds>
donor molecule, donor type, donor heavy atom, donor atom, acceptor molecule, acceptor atom, score
      L1  H     7    28       P1  7948  1.00
      L1  C    19    41       P1 10747  1.00

> <Gold.PLP.Chemscore.Internal.Correction>
0.0691

> <Gold.Rescore>
     Score         DG    S(hbond)    S(metal)    S(lipo)     H(rot)  DE(clash)    DE(int)     intcor
     12.78     -13.11       1.00        0.00      73.02       1.66       0.10       0.22       ----

> <Gold.Chemscore.Fitness>
12.7830

> <Gold.Chemscore.DG>
-13.1079

> <Gold.Chemscore.ZeroCoef>
-5.4800

> <Gold.Chemscore.Hbond>
0.9972

> <Gold.Chemscore.Metal>
0.0000

> <Gold.Chemscore.Lipo>
73.0156

> <Gold.Chemscore.Internal_Hbond>
0.0000

> <Gold.Chemscore.DEClash>
0.1035

> <Gold.Chemscore.DEInternal>
0.2214

> <Gold.Chemscore.Rot>
1.6585

> <Gold.Chemscore.Internal.Correction>
   9.000000E+99

> <Gold.Chemscore.Hbonds>
donor molecule, donor type, donor heavy atom, donor atom, acceptor molecule, acceptor atom, score
      L1  H     7    28       P1  7948  0.99

> <Gold.Chemscore.Hbond.Weighted>
-3.3307

> <Gold.Chemscore.Metal.Weighted>
-0.0000

> <Gold.Chemscore.Lipo.Weighted>
-8.5428

> <Gold.Chemscore.Internal_Hbond.Weighted>
0.0000

> <Gold.Chemscore.DEClash.Weighted>
0.1035

> <Gold.Chemscore.DEInternal.Weighted>
0.2214

> <Gold.Chemscore.Rot.Weighted>
4.2457

> <Gold.Chemscore.Internal.Correction.Weighted>
   9.000000E+99

> <Gold.Protein.RotatedTorsions>
[ 6907 6896 6895 6894 ] final  -83.70 input  -60.11 | X-H torsion
[ 7974 7965 7964 7962 ] final  152.65 input  175.53 | X-H torsion
[ 8008 7997 7996 7995 ] final  136.83 input   59.86 | X-H torsion
[ 10167 10162 10161 10158 ] final   72.32 input  -65.29 | X-H torsion
[ 10718 10713 10712 10709 ] final   77.56 input   66.30 | X-H torsion
[ 10763 10752 10751 10750 ] final   60.95 input  -60.55 | X-H torsion
[ 11005 11000 10999 10996 ] final   90.50 input  -57.11 | X-H torsion

> <Gold.Protein.ActiveResidues>
 VAL166  LYS551  ARG553  GLY616  TRP617  ASP618  TYR619  PRO620  LYS621  CYS622 
 ASP623  PHE694  ASN695  SER759  ASP760  ASP761  ALA762  ILE779  LEU786  VAL792 
 PHE793  MET794  SER795  GLU796  ALA797  LYS798  CYS799  TRP800  GLU811  SER814 

> <Gold.Protein.RotatedAtoms>
  150.6883  134.3471  159.4892 H   0  0  0  0  0  0  0  0  0  0  0  0  # atno 6907 bound_to 6896
  152.1317  134.9127  160.0567 H   0  0  0  0  0  0  0  0  0  0  0  0  # atno 6908 bound_to 6896
  152.0294  133.3896  159.4328 H   0  0  0  0  0  0  0  0  0  0  0  0  # atno 6909 bound_to 6896
  144.8208  139.6696  143.6101 H   0  0  0  0  0  0  0  0  0  0  0  0  # atno 7974 bound_to 7965
  156.3003  140.2435  156.3810 H   0  0  0  0  0  0  0  0  0  0  0  0  # atno 8008 bound_to 7997
  154.8701  140.0416  157.1739 H   0  0  0  0  0  0  0  0  0  0  0  0  # atno 8009 bound_to 7997
  154.8804  140.2948  155.5432 H   0  0  0  0  0  0  0  0  0  0  0  0  # atno 8010 bound_to 7997
  140.0366  144.5423  150.7466 H   0  0  0  0  0  0  0  0  0  0  0  0  # atno 10167 bound_to 10162
  157.6715  130.9827  150.1660 H   0  0  0  0  0  0  0  0  0  0  0  0  # atno 10718 bound_to 10713
  152.9936  135.5518  154.5956 H   0  0  0  0  0  0  0  0  0  0  0  0  # atno 10763 bound_to 10752
  154.5309  135.2813  155.1183 H   0  0  0  0  0  0  0  0  0  0  0  0  # atno 10764 bound_to 10752
  154.2499  135.6401  153.5289 H   0  0  0  0  0  0  0  0  0  0  0  0  # atno 10765 bound_to 10752
  139.8855  134.8618  156.3294 H   0  0  0  0  0  0  0  0  0  0  0  0  # atno 11005 bound_to 11000
  146.2513  139.6206  142.9425 LP  0  0  0  0  0  0  0  0  0  0  0  0  # atno 17320 bound_to 7965
  145.5110  141.0435  143.2488 LP  0  0  0  0  0  0  0  0  0  0  0  0  # atno 17321 bound_to 7965
  140.7279  143.2656  151.4056 LP  0  0  0  0  0  0  0  0  0  0  0  0  # atno 17342 bound_to 10162
  139.6041  144.1233  152.2230 LP  0  0  0  0  0  0  0  0  0  0  0  0  # atno 17343 bound_to 10162
  156.2425  130.3692  149.8321 LP  0  0  0  0  0  0  0  0  0  0  0  0  # atno 17370 bound_to 10713
  156.6117  130.8589  151.3456 LP  0  0  0  0  0  0  0  0  0  0  0  0  # atno 17371 bound_to 10713
  140.9733  133.7313  156.0566 LP  0  0  0  0  0  0  0  0  0  0  0  0  # atno 17394 bound_to 11000
  140.7843  134.3690  157.5480 LP  0  0  0  0  0  0  0  0  0  0  0  0  # atno 17395 bound_to 11000

$$$$
