AV-unprocessed.smi:247|AV-procd|sdf|1894|dock8
  -GOLD-   2262020563D 1   1.00000     0.00000
 Structure written by MMmdl.
 61 65  0  0  0  0  0  0  0  0  1 V2000
  147.2344  131.4564  161.3401 O   0  0  0  0  0  0  0  0  0  0  0  0
  147.9317  132.6868  161.3502 C   0  0  0  0  0  0  0  0  0  0  0  0
  147.0101  133.9221  161.1500 C   0  0  0  0  0  0  0  0  0  0  0  0
  147.9050  135.1976  161.0452 C   0  0  0  0  0  0  0  0  0  0  0  0
  147.7027  135.9980  159.8455 N   0  0  0  0  0  0  0  0  0  0  0  0
  146.9318  137.1333  159.7314 C   0  0  0  0  0  0  0  0  0  0  0  0
  146.9148  137.6793  158.5466 N   0  0  0  0  0  0  0  0  0  0  0  0
  147.7511  136.8699  157.7870 C   0  0  0  0  0  0  0  0  0  0  0  0
  148.1848  136.8892  156.4310 C   0  0  0  0  0  0  0  0  0  0  0  0
  147.7657  137.8277  155.5427 N   0  0  0  0  0  0  0  0  0  0  0  0
  146.3221  137.9712  155.3857 C   0  0  0  0  0  0  0  0  0  0  0  0
  146.0756  138.2513  153.9004 C   0  0  0  0  0  0  0  0  0  0  0  0
  147.4091  138.8072  153.4122 C   0  0  0  0  0  0  0  0  0  0  0  0
  148.4222  138.0140  154.2479 C   0  0  1  0  0  0  0  0  0  0  0  0
  149.8598  138.6103  154.3265 C   0  0  1  0  0  0  0  0  0  0  0  0
  149.8457  139.9376  155.1161 C   0  0  0  0  0  0  0  0  0  0  0  0
  151.1343  140.5423  155.1171 O   0  0  0  0  0  0  0  0  0  0  0  0
  152.1189  139.7466  155.7651 C   0  0  0  0  0  0  0  0  0  0  0  0
  152.2868  138.4231  155.0068 C   0  0  0  0  0  0  0  0  0  0  0  0
  150.9473  137.6776  154.9183 C   0  0  2  0  0  0  0  0  0  0  0  0
  151.1461  136.5316  154.1149 O   0  0  0  0  0  0  0  0  0  0  0  0
  149.0467  135.9140  156.0387 N   0  0  0  0  0  0  0  0  0  0  0  0
  149.4566  134.9840  156.9057 C   0  0  0  0  0  0  0  0  0  0  0  0
  149.1315  134.8415  158.1917 N   0  0  0  0  0  0  0  0  0  0  0  0
  148.2665  135.8162  158.5937 C   0  0  0  0  0  0  0  0  0  0  0  0
  146.1312  133.7233  159.8877 C   0  0  0  0  0  0  0  0  0  0  0  0
  145.0363  134.7976  159.7614 C   0  0  0  0  0  0  0  0  0  0  0  0
  144.2230  134.7970  160.9284 O   0  0  0  0  0  0  0  0  0  0  0  0
  144.9439  135.1188  162.1117 C   0  0  0  0  0  0  0  0  0  0  0  0
  146.0522  134.0774  162.3598 C   0  0  0  0  0  0  0  0  0  0  0  0
  146.4900  131.5381  160.7638 H   0  0  0  0  0  0  0  0  0  0  0  0
  148.4663  132.7627  162.2978 H   0  0  0  0  0  0  0  0  0  0  0  0
  148.6857  132.6342  160.5650 H   0  0  0  0  0  0  0  0  0  0  0  0
  147.7597  135.8579  161.8987 H   0  0  0  0  0  0  0  0  0  0  0  0
  148.9571  134.9116  161.0810 H   0  0  0  0  0  0  0  0  0  0  0  0
  146.3734  137.5445  160.5597 H   0  0  0  0  0  0  0  0  0  0  0  0
  145.7747  137.0860  155.7135 H   0  0  0  0  0  0  0  0  0  0  0  0
  145.9906  138.8155  155.9908 H   0  0  0  0  0  0  0  0  0  0  0  0
  145.8582  137.3166  153.3820 H   0  0  0  0  0  0  0  0  0  0  0  0
  145.2409  138.9319  153.7303 H   0  0  0  0  0  0  0  0  0  0  0  0
  147.5494  138.6792  152.3387 H   0  0  0  0  0  0  0  0  0  0  0  0
  147.4500  139.8725  153.6348 H   0  0  0  0  0  0  0  0  0  0  0  0
  148.4979  137.0262  153.7900 H   0  0  0  0  0  0  0  0  0  0  0  0
  150.1729  138.8657  153.3138 H   0  0  0  0  0  0  0  0  0  0  0  0
  149.1435  140.6364  154.6608 H   0  0  0  0  0  0  0  0  0  0  0  0
  149.5143  139.7828  156.1439 H   0  0  0  0  0  0  0  0  0  0  0  0
  153.0619  140.2933  155.7779 H   0  0  0  0  0  0  0  0  0  0  0  0
  151.8378  139.5697  156.8043 H   0  0  0  0  0  0  0  0  0  0  0  0
  152.6652  138.6316  154.0048 H   0  0  0  0  0  0  0  0  0  0  0  0
  153.0349  137.8021  155.5010 H   0  0  0  0  0  0  0  0  0  0  0  0
  150.6687  137.3513  155.9195 H   0  0  0  0  0  0  0  0  0  0  0  0
  150.4040  136.4396  153.5365 H   0  0  0  0  0  0  0  0  0  0  0  0
  150.1412  134.2471  156.5118 H   0  0  0  0  0  0  0  0  0  0  0  0
  146.7383  133.6916  158.9839 H   0  0  0  0  0  0  0  0  0  0  0  0
  145.6322  132.7549  159.9339 H   0  0  0  0  0  0  0  0  0  0  0  0
  145.4598  135.7885  159.5964 H   0  0  0  0  0  0  0  0  0  0  0  0
  144.4051  134.5822  158.8994 H   0  0  0  0  0  0  0  0  0  0  0  0
  145.3451  136.1302  162.0453 H   0  0  0  0  0  0  0  0  0  0  0  0
  144.2471  135.1200  162.9500 H   0  0  0  0  0  0  0  0  0  0  0  0
  145.5610  133.1285  162.5760 H   0  0  0  0  0  0  0  0  0  0  0  0
  146.6123  134.3352  163.2594 H   0  0  0  0  0  0  0  0  0  0  0  0
  1  2  1  0  0  0  0
  1 31  1  0  0  0  0
  2  3  1  0  0  0  0
  2 32  1  0  0  0  0
  2 33  1  0  0  0  0
  3 30  1  0  0  0  0
  3  4  1  0  0  0  0
  3 26  1  0  0  0  0
  4  5  1  0  0  0  0
  4 34  1  0  0  0  0
  4 35  1  0  0  0  0
  5 25  1  0  0  0  0
  5  6  1  0  0  0  0
  6  7  2  0  0  0  0
  6 36  1  0  0  0  0
  7  8  1  0  0  0  0
  8 25  2  0  0  0  0
  8  9  1  0  0  0  0
  9 10  1  0  0  0  0
  9 22  2  0  0  0  0
 10 14  1  0  0  0  0
 10 11  1  0  0  0  0
 11 12  1  0  0  0  0
 11 37  1  0  0  0  0
 11 38  1  0  0  0  0
 12 13  1  0  0  0  0
 12 39  1  0  0  0  0
 12 40  1  0  0  0  0
 13 14  1  0  0  0  0
 13 41  1  0  0  0  0
 13 42  1  0  0  0  0
 14 15  1  0  0  0  0
 14 43  1  0  0  0  0
 15 20  1  0  0  0  0
 15 16  1  0  0  0  0
 15 44  1  0  0  0  0
 16 17  1  0  0  0  0
 16 45  1  0  0  0  0
 16 46  1  0  0  0  0
 17 18  1  0  0  0  0
 18 19  1  0  0  0  0
 18 47  1  0  0  0  0
 18 48  1  0  0  0  0
 19 20  1  0  0  0  0
 19 49  1  0  0  0  0
 19 50  1  0  0  0  0
 20 21  1  0  0  0  0
 20 51  1  0  0  0  0
 21 52  1  0  0  0  0
 22 23  1  0  0  0  0
 23 24  2  0  0  0  0
 23 53  1  0  0  0  0
 24 25  1  0  0  0  0
 26 27  1  0  0  0  0
 26 54  1  0  0  0  0
 26 55  1  0  0  0  0
 27 28  1  0  0  0  0
 27 56  1  0  0  0  0
 27 57  1  0  0  0  0
 28 29  1  0  0  0  0
 29 30  1  0  0  0  0
 29 58  1  0  0  0  0
 29 59  1  0  0  0  0
 30 60  1  0  0  0  0
 30 61  1  0  0  0  0
M  END
> <s_m_source_file>
AV-unprocessed.smi

> <i_m_source_file_index>
247

> <i_lp_mmshare_version>
43012

> <i_f3d_flags>
0

> <s_epik_input>
W0NIMl0xW0NIMl1PW0NIMl1bQ0gyXUMxKFtDSDJdW09IXSlbQ0gyXW4oW2NIXW4yKWMoYzIzKW5bY0hdbmMzTjRbQ0gyXVtDSDJdW0NIMl1bQ0BIXTRbQ0BASF01W0NIMl1PW0NIMl1bQ0gyXVtDQEhdNVtPSF0=

> <s_epik_cmdline>
J2VwaWtfcHl0aG9uJywgJy1waCcsICc3LjAnLCAnLXRuJywgJzgnLCAnLW1hJywgJzIwMCcsICctbWV0YWxfYmluZGluZycsICctaW1hZScsICc8aW5maWxlLm1hZT4nLCAnLW9tYWUnLCAnPG91dGZpbGUubWFlPic=

> <r_lp_tautomer_probability>
1

> <r_epik_Ionization_Penalty>
0.00362597

> <r_epik_Ionization_Penalty_Charging>
0

> <r_epik_Ionization_Penalty_Neutral>
0.00362597

> <r_epik_State_Penalty>
0.00241433

> <r_epik_Charging_Adjusted_Penalty>
0.00241433

> <i_epik_Tot_Q>
0

> <i_epik_Tot_abs_Q>
0

> <r_epik_Metal_State_Penalty>
-0

> <b_epik_Metal_Only>
0

> <s_lp_Force_Field>
OPLS_2005

> <r_lp_Energy>
58.3113

> <b_lp_Chiralities_Consistent>
1

> <s_lp_Variant>
AV-unprocessed.smi:247-7

> <Gold.Version>
5.8.1

> <Gold.Id.Protein>
6NUR|6NUR_protein|mol2

> <Gold.PLP.Fitness>
41.1255

> <Gold.PLP.PLP>
-34.2363

> <Gold.PLP.part.hbond>
-4.9437

> <Gold.PLP.part.metal>
0.0000

> <Gold.PLP.part.buried>
-2.0492

> <Gold.PLP.part.nonpolar>
-27.3324

> <Gold.PLP.part.repulsive>
0.1281

> <Gold.PLP.ligand.clash>
0.0000

> <Gold.PLP.ligand.torsion>
1.7284

> <Gold.PLP.Chemscore.Hbond>
3.3269

> <Gold.PLP.Chemscore.CHOScore>
0.0000

> <Gold.PLP.Chemscore.Metal>
0.0000

> <Gold.Chemscore.Hbonds>
donor molecule, donor type, donor heavy atom, donor atom, acceptor molecule, acceptor atom, score
      L1  H    21    52       P1  7948  0.23
      P1  H  6896  6908       L1    24  0.94
      P1  H  7989  7998       L1    17  0.96
      P1  H 10752 10763       L1    21  1.00

> <Gold.PLP.Chemscore.Internal.Correction>
0.3653

> <Gold.Rescore>
     Score         DG    S(hbond)    S(metal)    S(lipo)     H(rot)  DE(clash)    DE(int)     intcor
      8.56     -14.94       2.29        0.00      86.08       3.23       0.33       6.05       ----

> <Gold.Chemscore.Fitness>
8.5643

> <Gold.Chemscore.DG>
-14.9387

> <Gold.Chemscore.ZeroCoef>
-5.4800

> <Gold.Chemscore.Hbond>
2.2907

> <Gold.Chemscore.Metal>
0.0000

> <Gold.Chemscore.Lipo>
86.0765

> <Gold.Chemscore.Internal_Hbond>
0.0000

> <Gold.Chemscore.DEClash>
0.3277

> <Gold.Chemscore.DEInternal>
6.0466

> <Gold.Chemscore.Rot>
3.2278

> <Gold.Chemscore.Internal.Correction>
   9.000000E+99

> <Gold.Chemscore.Hbonds>
donor molecule, donor type, donor heavy atom, donor atom, acceptor molecule, acceptor atom, score
      P1  H  6896  6908       L1    24  0.78
      P1  H  7989  7998       L1    17  0.51
      P1  H 10752 10763       L1    21  0.91

> <Gold.Chemscore.Hbond.Weighted>
-7.6510

> <Gold.Chemscore.Metal.Weighted>
-0.0000

> <Gold.Chemscore.Lipo.Weighted>
-10.0709

> <Gold.Chemscore.Internal_Hbond.Weighted>
0.0000

> <Gold.Chemscore.DEClash.Weighted>
0.3277

> <Gold.Chemscore.DEInternal.Weighted>
6.0466

> <Gold.Chemscore.Rot.Weighted>
8.2633

> <Gold.Chemscore.Internal.Correction.Weighted>
   9.000000E+99

> <Gold.Protein.RotatedTorsions>
[ 6907 6896 6895 6894 ] final  139.45 input  -60.11 | X-H torsion
[ 7974 7965 7964 7962 ] final -140.13 input  175.53 | X-H torsion
[ 8008 7997 7996 7995 ] final  -26.12 input   59.86 | X-H torsion
[ 10167 10162 10161 10158 ] final  153.70 input  -65.29 | X-H torsion
[ 10718 10713 10712 10709 ] final -101.81 input   66.30 | X-H torsion
[ 10763 10752 10751 10750 ] final   38.90 input  -60.55 | X-H torsion
[ 11005 11000 10999 10996 ] final   79.70 input  -57.11 | X-H torsion

> <Gold.Protein.ActiveResidues>
 VAL166  LYS551  ARG553  GLY616  TRP617  ASP618  TYR619  PRO620  LYS621  CYS622 
 ASP623  PHE694  ASN695  SER759  ASP760  ASP761  ALA762  ILE779  LEU786  VAL792 
 PHE793  MET794  SER795  GLU796  ALA797  LYS798  CYS799  TRP800  GLU811  SER814 

> <Gold.Protein.RotatedAtoms>
  152.2548  133.5246  159.5346 H   0  0  0  0  0  0  0  0  0  0  0  0  # atno 6907 bound_to 6896
  150.7105  134.0911  159.3941 H   0  0  0  0  0  0  0  0  0  0  0  0  # atno 6908 bound_to 6896
  151.8829  135.0446  160.0541 H   0  0  0  0  0  0  0  0  0  0  0  0  # atno 6909 bound_to 6896
  144.8621  140.6236  143.5321 H   0  0  0  0  0  0  0  0  0  0  0  0  # atno 7974 bound_to 7965
  154.4441  140.1908  156.0726 H   0  0  0  0  0  0  0  0  0  0  0  0  # atno 8008 bound_to 7997
  156.0500  140.3309  155.7313 H   0  0  0  0  0  0  0  0  0  0  0  0  # atno 8009 bound_to 7997
  155.5572  140.0600  157.2828 H   0  0  0  0  0  0  0  0  0  0  0  0  # atno 8010 bound_to 7997
  139.4826  144.5250  151.7815 H   0  0  0  0  0  0  0  0  0  0  0  0  # atno 10167 bound_to 10162
  156.0207  130.5391  150.7017 H   0  0  0  0  0  0  0  0  0  0  0  0  # atno 10718 bound_to 10713
  152.9985  135.6236  154.2379 H   0  0  0  0  0  0  0  0  0  0  0  0  # atno 10763 bound_to 10752
  154.2120  135.2799  155.2957 H   0  0  0  0  0  0  0  0  0  0  0  0  # atno 10764 bound_to 10752
  154.5599  135.5708  153.7056 H   0  0  0  0  0  0  0  0  0  0  0  0  # atno 10765 bound_to 10752
  139.9162  134.7863  156.1813 H   0  0  0  0  0  0  0  0  0  0  0  0  # atno 11005 bound_to 11000
  145.4292  139.1552  143.4032 LP  0  0  0  0  0  0  0  0  0  0  0  0  # atno 17320 bound_to 7965
  146.2868  140.4407  142.8755 LP  0  0  0  0  0  0  0  0  0  0  0  0  # atno 17321 bound_to 7965
  140.4769  144.1506  150.5926 LP  0  0  0  0  0  0  0  0  0  0  0  0  # atno 17342 bound_to 10162
  140.4321  143.2563  151.9582 LP  0  0  0  0  0  0  0  0  0  0  0  0  # atno 17343 bound_to 10162
  157.4676  131.0890  151.0678 LP  0  0  0  0  0  0  0  0  0  0  0  0  # atno 17370 bound_to 10713
  157.1148  130.6037  149.5490 LP  0  0  0  0  0  0  0  0  0  0  0  0  # atno 17371 bound_to 10713
  141.0641  133.6828  156.2009 LP  0  0  0  0  0  0  0  0  0  0  0  0  # atno 17394 bound_to 11000
  140.6614  134.4964  157.5583 LP  0  0  0  0  0  0  0  0  0  0  0  0  # atno 17395 bound_to 11000

$$$$
