AV-unprocessed.smi:1452|AV-procd|sdf|5909|dock9
  -GOLD-   22720 5593D 1   1.00000     0.00000
 Structure written by MMmdl.
 40 42  0  0  0  0  0  0  0  0  2 V2000
  144.8009  136.7538  152.4690 O   0  0  0  0  0  0  0  0  0  0  0  0
  145.9994  136.5021  152.3579 C   0  0  0  0  0  0  0  0  0  0  0  0
  146.4236  135.3697  151.7584 N   0  0  0  0  0  0  0  0  0  0  0  0
  145.6977  134.2944  151.1661 C   0  0  0  0  0  0  0  0  0  0  0  0
  146.5047  133.2655  150.6300 C   0  0  0  0  0  0  0  0  0  0  0  0
  145.8980  132.1590  150.0050 C   0  0  0  0  0  0  0  0  0  0  0  0
  144.4949  132.1100  149.9271 C   0  0  0  0  0  0  0  0  0  0  0  0
  143.7633  133.1763  150.4801 C   0  0  0  0  0  0  0  0  0  0  0  0
  144.3434  134.2378  151.0798 N   0  0  0  0  0  0  0  0  0  0  0  0
  146.9602  137.3211  152.8173 N   0  0  0  0  0  0  0  0  0  0  0  0
  146.7460  138.5706  153.5431 C   0  0  2  0  0  0  0  0  0  0  0  0
  146.5000  139.7692  152.6059 C   0  0  0  0  0  0  0  0  0  0  0  0
  147.3207  140.9125  153.2110 C   0  0  0  0  0  0  0  0  0  0  0  0
  148.4700  140.2160  153.8001 N   0  3  1  0  0  0  0  0  0  0  0  0
  149.3689  140.9716  154.6957 C   0  0  0  0  0  0  0  0  0  0  0  0
  150.5834  140.0805  155.0336 C   0  0  0  0  0  0  0  0  0  0  0  0
  150.1608  138.6958  155.5753 C   0  0  0  0  0  0  0  0  0  0  0  0
  149.1230  138.0146  154.6578 C   0  0  0  0  0  0  0  0  0  0  0  0
  147.9510  138.9845  154.4195 C   0  0  2  0  0  0  0  0  0  0  0  0
  147.4248  135.3083  151.6416 H   0  0  0  0  0  0  0  0  0  0  0  0
  147.5819  133.3189  150.6951 H   0  0  0  0  0  0  0  0  0  0  0  0
  146.4996  131.3631  149.5915 H   0  0  0  0  0  0  0  0  0  0  0  0
  143.9931  131.2786  149.4545 H   0  0  0  0  0  0  0  0  0  0  0  0
  142.6842  133.1790  150.4394 H   0  0  0  0  0  0  0  0  0  0  0  0
  147.9187  137.0339  152.6765 H   0  0  0  0  0  0  0  0  0  0  0  0
  145.8720  138.4660  154.1889 H   0  0  0  0  0  0  0  0  0  0  0  0
  146.8742  139.5505  151.6043 H   0  0  0  0  0  0  0  0  0  0  0  0
  145.4427  140.0203  152.5133 H   0  0  0  0  0  0  0  0  0  0  0  0
  147.6259  141.6508  152.4690 H   0  0  0  0  0  0  0  0  0  0  0  0
  146.7551  141.4190  153.9947 H   0  0  0  0  0  0  0  0  0  0  0  0
  149.6986  141.8859  154.2012 H   0  0  0  0  0  0  0  0  0  0  0  0
  148.8371  141.2662  155.6019 H   0  0  0  0  0  0  0  0  0  0  0  0
  151.1838  139.9405  154.1337 H   0  0  0  0  0  0  0  0  0  0  0  0
  151.2277  140.5840  155.7550 H   0  0  0  0  0  0  0  0  0  0  0  0
  151.0359  138.0554  155.6911 H   0  0  0  0  0  0  0  0  0  0  0  0
  149.7351  138.8155  156.5725 H   0  0  0  0  0  0  0  0  0  0  0  0
  149.5880  137.7373  153.7106 H   0  0  0  0  0  0  0  0  0  0  0  0
  148.7696  137.0929  155.1211 H   0  0  0  0  0  0  0  0  0  0  0  0
  147.5399  139.2572  155.3941 H   0  0  0  0  0  0  0  0  0  0  0  0
  149.0320  139.9162  153.0163 H   0  0  0  0  0  0  0  0  0  0  0  0
  1  2  2  0  0  0  0
  2  3  1  0  0  0  0
  2 10  1  0  0  0  0
  3  4  1  0  0  0  0
  3 20  1  0  0  0  0
  4  9  1  0  0  0  0
  4  5  2  0  0  0  0
  5  6  1  0  0  0  0
  5 21  1  0  0  0  0
  6  7  2  0  0  0  0
  6 22  1  0  0  0  0
  7  8  1  0  0  0  0
  7 23  1  0  0  0  0
  8  9  2  0  0  0  0
  8 24  1  0  0  0  0
 10 11  1  0  0  0  0
 10 25  1  0  0  0  0
 11 19  1  0  0  0  0
 11 12  1  0  0  0  0
 11 26  1  0  0  0  0
 12 13  1  0  0  0  0
 12 27  1  0  0  0  0
 12 28  1  0  0  0  0
 13 14  1  0  0  0  0
 13 29  1  0  0  0  0
 13 30  1  0  0  0  0
 14 19  1  0  0  0  0
 14 15  1  0  0  0  0
 14 40  1  0  0  0  0
 15 16  1  0  0  0  0
 15 31  1  0  0  0  0
 15 32  1  0  0  0  0
 16 17  1  0  0  0  0
 16 33  1  0  0  0  0
 16 34  1  0  0  0  0
 17 18  1  0  0  0  0
 17 35  1  0  0  0  0
 17 36  1  0  0  0  0
 18 19  1  0  0  0  0
 18 37  1  0  0  0  0
 18 38  1  0  0  0  0
 19 39  1  0  0  0  0
M  CHG  1  14   1
M  END
> <s_m_source_file>
AV-unprocessed.smi

> <i_m_source_file_index>
1452

> <i_lp_mmshare_version>
43012

> <i_f3d_flags>
0

> <s_epik_input>
W0NIMl0xW0NIMl1bQ0gyXVtDSDJdW0NASF0oTjEyKVtDQEBIXShbQ0gyXVtDSDJdMilbTkhdQyg9TylbTkhdYzNbY0hdW2NIXVtjSF1bY0hdbjM=

> <s_epik_cmdline>
J2VwaWtfcHl0aG9uJywgJy1waCcsICc3LjAnLCAnLXRuJywgJzgnLCAnLW1hJywgJzIwMCcsICctbWV0YWxfYmluZGluZycsICctaW1hZScsICc8aW5maWxlLm1hZT4nLCAnLW9tYWUnLCAnPG91dGZpbGUubWFlPic=

> <r_epik_Ionization_Penalty>
0.00100813

> <r_epik_Ionization_Penalty_Charging>
0.000974069

> <r_epik_Ionization_Penalty_Neutral>
3.40643e-05

> <r_epik_State_Penalty>
0.000633842

> <r_epik_Charging_Adjusted_Penalty>
0.00160791

> <i_epik_Tot_Q>
1

> <i_epik_Tot_abs_Q>
1

> <r_epik_Metal_State_Penalty>
-0

> <b_epik_Metal_Only>
0

> <s_lp_Force_Field>
OPLS_2005

> <r_lp_Energy>
45.6992

> <b_lp_Chiralities_Consistent>
1

> <s_lp_Variant>
AV-unprocessed.smi:1452-7

> <Gold.Version>
5.8.1

> <Gold.Id.Protein>
6NUR|6NUR_protein|mol2

> <Gold.PLP.Fitness>
41.1473

> <Gold.PLP.PLP>
-30.2050

> <Gold.PLP.part.hbond>
-2.7533

> <Gold.PLP.part.metal>
0.0000

> <Gold.PLP.part.buried>
0.5536

> <Gold.PLP.part.nonpolar>
-28.6930

> <Gold.PLP.part.repulsive>
0.5609

> <Gold.PLP.ligand.clash>
0.0000

> <Gold.PLP.ligand.torsion>
0.3372

> <Gold.PLP.Chemscore.Hbond>
2.8720

> <Gold.PLP.Chemscore.CHOScore>
1.0000

> <Gold.PLP.Chemscore.Metal>
0.0000

> <Gold.Chemscore.Hbonds>
donor molecule, donor type, donor heavy atom, donor atom, acceptor molecule, acceptor atom, score
      L1  H     3    20       P1  7948  0.90
      L1  H    10    25       P1  7948  0.98
      L1  H    14    40       P1  7957  1.00
      L1  C     8    24       P1 10186  1.00

> <Gold.PLP.Chemscore.Internal.Correction>
0.0006

> <Gold.Rescore>
     Score         DG    S(hbond)    S(metal)    S(lipo)     H(rot)  DE(clash)    DE(int)     intcor
     19.32     -22.39       2.80        0.00      86.46       1.00       1.50       1.58       ----

> <Gold.Chemscore.Fitness>
19.3152

> <Gold.Chemscore.DG>
-22.3935

> <Gold.Chemscore.ZeroCoef>
-5.4800

> <Gold.Chemscore.Hbond>
2.8018

> <Gold.Chemscore.Metal>
0.0000

> <Gold.Chemscore.Lipo>
86.4568

> <Gold.Chemscore.Internal_Hbond>
0.0000

> <Gold.Chemscore.DEClash>
1.5033

> <Gold.Chemscore.DEInternal>
1.5750

> <Gold.Chemscore.Rot>
1.0000

> <Gold.Chemscore.Internal.Correction>
   9.000000E+99

> <Gold.Chemscore.Hbonds>
donor molecule, donor type, donor heavy atom, donor atom, acceptor molecule, acceptor atom, score
      L1  H     3    20       P1  7948  0.80
      L1  H    10    25       P1  7948  0.87
      L1  H    14    40       P1  7957  0.95

> <Gold.Chemscore.Hbond.Weighted>
-9.3580

> <Gold.Chemscore.Metal.Weighted>
-0.0000

> <Gold.Chemscore.Lipo.Weighted>
-10.1154

> <Gold.Chemscore.Internal_Hbond.Weighted>
0.0000

> <Gold.Chemscore.DEClash.Weighted>
1.5033

> <Gold.Chemscore.DEInternal.Weighted>
1.5750

> <Gold.Chemscore.Rot.Weighted>
2.5600

> <Gold.Chemscore.Internal.Correction.Weighted>
   9.000000E+99

> <Gold.Protein.RotatedTorsions>
[ 6907 6896 6895 6894 ] final    7.27 input  -60.11 | X-H torsion
[ 7974 7965 7964 7962 ] final   48.54 input  175.53 | X-H torsion
[ 8008 7997 7996 7995 ] final   64.86 input   59.86 | X-H torsion
[ 10167 10162 10161 10158 ] final  -98.81 input  -65.29 | X-H torsion
[ 10718 10713 10712 10709 ] final -100.38 input   66.30 | X-H torsion
[ 10763 10752 10751 10750 ] final -157.91 input  -60.55 | X-H torsion
[ 11005 11000 10999 10996 ] final -157.54 input  -57.11 | X-H torsion

> <Gold.Protein.ActiveResidues>
 VAL166  LYS551  ARG553  GLY616  TRP617  ASP618  TYR619  PRO620  LYS621  CYS622 
 ASP623  PHE694  ASN695  SER759  ASP760  ASP761  ALA762  ILE779  LEU786  VAL792 
 PHE793  MET794  SER795  GLU796  ALA797  LYS798  CYS799  TRP800  GLU811  SER814 

> <Gold.Protein.RotatedAtoms>
  151.6872  135.0952  160.0226 H   0  0  0  0  0  0  0  0  0  0  0  0  # atno 6907 bound_to 6896
  152.3800  133.6529  159.6162 H   0  0  0  0  0  0  0  0  0  0  0  0  # atno 6908 bound_to 6896
  150.7739  133.9046  159.3392 H   0  0  0  0  0  0  0  0  0  0  0  0  # atno 6909 bound_to 6896
  146.0194  139.4634  142.9906 H   0  0  0  0  0  0  0  0  0  0  0  0  # atno 7974 bound_to 7965
  155.6526  140.3497  155.4753 H   0  0  0  0  0  0  0  0  0  0  0  0  # atno 8008 bound_to 7997
  155.9835  140.1179  157.0728 H   0  0  0  0  0  0  0  0  0  0  0  0  # atno 8009 bound_to 7997
  154.4198  140.1133  156.5454 H   0  0  0  0  0  0  0  0  0  0  0  0  # atno 8010 bound_to 7997
  140.2690  143.3356  152.0553 H   0  0  0  0  0  0  0  0  0  0  0  0  # atno 10167 bound_to 10162
  156.0161  130.5325  150.6808 H   0  0  0  0  0  0  0  0  0  0  0  0  # atno 10718 bound_to 10713
  154.7599  135.3115  154.8399 H   0  0  0  0  0  0  0  0  0  0  0  0  # atno 10763 bound_to 10752
  153.9163  135.6800  153.4753 H   0  0  0  0  0  0  0  0  0  0  0  0  # atno 10764 bound_to 10752
  153.1198  135.4827  154.9108 H   0  0  0  0  0  0  0  0  0  0  0  0  # atno 10765 bound_to 10752
  140.6634  134.4324  157.5234 H   0  0  0  0  0  0  0  0  0  0  0  0  # atno 11005 bound_to 11000
  145.7217  141.0073  143.1399 LP  0  0  0  0  0  0  0  0  0  0  0  0  # atno 17320 bound_to 7965
  144.6984  139.8878  143.7451 LP  0  0  0  0  0  0  0  0  0  0  0  0  # atno 17321 bound_to 7965
  139.4994  144.6669  151.6335 LP  0  0  0  0  0  0  0  0  0  0  0  0  # atno 17342 bound_to 10162
  140.5905  143.9788  150.6321 LP  0  0  0  0  0  0  0  0  0  0  0  0  # atno 17343 bound_to 10162
  157.4511  131.0872  151.0845 LP  0  0  0  0  0  0  0  0  0  0  0  0  # atno 17370 bound_to 10713
  157.1361  130.6123  149.5542 LP  0  0  0  0  0  0  0  0  0  0  0  0  # atno 17371 bound_to 10713
  139.9005  134.8567  156.1916 LP  0  0  0  0  0  0  0  0  0  0  0  0  # atno 17394 bound_to 11000
  141.0447  133.6919  156.1662 LP  0  0  0  0  0  0  0  0  0  0  0  0  # atno 17395 bound_to 11000

$$$$
