AV-unprocessed.smi:2232|AV-procd|sdf|9038|dock3
  -GOLD-   2272012243D 1   1.00000     0.00000
 Structure written by MMmdl.
 42 43  0  0  0  0  0  0  0  0  1 V2000
  142.0049  134.9954  153.5446 C   0  0  0  0  0  0  0  0  0  0  0  0
  143.2410  134.5649  152.7832 C   0  0  0  0  0  0  0  0  0  0  0  0
  143.1377  133.7563  151.6353 C   0  0  0  0  0  0  0  0  0  0  0  0
  144.3245  133.3914  150.9701 C   0  0  0  0  0  0  0  0  0  0  0  0
  144.2860  132.5253  149.7285 C   0  0  0  0  0  0  0  0  0  0  0  0
  145.5499  133.7782  151.3842 N   0  0  0  0  0  0  0  0  0  0  0  0
  145.6618  134.5566  152.4891 C   0  0  0  0  0  0  0  0  0  0  0  0
  146.9018  135.0216  153.0024 N   0  0  0  0  0  0  0  0  0  0  0  0
  147.2811  135.1267  154.2884 C   0  0  0  0  0  0  0  0  0  0  0  0
  146.5806  134.8515  155.2634 O   0  0  0  0  0  0  0  0  0  0  0  0
  148.5399  135.5781  154.3880 N   0  0  0  0  0  0  0  0  0  0  0  0
  149.2506  135.8057  155.6407 C   0  0  0  0  0  0  0  0  0  0  0  0
  150.6474  135.1559  155.6213 C   0  0  0  0  0  0  0  0  0  0  0  0
  151.7659  136.0968  155.6596 N   0  0  0  0  0  0  0  0  0  0  0  0
  152.1339  136.4795  157.0216 C   0  0  0  0  0  0  0  0  0  0  0  0
  153.2875  137.4983  157.0427 C   0  0  0  0  0  0  0  0  0  0  0  0
  152.9352  138.6396  156.2681 O   0  0  0  0  0  0  0  0  0  0  0  0
  152.6213  138.3095  154.9193 C   0  0  0  0  0  0  0  0  0  0  0  0
  151.4598  137.3013  154.8951 C   0  0  0  0  0  0  0  0  0  0  0  0
  144.5208  134.9692  153.2134 C   0  0  0  0  0  0  0  0  0  0  0  0
  141.0948  134.6693  153.0401 H   0  0  0  0  0  0  0  0  0  0  0  0
  141.9743  136.0815  153.6330 H   0  0  0  0  0  0  0  0  0  0  0  0
  142.0117  134.5683  154.5477 H   0  0  0  0  0  0  0  0  0  0  0  0
  142.1751  133.4253  151.2738 H   0  0  0  0  0  0  0  0  0  0  0  0
  143.2657  132.4031  149.3641 H   0  0  0  0  0  0  0  0  0  0  0  0
  144.6923  131.5371  149.9447 H   0  0  0  0  0  0  0  0  0  0  0  0
  144.8787  132.9743  148.9309 H   0  0  0  0  0  0  0  0  0  0  0  0
  147.5805  135.3004  152.3098 H   0  0  0  0  0  0  0  0  0  0  0  0
  149.0429  135.7803  153.5364 H   0  0  0  0  0  0  0  0  0  0  0  0
  149.3259  136.8839  155.7773 H   0  0  0  0  0  0  0  0  0  0  0  0
  148.6632  135.4244  156.4778 H   0  0  0  0  0  0  0  0  0  0  0  0
  150.7211  134.4957  156.4867 H   0  0  0  0  0  0  0  0  0  0  0  0
  150.7396  134.5105  154.7462 H   0  0  0  0  0  0  0  0  0  0  0  0
  151.2691  136.9050  157.5331 H   0  0  0  0  0  0  0  0  0  0  0  0
  152.4359  135.6031  157.5937 H   0  0  0  0  0  0  0  0  0  0  0  0
  153.4975  137.8125  158.0653 H   0  0  0  0  0  0  0  0  0  0  0  0
  154.2033  137.0534  156.6506 H   0  0  0  0  0  0  0  0  0  0  0  0
  152.3469  139.2180  154.3831 H   0  0  0  0  0  0  0  0  0  0  0  0
  153.5016  137.8975  154.4231 H   0  0  0  0  0  0  0  0  0  0  0  0
  151.2369  137.0363  153.8609 H   0  0  0  0  0  0  0  0  0  0  0  0
  150.5627  137.7763  155.2951 H   0  0  0  0  0  0  0  0  0  0  0  0
  144.6230  135.5899  154.0921 H   0  0  0  0  0  0  0  0  0  0  0  0
  1  2  1  0  0  0  0
  1 21  1  0  0  0  0
  1 22  1  0  0  0  0
  1 23  1  0  0  0  0
  2 20  1  0  0  0  0
  2  3  2  0  0  0  0
  3  4  1  0  0  0  0
  3 24  1  0  0  0  0
  4  5  1  0  0  0  0
  4  6  2  0  0  0  0
  5 25  1  0  0  0  0
  5 26  1  0  0  0  0
  5 27  1  0  0  0  0
  6  7  1  0  0  0  0
  7  8  1  0  0  0  0
  7 20  2  0  0  0  0
  8  9  1  0  0  0  0
  8 28  1  0  0  0  0
  9 10  2  0  0  0  0
  9 11  1  0  0  0  0
 11 12  1  0  0  0  0
 11 29  1  0  0  0  0
 12 13  1  0  0  0  0
 12 30  1  0  0  0  0
 12 31  1  0  0  0  0
 13 14  1  0  0  0  0
 13 32  1  0  0  0  0
 13 33  1  0  0  0  0
 14 19  1  0  0  0  0
 14 15  1  0  0  0  0
 15 16  1  0  0  0  0
 15 34  1  0  0  0  0
 15 35  1  0  0  0  0
 16 17  1  0  0  0  0
 16 36  1  0  0  0  0
 16 37  1  0  0  0  0
 17 18  1  0  0  0  0
 18 19  1  0  0  0  0
 18 38  1  0  0  0  0
 18 39  1  0  0  0  0
 19 40  1  0  0  0  0
 19 41  1  0  0  0  0
 20 42  1  0  0  0  0
M  END
> <s_m_source_file>
AV-unprocessed.smi

> <i_m_source_file_index>
2232

> <i_lp_mmshare_version>
43012

> <i_f3d_flags>
0

> <s_epik_input>
W0NIM11jMVtjSF1jKFtDSDNdKW5jKFtjSF0xKVtOSF1DKD1PKVtOSF1bQ0gyXVtDSDJdTjJbQ0gyXVtDSDJdT1tDSDJdW0NIMl0y

> <s_epik_cmdline>
J2VwaWtfcHl0aG9uJywgJy1waCcsICc3LjAnLCAnLXRuJywgJzgnLCAnLW1hJywgJzIwMCcsICctbWV0YWxfYmluZGluZycsICctaW1hZScsICc8aW5maWxlLm1hZT4nLCAnLW9tYWUnLCAnPG91dGZpbGUubWFlPic=

> <r_epik_Ionization_Penalty>
0.26623

> <r_epik_Ionization_Penalty_Charging>
0

> <r_epik_Ionization_Penalty_Neutral>
0.26623

> <r_epik_State_Penalty>
0.257924

> <r_epik_Charging_Adjusted_Penalty>
0.257924

> <i_epik_Tot_Q>
0

> <i_epik_Tot_abs_Q>
0

> <r_epik_Metal_State_Penalty>
0.257909

> <b_epik_Metal_Only>
0

> <s_lp_Force_Field>
OPLS_2005

> <r_lp_Energy>
21.9386

> <b_lp_Chiralities_Consistent>
1

> <s_lp_Variant>
AV-unprocessed.smi:2232-1

> <Gold.Version>
5.8.1

> <Gold.Id.Protein>
6NUR|6NUR_protein|mol2

> <Gold.PLP.Fitness>
40.1236

> <Gold.PLP.PLP>
-30.1186

> <Gold.PLP.part.hbond>
-4.0000

> <Gold.PLP.part.metal>
0.0000

> <Gold.PLP.part.buried>
-4.1681

> <Gold.PLP.part.nonpolar>
-22.5807

> <Gold.PLP.part.repulsive>
0.2049

> <Gold.PLP.ligand.clash>
0.0000

> <Gold.PLP.ligand.torsion>
1.0006

> <Gold.PLP.Chemscore.Hbond>
3.9920

> <Gold.PLP.Chemscore.CHOScore>
0.0000

> <Gold.PLP.Chemscore.Metal>
0.0000

> <Gold.Chemscore.Hbonds>
donor molecule, donor type, donor heavy atom, donor atom, acceptor molecule, acceptor atom, score
      L1  H     8    28       P1  7948  1.00
      L1  H    11    29       P1  7948  0.98
      P1  H  7997  8008       L1    17  1.00
      P1  H 10752 10763       L1    14  1.00

> <Gold.PLP.Chemscore.Internal.Correction>
0.0302

> <Gold.Rescore>
     Score         DG    S(hbond)    S(metal)    S(lipo)     H(rot)  DE(clash)    DE(int)     intcor
     16.89     -19.16       2.81        0.00      68.37       1.44       0.00       2.27       ----

> <Gold.Chemscore.Fitness>
16.8904

> <Gold.Chemscore.DG>
-19.1626

> <Gold.Chemscore.ZeroCoef>
-5.4800

> <Gold.Chemscore.Hbond>
2.8079

> <Gold.Chemscore.Metal>
0.0000

> <Gold.Chemscore.Lipo>
68.3668

> <Gold.Chemscore.Internal_Hbond>
0.0000

> <Gold.Chemscore.DEClash>
0.0000

> <Gold.Chemscore.DEInternal>
2.2722

> <Gold.Chemscore.Rot>
1.4433

> <Gold.Chemscore.Internal.Correction>
   9.000000E+99

> <Gold.Chemscore.Hbonds>
donor molecule, donor type, donor heavy atom, donor atom, acceptor molecule, acceptor atom, score
      L1  H     8    28       P1  7948  0.96
      L1  H    11    29       P1  7948  0.80
      P1  H  7997  8008       L1    17  0.62
      P1  H 10752 10763       L1    14  0.22

> <Gold.Chemscore.Hbond.Weighted>
-9.3785

> <Gold.Chemscore.Metal.Weighted>
-0.0000

> <Gold.Chemscore.Lipo.Weighted>
-7.9989

> <Gold.Chemscore.Internal_Hbond.Weighted>
0.0000

> <Gold.Chemscore.DEClash.Weighted>
0.0000

> <Gold.Chemscore.DEInternal.Weighted>
2.2722

> <Gold.Chemscore.Rot.Weighted>
3.6948

> <Gold.Chemscore.Internal.Correction.Weighted>
   9.000000E+99

> <Gold.Protein.RotatedTorsions>
[ 6907 6896 6895 6894 ] final  -58.55 input  -60.11 | X-H torsion
[ 7974 7965 7964 7962 ] final  168.64 input  175.53 | X-H torsion
[ 8008 7997 7996 7995 ] final  -47.96 input   59.86 | X-H torsion
[ 10167 10162 10161 10158 ] final   -8.27 input  -65.29 | X-H torsion
[ 10718 10713 10712 10709 ] final   95.04 input   66.30 | X-H torsion
[ 10763 10752 10751 10750 ] final   91.22 input  -60.55 | X-H torsion
[ 11005 11000 10999 10996 ] final -147.64 input  -57.11 | X-H torsion

> <Gold.Protein.ActiveResidues>
 VAL166  LYS551  ARG553  GLY616  TRP617  ASP618  TYR619  PRO620  LYS621  CYS622 
 ASP623  PHE694  ASN695  SER759  ASP760  ASP761  ALA762  ILE779  LEU786  VAL792 
 PHE793  MET794  SER795  GLU796  ALA797  LYS798  CYS799  TRP800  GLU811  SER814 

> <Gold.Protein.RotatedAtoms>
  150.7998  134.7084  159.6589 H   0  0  0  0  0  0  0  0  0  0  0  0  # atno 6907 bound_to 6896
  152.4114  134.6115  160.0036 H   0  0  0  0  0  0  0  0  0  0  0  0  # atno 6908 bound_to 6896
  151.6357  133.3292  159.3155 H   0  0  0  0  0  0  0  0  0  0  0  0  # atno 6909 bound_to 6896
  144.7381  139.8938  143.6405 H   0  0  0  0  0  0  0  0  0  0  0  0  # atno 7974 bound_to 7965
  154.4023  140.1333  156.4261 H   0  0  0  0  0  0  0  0  0  0  0  0  # atno 8008 bound_to 7997
  155.7596  140.3486  155.5171 H   0  0  0  0  0  0  0  0  0  0  0  0  # atno 8009 bound_to 7997
  155.8872  140.0997  157.1434 H   0  0  0  0  0  0  0  0  0  0  0  0  # atno 8010 bound_to 7997
  140.7054  143.5988  150.8819 H   0  0  0  0  0  0  0  0  0  0  0  0  # atno 10167 bound_to 10162
  157.6942  131.0532  150.4278 H   0  0  0  0  0  0  0  0  0  0  0  0  # atno 10718 bound_to 10713
  153.2060  135.4405  155.0323 H   0  0  0  0  0  0  0  0  0  0  0  0  # atno 10763 bound_to 10752
  154.8173  135.3321  154.7141 H   0  0  0  0  0  0  0  0  0  0  0  0  # atno 10764 bound_to 10752
  153.7582  135.6993  153.4986 H   0  0  0  0  0  0  0  0  0  0  0  0  # atno 10765 bound_to 10752
  140.7696  134.3205  157.5079 H   0  0  0  0  0  0  0  0  0  0  0  0  # atno 11005 bound_to 11000
  146.1122  139.4129  143.0280 LP  0  0  0  0  0  0  0  0  0  0  0  0  # atno 17320 bound_to 7965
  145.7426  141.0002  143.1293 LP  0  0  0  0  0  0  0  0  0  0  0  0  # atno 17321 bound_to 7965
  139.9712  143.6054  152.2973 LP  0  0  0  0  0  0  0  0  0  0  0  0  # atno 17342 bound_to 10162
  139.6642  144.7662  151.1905 LP  0  0  0  0  0  0  0  0  0  0  0  0  # atno 17343 bound_to 10162
  156.4647  130.4039  149.6554 LP  0  0  0  0  0  0  0  0  0  0  0  0  # atno 17370 bound_to 10713
  156.3656  130.7504  151.2482 LP  0  0  0  0  0  0  0  0  0  0  0  0  # atno 17371 bound_to 10713
  139.8758  134.9252  156.3369 LP  0  0  0  0  0  0  0  0  0  0  0  0  # atno 17394 bound_to 11000
  140.9587  133.7403  156.0371 LP  0  0  0  0  0  0  0  0  0  0  0  0  # atno 17395 bound_to 11000

$$$$
