AV-unprocessed.smi:3002|AV-procd|sdf|11434|dock10
  -GOLD-   2272016363D 1   1.00000     0.00000
 Structure written by MMmdl.
 34 35  0  0  0  0  0  0  0  0  1 V2000
  146.1772  135.6539  159.2223 C   0  0  0  0  0  0  0  0  0  0  0  0
  147.6019  135.7101  159.8099 C   0  0  1  0  0  0  0  0  0  0  0  0
  148.4097  136.9043  159.2785 C   0  0  0  0  0  0  0  0  0  0  0  0
  147.8391  137.8856  158.8011 O   0  0  0  0  0  0  0  0  0  0  0  0
  149.7457  136.8067  159.3668 N   0  0  0  0  0  0  0  0  0  0  0  0
  150.6920  137.8256  158.9249 C   0  0  0  0  0  0  0  0  0  0  0  0
  150.5682  138.1325  157.4186 C   0  0  2  0  0  0  0  0  0  0  0  0
  151.0821  136.9934  156.5128 C   0  0  0  0  0  0  0  0  0  0  0  0
  151.1850  137.5191  155.0780 C   0  0  0  0  0  0  0  0  0  0  0  0
  151.6835  139.2739  155.2332 S   0  0  0  0  0  0  0  0  0  0  0  0
  153.1371  139.3881  155.0419 O   0  0  0  0  0  0  0  0  0  0  0  0
  150.7499  140.1089  154.4624 O   0  0  0  0  0  0  0  0  0  0  0  0
  151.3087  139.4203  157.0225 C   0  0  0  0  0  0  0  0  0  0  0  0
  147.5995  135.7116  161.2678 N   0  0  0  0  0  0  0  0  0  0  0  0
  147.2113  134.7649  162.1253 C   0  0  0  0  0  0  0  0  0  0  0  0
  147.3902  135.0845  163.3993 N   0  0  0  0  0  0  0  0  0  0  0  0
  147.9421  136.3249  163.2474 C   0  0  0  0  0  0  0  0  0  0  0  0
  148.0998  136.7440  161.9922 N   0  0  0  0  0  0  0  0  0  0  0  0
  146.2037  135.6011  158.1334 H   0  0  0  0  0  0  0  0  0  0  0  0
  145.5840  136.5276  159.4954 H   0  0  0  0  0  0  0  0  0  0  0  0
  145.6456  134.7710  159.5786 H   0  0  0  0  0  0  0  0  0  0  0  0
  148.1142  134.7999  159.4931 H   0  0  0  0  0  0  0  0  0  0  0  0
  150.1350  135.9684  159.7730 H   0  0  0  0  0  0  0  0  0  0  0  0
  150.5505  138.7367  159.5091 H   0  0  0  0  0  0  0  0  0  0  0  0
  151.6975  137.4699  159.1516 H   0  0  0  0  0  0  0  0  0  0  0  0
  149.5149  138.2845  157.1778 H   0  0  0  0  0  0  0  0  0  0  0  0
  152.0737  136.6875  156.8487 H   0  0  0  0  0  0  0  0  0  0  0  0
  150.4422  136.1119  156.5635 H   0  0  0  0  0  0  0  0  0  0  0  0
  151.9053  136.9723  154.4693 H   0  0  0  0  0  0  0  0  0  0  0  0
  150.2134  137.4870  154.5843 H   0  0  0  0  0  0  0  0  0  0  0  0
  150.7219  140.3196  157.2106 H   0  0  0  0  0  0  0  0  0  0  0  0
  152.2573  139.5101  157.5525 H   0  0  0  0  0  0  0  0  0  0  0  0
  146.7919  133.8204  161.8111 H   0  0  0  0  0  0  0  0  0  0  0  0
  148.2426  136.9345  164.0870 H   0  0  0  0  0  0  0  0  0  0  0  0
  1  2  1  0  0  0  0
  1 19  1  0  0  0  0
  1 20  1  0  0  0  0
  1 21  1  0  0  0  0
  2  3  1  0  0  0  0
  2 14  1  0  0  0  0
  2 22  1  0  0  0  0
  3  4  2  0  0  0  0
  3  5  1  0  0  0  0
  5  6  1  0  0  0  0
  5 23  1  0  0  0  0
  6  7  1  0  0  0  0
  6 24  1  0  0  0  0
  6 25  1  0  0  0  0
  7 13  1  0  0  0  0
  7  8  1  0  0  0  0
  7 26  1  0  0  0  0
  8  9  1  0  0  0  0
  8 27  1  0  0  0  0
  8 28  1  0  0  0  0
  9 10  1  0  0  0  0
  9 29  1  0  0  0  0
  9 30  1  0  0  0  0
 10 11  2  0  0  0  0
 10 12  2  0  0  0  0
 10 13  1  0  0  0  0
 13 31  1  0  0  0  0
 13 32  1  0  0  0  0
 14 18  1  0  0  0  0
 14 15  1  0  0  0  0
 15 16  2  0  0  0  0
 15 33  1  0  0  0  0
 16 17  1  0  0  0  0
 17 18  2  0  0  0  0
 17 34  1  0  0  0  0
M  END
> <s_m_source_file>
AV-unprocessed.smi

> <i_m_source_file_index>
3002

> <i_lp_mmshare_version>
43012

> <i_f3d_flags>
0

> <s_epik_input>
bjFbY0hdbltjSF1uMVtDQEhdKFtDSDNdKUMoPU8pW05IXVtDSDJdW0NAQEhdKFtDSDJdMilbQ0gyXVtDSDJdUzIoPU8pPU8=

> <s_epik_cmdline>
J2VwaWtfcHl0aG9uJywgJy1waCcsICc3LjAnLCAnLXRuJywgJzgnLCAnLW1hJywgJzIwMCcsICctbWV0YWxfYmluZGluZycsICctaW1hZScsICc8aW5maWxlLm1hZT4nLCAnLW9tYWUnLCAnPG91dGZpbGUubWFlPic=

> <r_lp_tautomer_probability>
1

> <r_epik_Ionization_Penalty>
1.1748e-05

> <r_epik_Ionization_Penalty_Charging>
0

> <r_epik_Ionization_Penalty_Neutral>
1.1748e-05

> <r_epik_State_Penalty>
-0

> <r_epik_Charging_Adjusted_Penalty>
0

> <i_epik_Tot_Q>
0

> <i_epik_Tot_abs_Q>
0

> <r_epik_Metal_State_Penalty>
-0

> <b_epik_Metal_Only>
0

> <s_lp_Force_Field>
OPLS_2005

> <r_lp_Energy>
11.4636

> <b_lp_Chiralities_Consistent>
1

> <s_lp_Variant>
AV-unprocessed.smi:3002-2

> <Gold.Version>
5.8.1

> <Gold.Id.Protein>
6NUR|6NUR_protein|mol2

> <Gold.PLP.Fitness>
38.2397

> <Gold.PLP.PLP>
-30.4893

> <Gold.PLP.part.hbond>
-5.2781

> <Gold.PLP.part.metal>
0.0000

> <Gold.PLP.part.buried>
-6.3751

> <Gold.PLP.part.nonpolar>
-19.2872

> <Gold.PLP.part.repulsive>
0.3403

> <Gold.PLP.ligand.clash>
0.0000

> <Gold.PLP.ligand.torsion>
0.6762

> <Gold.PLP.Chemscore.Hbond>
3.0000

> <Gold.PLP.Chemscore.CHOScore>
0.0000

> <Gold.PLP.Chemscore.Metal>
0.0000

> <Gold.Chemscore.Hbonds>
donor molecule, donor type, donor heavy atom, donor atom, acceptor molecule, acceptor atom, score
      P1  H  6931  6943       L1    18  1.00
      P1  H  7989  7998       L1    12  0.96
      P1  H  7997  8010       L1    11  1.00

> <Gold.PLP.Chemscore.Internal.Correction>
0.1029

> <Gold.Rescore>
     Score         DG    S(hbond)    S(metal)    S(lipo)     H(rot)  DE(clash)    DE(int)     intcor
     11.68     -12.77       3.09        0.00      26.45       2.39       0.42       0.67       ----

> <Gold.Chemscore.Fitness>
11.6793

> <Gold.Chemscore.DG>
-12.7697

> <Gold.Chemscore.ZeroCoef>
-5.4800

> <Gold.Chemscore.Hbond>
3.0912

> <Gold.Chemscore.Metal>
0.0000

> <Gold.Chemscore.Lipo>
26.4548

> <Gold.Chemscore.Internal_Hbond>
0.0000

> <Gold.Chemscore.DEClash>
0.4177

> <Gold.Chemscore.DEInternal>
0.6728

> <Gold.Chemscore.Rot>
2.3946

> <Gold.Chemscore.Internal.Correction>
   9.000000E+99

> <Gold.Chemscore.Hbonds>
donor molecule, donor type, donor heavy atom, donor atom, acceptor molecule, acceptor atom, score
      P1  H  6931  6943       L1    18  0.78
      P1  H  7989  7998       L1    12  0.45
      P1  H  7997  8010       L1    11  1.00

> <Gold.Chemscore.Hbond.Weighted>
-10.3246

> <Gold.Chemscore.Metal.Weighted>
-0.0000

> <Gold.Chemscore.Lipo.Weighted>
-3.0952

> <Gold.Chemscore.Internal_Hbond.Weighted>
0.0000

> <Gold.Chemscore.DEClash.Weighted>
0.4177

> <Gold.Chemscore.DEInternal.Weighted>
0.6728

> <Gold.Chemscore.Rot.Weighted>
6.1301

> <Gold.Chemscore.Internal.Correction.Weighted>
   9.000000E+99

> <Gold.Protein.RotatedTorsions>
[ 6907 6896 6895 6894 ] final  -32.43 input  -60.11 | X-H torsion
[ 7974 7965 7964 7962 ] final   22.70 input  175.53 | X-H torsion
[ 8008 7997 7996 7995 ] final  112.39 input   59.86 | X-H torsion
[ 10167 10162 10161 10158 ] final -145.13 input  -65.29 | X-H torsion
[ 10718 10713 10712 10709 ] final  136.89 input   66.30 | X-H torsion
[ 10763 10752 10751 10750 ] final  137.26 input  -60.55 | X-H torsion
[ 11005 11000 10999 10996 ] final -161.16 input  -57.11 | X-H torsion

> <Gold.Protein.ActiveResidues>
 VAL166  LYS551  ARG553  GLY616  TRP617  ASP618  TYR619  PRO620  LYS621  CYS622 
 ASP623  PHE694  ASN695  SER759  ASP760  ASP761  ALA762  ILE779  LEU786  VAL792 
 PHE793  MET794  SER795  GLU796  ALA797  LYS798  CYS799  TRP800  GLU811  SER814 

> <Gold.Protein.RotatedAtoms>
  151.0789  134.9846  159.8345 H   0  0  0  0  0  0  0  0  0  0  0  0  # atno 6907 bound_to 6896
  152.5417  134.2206  159.8796 H   0  0  0  0  0  0  0  0  0  0  0  0  # atno 6908 bound_to 6896
  151.2235  133.4445  159.2635 H   0  0  0  0  0  0  0  0  0  0  0  0  # atno 6909 bound_to 6896
  146.2017  139.7848  142.8756 H   0  0  0  0  0  0  0  0  0  0  0  0  # atno 7974 bound_to 7965
  156.2189  140.3000  155.9904 H   0  0  0  0  0  0  0  0  0  0  0  0  # atno 8008 bound_to 7997
  155.2534  140.0427  157.3006 H   0  0  0  0  0  0  0  0  0  0  0  0  # atno 8009 bound_to 7997
  154.5809  140.2375  155.8063 H   0  0  0  0  0  0  0  0  0  0  0  0  # atno 8010 bound_to 7997
  139.7834  143.8068  152.2641 H   0  0  0  0  0  0  0  0  0  0  0  0  # atno 10167 bound_to 10162
  157.4418  131.1058  151.0134 H   0  0  0  0  0  0  0  0  0  0  0  0  # atno 10718 bound_to 10713
  153.8702  135.3056  155.3441 H   0  0  0  0  0  0  0  0  0  0  0  0  # atno 10763 bound_to 10752
  154.7809  135.4836  153.9846 H   0  0  0  0  0  0  0  0  0  0  0  0  # atno 10764 bound_to 10752
  153.1411  135.6824  153.9122 H   0  0  0  0  0  0  0  0  0  0  0  0  # atno 10765 bound_to 10752
  140.6235  134.4726  157.5225 H   0  0  0  0  0  0  0  0  0  0  0  0  # atno 11005 bound_to 11000
  145.3460  141.0298  143.3365 LP  0  0  0  0  0  0  0  0  0  0  0  0  # atno 17320 bound_to 7965
  144.8699  139.5054  143.6773 LP  0  0  0  0  0  0  0  0  0  0  0  0  # atno 17321 bound_to 7965
  139.8137  144.7325  150.9663 LP  0  0  0  0  0  0  0  0  0  0  0  0  # atno 17342 bound_to 10162
  140.7819  143.4225  151.0819 LP  0  0  0  0  0  0  0  0  0  0  0  0  # atno 17343 bound_to 10162
  157.0994  130.5975  149.5457 LP  0  0  0  0  0  0  0  0  0  0  0  0  # atno 17370 bound_to 10713
  155.9952  130.5018  150.7448 LP  0  0  0  0  0  0  0  0  0  0  0  0  # atno 17371 bound_to 10713
  139.9144  134.8277  156.1416 LP  0  0  0  0  0  0  0  0  0  0  0  0  # atno 17394 bound_to 11000
  141.0726  133.6790  156.2171 LP  0  0  0  0  0  0  0  0  0  0  0  0  # atno 17395 bound_to 11000

$$$$
