AV-unprocessed.smi:1491|AV-procd|sdf|6035|dock5
  -GOLD-   22720 6143D 1   1.00000     0.00000
 Structure written by MMmdl.
 38 39  0  0  0  0  0  0  0  0  1 V2000
  151.5112  141.0906  156.3942 O   0  0  0  0  0  0  0  0  0  0  0  0
  150.7090  142.0151  156.2619 C   0  0  0  0  0  0  0  0  0  0  0  0
  149.7039  142.0181  155.3748 N   0  0  0  0  0  0  0  0  0  0  0  0
  149.3745  140.9182  154.4726 C   0  0  0  0  0  0  0  0  0  0  0  0
  148.0176  141.1341  153.7777 C   0  0  0  0  0  0  0  0  0  0  0  0
  147.1682  139.9589  153.8323 N   0  0  0  0  0  0  0  0  0  0  0  0
  147.3001  138.7935  153.0882 C   0  0  0  0  0  0  0  0  0  0  0  0
  146.2701  137.9643  153.4707 C   0  0  0  0  0  0  0  0  0  0  0  0
  145.5000  138.5927  154.4464 N   0  0  0  0  0  0  0  0  0  0  0  0
  146.0926  139.7688  154.6085 C   0  0  0  0  0  0  0  0  0  0  0  0
  150.7241  143.1353  156.9975 N   0  0  0  0  0  0  0  0  0  0  0  0
  151.6718  143.4270  158.0685 C   0  0  2  0  0  0  0  0  0  0  0  0
  151.9224  142.1545  158.8973 C   0  0  0  0  0  0  0  0  0  0  0  0
  152.8777  142.4262  160.0725 C   0  0  0  0  0  0  0  0  0  0  0  0
  152.3893  143.5819  160.9659 C   0  0  2  0  0  0  0  0  0  0  0  0
  151.2376  143.1850  161.6838 O   0  0  0  0  0  0  0  0  0  0  0  0
  152.0889  144.8477  160.1408 C   0  0  0  0  0  0  0  0  0  0  0  0
  151.1415  144.5660  158.9614 C   0  0  0  0  0  0  0  0  0  0  0  0
  149.1027  142.8282  155.3420 H   0  0  0  0  0  0  0  0  0  0  0  0
  150.1595  140.8672  153.7180 H   0  0  0  0  0  0  0  0  0  0  0  0
  149.3928  139.9587  154.9924 H   0  0  0  0  0  0  0  0  0  0  0  0
  147.4871  141.9749  154.2267 H   0  0  0  0  0  0  0  0  0  0  0  0
  148.1750  141.3888  152.7290 H   0  0  0  0  0  0  0  0  0  0  0  0
  148.0894  138.6573  152.3637 H   0  0  0  0  0  0  0  0  0  0  0  0
  146.0260  136.9718  153.1215 H   0  0  0  0  0  0  0  0  0  0  0  0
  145.7338  140.5113  155.3061 H   0  0  0  0  0  0  0  0  0  0  0  0
  150.0208  143.8353  156.8121 H   0  0  0  0  0  0  0  0  0  0  0  0
  152.6241  143.7360  157.6328 H   0  0  0  0  0  0  0  0  0  0  0  0
  150.9764  141.7676  159.2792 H   0  0  0  0  0  0  0  0  0  0  0  0
  152.3400  141.3722  158.2623 H   0  0  0  0  0  0  0  0  0  0  0  0
  153.0112  141.5204  160.6648 H   0  0  0  0  0  0  0  0  0  0  0  0
  153.8621  142.6765  159.6752 H   0  0  0  0  0  0  0  0  0  0  0  0
  153.1593  143.8110  161.7034 H   0  0  0  0  0  0  0  0  0  0  0  0
  150.8163  143.9580  162.0271 H   0  0  0  0  0  0  0  0  0  0  0  0
  151.6703  145.6263  160.7796 H   0  0  0  0  0  0  0  0  0  0  0  0
  153.0262  145.2470  159.7512 H   0  0  0  0  0  0  0  0  0  0  0  0
  151.0140  145.4752  158.3727 H   0  0  0  0  0  0  0  0  0  0  0  0
  150.1529  144.3065  159.3428 H   0  0  0  0  0  0  0  0  0  0  0  0
  1  2  2  0  0  0  0
  2  3  1  0  0  0  0
  2 11  1  0  0  0  0
  3  4  1  0  0  0  0
  3 19  1  0  0  0  0
  4  5  1  0  0  0  0
  4 20  1  0  0  0  0
  4 21  1  0  0  0  0
  5  6  1  0  0  0  0
  5 22  1  0  0  0  0
  5 23  1  0  0  0  0
  6 10  1  0  0  0  0
  6  7  1  0  0  0  0
  7  8  2  0  0  0  0
  7 24  1  0  0  0  0
  8  9  1  0  0  0  0
  8 25  1  0  0  0  0
  9 10  2  0  0  0  0
 10 26  1  0  0  0  0
 11 12  1  0  0  0  0
 11 27  1  0  0  0  0
 12 18  1  0  0  0  0
 12 13  1  0  0  0  0
 12 28  1  0  0  0  0
 13 14  1  0  0  0  0
 13 29  1  0  0  0  0
 13 30  1  0  0  0  0
 14 15  1  0  0  0  0
 14 31  1  0  0  0  0
 14 32  1  0  0  0  0
 15 16  1  0  0  0  0
 15 17  1  0  0  0  0
 15 33  1  0  0  0  0
 16 34  1  0  0  0  0
 17 18  1  0  0  0  0
 17 35  1  0  0  0  0
 17 36  1  0  0  0  0
 18 37  1  0  0  0  0
 18 38  1  0  0  0  0
M  END
> <s_m_source_file>
AV-unprocessed.smi

> <i_m_source_file_index>
1491

> <i_lp_mmshare_version>
43012

> <i_f3d_flags>
0

> <s_epik_input>
W0NIMl0xW0NIMl1bQ0BIXShbT0hdKVtDSDJdW0NIMl1bQ0BIXTFbTkhdQyg9TylbTkhdW0NIMl1bQ0gyXW4yW2NIXVtjSF1uW2NIXTI=

> <s_epik_cmdline>
J2VwaWtfcHl0aG9uJywgJy1waCcsICc3LjAnLCAnLXRuJywgJzgnLCAnLW1hJywgJzIwMCcsICctbWV0YWxfYmluZGluZycsICctaW1hZScsICc8aW5maWxlLm1hZT4nLCAnLW9tYWUnLCAnPG91dGZpbGUubWFlPic=

> <r_lp_tautomer_probability>
1

> <r_epik_Ionization_Penalty>
0.623245

> <r_epik_Ionization_Penalty_Charging>
0.623187

> <r_epik_Ionization_Penalty_Neutral>
5.75214e-05

> <r_epik_State_Penalty>
0.639392

> <r_epik_Charging_Adjusted_Penalty>
1.26258

> <i_epik_Tot_Q>
0

> <i_epik_Tot_abs_Q>
0

> <r_epik_Metal_State_Penalty>
0.307266

> <b_epik_Metal_Only>
0

> <s_lp_Force_Field>
OPLS_2005

> <r_lp_Energy>
9.71392

> <b_lp_Chiralities_Consistent>
1

> <s_lp_Variant>
AV-unprocessed.smi:1491-4

> <Gold.Version>
5.8.1

> <Gold.Id.Protein>
6NUR|6NUR_protein|mol2

> <Gold.PLP.Fitness>
50.6120

> <Gold.PLP.PLP>
-39.0909

> <Gold.PLP.part.hbond>
-4.0000

> <Gold.PLP.part.metal>
0.0000

> <Gold.PLP.part.buried>
-5.0075

> <Gold.PLP.part.nonpolar>
-30.7379

> <Gold.PLP.part.repulsive>
0.3137

> <Gold.PLP.ligand.clash>
0.0000

> <Gold.PLP.ligand.torsion>
0.8315

> <Gold.PLP.Chemscore.Hbond>
2.4640

> <Gold.PLP.Chemscore.CHOScore>
1.9214

> <Gold.PLP.Chemscore.Metal>
0.0000

> <Gold.Chemscore.Hbonds>
donor molecule, donor type, donor heavy atom, donor atom, acceptor molecule, acceptor atom, score
      L1  H     3    19       P1  8028  0.98
      L1  H    11    27       P1  8028  1.00
      P1  H  6933  6945       L1    16  0.48
      L1  C     7    24       P1  7948  0.68
      L1  C     7    24       P1  7957  1.00

> <Gold.PLP.Chemscore.Internal.Correction>
0.0280

> <Gold.Rescore>
     Score         DG    S(hbond)    S(metal)    S(lipo)     H(rot)  DE(clash)    DE(int)     intcor
     15.13     -17.41       2.13        0.00      97.44       2.57       0.11       2.17       ----

> <Gold.Chemscore.Fitness>
15.1270

> <Gold.Chemscore.DG>
-17.4108

> <Gold.Chemscore.ZeroCoef>
-5.4800

> <Gold.Chemscore.Hbond>
2.1315

> <Gold.Chemscore.Metal>
0.0000

> <Gold.Chemscore.Lipo>
97.4395

> <Gold.Chemscore.Internal_Hbond>
0.0000

> <Gold.Chemscore.DEClash>
0.1101

> <Gold.Chemscore.DEInternal>
2.1737

> <Gold.Chemscore.Rot>
2.5738

> <Gold.Chemscore.Internal.Correction>
   9.000000E+99

> <Gold.Chemscore.Hbonds>
donor molecule, donor type, donor heavy atom, donor atom, acceptor molecule, acceptor atom, score
      L1  H     3    19       P1  8028  0.93
      L1  H    11    27       P1  8028  0.96
      P1  H  6933  6945       L1    16  0.17

> <Gold.Chemscore.Hbond.Weighted>
-7.1194

> <Gold.Chemscore.Metal.Weighted>
-0.0000

> <Gold.Chemscore.Lipo.Weighted>
-11.4004

> <Gold.Chemscore.Internal_Hbond.Weighted>
0.0000

> <Gold.Chemscore.DEClash.Weighted>
0.1101

> <Gold.Chemscore.DEInternal.Weighted>
2.1737

> <Gold.Chemscore.Rot.Weighted>
6.5890

> <Gold.Chemscore.Internal.Correction.Weighted>
   9.000000E+99

> <Gold.Protein.RotatedTorsions>
[ 6907 6896 6895 6894 ] final   79.80 input  -60.11 | X-H torsion
[ 7974 7965 7964 7962 ] final  -49.57 input  175.53 | X-H torsion
[ 8008 7997 7996 7995 ] final  -85.94 input   59.86 | X-H torsion
[ 10167 10162 10161 10158 ] final   44.12 input  -65.29 | X-H torsion
[ 10718 10713 10712 10709 ] final -139.49 input   66.30 | X-H torsion
[ 10763 10752 10751 10750 ] final  -47.24 input  -60.55 | X-H torsion
[ 11005 11000 10999 10996 ] final  -84.10 input  -57.11 | X-H torsion

> <Gold.Protein.ActiveResidues>
 VAL166  LYS551  ARG553  GLY616  TRP617  ASP618  TYR619  PRO620  LYS621  CYS622 
 ASP623  PHE694  ASN695  SER759  ASP760  ASP761  ALA762  ILE779  LEU786  VAL792 
 PHE793  MET794  SER795  GLU796  ALA797  LYS798  CYS799  TRP800  GLU811  SER814 

> <Gold.Protein.RotatedAtoms>
  152.5212  134.3456  159.9232 H   0  0  0  0  0  0  0  0  0  0  0  0  # atno 6907 bound_to 6896
  151.3406  133.3957  159.2678 H   0  0  0  0  0  0  0  0  0  0  0  0  # atno 6908 bound_to 6896
  150.9806  134.9180  159.7900 H   0  0  0  0  0  0  0  0  0  0  0  0  # atno 6909 bound_to 6896
  145.9392  140.7678  142.9561 H   0  0  0  0  0  0  0  0  0  0  0  0  # atno 7974 bound_to 7965
  154.6463  140.0585  156.9905 H   0  0  0  0  0  0  0  0  0  0  0  0  # atno 8008 bound_to 7997
  155.1439  140.3268  155.4427 H   0  0  0  0  0  0  0  0  0  0  0  0  # atno 8009 bound_to 7997
  156.2555  140.1959  156.6553 H   0  0  0  0  0  0  0  0  0  0  0  0  # atno 8010 bound_to 7997
  140.3375  144.2512  150.6160 H   0  0  0  0  0  0  0  0  0  0  0  0  # atno 10167 bound_to 10162
  156.3114  130.7483  151.1560 H   0  0  0  0  0  0  0  0  0  0  0  0  # atno 10718 bound_to 10713
  154.0581  135.6622  153.4808 H   0  0  0  0  0  0  0  0  0  0  0  0  # atno 10763 bound_to 10752
  153.0437  135.5128  154.7685 H   0  0  0  0  0  0  0  0  0  0  0  0  # atno 10764 bound_to 10752
  154.6713  135.3030  154.9705 H   0  0  0  0  0  0  0  0  0  0  0  0  # atno 10765 bound_to 10752
  141.1653  133.7328  156.8818 H   0  0  0  0  0  0  0  0  0  0  0  0  # atno 11005 bound_to 11000
  144.6776  140.2252  143.7362 LP  0  0  0  0  0  0  0  0  0  0  0  0  # atno 17320 bound_to 7965
  145.8323  139.2091  143.1875 LP  0  0  0  0  0  0  0  0  0  0  0  0  # atno 17321 bound_to 7965
  140.5340  143.2237  151.8192 LP  0  0  0  0  0  0  0  0  0  0  0  0  # atno 17342 bound_to 10162
  139.4846  144.4684  151.9455 LP  0  0  0  0  0  0  0  0  0  0  0  0  # atno 17343 bound_to 10162
  157.7392  131.0532  150.5249 LP  0  0  0  0  0  0  0  0  0  0  0  0  # atno 17370 bound_to 10713
  156.5389  130.4203  149.6164 LP  0  0  0  0  0  0  0  0  0  0  0  0  # atno 17371 bound_to 10713
  140.1709  134.9100  157.2832 LP  0  0  0  0  0  0  0  0  0  0  0  0  # atno 17394 bound_to 11000
  140.2503  134.3691  155.7445 LP  0  0  0  0  0  0  0  0  0  0  0  0  # atno 17395 bound_to 11000

$$$$
