AV-unprocessed.smi:1703|AV-procd|sdf|6866|dock9
  -GOLD-   22720 8 63D 1   1.00000     0.00000
 Structure written by MMmdl.
 49 51  0  0  0  0  0  0  0  0  2 V2000
  143.1130  142.1757  159.0288 C   0  0  0  0  0  0  0  0  0  0  0  0
  144.3324  141.4464  159.6210 C   0  0  1  0  0  0  0  0  0  0  0  0
  145.4112  141.1065  158.5744 C   0  0  0  0  0  0  0  0  0  0  0  0
  146.1470  142.3252  158.1574 N   0  3  2  0  0  0  0  0  0  0  0  0
  147.1517  142.0815  157.0915 C   0  0  0  0  0  0  0  0  0  0  0  0
  148.3959  141.3396  157.6174 C   0  0  1  0  0  0  0  0  0  0  0  0
  148.0798  139.9676  157.7610 O   0  0  0  0  0  0  0  0  0  0  0  0
  149.6004  141.4977  156.6681 C   0  0  0  0  0  0  0  0  0  0  0  0
  150.8657  141.1536  157.3034 N   0  0  0  0  0  0  0  0  0  0  0  0
  151.6880  140.1109  157.0233 C   0  0  0  0  0  0  0  0  0  0  0  0
  151.3712  139.1038  155.9604 C   0  0  0  0  0  0  0  0  0  0  0  0
  151.1750  139.6927  154.6927 O   0  0  0  0  0  0  0  0  0  0  0  0
  152.7981  140.0337  157.7578 N   0  0  0  0  0  0  0  0  0  0  0  0
  152.6839  141.1244  158.5975 C   0  0  0  0  0  0  0  0  0  0  0  0
  153.5453  141.5948  159.6144 C   0  0  0  0  0  0  0  0  0  0  0  0
  153.2142  142.7497  160.3531 C   0  0  0  0  0  0  0  0  0  0  0  0
  152.0194  143.4491  160.0867 C   0  0  0  0  0  0  0  0  0  0  0  0
  151.1469  142.9976  159.0779 C   0  0  0  0  0  0  0  0  0  0  0  0
  151.4828  141.8450  158.3420 C   0  0  0  0  0  0  0  0  0  0  0  0
  146.7211  143.0062  159.3401 C   0  0  0  0  0  0  0  0  0  0  0  0
  145.6123  143.3479  160.3520 C   0  0  2  0  0  0  0  0  0  0  0  0
  146.1773  143.9726  161.6324 C   0  0  0  0  0  0  0  0  0  0  0  0
  144.9144  142.1585  160.7133 O   0  0  0  0  0  0  0  0  0  0  0  0
  142.6139  141.5525  158.2864 H   0  0  0  0  0  0  0  0  0  0  0  0
  143.3856  143.1083  158.5355 H   0  0  0  0  0  0  0  0  0  0  0  0
  142.3843  142.4082  159.8056 H   0  0  0  0  0  0  0  0  0  0  0  0
  143.9654  140.5069  160.0355 H   0  0  0  0  0  0  0  0  0  0  0  0
  146.1186  140.3918  158.9987 H   0  0  0  0  0  0  0  0  0  0  0  0
  144.9483  140.6167  157.7185 H   0  0  0  0  0  0  0  0  0  0  0  0
  146.7056  141.4867  156.2926 H   0  0  0  0  0  0  0  0  0  0  0  0
  147.4343  143.0336  156.6393 H   0  0  0  0  0  0  0  0  0  0  0  0
  148.6736  141.7211  158.5988 H   0  0  0  0  0  0  0  0  0  0  0  0
  147.2227  139.8929  158.1525 H   0  0  0  0  0  0  0  0  0  0  0  0
  149.4738  140.8695  155.7853 H   0  0  0  0  0  0  0  0  0  0  0  0
  149.6582  142.5217  156.2989 H   0  0  0  0  0  0  0  0  0  0  0  0
  152.1703  138.3658  155.8973 H   0  0  0  0  0  0  0  0  0  0  0  0
  150.4657  138.5620  156.2359 H   0  0  0  0  0  0  0  0  0  0  0  0
  150.6597  139.1034  154.1636 H   0  0  0  0  0  0  0  0  0  0  0  0
  154.4626  141.0661  159.8269 H   0  0  0  0  0  0  0  0  0  0  0  0
  153.8801  143.1007  161.1278 H   0  0  0  0  0  0  0  0  0  0  0  0
  151.7734  144.3327  160.6570 H   0  0  0  0  0  0  0  0  0  0  0  0
  150.2322  143.5328  158.8723 H   0  0  0  0  0  0  0  0  0  0  0  0
  147.4750  142.3646  159.7996 H   0  0  0  0  0  0  0  0  0  0  0  0
  147.2250  143.9227  159.0303 H   0  0  0  0  0  0  0  0  0  0  0  0
  144.9177  144.0607  159.9074 H   0  0  0  0  0  0  0  0  0  0  0  0
  146.7138  144.8964  161.4151 H   0  0  0  0  0  0  0  0  0  0  0  0
  146.8688  143.2939  162.1326 H   0  0  0  0  0  0  0  0  0  0  0  0
  145.3783  144.2110  162.3349 H   0  0  0  0  0  0  0  0  0  0  0  0
  145.4686  142.9629  157.7647 H   0  0  0  0  0  0  0  0  0  0  0  0
  1  2  1  0  0  0  0
  1 24  1  0  0  0  0
  1 25  1  0  0  0  0
  1 26  1  0  0  0  0
  2 23  1  0  0  0  0
  2  3  1  0  0  0  0
  2 27  1  0  0  0  0
  3  4  1  0  0  0  0
  3 28  1  0  0  0  0
  3 29  1  0  0  0  0
  4  5  1  0  0  0  0
  4 20  1  0  0  0  0
  4 49  1  0  0  0  0
  5  6  1  0  0  0  0
  5 30  1  0  0  0  0
  5 31  1  0  0  0  0
  6  7  1  0  0  0  0
  6  8  1  0  0  0  0
  6 32  1  0  0  0  0
  7 33  1  0  0  0  0
  8  9  1  0  0  0  0
  8 34  1  0  0  0  0
  8 35  1  0  0  0  0
  9 19  1  0  0  0  0
  9 10  1  0  0  0  0
 10 11  1  0  0  0  0
 10 13  2  0  0  0  0
 11 12  1  0  0  0  0
 11 36  1  0  0  0  0
 11 37  1  0  0  0  0
 12 38  1  0  0  0  0
 13 14  1  0  0  0  0
 14 19  2  0  0  0  0
 14 15  1  0  0  0  0
 15 16  2  0  0  0  0
 15 39  1  0  0  0  0
 16 17  1  0  0  0  0
 16 40  1  0  0  0  0
 17 18  2  0  0  0  0
 17 41  1  0  0  0  0
 18 19  1  0  0  0  0
 18 42  1  0  0  0  0
 20 21  1  0  0  0  0
 20 43  1  0  0  0  0
 20 44  1  0  0  0  0
 21 22  1  0  0  0  0
 21 23  1  0  0  0  0
 21 45  1  0  0  0  0
 22 46  1  0  0  0  0
 22 47  1  0  0  0  0
 22 48  1  0  0  0  0
M  CHG  1   4   1
M  END
> <s_m_source_file>
AV-unprocessed.smi

> <i_m_source_file_index>
1703

> <i_lp_mmshare_version>
43012

> <i_f3d_flags>
0

> <s_epik_input>
W0NIM11bQ0BASF0xW0NIMl1OKFtDSDJdW0NASF0oTzEpW0NIM10pW0NIMl1bQ0BIXShbT0hdKVtDSDJdbihjKG4yKVtDSDJdW09IXSljKGMyMylbY0hdW2NIXVtjSF1bY0hdMw==

> <s_epik_cmdline>
J2VwaWtfcHl0aG9uJywgJy1waCcsICc3LjAnLCAnLXRuJywgJzgnLCAnLW1hJywgJzIwMCcsICctbWV0YWxfYmluZGluZycsICctaW1hZScsICc8aW5maWxlLm1hZT4nLCAnLW9tYWUnLCAnPG91dGZpbGUubWFlPic=

> <r_epik_Ionization_Penalty>
0.655661

> <r_epik_Ionization_Penalty_Charging>
0.608065

> <r_epik_Ionization_Penalty_Neutral>
0.0475963

> <r_epik_State_Penalty>
0.695267

> <r_epik_Charging_Adjusted_Penalty>
1.30333

> <i_epik_Tot_Q>
1

> <i_epik_Tot_abs_Q>
1

> <r_epik_Metal_State_Penalty>
0.653591

> <b_epik_Metal_Only>
0

> <s_lp_Force_Field>
OPLS_2005

> <r_lp_Energy>
24.2834

> <b_lp_Chiralities_Consistent>
1

> <s_lp_Variant>
AV-unprocessed.smi:1703-14

> <Gold.Version>
5.8.1

> <Gold.Id.Protein>
6NUR|6NUR_protein|mol2

> <Gold.PLP.Fitness>
41.1475

> <Gold.PLP.PLP>
-35.4753

> <Gold.PLP.part.hbond>
-2.4630

> <Gold.PLP.part.metal>
0.0000

> <Gold.PLP.part.buried>
-6.9143

> <Gold.PLP.part.nonpolar>
-26.9455

> <Gold.PLP.part.repulsive>
0.0776

> <Gold.PLP.ligand.clash>
0.0000

> <Gold.PLP.ligand.torsion>
0.4046

> <Gold.PLP.Chemscore.Hbond>
2.1502

> <Gold.PLP.Chemscore.CHOScore>
0.0000

> <Gold.PLP.Chemscore.Metal>
0.0000

> <Gold.Chemscore.Hbonds>
donor molecule, donor type, donor heavy atom, donor atom, acceptor molecule, acceptor atom, score
      P1  H  6934  6946       L1    23  0.07
      P1  H  7989  7998       L1    12  1.00
      P1  H  7997  8009       L1    13  1.00

> <Gold.PLP.Chemscore.Internal.Correction>
0.0310

> <Gold.Rescore>
     Score         DG    S(hbond)    S(metal)    S(lipo)     H(rot)  DE(clash)    DE(int)     intcor
     13.19     -13.83       1.61        0.00      90.23       2.96       0.02       0.61       ----

> <Gold.Chemscore.Fitness>
13.1940

> <Gold.Chemscore.DG>
-13.8321

> <Gold.Chemscore.ZeroCoef>
-5.4800

> <Gold.Chemscore.Hbond>
1.6093

> <Gold.Chemscore.Metal>
0.0000

> <Gold.Chemscore.Lipo>
90.2339

> <Gold.Chemscore.Internal_Hbond>
0.0000

> <Gold.Chemscore.DEClash>
0.0234

> <Gold.Chemscore.DEInternal>
0.6147

> <Gold.Chemscore.Rot>
2.9611

> <Gold.Chemscore.Internal.Correction>
   9.000000E+99

> <Gold.Chemscore.Hbonds>
donor molecule, donor type, donor heavy atom, donor atom, acceptor molecule, acceptor atom, score
      P1  H  7989  7998       L1    12  0.26
      P1  H  7997  8009       L1    13  0.63

> <Gold.Chemscore.Hbond.Weighted>
-5.3751

> <Gold.Chemscore.Metal.Weighted>
-0.0000

> <Gold.Chemscore.Lipo.Weighted>
-10.5574

> <Gold.Chemscore.Internal_Hbond.Weighted>
0.0000

> <Gold.Chemscore.DEClash.Weighted>
0.0234

> <Gold.Chemscore.DEInternal.Weighted>
0.6147

> <Gold.Chemscore.Rot.Weighted>
7.5803

> <Gold.Chemscore.Internal.Correction.Weighted>
   9.000000E+99

> <Gold.Protein.RotatedTorsions>
[ 6907 6896 6895 6894 ] final -123.28 input  -60.11 | X-H torsion
[ 7974 7965 7964 7962 ] final  165.90 input  175.53 | X-H torsion
[ 8008 7997 7996 7995 ] final  178.89 input   59.86 | X-H torsion
[ 10167 10162 10161 10158 ] final  -69.37 input  -65.29 | X-H torsion
[ 10718 10713 10712 10709 ] final  -30.18 input   66.30 | X-H torsion
[ 10763 10752 10751 10750 ] final    2.33 input  -60.55 | X-H torsion
[ 11005 11000 10999 10996 ] final  -64.57 input  -57.11 | X-H torsion

> <Gold.Protein.ActiveResidues>
 VAL166  LYS551  ARG553  GLY616  TRP617  ASP618  TYR619  PRO620  LYS621  CYS622 
 ASP623  PHE694  ASN695  SER759  ASP760  ASP761  ALA762  ILE779  LEU786  VAL792 
 PHE793  MET794  SER795  GLU796  ALA797  LYS798  CYS799  TRP800  GLU811  SER814 

> <Gold.Protein.RotatedAtoms>
  150.8656  133.7580  159.2977 H   0  0  0  0  0  0  0  0  0  0  0  0  # atno 6907 bound_to 6896
  151.5209  135.1065  159.9887 H   0  0  0  0  0  0  0  0  0  0  0  0  # atno 6908 bound_to 6896
  152.4658  133.7875  159.6940 H   0  0  0  0  0  0  0  0  0  0  0  0  # atno 6909 bound_to 6896
  144.7484  139.8537  143.6374 H   0  0  0  0  0  0  0  0  0  0  0  0  # atno 7974 bound_to 7965
  156.0495  140.1322  157.0066 H   0  0  0  0  0  0  0  0  0  0  0  0  # atno 8008 bound_to 7997
  154.4428  140.1013  156.6426 H   0  0  0  0  0  0  0  0  0  0  0  0  # atno 8009 bound_to 7997
  155.5544  140.3463  155.4478 H   0  0  0  0  0  0  0  0  0  0  0  0  # atno 8010 bound_to 7997
  140.5436  143.2314  151.7044 H   0  0  0  0  0  0  0  0  0  0  0  0  # atno 10167 bound_to 10162
  156.4031  130.4394  149.7308 H   0  0  0  0  0  0  0  0  0  0  0  0  # atno 10718 bound_to 10713
  153.2969  135.6953  153.7240 H   0  0  0  0  0  0  0  0  0  0  0  0  # atno 10763 bound_to 10752
  153.6169  135.3434  155.2998 H   0  0  0  0  0  0  0  0  0  0  0  0  # atno 10764 bound_to 10752
  154.8540  135.4377  154.2068 H   0  0  0  0  0  0  0  0  0  0  0  0  # atno 10765 bound_to 10752
  141.1429  133.6668  156.5853 H   0  0  0  0  0  0  0  0  0  0  0  0  # atno 11005 bound_to 11000
  146.1397  139.4451  143.0116 LP  0  0  0  0  0  0  0  0  0  0  0  0  # atno 17320 bound_to 7965
  145.7036  141.0128  143.1491 LP  0  0  0  0  0  0  0  0  0  0  0  0  # atno 17321 bound_to 7965
  139.4998  144.3931  152.0260 LP  0  0  0  0  0  0  0  0  0  0  0  0  # atno 17342 bound_to 10162
  140.3041  144.3612  150.6052 LP  0  0  0  0  0  0  0  0  0  0  0  0  # atno 17343 bound_to 10162
  156.4316  130.7818  151.2838 LP  0  0  0  0  0  0  0  0  0  0  0  0  # atno 17370 bound_to 10713
  157.7504  131.0152  150.3495 LP  0  0  0  0  0  0  0  0  0  0  0  0  # atno 17371 bound_to 10713
  140.3805  134.7527  157.4658 LP  0  0  0  0  0  0  0  0  0  0  0  0  # atno 17394 bound_to 11000
  140.0641  134.5954  155.8715 LP  0  0  0  0  0  0  0  0  0  0  0  0  # atno 17395 bound_to 11000

$$$$
