AV-unprocessed.smi:917|AV-procd|sdf|4162|dock7
  -GOLD-   22720 2 63D 1   1.00000     0.00000
 Structure written by MMmdl.
 43 44  0  0  0  0  0  0  0  0  1 V2000
  155.6954  135.4721  161.1267 C   0  0  0  0  0  0  0  0  0  0  0  0
  155.3064  134.5403  162.2382 C   0  0  0  0  0  0  0  0  0  0  0  0
  155.6217  133.2585  162.1581 N   0  0  0  0  0  0  0  0  0  0  0  0
  155.1323  132.6703  163.3283 O   0  0  0  0  0  0  0  0  0  0  0  0
  154.5332  133.6319  164.0753 C   0  0  0  0  0  0  0  0  0  0  0  0
  153.9487  133.1946  165.3757 C   0  0  0  0  0  0  0  0  0  0  0  0
  154.6039  134.8418  163.4401 C   0  0  0  0  0  0  0  0  0  0  0  0
  154.0775  136.1799  163.8916 C   0  0  0  0  0  0  0  0  0  0  0  0
  155.1583  137.2447  163.7039 C   0  0  0  0  0  0  0  0  0  0  0  0
  156.2101  137.1730  164.3397 O   0  0  0  0  0  0  0  0  0  0  0  0
  154.8793  138.2354  162.8430 N   0  0  0  0  0  0  0  0  0  0  0  0
  155.7429  139.3781  162.5732 C   0  0  0  0  0  0  0  0  0  0  0  0
  154.9267  140.6750  162.4552 C   0  0  0  0  0  0  0  0  0  0  0  0
  154.1875  140.7837  161.1128 C   0  0  0  0  0  0  0  0  0  0  0  0
  153.6262  142.1906  160.8409 C   0  0  0  0  0  0  0  0  0  0  0  0
  152.6503  142.6757  161.9147 C   0  0  0  0  0  0  0  0  0  0  0  0
  151.8868  143.8267  161.2545 C   0  0  0  0  0  0  0  0  0  0  0  0
  151.9184  143.5467  159.7443 C   0  0  0  0  0  0  0  0  0  0  0  0
  152.8078  142.3116  159.5508 C   0  0  0  0  0  0  0  0  0  0  0  0
  156.1521  136.3801  161.5211 H   0  0  0  0  0  0  0  0  0  0  0  0
  154.8229  135.7662  160.5434 H   0  0  0  0  0  0  0  0  0  0  0  0
  156.4123  135.0121  160.4450 H   0  0  0  0  0  0  0  0  0  0  0  0
  153.7731  134.0458  166.0330 H   0  0  0  0  0  0  0  0  0  0  0  0
  154.6202  132.5072  165.8906 H   0  0  0  0  0  0  0  0  0  0  0  0
  152.9974  132.6861  165.2192 H   0  0  0  0  0  0  0  0  0  0  0  0
  153.1970  136.4758  163.3205 H   0  0  0  0  0  0  0  0  0  0  0  0
  153.7624  136.1493  164.9355 H   0  0  0  0  0  0  0  0  0  0  0  0
  153.9915  138.2110  162.3627 H   0  0  0  0  0  0  0  0  0  0  0  0
  156.5024  139.4712  163.3513 H   0  0  0  0  0  0  0  0  0  0  0  0
  156.2756  139.1874  161.6412 H   0  0  0  0  0  0  0  0  0  0  0  0
  154.2062  140.7253  163.2728 H   0  0  0  0  0  0  0  0  0  0  0  0
  155.5898  141.5325  162.5756 H   0  0  0  0  0  0  0  0  0  0  0  0
  154.8554  140.4887  160.3024 H   0  0  0  0  0  0  0  0  0  0  0  0
  153.3639  140.0688  161.1032 H   0  0  0  0  0  0  0  0  0  0  0  0
  154.4531  142.9010  160.7929 H   0  0  0  0  0  0  0  0  0  0  0  0
  151.9525  141.8773  162.1720 H   0  0  0  0  0  0  0  0  0  0  0  0
  153.1540  142.9824  162.8319 H   0  0  0  0  0  0  0  0  0  0  0  0
  150.8693  143.9094  161.6379 H   0  0  0  0  0  0  0  0  0  0  0  0
  152.3917  144.7711  161.4615 H   0  0  0  0  0  0  0  0  0  0  0  0
  150.9185  143.3730  159.3450 H   0  0  0  0  0  0  0  0  0  0  0  0
  152.3347  144.4053  159.2156 H   0  0  0  0  0  0  0  0  0  0  0  0
  153.4371  142.3921  158.6640 H   0  0  0  0  0  0  0  0  0  0  0  0
  152.1778  141.4294  159.4264 H   0  0  0  0  0  0  0  0  0  0  0  0
  1  2  1  0  0  0  0
  1 20  1  0  0  0  0
  1 21  1  0  0  0  0
  1 22  1  0  0  0  0
  2  7  1  0  0  0  0
  2  3  2  0  0  0  0
  3  4  1  0  0  0  0
  4  5  1  0  0  0  0
  5  6  1  0  0  0  0
  5  7  2  0  0  0  0
  6 23  1  0  0  0  0
  6 24  1  0  0  0  0
  6 25  1  0  0  0  0
  7  8  1  0  0  0  0
  8  9  1  0  0  0  0
  8 26  1  0  0  0  0
  8 27  1  0  0  0  0
  9 10  2  0  0  0  0
  9 11  1  0  0  0  0
 11 12  1  0  0  0  0
 11 28  1  0  0  0  0
 12 13  1  0  0  0  0
 12 29  1  0  0  0  0
 12 30  1  0  0  0  0
 13 14  1  0  0  0  0
 13 31  1  0  0  0  0
 13 32  1  0  0  0  0
 14 15  1  0  0  0  0
 14 33  1  0  0  0  0
 14 34  1  0  0  0  0
 15 19  1  0  0  0  0
 15 16  1  0  0  0  0
 15 35  1  0  0  0  0
 16 17  1  0  0  0  0
 16 36  1  0  0  0  0
 16 37  1  0  0  0  0
 17 18  1  0  0  0  0
 17 38  1  0  0  0  0
 17 39  1  0  0  0  0
 18 19  1  0  0  0  0
 18 40  1  0  0  0  0
 18 41  1  0  0  0  0
 19 42  1  0  0  0  0
 19 43  1  0  0  0  0
M  END
> <s_m_source_file>
AV-unprocessed.smi

> <i_m_source_file_index>
917

> <i_lp_mmshare_version>
43012

> <i_f3d_flags>
0

> <s_epik_input>
W0NIM11jMW5vYyhbQ0gzXSljMVtDSDJdQyg9TylbTkhdW0NIMl1bQ0gyXVtDSDJdW0NIXTJbQ0gyXVtDSDJdW0NIMl1bQ0gyXTI=

> <s_epik_cmdline>
J2VwaWtfcHl0aG9uJywgJy1waCcsICc3LjAnLCAnLXRuJywgJzgnLCAnLW1hJywgJzIwMCcsICctbWV0YWxfYmluZGluZycsICctaW1hZScsICc8aW5maWxlLm1hZT4nLCAnLW9tYWUnLCAnPG91dGZpbGUubWFlPic=

> <r_lp_tautomer_probability>
1

> <r_epik_Ionization_Penalty>
1.90047e-08

> <r_epik_Ionization_Penalty_Charging>
0

> <r_epik_Ionization_Penalty_Neutral>
1.90047e-08

> <r_epik_State_Penalty>
-0

> <r_epik_Charging_Adjusted_Penalty>
0

> <i_epik_Tot_Q>
0

> <i_epik_Tot_abs_Q>
0

> <r_epik_Metal_State_Penalty>
-0

> <b_epik_Metal_Only>
0

> <s_lp_Force_Field>
OPLS_2005

> <r_lp_Energy>
14.8475

> <b_lp_Chiralities_Consistent>
1

> <s_lp_Variant>
AV-unprocessed.smi:917-1

> <Gold.Version>
5.8.1

> <Gold.Id.Protein>
6NUR|6NUR_protein|mol2

> <Gold.PLP.Fitness>
42.9120

> <Gold.PLP.PLP>
-43.6478

> <Gold.PLP.part.hbond>
0.0000

> <Gold.PLP.part.metal>
0.0000

> <Gold.PLP.part.buried>
-2.8214

> <Gold.PLP.part.nonpolar>
-39.6410

> <Gold.PLP.part.repulsive>
0.0526

> <Gold.PLP.ligand.clash>
0.0000

> <Gold.PLP.ligand.torsion>
0.3992

> <Gold.PLP.Chemscore.Hbond>
0.0000

> <Gold.PLP.Chemscore.CHOScore>
0.0000

> <Gold.PLP.Chemscore.Metal>
0.0000

> <Gold.PLP.Chemscore.Internal.Correction>
0.0626

> <Gold.Rescore>
     Score         DG    S(hbond)    S(metal)    S(lipo)     H(rot)  DE(clash)    DE(int)     intcor
     15.78     -16.10       0.00        0.00     126.89       1.65       0.06       0.27       ----

> <Gold.Chemscore.Fitness>
15.7789

> <Gold.Chemscore.DG>
-16.1028

> <Gold.Chemscore.ZeroCoef>
-5.4800

> <Gold.Chemscore.Hbond>
0.0000

> <Gold.Chemscore.Metal>
0.0000

> <Gold.Chemscore.Lipo>
126.8853

> <Gold.Chemscore.Internal_Hbond>
0.0000

> <Gold.Chemscore.DEClash>
0.0551

> <Gold.Chemscore.DEInternal>
0.2688

> <Gold.Chemscore.Rot>
1.6495

> <Gold.Chemscore.Internal.Correction>
   9.000000E+99

> <Gold.Chemscore.Hbond.Weighted>
-0.0000

> <Gold.Chemscore.Metal.Weighted>
-0.0000

> <Gold.Chemscore.Lipo.Weighted>
-14.8456

> <Gold.Chemscore.Internal_Hbond.Weighted>
0.0000

> <Gold.Chemscore.DEClash.Weighted>
0.0551

> <Gold.Chemscore.DEInternal.Weighted>
0.2688

> <Gold.Chemscore.Rot.Weighted>
4.2228

> <Gold.Chemscore.Internal.Correction.Weighted>
   9.000000E+99

> <Gold.Protein.RotatedTorsions>
[ 6907 6896 6895 6894 ] final -131.05 input  -60.11 | X-H torsion
[ 7974 7965 7964 7962 ] final  -75.71 input  175.53 | X-H torsion
[ 8008 7997 7996 7995 ] final  -50.94 input   59.86 | X-H torsion
[ 10167 10162 10161 10158 ] final    4.35 input  -65.29 | X-H torsion
[ 10718 10713 10712 10709 ] final   44.74 input   66.30 | X-H torsion
[ 10763 10752 10751 10750 ] final  173.64 input  -60.55 | X-H torsion
[ 11005 11000 10999 10996 ] final   11.80 input  -57.11 | X-H torsion

> <Gold.Protein.ActiveResidues>
 VAL166  LYS551  ARG553  GLY616  TRP617  ASP618  TYR619  PRO620  LYS621  CYS622 
 ASP623  PHE694  ASN695  SER759  ASP760  ASP761  ALA762  ILE779  LEU786  VAL792 
 PHE793  MET794  SER795  GLU796  ALA797  LYS798  CYS799  TRP800  GLU811  SER814 

> <Gold.Protein.RotatedAtoms>
  150.9466  133.6596  159.2779 H   0  0  0  0  0  0  0  0  0  0  0  0  # atno 6907 bound_to 6896
  151.3966  135.0963  159.9552 H   0  0  0  0  0  0  0  0  0  0  0  0  # atno 6908 bound_to 6896
  152.5092  133.8969  159.7476 H   0  0  0  0  0  0  0  0  0  0  0  0  # atno 6909 bound_to 6896
  145.6225  140.9359  143.1130 H   0  0  0  0  0  0  0  0  0  0  0  0  # atno 7974 bound_to 7965
  154.4072  140.1260  156.4748 H   0  0  0  0  0  0  0  0  0  0  0  0  # atno 8008 bound_to 7997
  155.7144  140.3493  155.4968 H   0  0  0  0  0  0  0  0  0  0  0  0  # atno 8009 bound_to 7997
  155.9271  140.1063  157.1151 H   0  0  0  0  0  0  0  0  0  0  0  0  # atno 8010 bound_to 7997
  140.6539  143.7475  150.7621 H   0  0  0  0  0  0  0  0  0  0  0  0  # atno 10167 bound_to 10162
  157.4300  130.8019  149.7594 H   0  0  0  0  0  0  0  0  0  0  0  0  # atno 10718 bound_to 10713
  154.4428  135.2762  155.1836 H   0  0  0  0  0  0  0  0  0  0  0  0  # atno 10763 bound_to 10752
  154.3695  135.6112  153.5736 H   0  0  0  0  0  0  0  0  0  0  0  0  # atno 10764 bound_to 10752
  152.9842  135.5854  154.4759 H   0  0  0  0  0  0  0  0  0  0  0  0  # atno 10765 bound_to 10752
  140.4991  134.0763  155.7789 H   0  0  0  0  0  0  0  0  0  0  0  0  # atno 11005 bound_to 11000
  144.7225  139.7981  143.7376 LP  0  0  0  0  0  0  0  0  0  0  0  0  # atno 17320 bound_to 7965
  146.1420  139.4480  143.0103 LP  0  0  0  0  0  0  0  0  0  0  0  0  # atno 17321 bound_to 7965
  140.1132  143.4680  152.2358 LP  0  0  0  0  0  0  0  0  0  0  0  0  # atno 17342 bound_to 10162
  139.5758  144.7487  151.3768 LP  0  0  0  0  0  0  0  0  0  0  0  0  # atno 17343 bound_to 10162
  155.9910  130.3941  150.3004 LP  0  0  0  0  0  0  0  0  0  0  0  0  # atno 17370 bound_to 10713
  157.1160  131.0234  151.3029 LP  0  0  0  0  0  0  0  0  0  0  0  0  # atno 17371 bound_to 10713
  141.1445  133.9080  157.2249 LP  0  0  0  0  0  0  0  0  0  0  0  0  # atno 17394 bound_to 11000
  139.9724  135.0124  156.9545 LP  0  0  0  0  0  0  0  0  0  0  0  0  # atno 17395 bound_to 11000

$$$$
