AV-unprocessed.smi:3220|AV-procd|sdf|12300|dock1
  -GOLD-   2272018143D 1   1.00000     0.00000
 Structure written by MMmdl.
 33 34  0  0  0  0  0  0  0  0  1 V2000
  151.4097  140.4929  158.1465 C   0  0  0  0  0  0  0  0  0  0  0  0
  150.5328  141.6890  157.7478 C   0  0  1  0  0  0  0  0  0  0  0  0
  151.3798  142.9471  157.4751 C   0  0  0  0  0  0  0  0  0  0  0  0
  151.4800  143.8081  158.6403 N   0  0  0  0  0  0  0  0  0  0  0  0
  152.1015  145.0344  158.7501 C   0  0  0  0  0  0  0  0  0  0  0  0
  151.9262  145.4652  160.0338 C   0  0  0  0  0  0  0  0  0  0  0  0
  151.1744  144.4205  160.6408 C   0  0  0  0  0  0  0  0  0  0  0  0
  150.9088  143.4301  159.8042 N   0  0  0  0  0  0  0  0  0  0  0  0
  149.7487  141.3492  156.5621 N   0  0  0  0  0  0  0  0  0  0  0  0
  150.2138  140.7338  155.4645 C   0  0  0  0  0  0  0  0  0  0  0  0
  151.3885  140.3927  155.3242 O   0  0  0  0  0  0  0  0  0  0  0  0
  149.1838  140.4491  154.3656 C   0  0  1  0  0  0  0  0  0  0  0  0
  147.9211  139.7162  154.8571 C   0  0  0  0  0  0  0  0  0  0  0  0
  146.8378  140.7731  154.7715 C   0  0  0  0  0  0  0  0  0  0  0  0
  147.3345  141.6336  153.6189 C   0  0  0  0  0  0  0  0  0  0  0  0
  148.7334  141.6995  153.8474 O   0  0  0  0  0  0  0  0  0  0  0  0
  151.9932  140.7158  159.0403 H   0  0  0  0  0  0  0  0  0  0  0  0
  152.1074  140.2288  157.3511 H   0  0  0  0  0  0  0  0  0  0  0  0
  150.8019  139.6138  158.3629 H   0  0  0  0  0  0  0  0  0  0  0  0
  149.8646  141.9078  158.5830 H   0  0  0  0  0  0  0  0  0  0  0  0
  152.3895  142.6634  157.1742 H   0  0  0  0  0  0  0  0  0  0  0  0
  150.9598  143.5231  156.6493 H   0  0  0  0  0  0  0  0  0  0  0  0
  152.6076  145.4943  157.9142 H   0  0  0  0  0  0  0  0  0  0  0  0
  152.2795  146.3865  160.4722 H   0  0  0  0  0  0  0  0  0  0  0  0
  150.8166  144.3529  161.6575 H   0  0  0  0  0  0  0  0  0  0  0  0
  148.7675  141.5861  156.5851 H   0  0  0  0  0  0  0  0  0  0  0  0
  149.6462  139.8766  153.5596 H   0  0  0  0  0  0  0  0  0  0  0  0
  147.6908  138.8922  154.1808 H   0  0  0  0  0  0  0  0  0  0  0  0
  148.0067  139.2967  155.8604 H   0  0  0  0  0  0  0  0  0  0  0  0
  145.8448  140.3572  154.5992 H   0  0  0  0  0  0  0  0  0  0  0  0
  146.8114  141.3595  155.6909 H   0  0  0  0  0  0  0  0  0  0  0  0
  147.1429  141.1499  152.6598 H   0  0  0  0  0  0  0  0  0  0  0  0
  146.8817  142.6250  153.6043 H   0  0  0  0  0  0  0  0  0  0  0  0
  1  2  1  0  0  0  0
  1 17  1  0  0  0  0
  1 18  1  0  0  0  0
  1 19  1  0  0  0  0
  2  3  1  0  0  0  0
  2  9  1  0  0  0  0
  2 20  1  0  0  0  0
  3  4  1  0  0  0  0
  3 21  1  0  0  0  0
  3 22  1  0  0  0  0
  4  8  1  0  0  0  0
  4  5  1  0  0  0  0
  5  6  2  0  0  0  0
  5 23  1  0  0  0  0
  6  7  1  0  0  0  0
  6 24  1  0  0  0  0
  7  8  2  0  0  0  0
  7 25  1  0  0  0  0
  9 10  1  0  0  0  0
  9 26  1  0  0  0  0
 10 11  2  0  0  0  0
 10 12  1  0  0  0  0
 12 16  1  0  0  0  0
 12 13  1  0  0  0  0
 12 27  1  0  0  0  0
 13 14  1  0  0  0  0
 13 28  1  0  0  0  0
 13 29  1  0  0  0  0
 14 15  1  0  0  0  0
 14 30  1  0  0  0  0
 14 31  1  0  0  0  0
 15 16  1  0  0  0  0
 15 32  1  0  0  0  0
 15 33  1  0  0  0  0
M  END
> <s_m_source_file>
AV-unprocessed.smi

> <i_m_source_file_index>
3220

> <i_lp_mmshare_version>
43012

> <i_f3d_flags>
0

> <s_epik_input>
bjFbY0hdW2NIXVtjSF1uMVtDSDJdW0NAQEhdKFtDSDNdKVtOSF1DKD1PKVtDQEBIXTJbQ0gyXVtDSDJdW0NIMl1PMg==

> <s_epik_cmdline>
J2VwaWtfcHl0aG9uJywgJy1waCcsICc3LjAnLCAnLXRuJywgJzgnLCAnLW1hJywgJzIwMCcsICctbWV0YWxfYmluZGluZycsICctaW1hZScsICc8aW5maWxlLm1hZT4nLCAnLW9tYWUnLCAnPG91dGZpbGUubWFlPic=

> <r_lp_tautomer_probability>
1

> <r_epik_Ionization_Penalty>
0.00033363

> <r_epik_Ionization_Penalty_Charging>
0

> <r_epik_Ionization_Penalty_Neutral>
0.00033363

> <r_epik_State_Penalty>
-0

> <r_epik_Charging_Adjusted_Penalty>
0

> <i_epik_Tot_Q>
0

> <i_epik_Tot_abs_Q>
0

> <r_epik_Metal_State_Penalty>
-0

> <b_epik_Metal_Only>
0

> <s_lp_Force_Field>
OPLS_2005

> <r_lp_Energy>
17.8243

> <b_lp_Chiralities_Consistent>
1

> <s_lp_Variant>
AV-unprocessed.smi:3220-4

> <Gold.Version>
5.8.1

> <Gold.Id.Protein>
6NUR|6NUR_protein|mol2

> <Gold.PLP.Fitness>
39.2197

> <Gold.PLP.PLP>
-36.1893

> <Gold.PLP.part.hbond>
-2.4644

> <Gold.PLP.part.metal>
0.0000

> <Gold.PLP.part.buried>
-6.6834

> <Gold.PLP.part.nonpolar>
-27.3818

> <Gold.PLP.part.repulsive>
0.2968

> <Gold.PLP.ligand.clash>
0.0000

> <Gold.PLP.ligand.torsion>
0.8016

> <Gold.PLP.Chemscore.Hbond>
1.5360

> <Gold.PLP.Chemscore.CHOScore>
0.0000

> <Gold.PLP.Chemscore.Metal>
0.0000

> <Gold.Chemscore.Hbonds>
donor molecule, donor type, donor heavy atom, donor atom, acceptor molecule, acceptor atom, score
      P1  H  7989  7998       L1    11  0.93
      P1  H  8011  8017       L1    16  0.61

> <Gold.PLP.Chemscore.Internal.Correction>
0.0256

> <Gold.Rescore>
     Score         DG    S(hbond)    S(metal)    S(lipo)     H(rot)  DE(clash)    DE(int)     intcor
     12.36     -14.65       1.24        0.00      78.53       1.62       0.15       2.13       ----

> <Gold.Chemscore.Fitness>
12.3588

> <Gold.Chemscore.DG>
-14.6482

> <Gold.Chemscore.ZeroCoef>
-5.4800

> <Gold.Chemscore.Hbond>
1.2371

> <Gold.Chemscore.Metal>
0.0000

> <Gold.Chemscore.Lipo>
78.5310

> <Gold.Chemscore.Internal_Hbond>
0.0000

> <Gold.Chemscore.DEClash>
0.1548

> <Gold.Chemscore.DEInternal>
2.1346

> <Gold.Chemscore.Rot>
1.6219

> <Gold.Chemscore.Internal.Correction>
   9.000000E+99

> <Gold.Chemscore.Hbonds>
donor molecule, donor type, donor heavy atom, donor atom, acceptor molecule, acceptor atom, score
      P1  H  7989  7998       L1    11  0.23
      P1  H  8011  8017       L1    16  0.49

> <Gold.Chemscore.Hbond.Weighted>
-4.1320

> <Gold.Chemscore.Metal.Weighted>
-0.0000

> <Gold.Chemscore.Lipo.Weighted>
-9.1881

> <Gold.Chemscore.Internal_Hbond.Weighted>
0.0000

> <Gold.Chemscore.DEClash.Weighted>
0.1548

> <Gold.Chemscore.DEInternal.Weighted>
2.1346

> <Gold.Chemscore.Rot.Weighted>
4.1520

> <Gold.Chemscore.Internal.Correction.Weighted>
   9.000000E+99

> <Gold.Protein.RotatedTorsions>
[ 6907 6896 6895 6894 ] final  178.91 input  -60.11 | X-H torsion
[ 7974 7965 7964 7962 ] final -144.04 input  175.53 | X-H torsion
[ 8008 7997 7996 7995 ] final -164.65 input   59.86 | X-H torsion
[ 10167 10162 10161 10158 ] final  179.63 input  -65.29 | X-H torsion
[ 10718 10713 10712 10709 ] final   30.71 input   66.30 | X-H torsion
[ 10763 10752 10751 10750 ] final  -33.44 input  -60.55 | X-H torsion
[ 11005 11000 10999 10996 ] final -159.85 input  -57.11 | X-H torsion

> <Gold.Protein.ActiveResidues>
 VAL166  LYS551  ARG553  GLY616  TRP617  ASP618  TYR619  PRO620  LYS621  CYS622 
 ASP623  PHE694  ASN695  SER759  ASP760  ASP761  ALA762  ILE779  LEU786  VAL792 
 PHE793  MET794  SER795  GLU796  ALA797  LYS798  CYS799  TRP800  GLU811  SER814 

> <Gold.Protein.RotatedAtoms>
  151.6801  133.3312  159.3217 H   0  0  0  0  0  0  0  0  0  0  0  0  # atno 6907 bound_to 6896
  150.7827  134.6788  159.6442 H   0  0  0  0  0  0  0  0  0  0  0  0  # atno 6908 bound_to 6896
  152.3888  134.6477  160.0167 H   0  0  0  0  0  0  0  0  0  0  0  0  # atno 6909 bound_to 6896
  144.8326  140.5759  143.5505 H   0  0  0  0  0  0  0  0  0  0  0  0  # atno 7974 bound_to 7965
  155.8387  140.0945  157.1748 H   0  0  0  0  0  0  0  0  0  0  0  0  # atno 8008 bound_to 7997
  154.3981  140.1405  156.3763 H   0  0  0  0  0  0  0  0  0  0  0  0  # atno 8009 bound_to 7997
  155.8088  140.3450  155.5448 H   0  0  0  0  0  0  0  0  0  0  0  0  # atno 8010 bound_to 7997
  139.5345  144.2538  152.0763 H   0  0  0  0  0  0  0  0  0  0  0  0  # atno 10167 bound_to 10162
  157.2630  130.7171  149.6464 H   0  0  0  0  0  0  0  0  0  0  0  0  # atno 10718 bound_to 10713
  153.8302  135.6867  153.4815 H   0  0  0  0  0  0  0  0  0  0  0  0  # atno 10763 bound_to 10752
  153.1516  135.4616  154.9642 H   0  0  0  0  0  0  0  0  0  0  0  0  # atno 10764 bound_to 10752
  154.7890  135.3295  154.7766 H   0  0  0  0  0  0  0  0  0  0  0  0  # atno 10765 bound_to 10752
  140.6380  134.4581  157.5232 H   0  0  0  0  0  0  0  0  0  0  0  0  # atno 11005 bound_to 11000
  145.4864  139.1491  143.3734 LP  0  0  0  0  0  0  0  0  0  0  0  0  # atno 17320 bound_to 7965
  146.2627  140.5001  142.8847 LP  0  0  0  0  0  0  0  0  0  0  0  0  # atno 17321 bound_to 7965
  140.2006  144.4661  150.6433 LP  0  0  0  0  0  0  0  0  0  0  0  0  # atno 17342 bound_to 10162
  140.6543  143.2233  151.6005 LP  0  0  0  0  0  0  0  0  0  0  0  0  # atno 17343 bound_to 10162
  155.9664  130.4391  150.5246 LP  0  0  0  0  0  0  0  0  0  0  0  0  # atno 17370 bound_to 10713
  157.3154  131.0672  151.1970 LP  0  0  0  0  0  0  0  0  0  0  0  0  # atno 17371 bound_to 10713
  139.9091  134.8385  156.1596 LP  0  0  0  0  0  0  0  0  0  0  0  0  # atno 17394 bound_to 11000
  141.0627  133.6834  156.1984 LP  0  0  0  0  0  0  0  0  0  0  0  0  # atno 17395 bound_to 11000

$$$$
