#       Name:                AV-unprocessed.smi:2667
#       Creating user name   scv26
#       Creation time:       Fri Mar 27 14:35:33 2020


#       File generated by GOLD software.
#

@<TRIPOS>MOLECULE
AV-unprocessed.smi:2667
    51    53     1
SMALL
NO_CHARGES


@<TRIPOS>ATOM
      1 ****        -5.1537   5.5187  -0.3211 C.3            1 S1                 0.0000
      2 ****        -4.6315   4.0869  -0.5192 C.3            1 S1                 0.0000
      3 ****        -3.1460   3.9103  -0.1679 C.2            1 S1                 0.0000
      4 ****        -2.5165   4.8502   0.3196 O.2            1 S1                 0.0000
      5 ****        -2.5285   2.5820  -0.4501 C.ar           1 S1                 0.0000
      6 ****        -3.2914   1.4864  -0.9170 C.ar           1 S1                 0.0000
      7 ****        -2.6760   0.2473  -1.1779 C.ar           1 S1                 0.0000
      8 ****        -1.2925   0.0693  -0.9823 C.ar           1 S1                 0.0000
      9 ****        -0.7736  -1.1738  -1.2741 O.3            1 S1                 0.0000
     10 ****         0.6307  -1.3601  -1.1577 C.3            1 S1                 0.0000
     11 ****         0.9762  -2.7929  -1.6026 C.3            1 S1                 0.0000
     12 ****         0.9469  -2.8370  -3.0142 O.3            1 S1                 0.0000
     13 ****         2.3792  -3.2590  -1.1656 C.3            1 S1                 0.0000
     14 ****         2.5358  -3.3006   0.2771 N.pl3          1 S1                 0.0000
     15 ****         2.0766  -4.2520   1.1124 C.2            1 S1                 0.0000
     16 ****         2.3328  -4.1008   2.4086 N.2            1 S1                 0.0000
     17 ****         3.0439  -2.9131   2.4160 C.ar           1 S1                 0.0000
     18 ****         3.6129  -2.1918   3.4899 C.ar           1 S1                 0.0000
     19 ****         4.3030  -0.9846   3.2534 C.ar           1 S1                 0.0000
     20 ****         4.4341  -0.4804   1.9431 C.ar           1 S1                 0.0000
     21 ****         3.8762  -1.1818   0.8571 C.ar           1 S1                 0.0000
     22 ****         3.1898  -2.3867   1.0969 C.ar           1 S1                 0.0000
     23 ****        -0.5283   1.1621  -0.5047 C.ar           1 S1                 0.0000
     24 ****        -1.1425   2.4017  -0.2415 C.ar           1 S1                 0.0000
     25 ****        -6.2039   5.5854  -0.6052 H              1 S1                 0.0000
     26 ****        -4.6014   6.2323  -0.9338 H              1 S1                 0.0000
     27 ****        -5.0742   5.8325   0.7204 H              1 S1                 0.0000
     28 ****        -5.2180   3.4007   0.0922 H              1 S1                 0.0000
     29 ****        -4.7793   3.7952  -1.5592 H              1 S1                 0.0000
     30 ****        -4.3547   1.5709  -1.0838 H              1 S1                 0.0000
     31 ****        -3.2746  -0.5770  -1.5371 H              1 S1                 0.0000
     32 ****         1.1874  -0.6302  -1.7481 H              1 S1                 0.0000
     33 ****         0.8987  -1.2167  -0.1108 H              1 S1                 0.0000
     34 ****         0.2319  -3.4895  -1.2142 H              1 S1                 0.0000
     35 ****         0.0879  -2.5689  -3.3031 H              1 S1                 0.0000
     36 ****         2.5823  -4.2580  -1.5546 H              1 S1                 0.0000
     37 ****         3.1451  -2.6034  -1.5819 H              1 S1                 0.0000
     38 ****         1.5215  -5.1037   0.7469 H              1 S1                 0.0000
     39 ****         3.5187  -2.5683   4.4976 H              1 S1                 0.0000
     40 ****         4.7339  -0.4424   4.0824 H              1 S1                 0.0000
     41 ****         4.9638   0.4454   1.7720 H              1 S1                 0.0000
     42 ****         3.9733  -0.7971  -0.1473 H              1 S1                 0.0000
     43 ****         0.5336   1.0765  -0.3311 H              1 S1                 0.0000
     44 ****        -0.5307   3.2159   0.1193 H              1 S1                 0.0000
     45 ****        -2.9722   5.7247   0.4856 LP             1 S1                 0.0000
     46 ****        -1.5496   4.7387   0.5494 LP             1 S1                 0.0000
     47 ****        -1.0232  -1.3848  -2.2191 LP             1 S1                 0.0000
     48 ****        -1.2115  -1.8296  -0.6592 LP             1 S1                 0.0000
     49 ****         1.1331  -3.7684  -3.3270 LP             1 S1                 0.0000
     50 ****         1.6373  -2.2163  -3.3859 LP             1 S1                 0.0000
     51 ****         2.0788  -4.6898   3.1758 LP             1 S1                 0.0000
@<TRIPOS>BOND
    1    1    2 1     
    2    1   25 1     
    3    1   26 1     
    4    1   27 1     
    5    2    3 1     
    6    2   28 1     
    7    2   29 1     
    8    3    4 2     
    9    3    5 1     
   10    5   24 ar    
   11    5    6 ar    
   12    6    7 ar    
   13    6   30 1     
   14    7    8 ar    
   15    7   31 1     
   16    8    9 1     
   17    8   23 ar    
   18    9   10 1     
   19   10   11 1     
   20   10   32 1     
   21   10   33 1     
   22   11   12 1     
   23   11   13 1     
   24   11   34 1     
   25   12   35 1     
   26   13   14 1     
   27   13   36 1     
   28   13   37 1     
   29   14   22 1     
   30   14   15 1     
   31   15   16 2     
   32   15   38 1     
   33   16   17 1     
   34   17   22 ar    
   35   17   18 ar    
   36   18   19 ar    
   37   18   39 1     
   38   19   20 ar    
   39   19   40 1     
   40   20   21 ar    
   41   20   41 1     
   42   21   22 ar    
   43   21   42 1     
   44   23   24 ar    
   45   23   43 1     
   46   24   44 1     
   47    4   45 1     
   48    4   46 1     
   49    9   47 1     
   50    9   48 1     
   51   12   49 1     
   52   12   50 1     
   53   16   51 1     
@<TRIPOS>SUBSTRUCTURE
      1 S1             1
@<TRIPOS>SET
LONE_PAIRS      STATIC     ATOMS    <user>   **** ""
7 45 46 47 48 49 50 51
DONOR_HYDROGENS      STATIC     ATOMS    <user>   **** ""
1 35
ATOM$BLUE        STATIC     ATOMS    COLORGROUP SYSTEM
7 45 46 47 48 49 50 51
ATOM$RED        STATIC     ATOMS    COLORGROUP SYSTEM
1 35
