AV-unprocessed.smi:203|AV-procd|sdf|1583|dock10
  -GOLD-   2262019473D 1   1.00000     0.00000
 Structure written by MMmdl.
 57 61  0  0  0  0  0  0  0  0  1 V2000
  145.7477  131.7357  149.9279 O   0  0  0  0  0  0  0  0  0  0  0  0
  145.7699  132.8107  150.5224 C   0  0  0  0  0  0  0  0  0  0  0  0
  145.8671  132.9311  152.0335 C   0  0  0  0  0  0  0  0  0  0  0  0
  145.6225  134.4302  152.2961 C   0  0  2  0  0  0  0  0  0  0  0  0
  144.2757  134.7338  153.0264 C   0  0  2  0  0  0  0  0  0  0  0  0
  143.0330  134.3835  152.1653 C   0  0  0  0  0  0  0  0  0  0  0  0
  141.7237  134.6887  152.9049 C   0  0  0  0  0  0  0  0  0  0  0  0
  141.7055  136.1545  153.3504 C   0  0  0  0  0  0  0  0  0  0  0  0
  142.9406  136.4673  154.2051 C   0  0  0  0  0  0  0  0  0  0  0  0
  144.1765  136.1261  153.5011 N   0  0  0  0  0  0  0  0  0  0  0  0
  145.2439  136.6111  154.1735 C   0  0  0  0  0  0  0  0  0  0  0  0
  145.5384  136.0357  155.3649 N   0  0  0  0  0  0  0  0  0  0  0  0
  146.5812  136.4738  156.0769 C   0  0  0  0  0  0  0  0  0  0  0  0
  147.4430  137.4499  155.7825 N   0  0  0  0  0  0  0  0  0  0  0  0
  147.1527  138.0227  154.5791 C   0  0  0  0  0  0  0  0  0  0  0  0
  146.0778  137.6700  153.7164 C   0  0  0  0  0  0  0  0  0  0  0  0
  146.0943  138.4737  152.5831 N   0  0  0  0  0  0  0  0  0  0  0  0
  147.1227  139.2560  152.7643 C   0  0  0  0  0  0  0  0  0  0  0  0
  147.8270  139.0403  153.9277 N   0  0  0  0  0  0  0  0  0  0  0  0
  149.0131  139.7518  154.3710 C   0  0  0  0  0  0  0  0  0  0  0  0
  148.6999  141.0390  155.1690 C   0  0  2  0  0  0  0  0  0  0  0  0
  148.9138  142.1523  154.3260 O   0  0  0  0  0  0  0  0  0  0  0  0
  149.4786  141.2571  156.4883 C   0  0  2  0  0  0  0  0  0  0  0  0
  150.9855  141.4965  156.3677 C   0  0  0  0  0  0  0  0  0  0  0  0
  151.4540  141.1345  157.7593 C   0  0  0  0  0  0  0  0  0  0  0  0
  150.5506  139.9525  158.1040 C   0  0  0  0  0  0  0  0  0  0  0  0
  149.3386  140.1556  157.3816 O   0  0  0  0  0  0  0  0  0  0  0  0
  145.7520  135.1043  150.9114 C   0  0  0  0  0  0  0  0  0  0  0  0
  145.7187  134.0143  149.9559 N   0  0  0  0  0  0  0  0  0  0  0  0
  145.1535  132.2795  152.5377 H   0  0  0  0  0  0  0  0  0  0  0  0
  146.8692  132.6364  152.3473 H   0  0  0  0  0  0  0  0  0  0  0  0
  146.4484  134.7716  152.9207 H   0  0  0  0  0  0  0  0  0  0  0  0
  144.2365  134.0955  153.9096 H   0  0  0  0  0  0  0  0  0  0  0  0
  143.0469  134.9472  151.2322 H   0  0  0  0  0  0  0  0  0  0  0  0
  143.0386  133.3310  151.8845 H   0  0  0  0  0  0  0  0  0  0  0  0
  140.8694  134.4803  152.2602 H   0  0  0  0  0  0  0  0  0  0  0  0
  141.6290  134.0358  153.7733 H   0  0  0  0  0  0  0  0  0  0  0  0
  141.6891  136.8062  152.4758 H   0  0  0  0  0  0  0  0  0  0  0  0
  140.7968  136.3653  153.9147 H   0  0  0  0  0  0  0  0  0  0  0  0
  142.9407  137.5264  154.4679 H   0  0  0  0  0  0  0  0  0  0  0  0
  142.8906  135.9084  155.1408 H   0  0  0  0  0  0  0  0  0  0  0  0
  146.7508  135.9686  157.0164 H   0  0  0  0  0  0  0  0  0  0  0  0
  147.4046  140.0071  152.0409 H   0  0  0  0  0  0  0  0  0  0  0  0
  149.6195  139.0706  154.9693 H   0  0  0  0  0  0  0  0  0  0  0  0
  149.6086  139.9954  153.4904 H   0  0  0  0  0  0  0  0  0  0  0  0
  147.6366  141.0431  155.4107 H   0  0  0  0  0  0  0  0  0  0  0  0
  148.5823  142.9240  154.7587 H   0  0  0  0  0  0  0  0  0  0  0  0
  149.0421  142.1098  157.0119 H   0  0  0  0  0  0  0  0  0  0  0  0
  151.4448  140.8255  155.6433 H   0  0  0  0  0  0  0  0  0  0  0  0
  151.2317  142.5210  156.0877 H   0  0  0  0  0  0  0  0  0  0  0  0
  152.5149  140.8876  157.8053 H   0  0  0  0  0  0  0  0  0  0  0  0
  151.2658  141.9628  158.4436 H   0  0  0  0  0  0  0  0  0  0  0  0
  151.0006  139.0176  157.7685 H   0  0  0  0  0  0  0  0  0  0  0  0
  150.3655  139.8710  159.1752 H   0  0  0  0  0  0  0  0  0  0  0  0
  144.9622  135.8274  150.7072 H   0  0  0  0  0  0  0  0  0  0  0  0
  146.7059  135.6253  150.8217 H   0  0  0  0  0  0  0  0  0  0  0  0
  145.6532  134.1673  148.9599 H   0  0  0  0  0  0  0  0  0  0  0  0
  1  2  2  0  0  0  0
  2 29  1  0  0  0  0
  2  3  1  0  0  0  0
  3  4  1  0  0  0  0
  3 30  1  0  0  0  0
  3 31  1  0  0  0  0
  4  5  1  0  0  0  0
  4 28  1  0  0  0  0
  4 32  1  0  0  0  0
  5 10  1  0  0  0  0
  5  6  1  0  0  0  0
  5 33  1  0  0  0  0
  6  7  1  0  0  0  0
  6 34  1  0  0  0  0
  6 35  1  0  0  0  0
  7  8  1  0  0  0  0
  7 36  1  0  0  0  0
  7 37  1  0  0  0  0
  8  9  1  0  0  0  0
  8 38  1  0  0  0  0
  8 39  1  0  0  0  0
  9 10  1  0  0  0  0
  9 40  1  0  0  0  0
  9 41  1  0  0  0  0
 10 11  1  0  0  0  0
 11 16  1  0  0  0  0
 11 12  2  0  0  0  0
 12 13  1  0  0  0  0
 13 14  2  0  0  0  0
 13 42  1  0  0  0  0
 14 15  1  0  0  0  0
 15 19  1  0  0  0  0
 15 16  2  0  0  0  0
 16 17  1  0  0  0  0
 17 18  2  0  0  0  0
 18 19  1  0  0  0  0
 18 43  1  0  0  0  0
 19 20  1  0  0  0  0
 20 21  1  0  0  0  0
 20 44  1  0  0  0  0
 20 45  1  0  0  0  0
 21 22  1  0  0  0  0
 21 23  1  0  0  0  0
 21 46  1  0  0  0  0
 22 47  1  0  0  0  0
 23 27  1  0  0  0  0
 23 24  1  0  0  0  0
 23 48  1  0  0  0  0
 24 25  1  0  0  0  0
 24 49  1  0  0  0  0
 24 50  1  0  0  0  0
 25 26  1  0  0  0  0
 25 51  1  0  0  0  0
 25 52  1  0  0  0  0
 26 27  1  0  0  0  0
 26 53  1  0  0  0  0
 26 54  1  0  0  0  0
 28 29  1  0  0  0  0
 28 55  1  0  0  0  0
 28 56  1  0  0  0  0
 29 57  1  0  0  0  0
M  END
> <s_m_source_file>
AV-unprocessed.smi

> <i_m_source_file_index>
203

> <i_lp_mmshare_version>
43012

> <i_f3d_flags>
0

> <s_epik_input>
Tz1DMVtDSDJdW0NASF0oW0NIMl1bTkhdMSlbQ0BASF0yW0NIMl1bQ0gyXVtDSDJdW0NIMl1OMmMobltjSF1uMyljKGMzNCluW2NIXW40W0NIMl1bQ0BIXShbT0hdKVtDQEBIXTVbQ0gyXVtDSDJdW0NIMl1PNQ==

> <s_epik_cmdline>
J2VwaWtfcHl0aG9uJywgJy1waCcsICc3LjAnLCAnLXRuJywgJzgnLCAnLW1hJywgJzIwMCcsICctbWV0YWxfYmluZGluZycsICctaW1hZScsICc8aW5maWxlLm1hZT4nLCAnLW9tYWUnLCAnPG91dGZpbGUubWFlPic=

> <r_lp_tautomer_probability>
1

> <r_epik_Ionization_Penalty>
0.00175146

> <r_epik_Ionization_Penalty_Charging>
0

> <r_epik_Ionization_Penalty_Neutral>
0.00175146

> <r_epik_State_Penalty>
0.00109045

> <r_epik_Charging_Adjusted_Penalty>
0.00109045

> <i_epik_Tot_Q>
0

> <i_epik_Tot_abs_Q>
0

> <r_epik_Metal_State_Penalty>
-0

> <b_epik_Metal_Only>
0

> <s_lp_Force_Field>
OPLS_2005

> <r_lp_Energy>
56.3505

> <b_lp_Chiralities_Consistent>
1

> <s_lp_Variant>
AV-unprocessed.smi:203-2

> <Gold.Version>
5.8.1

> <Gold.Id.Protein>
6NUR|6NUR_protein|mol2

> <Gold.PLP.Fitness>
44.9579

> <Gold.PLP.PLP>
-37.8711

> <Gold.PLP.part.hbond>
-3.0000

> <Gold.PLP.part.metal>
0.0000

> <Gold.PLP.part.buried>
-6.5063

> <Gold.PLP.part.nonpolar>
-28.8646

> <Gold.PLP.part.repulsive>
0.6800

> <Gold.PLP.ligand.clash>
0.0000

> <Gold.PLP.ligand.torsion>
1.2100

> <Gold.PLP.Chemscore.Hbond>
2.2808

> <Gold.PLP.Chemscore.CHOScore>
0.7938

> <Gold.PLP.Chemscore.Metal>
0.0000

> <Gold.Chemscore.Hbonds>
donor molecule, donor type, donor heavy atom, donor atom, acceptor molecule, acceptor atom, score
      L1  H    22    47       P1  8028  1.00
      L1  H    29    57       P1  7921  1.00
      P1  H  8011  8017       L1    22  0.19
      L1  C    18    43       P1  7957  0.82

> <Gold.PLP.Chemscore.Internal.Correction>
0.2830

> <Gold.Rescore>
     Score         DG    S(hbond)    S(metal)    S(lipo)     H(rot)  DE(clash)    DE(int)     intcor
     12.27     -13.82       2.01        0.00      73.21       2.72       0.31       1.24       ----

> <Gold.Chemscore.Fitness>
12.2690

> <Gold.Chemscore.DG>
-13.8192

> <Gold.Chemscore.ZeroCoef>
-5.4800

> <Gold.Chemscore.Hbond>
2.0147

> <Gold.Chemscore.Metal>
0.0000

> <Gold.Chemscore.Lipo>
73.2112

> <Gold.Chemscore.Internal_Hbond>
0.0000

> <Gold.Chemscore.DEClash>
0.3080

> <Gold.Chemscore.DEInternal>
1.2422

> <Gold.Chemscore.Rot>
2.7171

> <Gold.Chemscore.Internal.Correction>
   9.000000E+99

> <Gold.Chemscore.Hbonds>
donor molecule, donor type, donor heavy atom, donor atom, acceptor molecule, acceptor atom, score
      L1  H    22    47       P1  8028  0.91
      L1  H    29    57       P1  7921  0.64
      P1  H  8011  8017       L1    22  0.17

> <Gold.Chemscore.Hbond.Weighted>
-6.7292

> <Gold.Chemscore.Metal.Weighted>
-0.0000

> <Gold.Chemscore.Lipo.Weighted>
-8.5657

> <Gold.Chemscore.Internal_Hbond.Weighted>
0.0000

> <Gold.Chemscore.DEClash.Weighted>
0.3080

> <Gold.Chemscore.DEInternal.Weighted>
1.2422

> <Gold.Chemscore.Rot.Weighted>
6.9557

> <Gold.Chemscore.Internal.Correction.Weighted>
   9.000000E+99

> <Gold.Protein.RotatedTorsions>
[ 6907 6896 6895 6894 ] final  -51.42 input  -60.11 | X-H torsion
[ 7974 7965 7964 7962 ] final -130.28 input  175.53 | X-H torsion
[ 8008 7997 7996 7995 ] final   38.54 input   59.86 | X-H torsion
[ 10167 10162 10161 10158 ] final   89.50 input  -65.29 | X-H torsion
[ 10718 10713 10712 10709 ] final  110.06 input   66.30 | X-H torsion
[ 10763 10752 10751 10750 ] final  -92.84 input  -60.55 | X-H torsion
[ 11005 11000 10999 10996 ] final   38.61 input  -57.11 | X-H torsion

> <Gold.Protein.ActiveResidues>
 VAL166  LYS551  ARG553  GLY616  TRP617  ASP618  TYR619  PRO620  LYS621  CYS622 
 ASP623  PHE694  ASN695  SER759  ASP760  ASP761  ALA762  ILE779  LEU786  VAL792 
 PHE793  MET794  SER795  GLU796  ALA797  LYS798  CYS799  TRP800  GLU811  SER814 

> <Gold.Protein.RotatedAtoms>
  150.8613  134.7965  159.7084 H   0  0  0  0  0  0  0  0  0  0  0  0  # atno 6907 bound_to 6896
  152.4649  134.5096  159.9759 H   0  0  0  0  0  0  0  0  0  0  0  0  # atno 6908 bound_to 6896
  151.5200  133.3430  159.2935 H   0  0  0  0  0  0  0  0  0  0  0  0  # atno 6909 bound_to 6896
  144.9490  140.7323  143.4800 H   0  0  0  0  0  0  0  0  0  0  0  0  # atno 7974 bound_to 7965
  155.2219  140.3331  155.4314 H   0  0  0  0  0  0  0  0  0  0  0  0  # atno 8008 bound_to 7997
  156.2330  140.1859  156.7241 H   0  0  0  0  0  0  0  0  0  0  0  0  # atno 8009 bound_to 7997
  154.6010  140.0623  156.9354 H   0  0  0  0  0  0  0  0  0  0  0  0  # atno 8010 bound_to 7997
  139.8567  144.6565  150.9106 H   0  0  0  0  0  0  0  0  0  0  0  0  # atno 10167 bound_to 10162
  157.6512  131.0925  150.6545 H   0  0  0  0  0  0  0  0  0  0  0  0  # atno 10718 bound_to 10713
  154.6900  135.5216  153.8379 H   0  0  0  0  0  0  0  0  0  0  0  0  # atno 10763 bound_to 10752
  153.0625  135.6573  154.0439 H   0  0  0  0  0  0  0  0  0  0  0  0  # atno 10764 bound_to 10752
  154.0314  135.2985  155.3347 H   0  0  0  0  0  0  0  0  0  0  0  0  # atno 10765 bound_to 10752
  140.2109  134.3757  155.8050 H   0  0  0  0  0  0  0  0  0  0  0  0  # atno 11005 bound_to 11000
  145.2874  139.1896  143.4759 LP  0  0  0  0  0  0  0  0  0  0  0  0  # atno 17320 bound_to 7965
  146.3314  140.2845  142.8612 LP  0  0  0  0  0  0  0  0  0  0  0  0  # atno 17321 bound_to 7965
  140.7780  143.3780  151.1528 LP  0  0  0  0  0  0  0  0  0  0  0  0  # atno 17342 bound_to 10162
  139.7413  143.8920  152.3050 LP  0  0  0  0  0  0  0  0  0  0  0  0  # atno 17343 bound_to 10162
  156.6856  130.4580  149.5615 LP  0  0  0  0  0  0  0  0  0  0  0  0  # atno 17370 bound_to 10713
  156.1898  130.6552  151.1048 LP  0  0  0  0  0  0  0  0  0  0  0  0  # atno 17371 bound_to 10713
  141.2226  133.7142  156.8416 LP  0  0  0  0  0  0  0  0  0  0  0  0  # atno 17394 bound_to 11000
  140.1952  134.8937  157.3106 LP  0  0  0  0  0  0  0  0  0  0  0  0  # atno 17395 bound_to 11000

$$$$
