AV-unprocessed.smi:3228|AV-procd|sdf|12323|dock8
  -GOLD-   2272018173D 1   1.00000     0.00000
 Structure written by MMmdl.
 30 31  0  0  0  0  0  0  0  0  2 V2000
  152.1859  138.8638  159.0592 O   0  0  0  0  0  0  0  0  0  0  0  0
  152.4638  139.5787  158.0937 C   0  0  0  0  0  0  0  0  0  0  0  0
  152.4265  140.9119  158.2188 N   0  0  0  0  0  0  0  0  0  0  0  0
  152.0774  141.6327  159.4371 C   0  0  0  0  0  0  0  0  0  0  0  0
  152.2627  143.1493  159.2532 C   0  0  2  0  0  0  0  0  0  0  0  0
  152.3616  143.9318  160.5734 C   0  0  0  0  0  0  0  0  0  0  0  0
  151.8014  145.3354  160.2924 C   0  0  0  0  0  0  0  0  0  0  0  0
  151.2822  145.3125  158.8500 C   0  0  0  0  0  0  0  0  0  0  0  0
  151.1046  143.8306  158.5173 C   0  0  1  0  0  0  0  0  0  0  0  0
  151.1470  143.6068  157.1230 O   0  0  0  0  0  0  0  0  0  0  0  0
  152.8217  139.1572  156.8592 N   0  5  0  0  0  0  0  0  0  0  0  0
  151.8823  138.9424  155.9238 C   0  0  0  0  0  0  0  0  0  0  0  0
  150.6533  139.4675  155.9900 N   0  0  0  0  0  0  0  0  0  0  0  0
  149.8423  139.1205  154.9079 C   0  0  0  0  0  0  0  0  0  0  0  0
  150.4716  138.3204  153.9914 C   0  0  0  0  0  0  0  0  0  0  0  0
  152.1114  137.9763  154.4632 S   0  0  0  0  0  0  0  0  0  0  0  0
  152.6597  141.4644  157.4070 H   0  0  0  0  0  0  0  0  0  0  0  0
  151.0405  141.4125  159.6952 H   0  0  0  0  0  0  0  0  0  0  0  0
  152.6956  141.2747  160.2621 H   0  0  0  0  0  0  0  0  0  0  0  0
  153.1804  143.3290  158.6892 H   0  0  0  0  0  0  0  0  0  0  0  0
  151.7575  143.4517  161.3447 H   0  0  0  0  0  0  0  0  0  0  0  0
  153.3871  143.9675  160.9431 H   0  0  0  0  0  0  0  0  0  0  0  0
  150.9899  145.5572  160.9864 H   0  0  0  0  0  0  0  0  0  0  0  0
  152.5611  146.1067  160.4226 H   0  0  0  0  0  0  0  0  0  0  0  0
  150.3607  145.8824  158.7260 H   0  0  0  0  0  0  0  0  0  0  0  0
  152.0343  145.7547  158.1947 H   0  0  0  0  0  0  0  0  0  0  0  0
  150.1498  143.4788  158.9117 H   0  0  0  0  0  0  0  0  0  0  0  0
  150.3022  143.8233  156.7592 H   0  0  0  0  0  0  0  0  0  0  0  0
  148.8282  139.4897  154.8708 H   0  0  0  0  0  0  0  0  0  0  0  0
  150.0747  137.9160  153.0727 H   0  0  0  0  0  0  0  0  0  0  0  0
  1  2  2  0  0  0  0
  2  3  1  0  0  0  0
  2 11  1  0  0  0  0
  3  4  1  0  0  0  0
  3 17  1  0  0  0  0
  4  5  1  0  0  0  0
  4 18  1  0  0  0  0
  4 19  1  0  0  0  0
  5  9  1  0  0  0  0
  5  6  1  0  0  0  0
  5 20  1  0  0  0  0
  6  7  1  0  0  0  0
  6 21  1  0  0  0  0
  6 22  1  0  0  0  0
  7  8  1  0  0  0  0
  7 23  1  0  0  0  0
  7 24  1  0  0  0  0
  8  9  1  0  0  0  0
  8 25  1  0  0  0  0
  8 26  1  0  0  0  0
  9 10  1  0  0  0  0
  9 27  1  0  0  0  0
 10 28  1  0  0  0  0
 11 12  1  0  0  0  0
 12 16  1  0  0  0  0
 12 13  2  0  0  0  0
 13 14  1  0  0  0  0
 14 15  2  0  0  0  0
 14 29  1  0  0  0  0
 15 16  1  0  0  0  0
 15 30  1  0  0  0  0
M  CHG  1  11  -1
M  END
> <s_m_source_file>
AV-unprocessed.smi

> <i_m_source_file_index>
3228

> <i_lp_mmshare_version>
43012

> <i_f3d_flags>
0

> <s_epik_input>
czFbY0hdW2NIXW5jMVtOSF1DKD1PKVtOSF1bQ0gyXVtDQEBIXTJbQ0gyXVtDSDJdW0NIMl1bQ0BIXTJbT0hd

> <s_epik_cmdline>
J2VwaWtfcHl0aG9uJywgJy1waCcsICc3LjAnLCAnLXRuJywgJzgnLCAnLW1hJywgJzIwMCcsICctbWV0YWxfYmluZGluZycsICctaW1hZScsICc8aW5maWxlLm1hZT4nLCAnLW9tYWUnLCAnPG91dGZpbGUubWFlPic=

> <r_lp_tautomer_probability>
0.999

> <r_epik_Ionization_Penalty>
8.49756

> <r_epik_Ionization_Penalty_Charging>
6.79645

> <r_epik_Ionization_Penalty_Neutral>
1.70111

> <r_epik_State_Penalty>
6.79662

> <r_epik_Charging_Adjusted_Penalty>
13.5931

> <i_epik_Tot_Q>
-1

> <i_epik_Tot_abs_Q>
1

> <r_epik_Metal_State_Penalty>
2.71629

> <b_epik_Metal_Only>
1

> <s_lp_Force_Field>
OPLS_2005

> <r_lp_Energy>
18.1026

> <b_lp_Chiralities_Consistent>
1

> <s_lp_Variant>
AV-unprocessed.smi:3228-5

> <Gold.Version>
5.8.1

> <Gold.Id.Protein>
6NUR|6NUR_protein|mol2

> <Gold.PLP.Fitness>
47.0840

> <Gold.PLP.PLP>
-34.9134

> <Gold.PLP.part.hbond>
-2.0000

> <Gold.PLP.part.metal>
0.0000

> <Gold.PLP.part.buried>
-4.5961

> <Gold.PLP.part.nonpolar>
-28.0659

> <Gold.PLP.part.repulsive>
0.0960

> <Gold.PLP.ligand.clash>
0.0000

> <Gold.PLP.ligand.torsion>
1.0212

> <Gold.PLP.Chemscore.Hbond>
2.9913

> <Gold.PLP.Chemscore.CHOScore>
1.7436

> <Gold.PLP.Chemscore.Metal>
0.0000

> <Gold.Chemscore.Hbonds>
donor molecule, donor type, donor heavy atom, donor atom, acceptor molecule, acceptor atom, score
      L1  H    10    28       P1  8028  1.00
      P1  H  7997  8008       L1    11  1.90
      L1  C    15    30       P1  7948  1.00
      L1  C    15    30       P1  7949  0.05
      L1  C    15    30       P1  7957  0.09

> <Gold.PLP.Chemscore.Internal.Correction>
0.0085

> <Gold.Rescore>
     Score         DG    S(hbond)    S(metal)    S(lipo)     H(rot)  DE(clash)    DE(int)     intcor
     16.26     -17.28       1.84        0.00      88.87       1.85       0.11       0.91       ----

> <Gold.Chemscore.Fitness>
16.2588

> <Gold.Chemscore.DG>
-17.2820

> <Gold.Chemscore.ZeroCoef>
-5.4800

> <Gold.Chemscore.Hbond>
1.8369

> <Gold.Chemscore.Metal>
0.0000

> <Gold.Chemscore.Lipo>
88.8716

> <Gold.Chemscore.Internal_Hbond>
0.0000

> <Gold.Chemscore.DEClash>
0.1092

> <Gold.Chemscore.DEInternal>
0.9140

> <Gold.Chemscore.Rot>
1.8481

> <Gold.Chemscore.Internal.Correction>
   9.000000E+99

> <Gold.Chemscore.Hbonds>
donor molecule, donor type, donor heavy atom, donor atom, acceptor molecule, acceptor atom, score
      L1  H    10    28       P1  8028  0.96
      P1  H  7997  8008       L1    11  0.22

> <Gold.Chemscore.Hbond.Weighted>
-6.1353

> <Gold.Chemscore.Metal.Weighted>
-0.0000

> <Gold.Chemscore.Lipo.Weighted>
-10.3980

> <Gold.Chemscore.Internal_Hbond.Weighted>
0.0000

> <Gold.Chemscore.DEClash.Weighted>
0.1092

> <Gold.Chemscore.DEInternal.Weighted>
0.9140

> <Gold.Chemscore.Rot.Weighted>
4.7313

> <Gold.Chemscore.Internal.Correction.Weighted>
   9.000000E+99

> <Gold.Protein.RotatedTorsions>
[ 6907 6896 6895 6894 ] final  -18.08 input  -60.11 | X-H torsion
[ 7974 7965 7964 7962 ] final   50.52 input  175.53 | X-H torsion
[ 8008 7997 7996 7995 ] final  -63.81 input   59.86 | X-H torsion
[ 10167 10162 10161 10158 ] final  -10.23 input  -65.29 | X-H torsion
[ 10718 10713 10712 10709 ] final  -46.64 input   66.30 | X-H torsion
[ 10763 10752 10751 10750 ] final -165.50 input  -60.55 | X-H torsion
[ 11005 11000 10999 10996 ] final -118.94 input  -57.11 | X-H torsion

> <Gold.Protein.ActiveResidues>
 VAL166  LYS551  ARG553  GLY616  TRP617  ASP618  TYR619  PRO620  LYS621  CYS622 
 ASP623  PHE694  ASN695  SER759  ASP760  ASP761  ALA762  ILE779  LEU786  VAL792 
 PHE793  MET794  SER795  GLU796  ALA797  LYS798  CYS799  TRP800  GLU811  SER814 

> <Gold.Protein.RotatedAtoms>
  151.2836  135.0721  159.9178 H   0  0  0  0  0  0  0  0  0  0  0  0  # atno 6907 bound_to 6896
  152.5329  134.0005  159.7903 H   0  0  0  0  0  0  0  0  0  0  0  0  # atno 6908 bound_to 6896
  151.0263  133.5780  159.2696 H   0  0  0  0  0  0  0  0  0  0  0  0  # atno 6909 bound_to 6896
  146.0004  139.4433  143.0018 H   0  0  0  0  0  0  0  0  0  0  0  0  # atno 7974 bound_to 7965
  154.4575  140.0967  156.6800 H   0  0  0  0  0  0  0  0  0  0  0  0  # atno 8008 bound_to 7997
  155.5093  140.3476  155.4367 H   0  0  0  0  0  0  0  0  0  0  0  0  # atno 8009 bound_to 7997
  156.0807  140.1372  156.9705 H   0  0  0  0  0  0  0  0  0  0  0  0  # atno 8010 bound_to 7997
  140.7108  143.5771  150.9031 H   0  0  0  0  0  0  0  0  0  0  0  0  # atno 10167 bound_to 10162
  156.2163  130.4163  149.9050 H   0  0  0  0  0  0  0  0  0  0  0  0  # atno 10718 bound_to 10713
  154.6926  135.2973  154.9458 H   0  0  0  0  0  0  0  0  0  0  0  0  # atno 10763 bound_to 10752
  154.0416  135.6656  153.4794 H   0  0  0  0  0  0  0  0  0  0  0  0  # atno 10764 bound_to 10752
  153.0622  135.5109  154.8026 H   0  0  0  0  0  0  0  0  0  0  0  0  # atno 10765 bound_to 10752
  141.0251  134.0066  157.3227 H   0  0  0  0  0  0  0  0  0  0  0  0  # atno 11005 bound_to 11000
  145.7496  140.9977  143.1257 LP  0  0  0  0  0  0  0  0  0  0  0  0  # atno 17320 bound_to 7965
  144.6917  139.9198  143.7467 LP  0  0  0  0  0  0  0  0  0  0  0  0  # atno 17321 bound_to 7965
  139.9497  143.6286  152.3032 LP  0  0  0  0  0  0  0  0  0  0  0  0  # atno 17342 bound_to 10162
  139.6800  144.7656  151.1625 LP  0  0  0  0  0  0  0  0  0  0  0  0  # atno 17343 bound_to 10162
  156.6711  130.8820  151.3562 LP  0  0  0  0  0  0  0  0  0  0  0  0  # atno 17370 bound_to 10713
  157.7065  130.9390  150.0947 LP  0  0  0  0  0  0  0  0  0  0  0  0  # atno 17371 bound_to 10713
  139.9170  135.0197  156.7921 LP  0  0  0  0  0  0  0  0  0  0  0  0  # atno 17394 bound_to 11000
  140.6506  133.9735  155.7753 LP  0  0  0  0  0  0  0  0  0  0  0  0  # atno 17395 bound_to 11000

$$$$
