AV-unprocessed.smi:244|AV-procd|sdf|1873|dock5
  -GOLD-   2262020513D 1   1.00000     0.00000
 Structure written by MMmdl.
 56 60  0  0  0  0  0  0  0  0  1 V2000
  146.4165  141.2130  157.4685 C   0  0  0  0  0  0  0  0  0  0  0  0
  147.7697  140.8633  157.0614 N   0  0  0  0  0  0  0  0  0  0  0  0
  148.6882  141.9310  157.4546 C   0  0  0  0  0  0  0  0  0  0  0  0
  150.1308  141.5242  157.1178 C   0  0  0  0  0  0  0  0  0  0  0  0
  150.2733  141.2518  155.6091 C   0  0  1  0  0  0  0  0  0  0  0  0
  151.5928  140.8460  155.2375 O   0  0  0  0  0  0  0  0  0  0  0  0
  151.9495  139.5303  155.6537 C   0  0  0  0  0  0  0  0  0  0  0  0
  150.9391  138.5159  155.1013 C   0  0  0  0  0  0  0  0  0  0  0  0
  149.5901  138.8741  155.5195 N   0  0  0  0  0  0  0  0  0  0  0  0
  148.6927  137.9075  155.2289 C   0  0  0  0  0  0  0  0  0  0  0  0
  148.7056  136.8004  156.0106 N   0  0  0  0  0  0  0  0  0  0  0  0
  147.8316  135.8149  155.7855 C   0  0  0  0  0  0  0  0  0  0  0  0
  146.8853  135.7358  154.8474 N   0  0  0  0  0  0  0  0  0  0  0  0
  146.8768  136.8466  154.0556 C   0  0  0  0  0  0  0  0  0  0  0  0
  147.7381  137.9729  154.1755 C   0  0  0  0  0  0  0  0  0  0  0  0
  147.4325  138.9107  153.1965 N   0  0  0  0  0  0  0  0  0  0  0  0
  146.4507  138.3658  152.5309 C   0  0  0  0  0  0  0  0  0  0  0  0
  146.0570  137.1240  152.9760 N   0  0  0  0  0  0  0  0  0  0  0  0
  144.9983  136.2952  152.4210 C   0  0  0  0  0  0  0  0  0  0  0  0
  145.4936  135.2617  151.3792 C   0  0  0  0  0  0  0  0  0  0  0  0
  145.7674  135.9601  150.1763 O   0  0  0  0  0  0  0  0  0  0  0  0
  146.7807  134.5347  151.8280 C   0  0  0  0  0  0  0  0  0  0  0  0
  147.1449  133.3667  150.8945 C   0  0  0  0  0  0  0  0  0  0  0  0
  146.0478  132.4686  150.7810 O   0  0  0  0  0  0  0  0  0  0  0  0
  144.9000  133.0733  150.1983 C   0  0  0  0  0  0  0  0  0  0  0  0
  144.3954  134.2176  151.0951 C   0  0  0  0  0  0  0  0  0  0  0  0
  149.2143  140.2356  155.1258 C   0  0  1  0  0  0  0  0  0  0  0  0
  147.8025  140.6584  155.6113 C   0  0  0  0  0  0  0  0  0  0  0  0
  146.3647  141.3438  158.5498 H   0  0  0  0  0  0  0  0  0  0  0  0
  145.7187  140.4196  157.1978 H   0  0  0  0  0  0  0  0  0  0  0  0
  146.0846  142.1380  156.9949 H   0  0  0  0  0  0  0  0  0  0  0  0
  148.4251  142.8629  156.9514 H   0  0  0  0  0  0  0  0  0  0  0  0
  148.6037  142.1095  158.5272 H   0  0  0  0  0  0  0  0  0  0  0  0
  150.8199  142.3133  157.4191 H   0  0  0  0  0  0  0  0  0  0  0  0
  150.3907  140.6435  157.7048 H   0  0  0  0  0  0  0  0  0  0  0  0
  150.0913  142.1951  155.0926 H   0  0  0  0  0  0  0  0  0  0  0  0
  152.9468  139.3046  155.2763 H   0  0  0  0  0  0  0  0  0  0  0  0
  152.0099  139.4683  156.7399 H   0  0  0  0  0  0  0  0  0  0  0  0
  150.9961  138.4956  154.0122 H   0  0  0  0  0  0  0  0  0  0  0  0
  151.1875  137.5144  155.4556 H   0  0  0  0  0  0  0  0  0  0  0  0
  147.9005  134.9687  156.4531 H   0  0  0  0  0  0  0  0  0  0  0  0
  145.9860  138.8549  151.6868 H   0  0  0  0  0  0  0  0  0  0  0  0
  144.5018  135.7844  153.2470 H   0  0  0  0  0  0  0  0  0  0  0  0
  144.2481  136.9520  151.9778 H   0  0  0  0  0  0  0  0  0  0  0  0
  145.8796  135.3290  149.4819 H   0  0  0  0  0  0  0  0  0  0  0  0
  147.6198  135.2289  151.8894 H   0  0  0  0  0  0  0  0  0  0  0  0
  146.6362  134.1391  152.8343 H   0  0  0  0  0  0  0  0  0  0  0  0
  147.4374  133.7284  149.9076 H   0  0  0  0  0  0  0  0  0  0  0  0
  148.0006  132.8238  151.2963 H   0  0  0  0  0  0  0  0  0  0  0  0
  145.1332  133.4315  149.1943 H   0  0  0  0  0  0  0  0  0  0  0  0
  144.1229  132.3165  150.0899 H   0  0  0  0  0  0  0  0  0  0  0  0
  144.0532  133.7890  152.0382 H   0  0  0  0  0  0  0  0  0  0  0  0
  143.5237  134.6919  150.6423 H   0  0  0  0  0  0  0  0  0  0  0  0
  149.2113  140.2607  154.0354 H   0  0  0  0  0  0  0  0  0  0  0  0
  147.0530  139.9217  155.3207 H   0  0  0  0  0  0  0  0  0  0  0  0
  147.5182  141.5884  155.1165 H   0  0  0  0  0  0  0  0  0  0  0  0
  1  2  1  0  0  0  0
  1 29  1  0  0  0  0
  1 30  1  0  0  0  0
  1 31  1  0  0  0  0
  2 28  1  0  0  0  0
  2  3  1  0  0  0  0
  3  4  1  0  0  0  0
  3 32  1  0  0  0  0
  3 33  1  0  0  0  0
  4  5  1  0  0  0  0
  4 34  1  0  0  0  0
  4 35  1  0  0  0  0
  5 27  1  0  0  0  0
  5  6  1  0  0  0  0
  5 36  1  0  0  0  0
  6  7  1  0  0  0  0
  7  8  1  0  0  0  0
  7 37  1  0  0  0  0
  7 38  1  0  0  0  0
  8  9  1  0  0  0  0
  8 39  1  0  0  0  0
  8 40  1  0  0  0  0
  9 10  1  0  0  0  0
  9 27  1  0  0  0  0
 10 15  1  0  0  0  0
 10 11  2  0  0  0  0
 11 12  1  0  0  0  0
 12 13  2  0  0  0  0
 12 41  1  0  0  0  0
 13 14  1  0  0  0  0
 14 18  1  0  0  0  0
 14 15  2  0  0  0  0
 15 16  1  0  0  0  0
 16 17  2  0  0  0  0
 17 18  1  0  0  0  0
 17 42  1  0  0  0  0
 18 19  1  0  0  0  0
 19 20  1  0  0  0  0
 19 43  1  0  0  0  0
 19 44  1  0  0  0  0
 20 26  1  0  0  0  0
 20 21  1  0  0  0  0
 20 22  1  0  0  0  0
 21 45  1  0  0  0  0
 22 23  1  0  0  0  0
 22 46  1  0  0  0  0
 22 47  1  0  0  0  0
 23 24  1  0  0  0  0
 23 48  1  0  0  0  0
 23 49  1  0  0  0  0
 24 25  1  0  0  0  0
 25 26  1  0  0  0  0
 25 50  1  0  0  0  0
 25 51  1  0  0  0  0
 26 52  1  0  0  0  0
 26 53  1  0  0  0  0
 27 28  1  0  0  0  0
 27 54  1  0  0  0  0
 28 55  1  0  0  0  0
 28 56  1  0  0  0  0
M  END
> <s_m_source_file>
AV-unprocessed.smi

> <i_m_source_file_index>
244

> <i_lp_mmshare_version>
43012

> <i_f3d_flags>
0

> <s_epik_input>
W0NIMl0xW0NIMl1OKFtDSDNdKVtDSDJdW0NAQEhdKFtDQEhdMTIpTihbQ0gyXVtDSDJdTzIpYyhuW2NIXW4zKWMoYzM0KW5bY0hdbjRbQ0gyXUM1KFtPSF0pW0NIMl1bQ0gyXU9bQ0gyXVtDSDJdNQ==

> <s_epik_cmdline>
J2VwaWtfcHl0aG9uJywgJy1waCcsICc3LjAnLCAnLXRuJywgJzgnLCAnLW1hJywgJzIwMCcsICctbWV0YWxfYmluZGluZycsICctaW1hZScsICc8aW5maWxlLm1hZT4nLCAnLW9tYWUnLCAnPG91dGZpbGUubWFlPic=

> <r_lp_tautomer_probability>
1

> <r_epik_Ionization_Penalty>
2.27765

> <r_epik_Ionization_Penalty_Charging>
0

> <r_epik_Ionization_Penalty_Neutral>
2.27765

> <r_epik_State_Penalty>
2.4114

> <r_epik_Charging_Adjusted_Penalty>
2.4114

> <i_epik_Tot_Q>
0

> <i_epik_Tot_abs_Q>
0

> <r_epik_Metal_State_Penalty>
2.39769

> <b_epik_Metal_Only>
0

> <s_lp_Force_Field>
OPLS_2005

> <r_lp_Energy>
50.0311

> <b_lp_Chiralities_Consistent>
1

> <s_lp_Variant>
AV-unprocessed.smi:244-10

> <Gold.Version>
5.8.1

> <Gold.Id.Protein>
6NUR|6NUR_protein|mol2

> <Gold.PLP.Fitness>
41.5586

> <Gold.PLP.PLP>
-34.3080

> <Gold.PLP.part.hbond>
-2.8152

> <Gold.PLP.part.metal>
0.0000

> <Gold.PLP.part.buried>
-2.9037

> <Gold.PLP.part.nonpolar>
-29.5570

> <Gold.PLP.part.repulsive>
0.6332

> <Gold.PLP.ligand.clash>
0.0000

> <Gold.PLP.ligand.torsion>
1.0648

> <Gold.PLP.Chemscore.Hbond>
1.8560

> <Gold.PLP.Chemscore.CHOScore>
1.2250

> <Gold.PLP.Chemscore.Metal>
0.0000

> <Gold.Chemscore.Hbonds>
donor molecule, donor type, donor heavy atom, donor atom, acceptor molecule, acceptor atom, score
      L1  H    21    45       P1  7921  1.00
      P1  H  7989  7998       L1     6  0.64
      L1  C    17    42       P1 10171  0.26
      L1  C    17    42       P1 10175  0.04

> <Gold.PLP.Chemscore.Internal.Correction>
0.1370

> <Gold.Rescore>
     Score         DG    S(hbond)    S(metal)    S(lipo)     H(rot)  DE(clash)    DE(int)     intcor
     11.90     -14.40       1.63        0.00      74.84       2.06       0.38       2.12       ----

> <Gold.Chemscore.Fitness>
11.8972

> <Gold.Chemscore.DG>
-14.3953

> <Gold.Chemscore.ZeroCoef>
-5.4800

> <Gold.Chemscore.Hbond>
1.6275

> <Gold.Chemscore.Metal>
0.0000

> <Gold.Chemscore.Lipo>
74.8365

> <Gold.Chemscore.Internal_Hbond>
0.0000

> <Gold.Chemscore.DEClash>
0.3759

> <Gold.Chemscore.DEInternal>
2.1222

> <Gold.Chemscore.Rot>
2.0611

> <Gold.Chemscore.Internal.Correction>
   9.000000E+99

> <Gold.Chemscore.Hbonds>
donor molecule, donor type, donor heavy atom, donor atom, acceptor molecule, acceptor atom, score
      L1  H    21    45       P1  7921  0.93
      P1  H  7989  7998       L1     6  0.25

> <Gold.Chemscore.Hbond.Weighted>
-5.4360

> <Gold.Chemscore.Metal.Weighted>
-0.0000

> <Gold.Chemscore.Lipo.Weighted>
-8.7559

> <Gold.Chemscore.Internal_Hbond.Weighted>
0.0000

> <Gold.Chemscore.DEClash.Weighted>
0.3759

> <Gold.Chemscore.DEInternal.Weighted>
2.1222

> <Gold.Chemscore.Rot.Weighted>
5.2765

> <Gold.Chemscore.Internal.Correction.Weighted>
   9.000000E+99

> <Gold.Protein.RotatedTorsions>
[ 6907 6896 6895 6894 ] final   65.83 input  -60.11 | X-H torsion
[ 7974 7965 7964 7962 ] final   78.03 input  175.53 | X-H torsion
[ 8008 7997 7996 7995 ] final   78.75 input   59.86 | X-H torsion
[ 10167 10162 10161 10158 ] final  -90.69 input  -65.29 | X-H torsion
[ 10718 10713 10712 10709 ] final   74.27 input   66.30 | X-H torsion
[ 10763 10752 10751 10750 ] final   -8.84 input  -60.55 | X-H torsion
[ 11005 11000 10999 10996 ] final   97.13 input  -57.11 | X-H torsion

> <Gold.Protein.ActiveResidues>
 VAL166  LYS551  ARG553  GLY616  TRP617  ASP618  TYR619  PRO620  LYS621  CYS622 
 ASP623  PHE694  ASN695  SER759  ASP760  ASP761  ALA762  ILE779  LEU786  VAL792 
 PHE793  MET794  SER795  GLU796  ALA797  LYS798  CYS799  TRP800  GLU811  SER814 

> <Gold.Protein.RotatedAtoms>
  152.4436  134.5540  159.9874 H   0  0  0  0  0  0  0  0  0  0  0  0  # atno 6907 bound_to 6896
  151.5631  133.3394  159.2983 H   0  0  0  0  0  0  0  0  0  0  0  0  # atno 6908 bound_to 6896
  150.8348  134.7649  159.6947 H   0  0  0  0  0  0  0  0  0  0  0  0  # atno 6909 bound_to 6896
  145.6824  139.2528  143.1806 H   0  0  0  0  0  0  0  0  0  0  0  0  # atno 7974 bound_to 7965
  155.8601  140.3454  155.5751 H   0  0  0  0  0  0  0  0  0  0  0  0  # atno 8008 bound_to 7997
  155.7942  140.0876  157.2012 H   0  0  0  0  0  0  0  0  0  0  0  0  # atno 8009 bound_to 7997
  154.4011  140.1477  156.3186 H   0  0  0  0  0  0  0  0  0  0  0  0  # atno 8010 bound_to 7997
  140.3524  143.2884  151.9711 H   0  0  0  0  0  0  0  0  0  0  0  0  # atno 10167 bound_to 10162
  157.6585  130.9670  150.1187 H   0  0  0  0  0  0  0  0  0  0  0  0  # atno 10718 bound_to 10713
  153.4462  135.7014  153.6138 H   0  0  0  0  0  0  0  0  0  0  0  0  # atno 10763 bound_to 10752
  153.4492  135.3762  155.2274 H   0  0  0  0  0  0  0  0  0  0  0  0  # atno 10764 bound_to 10752
  154.8728  135.3993  154.3867 H   0  0  0  0  0  0  0  0  0  0  0  0  # atno 10765 bound_to 10752
  139.8777  134.8986  156.4262 H   0  0  0  0  0  0  0  0  0  0  0  0  # atno 11005 bound_to 11000
  146.0953  140.7608  142.9575 LP  0  0  0  0  0  0  0  0  0  0  0  0  # atno 17320 bound_to 7965
  144.7022  140.3701  143.7147 LP  0  0  0  0  0  0  0  0  0  0  0  0  # atno 17321 bound_to 7965
  139.4824  144.6064  151.7513 LP  0  0  0  0  0  0  0  0  0  0  0  0  # atno 17342 bound_to 10162
  140.5206  144.0885  150.6021 LP  0  0  0  0  0  0  0  0  0  0  0  0  # atno 17343 bound_to 10162
  156.2064  130.3663  149.8723 LP  0  0  0  0  0  0  0  0  0  0  0  0  # atno 17370 bound_to 10713
  156.6614  130.8783  151.3548 LP  0  0  0  0  0  0  0  0  0  0  0  0  # atno 17371 bound_to 10713
  140.9099  133.7719  155.9779 LP  0  0  0  0  0  0  0  0  0  0  0  0  # atno 17394 bound_to 11000
  140.8558  134.2900  157.5256 LP  0  0  0  0  0  0  0  0  0  0  0  0  # atno 17395 bound_to 11000

$$$$
