#       Name:                AV-unprocessed.smi:523
#       Creating user name   scv26
#       Creation time:       Thu Mar 26 23:28:06 2020


#       File generated by GOLD software.
#

@<TRIPOS>MOLECULE
AV-unprocessed.smi:523
    50    52     1
SMALL
NO_CHARGES


@<TRIPOS>ATOM
      1 ****        -3.4241  -0.1588  -1.3986 C.3            1 S1                 0.0000
      2 ****        -2.0153  -0.2496  -1.2907 O.3            1 S1                 0.0000
      3 ****        -1.5495  -1.5885  -1.3392 C.3            1 S1                 0.0000
      4 ****        -0.0184  -1.6042  -1.2329 C.3            1 S1                 0.0000
      5 ****         0.4486  -1.0045   0.0166 N.pl3          1 S1                 0.0000
      6 ****         0.8147   0.2851   0.2600 C.2            1 S1                 0.0000
      7 ****         0.8311   1.2642  -0.7347 N.pl3          1 S1                 0.0000
      8 ****         1.5979   1.2387  -1.9769 C.3            1 S1                 0.0000
      9 ****         0.7149   1.6415  -3.1715 C.3            1 S1                 0.0000
     10 ****         0.2108   2.9542  -2.9539 O.3            1 S1                 0.0000
     11 ****        -0.5540   3.0345  -1.7564 C.3            1 S1                 0.0000
     12 ****         0.3182   2.6185  -0.5573 C.3            1 S1                 0.0000
     13 ****         1.1144   0.5458   1.5340 N.2            1 S1                 0.0000
     14 ****         0.9561  -0.6846   2.1513 C.2            1 S1                 0.0000
     15 ****         0.5498  -1.6311   1.2637 C.2            1 S1                 0.0000
     16 ****         0.2603  -3.0346   1.6349 C.2            1 S1                 0.0000
     17 ****        -0.1275  -3.8471   0.7978 O.2            1 S1                 0.0000
     18 ****         0.4725  -3.2715   2.9682 N.pl3          1 S1                -1.0000
     19 ****         0.8894  -2.3449   3.8996 C.2            1 S1                 0.0000
     20 ****         1.0516  -2.6414   5.0841 O.2            1 S1                 0.0000
     21 ****         1.1328  -1.0532   3.5128 N.am           1 S1                 0.0000
     22 ****         1.5679  -0.0438   4.4824 C.3            1 S1                 0.0000
     23 ****        -3.7280   0.8865  -1.3436 H              1 S1                 0.0000
     24 ****        -3.9180  -0.6969  -0.5885 H              1 S1                 0.0000
     25 ****        -3.7720  -0.5612  -2.3507 H              1 S1                 0.0000
     26 ****        -1.9901  -2.1667  -0.5256 H              1 S1                 0.0000
     27 ****        -1.8571  -2.0560  -2.2756 H              1 S1                 0.0000
     28 ****         0.3625  -2.6214  -1.3090 H              1 S1                 0.0000
     29 ****         0.4036  -1.0862  -2.0871 H              1 S1                 0.0000
     30 ****         2.4348   1.9325  -1.8882 H              1 S1                 0.0000
     31 ****         2.0453   0.2580  -2.1337 H              1 S1                 0.0000
     32 ****         1.2986   1.6347  -4.0919 H              1 S1                 0.0000
     33 ****        -0.1097   0.9400  -3.3082 H              1 S1                 0.0000
     34 ****        -0.9057   4.0583  -1.6293 H              1 S1                 0.0000
     35 ****        -1.4384   2.4005  -1.8337 H              1 S1                 0.0000
     36 ****        -0.2714   2.6697   0.3586 H              1 S1                 0.0000
     37 ****         1.1525   3.3102  -0.4335 H              1 S1                 0.0000
     38 ****         2.4745  -0.3672   4.9956 H              1 S1                 0.0000
     39 ****         0.7922   0.1218   5.2309 H              1 S1                 0.0000
     40 ****         1.7858   0.9177   4.0187 H              1 S1                 0.0000
     41 ****        -1.7340   0.1561  -0.4210 LP             1 S1                 0.0000
     42 ****        -1.6028   0.2605  -2.0454 LP             1 S1                 0.0000
     43 ****        -0.3699   3.2103  -3.7267 LP             1 S1                 0.0000
     44 ****         0.9800   3.5900  -2.8900 LP             1 S1                 0.0000
     45 ****         1.3867   1.4166   1.9433 LP             1 S1                 0.0000
     46 ****        -0.2526  -3.5642  -0.1531 LP             1 S1                 0.0000
     47 ****        -0.3180  -4.7909   1.0679 LP             1 S1                 0.0000
     48 ****         0.3098  -4.2024   3.2954 LP             1 S1                 0.0000
     49 ****         0.8799  -3.5767   5.3935 LP             1 S1                 0.0000
     50 ****         1.3549  -1.9468   5.7364 LP             1 S1                 0.0000
@<TRIPOS>BOND
    1    1    2 1     
    2    1   23 1     
    3    1   24 1     
    4    1   25 1     
    5    2    3 1     
    6    3    4 1     
    7    3   26 1     
    8    3   27 1     
    9    4    5 1     
   10    4   28 1     
   11    4   29 1     
   12    5   15 1     
   13    5    6 1     
   14    6    7 1     
   15    6   13 2     
   16    7   12 1     
   17    7    8 1     
   18    8    9 1     
   19    8   30 1     
   20    8   31 1     
   21    9   10 1     
   22    9   32 1     
   23    9   33 1     
   24   10   11 1     
   25   11   12 1     
   26   11   34 1     
   27   11   35 1     
   28   12   36 1     
   29   12   37 1     
   30   13   14 1     
   31   14   21 1     
   32   14   15 2     
   33   15   16 1     
   34   16   17 2     
   35   16   18 1     
   36   18   19 1     
   37   19   20 2     
   38   19   21 am    
   39   21   22 1     
   40   22   38 1     
   41   22   39 1     
   42   22   40 1     
   43    2   41 1     
   44    2   42 1     
   45   10   43 1     
   46   10   44 1     
   47   13   45 1     
   48   17   46 1     
   49   17   47 1     
   50   18   48 1     
   51   20   49 1     
   52   20   50 1     
@<TRIPOS>SUBSTRUCTURE
      1 S1             1
@<TRIPOS>SET
LONE_PAIRS      STATIC     ATOMS    <user>   **** ""
10 41 42 43 44 45 46 47 48 49 50
ATOM$BLUE        STATIC     ATOMS    COLORGROUP SYSTEM
10 41 42 43 44 45 46 47 48 49 50
