AV-unprocessed.smi:3345|AV-procd|sdf|12903|dock6
  -GOLD-   2272019313D 1   1.00000     0.00000
 Structure written by MMmdl.
 41 42  0  0  0  0  0  0  0  0  2 V2000
  152.1159  134.0646  152.8678 C   0  0  0  0  0  0  0  0  0  0  0  0
  150.6562  134.5070  153.0344 C   0  0  2  0  0  0  0  0  0  0  0  0
  149.6953  133.6340  152.1954 C   0  0  0  0  0  0  0  0  0  0  0  0
  148.2607  133.9100  152.4690 N   0  3  0  0  0  0  0  0  0  0  0  0
  147.3469  133.0752  151.6542 C   0  0  0  0  0  0  0  0  0  0  0  0
  145.8824  133.4579  151.9290 C   0  0  0  0  0  0  0  0  0  0  0  0
  145.6049  133.3423  153.3193 O   0  0  0  0  0  0  0  0  0  0  0  0
  146.4245  134.2026  154.1015 C   0  0  0  0  0  0  0  0  0  0  0  0
  147.9001  133.8198  153.9043 C   0  0  0  0  0  0  0  0  0  0  0  0
  150.5284  135.9151  152.6607 N   0  0  0  0  0  0  0  0  0  0  0  0
  151.1814  136.9435  153.2269 C   0  0  0  0  0  0  0  0  0  0  0  0
  152.0494  136.8016  154.0882 O   0  0  0  0  0  0  0  0  0  0  0  0
  150.7444  138.3457  152.7802 C   0  0  2  0  0  0  0  0  0  0  0  0
  151.8317  139.0814  151.9714 C   0  0  0  0  0  0  0  0  0  0  0  0
  150.3074  139.1119  153.9412 N   0  0  0  0  0  0  0  0  0  0  0  0
  150.1269  138.7248  155.2058 C   0  0  0  0  0  0  0  0  0  0  0  0
  149.7806  139.7072  156.0255 N   0  0  0  0  0  0  0  0  0  0  0  0
  149.7602  140.7472  155.1404 C   0  0  0  0  0  0  0  0  0  0  0  0
  150.0926  140.4503  153.8846 N   0  0  0  0  0  0  0  0  0  0  0  0
  152.2440  133.0215  153.1585 H   0  0  0  0  0  0  0  0  0  0  0  0
  152.7808  134.6631  153.4919 H   0  0  0  0  0  0  0  0  0  0  0  0
  152.4491  134.1654  151.8342 H   0  0  0  0  0  0  0  0  0  0  0  0
  150.4085  134.3794  154.0890 H   0  0  0  0  0  0  0  0  0  0  0  0
  149.8902  133.8374  151.1412 H   0  0  0  0  0  0  0  0  0  0  0  0
  149.9055  132.5739  152.3445 H   0  0  0  0  0  0  0  0  0  0  0  0
  147.5658  133.2100  150.5944 H   0  0  0  0  0  0  0  0  0  0  0  0
  147.5093  132.0215  151.8861 H   0  0  0  0  0  0  0  0  0  0  0  0
  145.6762  134.4733  151.5901 H   0  0  0  0  0  0  0  0  0  0  0  0
  145.2119  132.7976  151.3788 H   0  0  0  0  0  0  0  0  0  0  0  0
  146.2518  135.2442  153.8253 H   0  0  0  0  0  0  0  0  0  0  0  0
  146.1459  134.0998  155.1501 H   0  0  0  0  0  0  0  0  0  0  0  0
  148.0756  132.8052  154.2652 H   0  0  0  0  0  0  0  0  0  0  0  0
  148.5276  134.4818  154.4998 H   0  0  0  0  0  0  0  0  0  0  0  0
  149.8452  136.1307  151.9488 H   0  0  0  0  0  0  0  0  0  0  0  0
  149.8784  138.2271  152.1265 H   0  0  0  0  0  0  0  0  0  0  0  0
  152.1206  138.5087  151.0894 H   0  0  0  0  0  0  0  0  0  0  0  0
  152.7332  139.2584  152.5595 H   0  0  0  0  0  0  0  0  0  0  0  0
  151.4690  140.0499  151.6261 H   0  0  0  0  0  0  0  0  0  0  0  0
  150.2609  137.7050  155.5356 H   0  0  0  0  0  0  0  0  0  0  0  0
  149.5149  141.7571  155.4348 H   0  0  0  0  0  0  0  0  0  0  0  0
  148.0959  134.8657  152.1866 H   0  0  0  0  0  0  0  0  0  0  0  0
  1  2  1  0  0  0  0
  1 20  1  0  0  0  0
  1 21  1  0  0  0  0
  1 22  1  0  0  0  0
  2  3  1  0  0  0  0
  2 10  1  0  0  0  0
  2 23  1  0  0  0  0
  3  4  1  0  0  0  0
  3 24  1  0  0  0  0
  3 25  1  0  0  0  0
  4  9  1  0  0  0  0
  4  5  1  0  0  0  0
  4 41  1  0  0  0  0
  5  6  1  0  0  0  0
  5 26  1  0  0  0  0
  5 27  1  0  0  0  0
  6  7  1  0  0  0  0
  6 28  1  0  0  0  0
  6 29  1  0  0  0  0
  7  8  1  0  0  0  0
  8  9  1  0  0  0  0
  8 30  1  0  0  0  0
  8 31  1  0  0  0  0
  9 32  1  0  0  0  0
  9 33  1  0  0  0  0
 10 11  1  0  0  0  0
 10 34  1  0  0  0  0
 11 12  2  0  0  0  0
 11 13  1  0  0  0  0
 13 14  1  0  0  0  0
 13 15  1  0  0  0  0
 13 35  1  0  0  0  0
 14 36  1  0  0  0  0
 14 37  1  0  0  0  0
 14 38  1  0  0  0  0
 15 19  1  0  0  0  0
 15 16  1  0  0  0  0
 16 17  2  0  0  0  0
 16 39  1  0  0  0  0
 17 18  1  0  0  0  0
 18 19  2  0  0  0  0
 18 40  1  0  0  0  0
M  CHG  1   4   1
M  END
> <s_m_source_file>
AV-unprocessed.smi

> <i_m_source_file_index>
3345

> <i_lp_mmshare_version>
43012

> <i_f3d_flags>
0

> <s_epik_input>
W0NIMl0xW0NIMl1PW0NIMl1bQ0gyXU4xW0NIMl1bQ0BASF0oW0NIM10pW05IXUMoPU8pW0NASF0oW0NIM10pbjJbY0hdbltjSF1uMg==

> <s_epik_cmdline>
J2VwaWtfcHl0aG9uJywgJy1waCcsICc3LjAnLCAnLXRuJywgJzgnLCAnLW1hJywgJzIwMCcsICctbWV0YWxfYmluZGluZycsICctaW1hZScsICc8aW5maWxlLm1hZT4nLCAnLW9tYWUnLCAnPG91dGZpbGUubWFlPic=

> <r_lp_tautomer_probability>
1

> <r_epik_Ionization_Penalty>
0.71326

> <r_epik_Ionization_Penalty_Charging>
0.713252

> <r_epik_Ionization_Penalty_Neutral>
8.27671e-06

> <r_epik_State_Penalty>
0.737017

> <r_epik_Charging_Adjusted_Penalty>
1.45027

> <i_epik_Tot_Q>
1

> <i_epik_Tot_abs_Q>
1

> <r_epik_Metal_State_Penalty>
0.73702

> <b_epik_Metal_Only>
0

> <s_lp_Force_Field>
OPLS_2005

> <r_lp_Energy>
25.9312

> <b_lp_Chiralities_Consistent>
1

> <s_lp_Variant>
AV-unprocessed.smi:3345-5

> <Gold.Version>
5.8.1

> <Gold.Id.Protein>
6NUR|6NUR_protein|mol2

> <Gold.PLP.Fitness>
42.4894

> <Gold.PLP.PLP>
-29.9020

> <Gold.PLP.part.hbond>
-3.3525

> <Gold.PLP.part.metal>
0.0000

> <Gold.PLP.part.buried>
-3.4869

> <Gold.PLP.part.nonpolar>
-22.9676

> <Gold.PLP.part.repulsive>
0.3181

> <Gold.PLP.ligand.clash>
0.0000

> <Gold.PLP.ligand.torsion>
0.4148

> <Gold.PLP.Chemscore.Hbond>
3.4240

> <Gold.PLP.Chemscore.CHOScore>
0.9985

> <Gold.PLP.Chemscore.Metal>
0.0000

> <Gold.Chemscore.Hbonds>
donor molecule, donor type, donor heavy atom, donor atom, acceptor molecule, acceptor atom, score
      L1  H     4    41       P1  7948  1.50
      P1  H  7989  7998       L1    19  0.61
      P1  H 10752 10765       L1    12  0.58

> <Gold.PLP.Chemscore.Internal.Correction>
0.1495

> <Gold.Rescore>
     Score         DG    S(hbond)    S(metal)    S(lipo)     H(rot)  DE(clash)    DE(int)     intcor
     10.80     -13.23       2.66        0.00      47.39       2.61       0.01       2.42       ----

> <Gold.Chemscore.Fitness>
10.8017

> <Gold.Chemscore.DG>
-13.2304

> <Gold.Chemscore.ZeroCoef>
-5.4800

> <Gold.Chemscore.Hbond>
2.6638

> <Gold.Chemscore.Metal>
0.0000

> <Gold.Chemscore.Lipo>
47.3881

> <Gold.Chemscore.Internal_Hbond>
0.0000

> <Gold.Chemscore.DEClash>
0.0103

> <Gold.Chemscore.DEInternal>
2.4183

> <Gold.Chemscore.Rot>
2.6138

> <Gold.Chemscore.Internal.Correction>
   9.000000E+99

> <Gold.Chemscore.Hbonds>
donor molecule, donor type, donor heavy atom, donor atom, acceptor molecule, acceptor atom, score
      L1  H     4    41       P1  7948  0.33
      P1  H  7989  7998       L1    19  0.09
      P1  H  8011  8017       L1    19  0.01
      P1  H 10752 10765       L1    12  0.54

> <Gold.Chemscore.Hbond.Weighted>
-8.8972

> <Gold.Chemscore.Metal.Weighted>
-0.0000

> <Gold.Chemscore.Lipo.Weighted>
-5.5444

> <Gold.Chemscore.Internal_Hbond.Weighted>
0.0000

> <Gold.Chemscore.DEClash.Weighted>
0.0103

> <Gold.Chemscore.DEInternal.Weighted>
2.4183

> <Gold.Chemscore.Rot.Weighted>
6.6912

> <Gold.Chemscore.Internal.Correction.Weighted>
   9.000000E+99

> <Gold.Protein.RotatedTorsions>
[ 6907 6896 6895 6894 ] final  -98.27 input  -60.11 | X-H torsion
[ 7974 7965 7964 7962 ] final -118.55 input  175.53 | X-H torsion
[ 8008 7997 7996 7995 ] final   76.91 input   59.86 | X-H torsion
[ 10167 10162 10161 10158 ] final   26.14 input  -65.29 | X-H torsion
[ 10718 10713 10712 10709 ] final  146.58 input   66.30 | X-H torsion
[ 10763 10752 10751 10750 ] final  121.49 input  -60.55 | X-H torsion
[ 11005 11000 10999 10996 ] final   10.19 input  -57.11 | X-H torsion

> <Gold.Protein.ActiveResidues>
 VAL166  LYS551  ARG553  GLY616  TRP617  ASP618  TYR619  PRO620  LYS621  CYS622 
 ASP623  PHE694  ASN695  SER759  ASP760  ASP761  ALA762  ILE779  LEU786  VAL792 
 PHE793  MET794  SER795  GLU796  ALA797  LYS798  CYS799  TRP800  GLU811  SER814 

> <Gold.Protein.RotatedAtoms>
  150.7041  134.1221  159.4038 H   0  0  0  0  0  0  0  0  0  0  0  0  # atno 6907 bound_to 6896
  151.9207  135.0297  160.0531 H   0  0  0  0  0  0  0  0  0  0  0  0  # atno 6908 bound_to 6896
  152.2258  133.4984  159.5225 H   0  0  0  0  0  0  0  0  0  0  0  0  # atno 6909 bound_to 6896
  145.0725  140.8369  143.4087 H   0  0  0  0  0  0  0  0  0  0  0  0  # atno 7974 bound_to 7965
  155.8341  140.3465  155.5591 H   0  0  0  0  0  0  0  0  0  0  0  0  # atno 8008 bound_to 7997
  155.8210  140.0913  157.1868 H   0  0  0  0  0  0  0  0  0  0  0  0  # atno 8009 bound_to 7997
  154.4004  140.1430  156.3488 H   0  0  0  0  0  0  0  0  0  0  0  0  # atno 8010 bound_to 7997
  140.5048  144.0257  150.6347 H   0  0  0  0  0  0  0  0  0  0  0  0  # atno 10167 bound_to 10162
  157.3315  131.0921  151.1158 H   0  0  0  0  0  0  0  0  0  0  0  0  # atno 10718 bound_to 10713
  153.6149  135.3423  155.2991 H   0  0  0  0  0  0  0  0  0  0  0  0  # atno 10763 bound_to 10752
  154.8611  135.4259  154.2270 H   0  0  0  0  0  0  0  0  0  0  0  0  # atno 10764 bound_to 10752
  153.3129  135.7033  153.7172 H   0  0  0  0  0  0  0  0  0  0  0  0  # atno 10765 bound_to 10752
  140.5173  134.0593  155.7834 H   0  0  0  0  0  0  0  0  0  0  0  0  # atno 11005 bound_to 11000
  145.1275  139.2653  143.5556 LP  0  0  0  0  0  0  0  0  0  0  0  0  # atno 17320 bound_to 7965
  146.3529  140.0916  142.8612 LP  0  0  0  0  0  0  0  0  0  0  0  0  # atno 17321 bound_to 7965
  140.3563  143.2934  152.0433 LP  0  0  0  0  0  0  0  0  0  0  0  0  # atno 17342 bound_to 10162
  139.4881  144.6336  151.7019 LP  0  0  0  0  0  0  0  0  0  0  0  0  # atno 17343 bound_to 10162
  157.2405  130.6567  149.5888 LP  0  0  0  0  0  0  0  0  0  0  0  0  # atno 17370 bound_to 10713
  155.9696  130.4570  150.5945 LP  0  0  0  0  0  0  0  0  0  0  0  0  # atno 17371 bound_to 10713
  141.1353  133.9232  157.2447 LP  0  0  0  0  0  0  0  0  0  0  0  0  # atno 17394 bound_to 11000
  139.9625  135.0150  156.9300 LP  0  0  0  0  0  0  0  0  0  0  0  0  # atno 17395 bound_to 11000

$$$$
