AV-unprocessed.smi:2473|AV-procd|sdf|9745|dock10
  -GOLD-   2272013383D 1   1.00000     0.00000
 Structure written by MMmdl.
 48 49  0  0  0  0  0  0  0  0  2 V2000
  153.5366  141.7310  161.7833 C   0  0  0  0  0  0  0  0  0  0  0  0
  152.5550  142.0628  160.6501 C   0  0  2  0  0  0  0  0  0  0  0  0
  152.5619  140.9684  159.5679 C   0  0  0  0  0  0  0  0  0  0  0  0
  151.5738  141.2959  158.4314 C   0  0  2  0  0  0  0  0  0  0  0  0
  151.5868  140.2127  157.3452 C   0  0  0  0  0  0  0  0  0  0  0  0
  152.6425  139.8811  156.8050 O   0  0  0  0  0  0  0  0  0  0  0  0
  150.3975  139.6889  157.0133 N   0  0  0  0  0  0  0  0  0  0  0  0
  150.1747  138.7181  155.9461 C   0  0  0  0  0  0  0  0  0  0  0  0
  150.2297  139.3504  154.5402 C   0  0  0  0  0  0  0  0  0  0  0  0
  148.8870  139.4967  153.8838 C   0  0  0  0  0  0  0  0  0  0  0  0
  148.3036  138.5709  153.1131 N   0  3  0  0  0  0  0  0  0  0  0  0
  147.0812  139.0079  152.6818 C   0  0  0  0  0  0  0  0  0  0  0  0
  146.9103  140.2604  153.2097 C   0  0  0  0  0  0  0  0  0  0  0  0
  148.0366  140.5369  153.9418 N   0  0  0  0  0  0  0  0  0  0  0  0
  148.3051  141.7712  154.6831 C   0  0  0  0  0  0  0  0  0  0  0  0
  151.9025  142.6740  157.8164 C   0  0  0  0  0  0  0  0  0  0  0  0
  151.9285  143.8233  158.8533 C   0  0  0  0  0  0  0  0  0  0  0  0
  152.4782  145.0917  158.1720 C   0  0  0  0  0  0  0  0  0  0  0  0
  150.5048  144.1417  159.3608 C   0  0  0  0  0  0  0  0  0  0  0  0
  152.8654  143.4402  160.0264 C   0  0  0  0  0  0  0  0  0  0  0  0
  154.5613  141.6693  161.4158 H   0  0  0  0  0  0  0  0  0  0  0  0
  153.2917  140.7755  162.2479 H   0  0  0  0  0  0  0  0  0  0  0  0
  153.5082  142.4923  162.5633 H   0  0  0  0  0  0  0  0  0  0  0  0
  151.5590  142.0974  161.0915 H   0  0  0  0  0  0  0  0  0  0  0  0
  153.5727  140.8626  159.1695 H   0  0  0  0  0  0  0  0  0  0  0  0
  152.3054  140.0073  160.0162 H   0  0  0  0  0  0  0  0  0  0  0  0
  150.5695  141.3272  158.8558 H   0  0  0  0  0  0  0  0  0  0  0  0
  149.5833  140.0099  157.5173 H   0  0  0  0  0  0  0  0  0  0  0  0
  150.8885  137.8969  156.0244 H   0  0  0  0  0  0  0  0  0  0  0  0
  149.1875  138.2844  156.1083 H   0  0  0  0  0  0  0  0  0  0  0  0
  150.6958  140.3342  154.5835 H   0  0  0  0  0  0  0  0  0  0  0  0
  150.8422  138.7431  153.8734 H   0  0  0  0  0  0  0  0  0  0  0  0
  146.4423  138.4109  152.0473 H   0  0  0  0  0  0  0  0  0  0  0  0
  146.0910  140.9590  153.1184 H   0  0  0  0  0  0  0  0  0  0  0  0
  147.4388  142.4304  154.6214 H   0  0  0  0  0  0  0  0  0  0  0  0
  149.1716  142.2711  154.2495 H   0  0  0  0  0  0  0  0  0  0  0  0
  148.4999  141.5352  155.7287 H   0  0  0  0  0  0  0  0  0  0  0  0
  152.8759  142.6177  157.3256 H   0  0  0  0  0  0  0  0  0  0  0  0
  151.1853  142.9086  157.0280 H   0  0  0  0  0  0  0  0  0  0  0  0
  152.5216  145.9298  158.8683 H   0  0  0  0  0  0  0  0  0  0  0  0
  151.8525  145.3945  157.3316 H   0  0  0  0  0  0  0  0  0  0  0  0
  153.4869  144.9351  157.7878 H   0  0  0  0  0  0  0  0  0  0  0  0
  150.5162  144.9676  160.0728 H   0  0  0  0  0  0  0  0  0  0  0  0
  150.0365  143.2955  159.8610 H   0  0  0  0  0  0  0  0  0  0  0  0
  149.8497  144.4313  158.5385 H   0  0  0  0  0  0  0  0  0  0  0  0
  152.8238  144.2104  160.7979 H   0  0  0  0  0  0  0  0  0  0  0  0
  153.8972  143.4319  159.6709 H   0  0  0  0  0  0  0  0  0  0  0  0
  148.7117  137.6732  152.8841 H   0  0  0  0  0  0  0  0  0  0  0  0
  1  2  1  0  0  0  0
  1 21  1  0  0  0  0
  1 22  1  0  0  0  0
  1 23  1  0  0  0  0
  2 20  1  0  0  0  0
  2  3  1  0  0  0  0
  2 24  1  0  0  0  0
  3  4  1  0  0  0  0
  3 25  1  0  0  0  0
  3 26  1  0  0  0  0
  4  5  1  0  0  0  0
  4 16  1  0  0  0  0
  4 27  1  0  0  0  0
  5  6  2  0  0  0  0
  5  7  1  0  0  0  0
  7  8  1  0  0  0  0
  7 28  1  0  0  0  0
  8  9  1  0  0  0  0
  8 29  1  0  0  0  0
  8 30  1  0  0  0  0
  9 10  1  0  0  0  0
  9 31  1  0  0  0  0
  9 32  1  0  0  0  0
 10 14  1  0  0  0  0
 10 11  2  0  0  0  0
 11 12  1  0  0  0  0
 11 48  1  0  0  0  0
 12 13  2  0  0  0  0
 12 33  1  0  0  0  0
 13 14  1  0  0  0  0
 13 34  1  0  0  0  0
 14 15  1  0  0  0  0
 15 35  1  0  0  0  0
 15 36  1  0  0  0  0
 15 37  1  0  0  0  0
 16 17  1  0  0  0  0
 16 38  1  0  0  0  0
 16 39  1  0  0  0  0
 17 18  1  0  0  0  0
 17 19  1  0  0  0  0
 17 20  1  0  0  0  0
 18 40  1  0  0  0  0
 18 41  1  0  0  0  0
 18 42  1  0  0  0  0
 19 43  1  0  0  0  0
 19 44  1  0  0  0  0
 19 45  1  0  0  0  0
 20 46  1  0  0  0  0
 20 47  1  0  0  0  0
M  CHG  1  11   1
M  END
> <s_m_source_file>
AV-unprocessed.smi

> <i_m_source_file_index>
2473

> <i_lp_mmshare_version>
43012

> <i_f3d_flags>
0

> <s_epik_input>
W0NIM11bQ0BASF0oW0NIMl0xKVtDSDJdW0NASF0oW0NIMl1DMShbQ0gzXSlbQ0gzXSlDKD1PKVtOSF1bQ0gyXVtDSDJdYzJuW2NIXVtjSF1uMltDSDNd

> <s_epik_cmdline>
J2VwaWtfcHl0aG9uJywgJy1waCcsICc3LjAnLCAnLXRuJywgJzgnLCAnLW1hJywgJzIwMCcsICctbWV0YWxfYmluZGluZycsICctaW1hZScsICc8aW5maWxlLm1hZT4nLCAnLW9tYWUnLCAnPG91dGZpbGUubWFlPic=

> <r_lp_tautomer_probability>
1

> <r_epik_Ionization_Penalty>
0.0796112

> <r_epik_Ionization_Penalty_Charging>
0

> <r_epik_Ionization_Penalty_Neutral>
0.0796112

> <r_epik_State_Penalty>
0.0704541

> <r_epik_Charging_Adjusted_Penalty>
0.0704541

> <i_epik_Tot_Q>
1

> <i_epik_Tot_abs_Q>
1

> <r_epik_Metal_State_Penalty>
0.409899

> <b_epik_Metal_Only>
0

> <s_lp_Force_Field>
OPLS_2005

> <r_lp_Energy>
16.1806

> <b_lp_Chiralities_Consistent>
1

> <s_lp_Variant>
AV-unprocessed.smi:2473-3

> <Gold.Version>
5.8.1

> <Gold.Id.Protein>
6NUR|6NUR_protein|mol2

> <Gold.PLP.Fitness>
54.7555

> <Gold.PLP.PLP>
-44.5947

> <Gold.PLP.part.hbond>
-3.0000

> <Gold.PLP.part.metal>
0.0000

> <Gold.PLP.part.buried>
-2.7409

> <Gold.PLP.part.nonpolar>
-39.4193

> <Gold.PLP.part.repulsive>
0.0549

> <Gold.PLP.ligand.clash>
0.0000

> <Gold.PLP.ligand.torsion>
0.9278

> <Gold.PLP.Chemscore.Hbond>
3.0000

> <Gold.PLP.Chemscore.CHOScore>
1.0000

> <Gold.PLP.Chemscore.Metal>
0.0000

> <Gold.Chemscore.Hbonds>
donor molecule, donor type, donor heavy atom, donor atom, acceptor molecule, acceptor atom, score
      L1  H    11    48       P1  7948  2.00
      P1  H  7997  8008       L1     6  1.00
      L1  C    13    34       P1 10175  0.98

> <Gold.PLP.Chemscore.Internal.Correction>
0.0165

> <Gold.Rescore>
     Score         DG    S(hbond)    S(metal)    S(lipo)     H(rot)  DE(clash)    DE(int)     intcor
     20.84     -22.44       2.00        0.00     122.64       1.58       0.74       0.86       ----

> <Gold.Chemscore.Fitness>
20.8419

> <Gold.Chemscore.DG>
-22.4433

> <Gold.Chemscore.ZeroCoef>
-5.4800

> <Gold.Chemscore.Hbond>
1.9950

> <Gold.Chemscore.Metal>
0.0000

> <Gold.Chemscore.Lipo>
122.6446

> <Gold.Chemscore.Internal_Hbond>
0.0000

> <Gold.Chemscore.DEClash>
0.7389

> <Gold.Chemscore.DEInternal>
0.8626

> <Gold.Chemscore.Rot>
1.5818

> <Gold.Chemscore.Internal.Correction>
   9.000000E+99

> <Gold.Chemscore.Hbonds>
donor molecule, donor type, donor heavy atom, donor atom, acceptor molecule, acceptor atom, score
      L1  H    11    48       P1  7948  0.98
      P1  H  7997  8008       L1     6  1.00

> <Gold.Chemscore.Hbond.Weighted>
-6.6634

> <Gold.Chemscore.Metal.Weighted>
-0.0000

> <Gold.Chemscore.Lipo.Weighted>
-14.3494

> <Gold.Chemscore.Internal_Hbond.Weighted>
0.0000

> <Gold.Chemscore.DEClash.Weighted>
0.7389

> <Gold.Chemscore.DEInternal.Weighted>
0.8626

> <Gold.Chemscore.Rot.Weighted>
4.0495

> <Gold.Chemscore.Internal.Correction.Weighted>
   9.000000E+99

> <Gold.Protein.RotatedTorsions>
[ 6907 6896 6895 6894 ] final  -38.33 input  -60.11 | X-H torsion
[ 7974 7965 7964 7962 ] final  -57.66 input  175.53 | X-H torsion
[ 8008 7997 7996 7995 ] final  -54.76 input   59.86 | X-H torsion
[ 10167 10162 10161 10158 ] final  159.99 input  -65.29 | X-H torsion
[ 10718 10713 10712 10709 ] final  -10.04 input   66.30 | X-H torsion
[ 10763 10752 10751 10750 ] final -100.77 input  -60.55 | X-H torsion
[ 11005 11000 10999 10996 ] final   23.77 input  -57.11 | X-H torsion

> <Gold.Protein.ActiveResidues>
 VAL166  LYS551  ARG553  GLY616  TRP617  ASP618  TYR619  PRO620  LYS621  CYS622 
 ASP623  PHE694  ASN695  SER759  ASP760  ASP761  ALA762  ILE779  LEU786  VAL792 
 PHE793  MET794  SER795  GLU796  ALA797  LYS798  CYS799  TRP800  GLU811  SER814 

> <Gold.Protein.RotatedAtoms>
  151.0037  134.9342  159.7968 H   0  0  0  0  0  0  0  0  0  0  0  0  # atno 6907 bound_to 6896
  152.5285  134.3120  159.9127 H   0  0  0  0  0  0  0  0  0  0  0  0  # atno 6908 bound_to 6896
  151.3125  133.4033  159.2682 H   0  0  0  0  0  0  0  0  0  0  0  0  # atno 6909 bound_to 6896
  145.8484  140.8369  142.9998 H   0  0  0  0  0  0  0  0  0  0  0  0  # atno 7974 bound_to 7965
  154.4173  140.1168  156.5368 H   0  0  0  0  0  0  0  0  0  0  0  0  # atno 8008 bound_to 7997
  155.6549  140.3496  155.4742 H   0  0  0  0  0  0  0  0  0  0  0  0  # atno 8009 bound_to 7997
  155.9762  140.1151  157.0758 H   0  0  0  0  0  0  0  0  0  0  0  0  # atno 8010 bound_to 7997
  139.4836  144.4677  151.8618 H   0  0  0  0  0  0  0  0  0  0  0  0  # atno 10167 bound_to 10162
  156.6793  130.5032  149.5976 H   0  0  0  0  0  0  0  0  0  0  0  0  # atno 10718 bound_to 10713
  154.7605  135.4922  153.9456 H   0  0  0  0  0  0  0  0  0  0  0  0  # atno 10763 bound_to 10752
  153.1246  135.6739  153.9286 H   0  0  0  0  0  0  0  0  0  0  0  0  # atno 10764 bound_to 10752
  153.9008  135.3110  155.3427 H   0  0  0  0  0  0  0  0  0  0  0  0  # atno 10765 bound_to 10752
  140.3659  134.2074  155.7669 H   0  0  0  0  0  0  0  0  0  0  0  0  # atno 11005 bound_to 11000
  144.6730  140.0916  143.7465 LP  0  0  0  0  0  0  0  0  0  0  0  0  # atno 17320 bound_to 7965
  145.9386  139.2653  143.1282 LP  0  0  0  0  0  0  0  0  0  0  0  0  # atno 17321 bound_to 7965
  140.4144  144.2326  150.5888 LP  0  0  0  0  0  0  0  0  0  0  0  0  # atno 17342 bound_to 10162
  140.4935  143.2340  151.8784 LP  0  0  0  0  0  0  0  0  0  0  0  0  # atno 17343 bound_to 10162
  156.1880  130.6541  151.1028 LP  0  0  0  0  0  0  0  0  0  0  0  0  # atno 17370 bound_to 10713
  157.7049  131.0760  150.6699 LP  0  0  0  0  0  0  0  0  0  0  0  0  # atno 17371 bound_to 10713
  141.1969  133.8070  157.0649 LP  0  0  0  0  0  0  0  0  0  0  0  0  # atno 17394 bound_to 11000
  140.0589  134.9765  157.1270 LP  0  0  0  0  0  0  0  0  0  0  0  0  # atno 17395 bound_to 11000

$$$$
