AV-unprocessed.smi:2557|AV-procd|sdf|10030|dock10
  -GOLD-   2272014 73D 1   1.00000     0.00000
 Structure written by MMmdl.
 38 40  0  0  0  0  0  0  0  0  2 V2000
  151.4164  136.8437  155.1210 O   0  5  0  0  0  0  0  0  0  0  0  0
  150.8909  137.9337  155.4494 C   0  0  0  0  0  0  0  0  0  0  0  0
  151.3073  138.9657  156.2953 C   0  0  0  0  0  0  0  0  0  0  0  0
  152.6189  138.9130  156.9923 C   0  0  0  0  0  0  0  0  0  0  0  0
  153.3851  137.9565  156.8820 O   0  0  0  0  0  0  0  0  0  0  0  0
  152.9875  139.9986  157.8020 N   0  0  0  0  0  0  0  0  0  0  0  0
  152.1857  141.0120  157.9329 C   0  0  0  0  0  0  0  0  0  0  0  0
  152.5449  142.2126  158.8123 C   0  0  0  0  0  0  0  0  0  0  0  0
  152.2032  142.0118  160.3087 C   0  0  0  0  0  0  0  0  0  0  0  0
  152.6226  143.2266  161.1520 C   0  0  0  0  0  0  0  0  0  0  0  0
  151.9790  144.5173  160.6234 C   0  0  0  0  0  0  0  0  0  0  0  0
  152.3132  144.7329  159.1396 C   0  0  0  0  0  0  0  0  0  0  0  0
  151.9037  143.5183  158.2896 C   0  0  0  0  0  0  0  0  0  0  0  0
  150.9445  141.1253  157.3334 N   0  0  0  0  0  0  0  0  0  0  0  0
  150.5158  140.0940  156.5063 N   0  0  0  0  0  0  0  0  0  0  0  0
  149.5620  138.0298  154.8146 C   0  0  0  0  0  0  0  0  0  0  0  0
  149.2754  139.0469  153.8775 C   0  0  0  0  0  0  0  0  0  0  0  0
  147.9894  139.0990  153.3054 C   0  0  0  0  0  0  0  0  0  0  0  0
  147.0060  138.2246  153.6078 N   0  0  0  0  0  0  0  0  0  0  0  0
  147.2802  137.2581  154.5100 C   0  0  0  0  0  0  0  0  0  0  0  0
  148.5329  137.1185  155.1389 C   0  0  0  0  0  0  0  0  0  0  0  0
  153.6281  142.3320  158.7505 H   0  0  0  0  0  0  0  0  0  0  0  0
  151.1313  141.8484  160.4323 H   0  0  0  0  0  0  0  0  0  0  0  0
  152.6996  141.1192  160.6923 H   0  0  0  0  0  0  0  0  0  0  0  0
  152.3408  143.0707  162.1936 H   0  0  0  0  0  0  0  0  0  0  0  0
  153.7088  143.3259  161.1366 H   0  0  0  0  0  0  0  0  0  0  0  0
  150.8971  144.4660  160.7515 H   0  0  0  0  0  0  0  0  0  0  0  0
  152.3202  145.3706  161.2100 H   0  0  0  0  0  0  0  0  0  0  0  0
  151.8114  145.6287  158.7727 H   0  0  0  0  0  0  0  0  0  0  0  0
  153.3834  144.9117  159.0290 H   0  0  0  0  0  0  0  0  0  0  0  0
  152.1896  143.6995  157.2527 H   0  0  0  0  0  0  0  0  0  0  0  0
  150.8167  143.4222  158.2959 H   0  0  0  0  0  0  0  0  0  0  0  0
  150.3271  141.9161  157.4465 H   0  0  0  0  0  0  0  0  0  0  0  0
  149.6187  140.1859  156.0515 H   0  0  0  0  0  0  0  0  0  0  0  0
  150.0286  139.7717  153.6051 H   0  0  0  0  0  0  0  0  0  0  0  0
  147.7437  139.8645  152.5845 H   0  0  0  0  0  0  0  0  0  0  0  0
  146.4768  136.5735  154.7376 H   0  0  0  0  0  0  0  0  0  0  0  0
  148.7033  136.3281  155.8548 H   0  0  0  0  0  0  0  0  0  0  0  0
  1  2  1  0  0  0  0
  2  3  2  0  0  0  0
  2 16  1  0  0  0  0
  3 15  1  0  0  0  0
  3  4  1  0  0  0  0
  4  5  2  0  0  0  0
  4  6  1  0  0  0  0
  6  7  2  0  0  0  0
  7  8  1  0  0  0  0
  7 14  1  0  0  0  0
  8 13  1  0  0  0  0
  8  9  1  0  0  0  0
  8 22  1  0  0  0  0
  9 10  1  0  0  0  0
  9 23  1  0  0  0  0
  9 24  1  0  0  0  0
 10 11  1  0  0  0  0
 10 25  1  0  0  0  0
 10 26  1  0  0  0  0
 11 12  1  0  0  0  0
 11 27  1  0  0  0  0
 11 28  1  0  0  0  0
 12 13  1  0  0  0  0
 12 29  1  0  0  0  0
 12 30  1  0  0  0  0
 13 31  1  0  0  0  0
 13 32  1  0  0  0  0
 14 15  1  0  0  0  0
 14 33  1  0  0  0  0
 15 34  1  0  0  0  0
 16 21  1  0  0  0  0
 16 17  2  0  0  0  0
 17 18  1  0  0  0  0
 17 35  1  0  0  0  0
 18 19  2  0  0  0  0
 18 36  1  0  0  0  0
 19 20  1  0  0  0  0
 20 21  2  0  0  0  0
 20 37  1  0  0  0  0
 21 38  1  0  0  0  0
M  CHG  1   1  -1
M  END
> <s_m_source_file>
AV-unprocessed.smi

> <i_m_source_file_index>
2557

> <i_lp_mmshare_version>
43012

> <i_f3d_flags>
0

> <s_epik_input>
W2NIXTFbY0hdbltjSF1bY0hdYzFDKD1PKUMyPUMoW09IXSlOPUMoW05IXVtOSF0yKVtDSF0zW0NIMl1bQ0gyXVtDSDJdW0NIMl1bQ0gyXTM=

> <s_epik_cmdline>
J2VwaWtfcHl0aG9uJywgJy1waCcsICc3LjAnLCAnLXRuJywgJzgnLCAnLW1hJywgJzIwMCcsICctbWV0YWxfYmluZGluZycsICctaW1hZScsICc8aW5maWxlLm1hZT4nLCAnLW9tYWUnLCAnPG91dGZpbGUubWFlPic=

> <r_epik_Ionization_Penalty>
0.904364

> <r_epik_Ionization_Penalty_Charging>
0.00179702

> <r_epik_Ionization_Penalty_Neutral>
0.902567

> <r_epik_State_Penalty>
2.26092

> <r_epik_Charging_Adjusted_Penalty>
2.26271

> <i_epik_Tot_Q>
-1

> <i_epik_Tot_abs_Q>
1

> <r_epik_Metal_State_Penalty>
1.86017

> <b_epik_Metal_Only>
0

> <s_epik_Chemistry_Notes>
This compound has an imine and may undergo hydrolysis.

> <s_lp_Force_Field>
OPLS_2005

> <r_lp_Energy>
33.3792

> <b_lp_Chiralities_Consistent>
1

> <s_lp_Variant>
AV-unprocessed.smi:2557-4

> <Gold.Version>
5.8.1

> <Gold.Id.Protein>
6NUR|6NUR_protein|mol2

> <Gold.PLP.Fitness>
39.5463

> <Gold.PLP.PLP>
-32.3649

> <Gold.PLP.part.hbond>
-2.6727

> <Gold.PLP.part.metal>
0.0000

> <Gold.PLP.part.buried>
-0.7014

> <Gold.PLP.part.nonpolar>
-29.3927

> <Gold.PLP.part.repulsive>
0.3679

> <Gold.PLP.ligand.clash>
0.0118

> <Gold.PLP.ligand.torsion>
1.9374

> <Gold.PLP.Chemscore.Hbond>
2.5456

> <Gold.PLP.Chemscore.CHOScore>
0.4240

> <Gold.PLP.Chemscore.Metal>
0.0000

> <Gold.Chemscore.Hbonds>
donor molecule, donor type, donor heavy atom, donor atom, acceptor molecule, acceptor atom, score
      P1  H  7997  8008       L1     6  0.55
      P1  H 10752 10765       L1     1  1.98
      L1  C    18    36       P1  7957  0.54

> <Gold.PLP.Chemscore.Internal.Correction>
2.1590

> <Gold.Rescore>
     Score         DG    S(hbond)    S(metal)    S(lipo)     H(rot)  DE(clash)    DE(int)     intcor
     17.59     -19.46       1.53        0.00      97.73       1.00       0.05       1.82       ----

> <Gold.Chemscore.Fitness>
17.5854

> <Gold.Chemscore.DG>
-19.4556

> <Gold.Chemscore.ZeroCoef>
-5.4800

> <Gold.Chemscore.Hbond>
1.5273

> <Gold.Chemscore.Metal>
0.0000

> <Gold.Chemscore.Lipo>
97.7305

> <Gold.Chemscore.Internal_Hbond>
0.0000

> <Gold.Chemscore.DEClash>
0.0506

> <Gold.Chemscore.DEInternal>
1.8197

> <Gold.Chemscore.Rot>
1.0000

> <Gold.Chemscore.Internal.Correction>
   9.000000E+99

> <Gold.Chemscore.Hbonds>
donor molecule, donor type, donor heavy atom, donor atom, acceptor molecule, acceptor atom, score
      P1  H  7997  8008       L1     6  0.03
      P1  H 10752 10765       L1     1  0.92

> <Gold.Chemscore.Hbond.Weighted>
-5.1012

> <Gold.Chemscore.Metal.Weighted>
-0.0000

> <Gold.Chemscore.Lipo.Weighted>
-11.4345

> <Gold.Chemscore.Internal_Hbond.Weighted>
0.0000

> <Gold.Chemscore.DEClash.Weighted>
0.0506

> <Gold.Chemscore.DEInternal.Weighted>
1.8197

> <Gold.Chemscore.Rot.Weighted>
2.5600

> <Gold.Chemscore.Internal.Correction.Weighted>
   9.000000E+99

> <Gold.Protein.RotatedTorsions>
[ 6907 6896 6895 6894 ] final    6.88 input  -60.11 | X-H torsion
[ 7974 7965 7964 7962 ] final  -89.35 input  175.53 | X-H torsion
[ 8008 7997 7996 7995 ] final  -86.49 input   59.86 | X-H torsion
[ 10167 10162 10161 10158 ] final  -76.13 input  -65.29 | X-H torsion
[ 10718 10713 10712 10709 ] final -101.65 input   66.30 | X-H torsion
[ 10763 10752 10751 10750 ] final -179.30 input  -60.55 | X-H torsion
[ 11005 11000 10999 10996 ] final  112.93 input  -57.11 | X-H torsion

> <Gold.Protein.ActiveResidues>
 VAL166  LYS551  ARG553  GLY616  TRP617  ASP618  TYR619  PRO620  LYS621  CYS622 
 ASP623  PHE694  ASN695  SER759  ASP760  ASP761  ALA762  ILE779  LEU786  VAL792 
 PHE793  MET794  SER795  GLU796  ALA797  LYS798  CYS799  TRP800  GLU811  SER814 

> <Gold.Protein.RotatedAtoms>
  151.6809  135.0962  160.0215 H   0  0  0  0  0  0  0  0  0  0  0  0  # atno 6907 bound_to 6896
  152.3836  133.6575  159.6189 H   0  0  0  0  0  0  0  0  0  0  0  0  # atno 6908 bound_to 6896
  150.7767  133.8990  159.3377 H   0  0  0  0  0  0  0  0  0  0  0  0  # atno 6909 bound_to 6896
  145.4410  140.9559  143.2075 H   0  0  0  0  0  0  0  0  0  0  0  0  # atno 7974 bound_to 7965
  154.6524  140.0578  156.9971 H   0  0  0  0  0  0  0  0  0  0  0  0  # atno 8008 bound_to 7997
  155.1350  140.3260  155.4446 H   0  0  0  0  0  0  0  0  0  0  0  0  # atno 8009 bound_to 7997
  156.2582  140.1974  156.6468 H   0  0  0  0  0  0  0  0  0  0  0  0  # atno 8010 bound_to 7997
  140.4883  143.2386  151.7947 H   0  0  0  0  0  0  0  0  0  0  0  0  # atno 10167 bound_to 10162
  156.0202  130.5383  150.6995 H   0  0  0  0  0  0  0  0  0  0  0  0  # atno 10718 bound_to 10713
  154.5369  135.2803  155.1131 H   0  0  0  0  0  0  0  0  0  0  0  0  # atno 10763 bound_to 10752
  154.2629  135.6318  153.5285 H   0  0  0  0  0  0  0  0  0  0  0  0  # atno 10764 bound_to 10752
  152.9969  135.5610  154.5897 H   0  0  0  0  0  0  0  0  0  0  0  0  # atno 10765 bound_to 10752
  139.8940  134.9540  156.6660 H   0  0  0  0  0  0  0  0  0  0  0  0  # atno 11005 bound_to 11000
  144.8121  139.5942  143.7024 LP  0  0  0  0  0  0  0  0  0  0  0  0  # atno 17320 bound_to 7965
  146.2556  139.6295  142.9397 LP  0  0  0  0  0  0  0  0  0  0  0  0  # atno 17321 bound_to 7965
  139.4846  144.4682  151.9458 LP  0  0  0  0  0  0  0  0  0  0  0  0  # atno 17342 bound_to 10162
  140.3768  144.2786  150.5913 LP  0  0  0  0  0  0  0  0  0  0  0  0  # atno 17343 bound_to 10162
  157.4658  131.0888  151.0696 LP  0  0  0  0  0  0  0  0  0  0  0  0  # atno 17370 bound_to 10713
  157.1171  130.6046  149.5496 LP  0  0  0  0  0  0  0  0  0  0  0  0  # atno 17371 bound_to 10713
  140.7410  133.8978  155.8278 LP  0  0  0  0  0  0  0  0  0  0  0  0  # atno 17394 bound_to 11000
  141.0078  134.1062  157.4253 LP  0  0  0  0  0  0  0  0  0  0  0  0  # atno 17395 bound_to 11000

$$$$
