AV-unprocessed.smi:675|AV-procd|sdf|3305|dock4
  -GOLD-   22720 0263D 1   1.00000     0.00000
 Structure written by MMmdl.
 28 29  0  0  0  0  0  0  0  0  2 V2000
  151.4981  137.0787  154.3574 O   0  0  0  0  0  0  0  0  0  0  0  0
  151.3520  138.2255  154.7776 C   0  0  0  0  0  0  0  0  0  0  0  0
  150.4802  139.1114  154.2131 N   0  5  0  0  0  0  0  0  0  0  0  0
  150.3064  140.3921  154.6630 C   0  0  0  0  0  0  0  0  0  0  0  0
  149.5169  141.1717  154.1300 O   0  0  0  0  0  0  0  0  0  0  0  0
  151.0399  140.8181  155.7351 N   0  0  0  0  0  0  0  0  0  0  0  0
  150.9486  142.1818  156.2813 C   0  0  0  0  0  0  0  0  0  0  0  0
  150.3933  142.2074  157.7235 C   0  0  2  0  0  0  0  0  0  0  0  0
  149.4874  143.2883  157.8228 O   0  0  0  0  0  0  0  0  0  0  0  0
  151.4899  142.2715  158.7871 C   0  0  0  0  0  0  0  0  0  0  0  0
  152.1899  141.0896  159.1216 C   0  0  0  0  0  0  0  0  0  0  0  0
  153.1885  141.1006  160.1131 C   0  0  0  0  0  0  0  0  0  0  0  0
  153.4989  142.2968  160.7836 C   0  0  0  0  0  0  0  0  0  0  0  0
  152.8076  143.4789  160.4616 C   0  0  0  0  0  0  0  0  0  0  0  0
  151.8056  143.4747  159.4706 C   0  0  0  0  0  0  0  0  0  0  0  0
  150.9858  144.9604  159.1361 Cl  0  0  0  0  0  0  0  0  0  0  0  0
  151.9454  139.9424  156.3572 C   0  0  0  0  0  0  0  0  0  0  0  0
  152.1318  138.6798  155.9268 C   0  0  0  0  0  0  0  0  0  0  0  0
  153.2633  137.6314  156.7047 Cl  0  0  0  0  0  0  0  0  0  0  0  0
  151.9147  142.6876  156.2463 H   0  0  0  0  0  0  0  0  0  0  0  0
  150.3018  142.7741  155.6318 H   0  0  0  0  0  0  0  0  0  0  0  0
  149.7848  141.3174  157.8749 H   0  0  0  0  0  0  0  0  0  0  0  0
  149.4771  143.7458  156.9962 H   0  0  0  0  0  0  0  0  0  0  0  0
  151.9523  140.1606  158.6243 H   0  0  0  0  0  0  0  0  0  0  0  0
  153.7119  140.1896  160.3627 H   0  0  0  0  0  0  0  0  0  0  0  0
  154.2627  142.3074  161.5472 H   0  0  0  0  0  0  0  0  0  0  0  0
  153.0446  144.3947  160.9827 H   0  0  0  0  0  0  0  0  0  0  0  0
  152.4831  140.3641  157.1940 H   0  0  0  0  0  0  0  0  0  0  0  0
  1  2  2  0  0  0  0
  2 18  1  0  0  0  0
  2  3  1  0  0  0  0
  3  4  1  0  0  0  0
  4  5  2  0  0  0  0
  4  6  1  0  0  0  0
  6  7  1  0  0  0  0
  6 17  1  0  0  0  0
  7  8  1  0  0  0  0
  7 20  1  0  0  0  0
  7 21  1  0  0  0  0
  8  9  1  0  0  0  0
  8 10  1  0  0  0  0
  8 22  1  0  0  0  0
  9 23  1  0  0  0  0
 10 15  1  0  0  0  0
 10 11  2  0  0  0  0
 11 12  1  0  0  0  0
 11 24  1  0  0  0  0
 12 13  2  0  0  0  0
 12 25  1  0  0  0  0
 13 14  1  0  0  0  0
 13 26  1  0  0  0  0
 14 15  2  0  0  0  0
 14 27  1  0  0  0  0
 15 16  1  0  0  0  0
 17 18  2  0  0  0  0
 17 28  1  0  0  0  0
 18 19  1  0  0  0  0
M  CHG  1   3  -1
M  END
> <s_m_source_file>
AV-unprocessed.smi

> <i_m_source_file_index>
675

> <i_lp_mmshare_version>
43012

> <i_f3d_flags>
0

> <s_epik_input>
Tz1jMVtuSF1jKD1PKW4oW2NIXWMxQ2wpW0NIMl1bQ0BIXShbT0hdKWMyW2NIXVtjSF1bY0hdW2NIXWMyQ2w=

> <s_epik_cmdline>
J2VwaWtfcHl0aG9uJywgJy1waCcsICc3LjAnLCAnLXRuJywgJzgnLCAnLW1hJywgJzIwMCcsICctbWV0YWxfYmluZGluZycsICctaW1hZScsICc8aW5maWxlLm1hZT4nLCAnLW9tYWUnLCAnPG91dGZpbGUubWFlPic=

> <r_epik_Ionization_Penalty>
1.79791

> <r_epik_Ionization_Penalty_Charging>
3.23819e-08

> <r_epik_Ionization_Penalty_Neutral>
1.79791

> <r_epik_State_Penalty>
1.91135

> <r_epik_Charging_Adjusted_Penalty>
1.91135

> <i_epik_Tot_Q>
-1

> <i_epik_Tot_abs_Q>
1

> <r_epik_Metal_State_Penalty>
0.014155

> <b_epik_Metal_Only>
0

> <s_lp_Force_Field>
OPLS_2005

> <r_lp_Energy>
20.012

> <b_lp_Chiralities_Consistent>
1

> <s_lp_Variant>
AV-unprocessed.smi:675-3

> <Gold.Version>
5.8.1

> <Gold.Id.Protein>
6NUR|6NUR_protein|mol2

> <Gold.PLP.Fitness>
47.2934

> <Gold.PLP.PLP>
-42.0208

> <Gold.PLP.part.hbond>
-5.2052

> <Gold.PLP.part.metal>
0.0000

> <Gold.PLP.part.buried>
-1.7029

> <Gold.PLP.part.nonpolar>
-34.8458

> <Gold.PLP.part.repulsive>
0.6452

> <Gold.PLP.ligand.clash>
0.0000

> <Gold.PLP.ligand.torsion>
1.0982

> <Gold.PLP.Chemscore.Hbond>
2.4841

> <Gold.PLP.Chemscore.CHOScore>
0.0000

> <Gold.PLP.Chemscore.Metal>
0.0000

> <Gold.Chemscore.Hbonds>
donor molecule, donor type, donor heavy atom, donor atom, acceptor molecule, acceptor atom, score
      L1  H     9    23       P1  8028  1.00
      P1  H  8011  8017       L1     5  0.45
      P1  H 10752 10764       L1     1  1.00

> <Gold.PLP.Chemscore.Internal.Correction>
0.0168

> <Gold.Rescore>
     Score         DG    S(hbond)    S(metal)    S(lipo)     H(rot)  DE(clash)    DE(int)     intcor
     15.75     -19.80       2.25        0.00     104.80       2.13       1.32       2.73       ----

> <Gold.Chemscore.Fitness>
15.7496

> <Gold.Chemscore.DG>
-19.8001

> <Gold.Chemscore.ZeroCoef>
-5.4800

> <Gold.Chemscore.Hbond>
2.2471

> <Gold.Chemscore.Metal>
0.0000

> <Gold.Chemscore.Lipo>
104.8004

> <Gold.Chemscore.Internal_Hbond>
0.0000

> <Gold.Chemscore.DEClash>
1.3217

> <Gold.Chemscore.DEInternal>
2.7288

> <Gold.Chemscore.Rot>
2.1278

> <Gold.Chemscore.Internal.Correction>
   9.000000E+99

> <Gold.Chemscore.Hbonds>
donor molecule, donor type, donor heavy atom, donor atom, acceptor molecule, acceptor atom, score
      L1  H     9    23       P1  8028  0.85
      P1  H  8011  8017       L1     5  0.45
      P1  H 10752 10764       L1     1  0.94

> <Gold.Chemscore.Hbond.Weighted>
-7.5055

> <Gold.Chemscore.Metal.Weighted>
-0.0000

> <Gold.Chemscore.Lipo.Weighted>
-12.2617

> <Gold.Chemscore.Internal_Hbond.Weighted>
0.0000

> <Gold.Chemscore.DEClash.Weighted>
1.3217

> <Gold.Chemscore.DEInternal.Weighted>
2.7288

> <Gold.Chemscore.Rot.Weighted>
5.4470

> <Gold.Chemscore.Internal.Correction.Weighted>
   9.000000E+99

> <Gold.Protein.RotatedTorsions>
[ 6907 6896 6895 6894 ] final -120.27 input  -60.11 | X-H torsion
[ 7974 7965 7964 7962 ] final -116.84 input  175.53 | X-H torsion
[ 8008 7997 7996 7995 ] final   71.48 input   59.86 | X-H torsion
[ 10167 10162 10161 10158 ] final -129.89 input  -65.29 | X-H torsion
[ 10718 10713 10712 10709 ] final   72.16 input   66.30 | X-H torsion
[ 10763 10752 10751 10750 ] final  -79.11 input  -60.55 | X-H torsion
[ 11005 11000 10999 10996 ] final  -28.82 input  -57.11 | X-H torsion

> <Gold.Protein.ActiveResidues>
 VAL166  LYS551  ARG553  GLY616  TRP617  ASP618  TYR619  PRO620  LYS621  CYS622 
 ASP623  PHE694  ASN695  SER759  ASP760  ASP761  ALA762  ILE779  LEU786  VAL792 
 PHE793  MET794  SER795  GLU796  ALA797  LYS798  CYS799  TRP800  GLU811  SER814 

> <Gold.Protein.RotatedAtoms>
  150.8378  133.7985  159.3072 H   0  0  0  0  0  0  0  0  0  0  0  0  # atno 6907 bound_to 6896
  151.5696  135.1061  160.0001 H   0  0  0  0  0  0  0  0  0  0  0  0  # atno 6908 bound_to 6896
  152.4447  133.7472  159.6730 H   0  0  0  0  0  0  0  0  0  0  0  0  # atno 6909 bound_to 6896
  145.0921  140.8496  143.3976 H   0  0  0  0  0  0  0  0  0  0  0  0  # atno 7974 bound_to 7965
  155.7545  140.3488  155.5167 H   0  0  0  0  0  0  0  0  0  0  0  0  # atno 8008 bound_to 7997
  155.8973  140.1028  157.1396 H   0  0  0  0  0  0  0  0  0  0  0  0  # atno 8009 bound_to 7997
  154.4040  140.1293  156.4379 H   0  0  0  0  0  0  0  0  0  0  0  0  # atno 8010 bound_to 7997
  139.9350  143.6228  152.2519 H   0  0  0  0  0  0  0  0  0  0  0  0  # atno 10167 bound_to 10162
  157.6487  130.9565  150.0890 H   0  0  0  0  0  0  0  0  0  0  0  0  # atno 10718 bound_to 10713
  154.5345  135.5707  153.6786 H   0  0  0  0  0  0  0  0  0  0  0  0  # atno 10763 bound_to 10752
  152.9947  135.6212  154.2585 H   0  0  0  0  0  0  0  0  0  0  0  0  # atno 10764 bound_to 10752
  154.2513  135.2859  155.2795 H   0  0  0  0  0  0  0  0  0  0  0  0  # atno 10765 bound_to 10752
  140.9242  133.7379  156.0843 H   0  0  0  0  0  0  0  0  0  0  0  0  # atno 11005 bound_to 11000
  145.1054  139.2794  143.5665 LP  0  0  0  0  0  0  0  0  0  0  0  0  # atno 17320 bound_to 7965
  146.3531  140.0634  142.8628 LP  0  0  0  0  0  0  0  0  0  0  0  0  # atno 17321 bound_to 7965
  139.6751  144.7659  151.1711 LP  0  0  0  0  0  0  0  0  0  0  0  0  # atno 17342 bound_to 10162
  140.7627  143.5807  150.8897 LP  0  0  0  0  0  0  0  0  0  0  0  0  # atno 17343 bound_to 10162
  156.1845  130.3651  149.8991 LP  0  0  0  0  0  0  0  0  0  0  0  0  # atno 17370 bound_to 10713
  156.6935  130.8905  151.3591 LP  0  0  0  0  0  0  0  0  0  0  0  0  # atno 17371 bound_to 10713
  140.7948  134.3576  157.5455 LP  0  0  0  0  0  0  0  0  0  0  0  0  # atno 17394 bound_to 11000
  139.8782  134.9162  156.3149 LP  0  0  0  0  0  0  0  0  0  0  0  0  # atno 17395 bound_to 11000

$$$$
