AV-unprocessed.smi:1285|AV-procd|sdf|5373|dock3
  -GOLD-   22720 4513D 1   1.00000     0.00000
 Structure written by MMmdl.
 47 48  0  0  0  0  0  0  0  0  2 V2000
  148.4059  132.7923  154.4350 C   0  0  0  0  0  0  0  0  0  0  0  0
  148.1466  134.2738  154.7630 C   0  0  0  0  0  0  0  0  0  0  0  0
  146.6751  134.7630  154.6001 C   0  0  1  0  0  0  0  0  0  0  0  0
  145.7424  133.8607  155.4496 C   0  0  0  0  0  0  0  0  0  0  0  0
  146.5467  136.2209  155.1442 C   0  0  0  0  0  0  0  0  0  0  0  0
  147.5060  137.1590  154.5596 N   0  0  0  0  0  0  0  0  0  0  0  0
  147.6821  138.4364  154.9342 C   0  0  0  0  0  0  0  0  0  0  0  0
  147.0217  138.9728  155.8240 O   0  0  0  0  0  0  0  0  0  0  0  0
  148.7684  139.2210  154.1819 C   0  0  1  0  0  0  0  0  0  0  0  0
  148.7246  140.7333  154.4799 C   0  0  0  0  0  0  0  0  0  0  0  0
  150.0817  138.6474  154.4467 N   0  0  0  0  0  0  0  0  0  0  0  0
  150.5054  137.3863  154.3373 C   0  0  0  0  0  0  0  0  0  0  0  0
  151.7664  137.2076  154.7044 N   0  0  0  0  0  0  0  0  0  0  0  0
  152.0829  138.4872  155.0634 C   0  0  0  0  0  0  0  0  0  0  0  0
  151.1075  139.3868  154.9373 N   0  0  0  0  0  0  0  0  0  0  0  0
  146.2456  134.7137  153.1534 N   0  3  0  0  0  0  0  0  0  0  0  0
  146.1272  133.3516  152.5607 C   0  0  0  0  0  0  0  0  0  0  0  0
  145.9131  133.4455  151.0417 C   0  0  0  0  0  0  0  0  0  0  0  0
  144.7414  134.2035  150.7751 O   0  0  0  0  0  0  0  0  0  0  0  0
  144.8507  135.5332  151.2634 C   0  0  0  0  0  0  0  0  0  0  0  0
  145.0441  135.5176  152.7895 C   0  0  0  0  0  0  0  0  0  0  0  0
  149.4563  132.5480  154.5936 H   0  0  0  0  0  0  0  0  0  0  0  0
  148.1774  132.5578  153.3955 H   0  0  0  0  0  0  0  0  0  0  0  0
  147.8236  132.1253  155.0701 H   0  0  0  0  0  0  0  0  0  0  0  0
  148.4832  134.4382  155.7863 H   0  0  0  0  0  0  0  0  0  0  0  0
  148.8076  134.8691  154.1339 H   0  0  0  0  0  0  0  0  0  0  0  0
  145.8497  134.0581  156.5164 H   0  0  0  0  0  0  0  0  0  0  0  0
  145.9581  132.8011  155.3105 H   0  0  0  0  0  0  0  0  0  0  0  0
  144.6924  134.0202  155.2030 H   0  0  0  0  0  0  0  0  0  0  0  0
  145.5324  136.6000  155.0102 H   0  0  0  0  0  0  0  0  0  0  0  0
  146.7033  136.2371  156.2227 H   0  0  0  0  0  0  0  0  0  0  0  0
  148.1055  136.7983  153.8318 H   0  0  0  0  0  0  0  0  0  0  0  0
  148.5762  139.0996  153.1144 H   0  0  0  0  0  0  0  0  0  0  0  0
  147.7489  141.1546  154.2348 H   0  0  0  0  0  0  0  0  0  0  0  0
  149.4679  141.2671  153.8874 H   0  0  0  0  0  0  0  0  0  0  0  0
  148.9235  140.9504  155.5301 H   0  0  0  0  0  0  0  0  0  0  0  0
  149.8777  136.5810  153.9853 H   0  0  0  0  0  0  0  0  0  0  0  0
  153.0588  138.7622  155.4355 H   0  0  0  0  0  0  0  0  0  0  0  0
  147.0193  132.7556  152.7450 H   0  0  0  0  0  0  0  0  0  0  0  0
  145.2868  132.8174  153.0048 H   0  0  0  0  0  0  0  0  0  0  0  0
  146.7774  133.8973  150.5521 H   0  0  0  0  0  0  0  0  0  0  0  0
  145.7913  132.4487  150.6173 H   0  0  0  0  0  0  0  0  0  0  0  0
  145.6788  136.0469  150.7721 H   0  0  0  0  0  0  0  0  0  0  0  0
  143.9422  136.0784  151.0064 H   0  0  0  0  0  0  0  0  0  0  0  0
  144.1547  135.1058  153.2667 H   0  0  0  0  0  0  0  0  0  0  0  0
  145.1347  136.5521  153.1150 H   0  0  0  0  0  0  0  0  0  0  0  0
  147.0073  135.1530  152.6566 H   0  0  0  0  0  0  0  0  0  0  0  0
  1  2  1  0  0  0  0
  1 22  1  0  0  0  0
  1 23  1  0  0  0  0
  1 24  1  0  0  0  0
  2  3  1  0  0  0  0
  2 25  1  0  0  0  0
  2 26  1  0  0  0  0
  3  4  1  0  0  0  0
  3  5  1  0  0  0  0
  3 16  1  0  0  0  0
  4 27  1  0  0  0  0
  4 28  1  0  0  0  0
  4 29  1  0  0  0  0
  5  6  1  0  0  0  0
  5 30  1  0  0  0  0
  5 31  1  0  0  0  0
  6  7  1  0  0  0  0
  6 32  1  0  0  0  0
  7  8  2  0  0  0  0
  7  9  1  0  0  0  0
  9 10  1  0  0  0  0
  9 11  1  0  0  0  0
  9 33  1  0  0  0  0
 10 34  1  0  0  0  0
 10 35  1  0  0  0  0
 10 36  1  0  0  0  0
 11 15  1  0  0  0  0
 11 12  1  0  0  0  0
 12 13  2  0  0  0  0
 12 37  1  0  0  0  0
 13 14  1  0  0  0  0
 14 15  2  0  0  0  0
 14 38  1  0  0  0  0
 16 21  1  0  0  0  0
 16 17  1  0  0  0  0
 16 47  1  0  0  0  0
 17 18  1  0  0  0  0
 17 39  1  0  0  0  0
 17 40  1  0  0  0  0
 18 19  1  0  0  0  0
 18 41  1  0  0  0  0
 18 42  1  0  0  0  0
 19 20  1  0  0  0  0
 20 21  1  0  0  0  0
 20 43  1  0  0  0  0
 20 44  1  0  0  0  0
 21 45  1  0  0  0  0
 21 46  1  0  0  0  0
M  CHG  1  16   1
M  END
> <s_m_source_file>
AV-unprocessed.smi

> <i_m_source_file_index>
1285

> <i_lp_mmshare_version>
43012

> <i_f3d_flags>
0

> <s_epik_input>
W0NIMl0xW0NIMl1PW0NIMl1bQ0gyXU4xW0NAQF0oW0NIM10pKFtDSDJdW0NIM10pW0NIMl1bTkhdQyg9TylbQ0BIXShbQ0gzXSluMltjSF1uW2NIXW4y

> <s_epik_cmdline>
J2VwaWtfcHl0aG9uJywgJy1waCcsICc3LjAnLCAnLXRuJywgJzgnLCAnLW1hJywgJzIwMCcsICctbWV0YWxfYmluZGluZycsICctaW1hZScsICc8aW5maWxlLm1hZT4nLCAnLW9tYWUnLCAnPG91dGZpbGUubWFlPic=

> <r_lp_tautomer_probability>
1

> <r_epik_Ionization_Penalty>
0.569304

> <r_epik_Ionization_Penalty_Charging>
0.569295

> <r_epik_Ionization_Penalty_Neutral>
8.22697e-06

> <r_epik_State_Penalty>
0.581114

> <r_epik_Charging_Adjusted_Penalty>
1.15041

> <i_epik_Tot_Q>
1

> <i_epik_Tot_abs_Q>
1

> <r_epik_Metal_State_Penalty>
0.581117

> <b_epik_Metal_Only>
0

> <s_lp_Force_Field>
OPLS_2005

> <r_lp_Energy>
40.9155

> <b_lp_Chiralities_Consistent>
1

> <s_lp_Variant>
AV-unprocessed.smi:1285-7

> <Gold.Version>
5.8.1

> <Gold.Id.Protein>
6NUR|6NUR_protein|mol2

> <Gold.PLP.Fitness>
51.2014

> <Gold.PLP.PLP>
-35.1540

> <Gold.PLP.part.hbond>
-4.0000

> <Gold.PLP.part.metal>
0.0000

> <Gold.PLP.part.buried>
-3.0908

> <Gold.PLP.part.nonpolar>
-27.8636

> <Gold.PLP.part.repulsive>
0.3285

> <Gold.PLP.ligand.clash>
0.0000

> <Gold.PLP.ligand.torsion>
0.5415

> <Gold.PLP.Chemscore.Hbond>
4.6320

> <Gold.PLP.Chemscore.CHOScore>
0.9525

> <Gold.PLP.Chemscore.Metal>
0.0000

> <Gold.Chemscore.Hbonds>
donor molecule, donor type, donor heavy atom, donor atom, acceptor molecule, acceptor atom, score
      L1  H     6    32       P1  7948  0.54
      L1  H    16    47       P1  7948  0.46
      P1  H  7989  7998       L1    15  0.75
      P1  H 10752 10763       L1    13  0.94
      L1  C    12    37       P1  7948  0.98

> <Gold.PLP.Chemscore.Internal.Correction>
0.3770

> <Gold.Rescore>
     Score         DG    S(hbond)    S(metal)    S(lipo)     H(rot)  DE(clash)    DE(int)     intcor
     11.58     -14.18       2.97        0.00      49.91       2.76       0.86       1.74       ----

> <Gold.Chemscore.Fitness>
11.5823

> <Gold.Chemscore.DG>
-14.1827

> <Gold.Chemscore.ZeroCoef>
-5.4800

> <Gold.Chemscore.Hbond>
2.9719

> <Gold.Chemscore.Metal>
0.0000

> <Gold.Chemscore.Lipo>
49.9079

> <Gold.Chemscore.Internal_Hbond>
0.0000

> <Gold.Chemscore.DEClash>
0.8594

> <Gold.Chemscore.DEInternal>
1.7410

> <Gold.Chemscore.Rot>
2.7589

> <Gold.Chemscore.Internal.Correction>
   9.000000E+99

> <Gold.Chemscore.Hbonds>
donor molecule, donor type, donor heavy atom, donor atom, acceptor molecule, acceptor atom, score
      L1  H     6    32       P1  7948  0.54
      L1  H    16    47       P1  7948  0.23
      P1  H  7989  7998       L1    15  0.39
      P1  H 10752 10763       L1    13  0.87

> <Gold.Chemscore.Hbond.Weighted>
-9.9262

> <Gold.Chemscore.Metal.Weighted>
-0.0000

> <Gold.Chemscore.Lipo.Weighted>
-5.8392

> <Gold.Chemscore.Internal_Hbond.Weighted>
0.0000

> <Gold.Chemscore.DEClash.Weighted>
0.8594

> <Gold.Chemscore.DEInternal.Weighted>
1.7410

> <Gold.Chemscore.Rot.Weighted>
7.0627

> <Gold.Chemscore.Internal.Correction.Weighted>
   9.000000E+99

> <Gold.Protein.RotatedTorsions>
[ 6907 6896 6895 6894 ] final -118.32 input  -60.11 | X-H torsion
[ 7974 7965 7964 7962 ] final  -79.84 input  175.53 | X-H torsion
[ 8008 7997 7996 7995 ] final   -8.09 input   59.86 | X-H torsion
[ 10167 10162 10161 10158 ] final  159.06 input  -65.29 | X-H torsion
[ 10718 10713 10712 10709 ] final  -11.26 input   66.30 | X-H torsion
[ 10763 10752 10751 10750 ] final   36.54 input  -60.55 | X-H torsion
[ 11005 11000 10999 10996 ] final  133.54 input  -57.11 | X-H torsion

> <Gold.Protein.ActiveResidues>
 VAL166  LYS551  ARG553  GLY616  TRP617  ASP618  TYR619  PRO620  LYS621  CYS622 
 ASP623  PHE694  ASN695  SER759  ASP760  ASP761  ALA762  ILE779  LEU786  VAL792 
 PHE793  MET794  SER795  GLU796  ALA797  LYS798  CYS799  TRP800  GLU811  SER814 

> <Gold.Protein.RotatedAtoms>
  150.8210  133.8253  159.3138 H   0  0  0  0  0  0  0  0  0  0  0  0  # atno 6907 bound_to 6896
  151.6011  135.1045  160.0070 H   0  0  0  0  0  0  0  0  0  0  0  0  # atno 6908 bound_to 6896
  152.4299  133.7218  159.6594 H   0  0  0  0  0  0  0  0  0  0  0  0  # atno 6909 bound_to 6896
  145.5678  140.9471  143.1412 H   0  0  0  0  0  0  0  0  0  0  0  0  # atno 7974 bound_to 7965
  154.5775  140.2390  155.8102 H   0  0  0  0  0  0  0  0  0  0  0  0  # atno 8008 bound_to 7997
  156.2154  140.3014  155.9784 H   0  0  0  0  0  0  0  0  0  0  0  0  # atno 8009 bound_to 7997
  155.2601  140.0414  157.2987 H   0  0  0  0  0  0  0  0  0  0  0  0  # atno 8010 bound_to 7997
  139.4830  144.4765  151.8503 H   0  0  0  0  0  0  0  0  0  0  0  0  # atno 10167 bound_to 10162
  156.6615  130.4983  149.6029 H   0  0  0  0  0  0  0  0  0  0  0  0  # atno 10718 bound_to 10713
  153.0073  135.6303  154.2002 H   0  0  0  0  0  0  0  0  0  0  0  0  # atno 10763 bound_to 10752
  154.1745  135.2816  155.3073 H   0  0  0  0  0  0  0  0  0  0  0  0  # atno 10764 bound_to 10752
  154.5883  135.5626  153.7313 H   0  0  0  0  0  0  0  0  0  0  0  0  # atno 10765 bound_to 10752
  139.9858  134.9532  156.9739 H   0  0  0  0  0  0  0  0  0  0  0  0  # atno 11005 bound_to 11000
  144.7452  139.7340  143.7295 LP  0  0  0  0  0  0  0  0  0  0  0  0  # atno 17320 bound_to 7965
  146.1805  139.4996  142.9869 LP  0  0  0  0  0  0  0  0  0  0  0  0  # atno 17321 bound_to 7965
  140.4238  144.2208  150.5887 LP  0  0  0  0  0  0  0  0  0  0  0  0  # atno 17342 bound_to 10162
  140.4847  143.2367  151.8904 LP  0  0  0  0  0  0  0  0  0  0  0  0  # atno 17343 bound_to 10162
  156.2007  130.6618  151.1164 LP  0  0  0  0  0  0  0  0  0  0  0  0  # atno 17370 bound_to 10713
  157.7108  131.0735  150.6508 LP  0  0  0  0  0  0  0  0  0  0  0  0  # atno 17371 bound_to 10713
  140.5005  134.1101  155.7249 LP  0  0  0  0  0  0  0  0  0  0  0  0  # atno 17394 bound_to 11000
  141.1523  133.8946  157.2066 LP  0  0  0  0  0  0  0  0  0  0  0  0  # atno 17395 bound_to 11000

$$$$
