AV-unprocessed.smi:985|AV-procd|sdf|4318|dock10
  -GOLD-   22720 2223D 1   1.00000     0.00000
 Structure written by MMmdl.
 26 27  0  0  0  0  0  0  0  0  2 V2000
  151.8660  140.7770  158.8843 C   0  0  0  0  0  0  0  0  0  0  0  0
  151.4947  140.5388  157.4608 C   0  0  0  0  0  0  0  0  0  0  0  0
  150.2836  140.6319  156.9171 N   0  0  0  0  0  0  0  0  0  0  0  0
  150.5528  140.3139  155.6197 C   0  0  0  0  0  0  0  0  0  0  0  0
  149.4996  140.2676  154.5552 C   0  0  2  0  0  0  0  0  0  0  0  0
  148.1581  140.8507  155.0385 C   0  0  0  0  0  0  0  0  0  0  0  0
  147.1058  140.7721  153.9215 C   0  0  0  0  0  0  0  0  0  0  0  0
  146.9787  139.3368  153.3837 C   0  0  0  0  0  0  0  0  0  0  0  0
  148.2895  138.8351  152.9163 N   0  3  0  0  0  0  0  0  0  0  0  0
  149.3262  138.8502  153.9725 C   0  0  0  0  0  0  0  0  0  0  0  0
  151.8213  140.0329  155.3456 N   0  0  0  0  0  0  0  0  0  0  0  0
  152.4631  140.1841  156.5834 O   0  0  0  0  0  0  0  0  0  0  0  0
  150.9848  141.0447  159.4681 H   0  0  0  0  0  0  0  0  0  0  0  0
  152.5900  141.5893  158.9506 H   0  0  0  0  0  0  0  0  0  0  0  0
  152.3084  139.8767  159.3107 H   0  0  0  0  0  0  0  0  0  0  0  0
  149.8421  140.9044  153.7369 H   0  0  0  0  0  0  0  0  0  0  0  0
  147.8028  140.2976  155.9092 H   0  0  0  0  0  0  0  0  0  0  0  0
  148.2872  141.8857  155.3574 H   0  0  0  0  0  0  0  0  0  0  0  0
  146.1412  141.1185  154.2935 H   0  0  0  0  0  0  0  0  0  0  0  0
  147.3831  141.4445  153.1085 H   0  0  0  0  0  0  0  0  0  0  0  0
  146.5932  138.6725  154.1584 H   0  0  0  0  0  0  0  0  0  0  0  0
  146.2706  139.3053  152.5554 H   0  0  0  0  0  0  0  0  0  0  0  0
  148.1778  137.8890  152.5805 H   0  0  0  0  0  0  0  0  0  0  0  0
  150.2659  138.4948  153.5482 H   0  0  0  0  0  0  0  0  0  0  0  0
  149.0428  138.1452  154.7555 H   0  0  0  0  0  0  0  0  0  0  0  0
  148.6007  139.4172  152.1518 H   0  0  0  0  0  0  0  0  0  0  0  0
  1  2  1  0  0  0  0
  1 13  1  0  0  0  0
  1 14  1  0  0  0  0
  1 15  1  0  0  0  0
  2 12  1  0  0  0  0
  2  3  2  0  0  0  0
  3  4  1  0  0  0  0
  4  5  1  0  0  0  0
  4 11  2  0  0  0  0
  5 10  1  0  0  0  0
  5  6  1  0  0  0  0
  5 16  1  0  0  0  0
  6  7  1  0  0  0  0
  6 17  1  0  0  0  0
  6 18  1  0  0  0  0
  7  8  1  0  0  0  0
  7 19  1  0  0  0  0
  7 20  1  0  0  0  0
  8  9  1  0  0  0  0
  8 21  1  0  0  0  0
  8 22  1  0  0  0  0
  9 10  1  0  0  0  0
  9 23  1  0  0  0  0
  9 26  1  0  0  0  0
 10 24  1  0  0  0  0
 10 25  1  0  0  0  0
 11 12  1  0  0  0  0
M  CHG  1   9   1
M  END
> <s_m_source_file>
AV-unprocessed.smi

> <i_m_source_file_index>
985

> <i_lp_mmshare_version>
43012

> <i_f3d_flags>
0

> <s_epik_input>
W0NIM11jMW5jKG5vMSlbQ0BASF0yW0NIMl1bQ0gyXVtDSDJdW05IXVtDSDJdMg==

> <s_epik_cmdline>
J2VwaWtfcHl0aG9uJywgJy1waCcsICc3LjAnLCAnLXRuJywgJzgnLCAnLW1hJywgJzIwMCcsICctbWV0YWxfYmluZGluZycsICctaW1hZScsICc8aW5maWxlLm1hZT4nLCAnLW9tYWUnLCAnPG91dGZpbGUubWFlPic=

> <r_lp_tautomer_probability>
1

> <r_epik_Ionization_Penalty>
0.000532935

> <r_epik_Ionization_Penalty_Charging>
0.000532935

> <r_epik_Ionization_Penalty_Neutral>
3.88228e-13

> <r_epik_State_Penalty>
0.000332992

> <r_epik_Charging_Adjusted_Penalty>
0.000865928

> <i_epik_Tot_Q>
1

> <i_epik_Tot_abs_Q>
1

> <r_epik_Metal_State_Penalty>
-0

> <b_epik_Metal_Only>
0

> <s_lp_Force_Field>
OPLS_2005

> <r_lp_Energy>
6.62541

> <b_lp_Chiralities_Consistent>
1

> <s_lp_Variant>
AV-unprocessed.smi:985-1

> <Gold.Version>
5.8.1

> <Gold.Id.Protein>
6NUR|6NUR_protein|mol2

> <Gold.PLP.Fitness>
33.7534

> <Gold.PLP.PLP>
-20.3462

> <Gold.PLP.part.hbond>
-3.8676

> <Gold.PLP.part.metal>
0.0000

> <Gold.PLP.part.buried>
-0.9111

> <Gold.PLP.part.nonpolar>
-15.4232

> <Gold.PLP.part.repulsive>
0.1111

> <Gold.PLP.ligand.clash>
0.0000

> <Gold.PLP.ligand.torsion>
0.1004

> <Gold.PLP.Chemscore.Hbond>
4.5216

> <Gold.PLP.Chemscore.CHOScore>
0.0000

> <Gold.PLP.Chemscore.Metal>
0.0000

> <Gold.Chemscore.Hbonds>
donor molecule, donor type, donor heavy atom, donor atom, acceptor molecule, acceptor atom, score
      L1  H     9    23       P1  7948  1.98
      L1  H     9    26       P1  7957  0.99
      P1  H  7989  7998       L1    11  0.54
      P1  H  7997  8010       L1    12  1.00

> <Gold.PLP.Chemscore.Internal.Correction>
0.0432

> <Gold.Rescore>
     Score         DG    S(hbond)    S(metal)    S(lipo)     H(rot)  DE(clash)    DE(int)     intcor
     16.79     -17.06       2.91        0.00      37.95       1.00       0.24       0.03       ----

> <Gold.Chemscore.Fitness>
16.7911

> <Gold.Chemscore.DG>
-17.0633

> <Gold.Chemscore.ZeroCoef>
-5.4800

> <Gold.Chemscore.Hbond>
2.9051

> <Gold.Chemscore.Metal>
0.0000

> <Gold.Chemscore.Lipo>
37.9499

> <Gold.Chemscore.Internal_Hbond>
0.0000

> <Gold.Chemscore.DEClash>
0.2413

> <Gold.Chemscore.DEInternal>
0.0310

> <Gold.Chemscore.Rot>
1.0000

> <Gold.Chemscore.Internal.Correction>
   9.000000E+99

> <Gold.Chemscore.Hbonds>
donor molecule, donor type, donor heavy atom, donor atom, acceptor molecule, acceptor atom, score
      L1  H     9    23       P1  7948  0.92
      L1  H     9    26       P1  7957  0.91
      P1  H  7989  7998       L1    11  0.03
      P1  H  7997  8010       L1    12  0.63

> <Gold.Chemscore.Hbond.Weighted>
-9.7031

> <Gold.Chemscore.Metal.Weighted>
-0.0000

> <Gold.Chemscore.Lipo.Weighted>
-4.4401

> <Gold.Chemscore.Internal_Hbond.Weighted>
0.0000

> <Gold.Chemscore.DEClash.Weighted>
0.2413

> <Gold.Chemscore.DEInternal.Weighted>
0.0310

> <Gold.Chemscore.Rot.Weighted>
2.5600

> <Gold.Chemscore.Internal.Correction.Weighted>
   9.000000E+99

> <Gold.Protein.RotatedTorsions>
[ 6907 6896 6895 6894 ] final  159.39 input  -60.11 | X-H torsion
[ 7974 7965 7964 7962 ] final  150.93 input  175.53 | X-H torsion
[ 8008 7997 7996 7995 ] final   80.99 input   59.86 | X-H torsion
[ 10167 10162 10161 10158 ] final -131.71 input  -65.29 | X-H torsion
[ 10718 10713 10712 10709 ] final  131.36 input   66.30 | X-H torsion
[ 10763 10752 10751 10750 ] final  -54.63 input  -60.55 | X-H torsion
[ 11005 11000 10999 10996 ] final  165.38 input  -57.11 | X-H torsion

> <Gold.Protein.ActiveResidues>
 VAL166  LYS551  ARG553  GLY616  TRP617  ASP618  TYR619  PRO620  LYS621  CYS622 
 ASP623  PHE694  ASN695  SER759  ASP760  ASP761  ALA762  ILE779  LEU786  VAL792 
 PHE793  MET794  SER795  GLU796  ALA797  LYS798  CYS799  TRP800  GLU811  SER814 

> <Gold.Protein.RotatedAtoms>
  151.9863  133.3775  159.4126 H   0  0  0  0  0  0  0  0  0  0  0  0  # atno 6907 bound_to 6896
  150.6928  134.3984  159.5117 H   0  0  0  0  0  0  0  0  0  0  0  0  # atno 6908 bound_to 6896
  152.1711  134.8833  160.0585 H   0  0  0  0  0  0  0  0  0  0  0  0  # atno 6909 bound_to 6896
  144.8328  139.6472  143.6051 H   0  0  0  0  0  0  0  0  0  0  0  0  # atno 7974 bound_to 7965
  155.8910  140.3439  155.5956 H   0  0  0  0  0  0  0  0  0  0  0  0  # atno 8008 bound_to 7997
  155.7611  140.0832  157.2174 H   0  0  0  0  0  0  0  0  0  0  0  0  # atno 8009 bound_to 7997
  154.4033  140.1535  156.2820 H   0  0  0  0  0  0  0  0  0  0  0  0  # atno 8010 bound_to 7997
  139.9161  143.6437  152.2564 H   0  0  0  0  0  0  0  0  0  0  0  0  # atno 10167 bound_to 10162
  157.4975  131.1093  150.9473 H   0  0  0  0  0  0  0  0  0  0  0  0  # atno 10718 bound_to 10713
  154.1780  135.6448  153.5026 H   0  0  0  0  0  0  0  0  0  0  0  0  # atno 10763 bound_to 10752
  153.0067  135.5399  154.6544 H   0  0  0  0  0  0  0  0  0  0  0  0  # atno 10764 bound_to 10752
  154.5901  135.2933  155.0617 H   0  0  0  0  0  0  0  0  0  0  0  0  # atno 10765 bound_to 10752
  140.2555  134.7943  157.3542 H   0  0  0  0  0  0  0  0  0  0  0  0  # atno 11005 bound_to 11000
  146.2630  139.6454  142.9349 LP  0  0  0  0  0  0  0  0  0  0  0  0  # atno 17320 bound_to 7965
  145.4858  141.0438  143.2620 LP  0  0  0  0  0  0  0  0  0  0  0  0  # atno 17321 bound_to 7965
  139.6901  144.7647  151.1453 LP  0  0  0  0  0  0  0  0  0  0  0  0  # atno 17342 bound_to 10162
  140.7674  143.5601  150.9108 LP  0  0  0  0  0  0  0  0  0  0  0  0  # atno 17343 bound_to 10162
  157.0155  130.5653  149.5325 LP  0  0  0  0  0  0  0  0  0  0  0  0  # atno 17370 bound_to 10713
  156.0209  130.5304  150.8272 LP  0  0  0  0  0  0  0  0  0  0  0  0  # atno 17371 bound_to 10713
  140.1515  134.4843  155.7957 LP  0  0  0  0  0  0  0  0  0  0  0  0  # atno 17394 bound_to 11000
  141.2196  133.6864  156.7387 LP  0  0  0  0  0  0  0  0  0  0  0  0  # atno 17395 bound_to 11000

$$$$
