AV-unprocessed.smi:85|AV-procd|sdf|810|dock5
  -GOLD-   2262017203D 1   1.00000     0.00000
 Structure written by MMmdl.
 62 65  0  0  0  0  0  0  0  0  1 V2000
  148.0491  135.3657  156.5347 C   0  0  0  0  0  0  0  0  0  0  0  0
  148.2322  134.9724  158.0102 C   0  0  0  0  0  0  0  0  0  0  0  0
  148.2493  136.1167  158.9239 N   0  0  0  0  0  0  0  0  0  0  0  0
  149.2310  137.0255  158.7003 C   0  0  0  0  0  0  0  0  0  0  0  0
  150.5022  136.6451  158.9829 N   0  0  0  0  0  0  0  0  0  0  0  0
  151.5155  137.4931  158.7864 C   0  0  0  0  0  0  0  0  0  0  0  0
  151.4790  138.7435  158.3223 N   0  0  0  0  0  0  0  0  0  0  0  0
  150.2025  139.1319  158.0395 C   0  0  0  0  0  0  0  0  0  0  0  0
  149.0268  138.3477  158.2098 C   0  0  0  0  0  0  0  0  0  0  0  0
  147.9101  139.0850  157.8342 N   0  0  0  0  0  0  0  0  0  0  0  0
  148.3983  140.2330  157.4536 C   0  0  0  0  0  0  0  0  0  0  0  0
  149.7690  140.3410  157.5226 N   0  0  0  0  0  0  0  0  0  0  0  0
  150.5682  141.4995  157.1493 C   0  0  0  0  0  0  0  0  0  0  0  0
  150.7448  142.5633  158.2744 C   0  0  0  0  0  0  0  0  0  0  0  0
  149.4090  142.7944  159.0381 C   0  0  0  0  0  0  0  0  0  0  0  0
  148.3980  143.3192  158.2010 O   0  0  0  0  0  0  0  0  0  0  0  0
  151.8638  142.0789  159.2302 C   0  0  0  0  0  0  0  0  0  0  0  0
  152.3316  143.1697  160.2098 C   0  0  0  0  0  0  0  0  0  0  0  0
  152.7705  144.3120  159.4867 O   0  0  0  0  0  0  0  0  0  0  0  0
  151.7369  144.9035  158.7107 C   0  0  0  0  0  0  0  0  0  0  0  0
  151.2242  143.9025  157.6590 C   0  0  0  0  0  0  0  0  0  0  0  0
  147.9241  135.8391  160.3317 C   0  0  2  0  0  0  0  0  0  0  0  0
  147.4575  134.3967  160.5976 C   0  0  0  0  0  0  0  0  0  0  0  0
  147.2175  134.1880  162.0985 C   0  0  0  0  0  0  0  0  0  0  0  0
  146.2622  135.1300  162.5847 O   0  0  0  0  0  0  0  0  0  0  0  0
  146.5936  136.5134  162.4226 C   0  0  0  0  0  0  0  0  0  0  0  0
  145.3370  137.2817  162.8645 C   0  0  0  0  0  0  0  0  0  0  0  0
  147.7699  136.9072  163.3418 C   0  0  0  0  0  0  0  0  0  0  0  0
  146.8837  136.8072  160.9313 C   0  0  0  0  0  0  0  0  0  0  0  0
  147.9709  134.4771  155.9083 H   0  0  0  0  0  0  0  0  0  0  0  0
  148.8881  135.9532  156.1613 H   0  0  0  0  0  0  0  0  0  0  0  0
  147.1394  135.9502  156.3956 H   0  0  0  0  0  0  0  0  0  0  0  0
  147.4102  134.3164  158.2981 H   0  0  0  0  0  0  0  0  0  0  0  0
  149.1410  134.3831  158.1259 H   0  0  0  0  0  0  0  0  0  0  0  0
  152.4963  137.1144  159.0334 H   0  0  0  0  0  0  0  0  0  0  0  0
  147.7676  141.0349  157.0984 H   0  0  0  0  0  0  0  0  0  0  0  0
  151.5427  141.1376  156.8190 H   0  0  0  0  0  0  0  0  0  0  0  0
  150.1111  141.9519  156.2682 H   0  0  0  0  0  0  0  0  0  0  0  0
  149.0275  141.8716  159.4714 H   0  0  0  0  0  0  0  0  0  0  0  0
  149.5523  143.4767  159.8760 H   0  0  0  0  0  0  0  0  0  0  0  0
  148.4557  144.2624  158.2168 H   0  0  0  0  0  0  0  0  0  0  0  0
  151.5442  141.1961  159.7849 H   0  0  0  0  0  0  0  0  0  0  0  0
  152.7276  141.7628  158.6439 H   0  0  0  0  0  0  0  0  0  0  0  0
  151.5447  143.4446  160.9125 H   0  0  0  0  0  0  0  0  0  0  0  0
  153.1640  142.7971  160.8069 H   0  0  0  0  0  0  0  0  0  0  0  0
  150.9330  145.2552  159.3579 H   0  0  0  0  0  0  0  0  0  0  0  0
  152.1403  145.7855  158.2128 H   0  0  0  0  0  0  0  0  0  0  0  0
  152.0370  143.7085  156.9579 H   0  0  0  0  0  0  0  0  0  0  0  0
  150.4264  144.3667  157.0787 H   0  0  0  0  0  0  0  0  0  0  0  0
  148.8597  135.9729  160.8746 H   0  0  0  0  0  0  0  0  0  0  0  0
  146.5294  134.1857  160.0648 H   0  0  0  0  0  0  0  0  0  0  0  0
  148.2002  133.6840  160.2375 H   0  0  0  0  0  0  0  0  0  0  0  0
  146.8296  133.1845  162.2739 H   0  0  0  0  0  0  0  0  0  0  0  0
  148.1511  134.2565  162.6566 H   0  0  0  0  0  0  0  0  0  0  0  0
  145.4740  138.3589  162.7633 H   0  0  0  0  0  0  0  0  0  0  0  0
  145.0938  137.0754  163.9072 H   0  0  0  0  0  0  0  0  0  0  0  0
  144.4695  137.0011  162.2659 H   0  0  0  0  0  0  0  0  0  0  0  0
  147.9626  137.9792  163.2891 H   0  0  0  0  0  0  0  0  0  0  0  0
  148.6991  136.4041  163.0794 H   0  0  0  0  0  0  0  0  0  0  0  0
  147.5514  136.6648  164.3822 H   0  0  0  0  0  0  0  0  0  0  0  0
  147.2062  137.8423  160.8148 H   0  0  0  0  0  0  0  0  0  0  0  0
  145.9510  136.7116  160.3757 H   0  0  0  0  0  0  0  0  0  0  0  0
  1  2  1  0  0  0  0
  1 30  1  0  0  0  0
  1 31  1  0  0  0  0
  1 32  1  0  0  0  0
  2  3  1  0  0  0  0
  2 33  1  0  0  0  0
  2 34  1  0  0  0  0
  3  4  1  0  0  0  0
  3 22  1  0  0  0  0
  4  9  1  0  0  0  0
  4  5  2  0  0  0  0
  5  6  1  0  0  0  0
  6  7  2  0  0  0  0
  6 35  1  0  0  0  0
  7  8  1  0  0  0  0
  8 12  1  0  0  0  0
  8  9  2  0  0  0  0
  9 10  1  0  0  0  0
 10 11  2  0  0  0  0
 11 12  1  0  0  0  0
 11 36  1  0  0  0  0
 12 13  1  0  0  0  0
 13 14  1  0  0  0  0
 13 37  1  0  0  0  0
 13 38  1  0  0  0  0
 14 21  1  0  0  0  0
 14 15  1  0  0  0  0
 14 17  1  0  0  0  0
 15 16  1  0  0  0  0
 15 39  1  0  0  0  0
 15 40  1  0  0  0  0
 16 41  1  0  0  0  0
 17 18  1  0  0  0  0
 17 42  1  0  0  0  0
 17 43  1  0  0  0  0
 18 19  1  0  0  0  0
 18 44  1  0  0  0  0
 18 45  1  0  0  0  0
 19 20  1  0  0  0  0
 20 21  1  0  0  0  0
 20 46  1  0  0  0  0
 20 47  1  0  0  0  0
 21 48  1  0  0  0  0
 21 49  1  0  0  0  0
 22 29  1  0  0  0  0
 22 23  1  0  0  0  0
 22 50  1  0  0  0  0
 23 24  1  0  0  0  0
 23 51  1  0  0  0  0
 23 52  1  0  0  0  0
 24 25  1  0  0  0  0
 24 53  1  0  0  0  0
 24 54  1  0  0  0  0
 25 26  1  0  0  0  0
 26 27  1  0  0  0  0
 26 28  1  0  0  0  0
 26 29  1  0  0  0  0
 27 55  1  0  0  0  0
 27 56  1  0  0  0  0
 27 57  1  0  0  0  0
 28 58  1  0  0  0  0
 28 59  1  0  0  0  0
 28 60  1  0  0  0  0
 29 61  1  0  0  0  0
 29 62  1  0  0  0  0
M  END
> <s_m_source_file>
AV-unprocessed.smi

> <i_m_source_file_index>
85

> <i_lp_mmshare_version>
43012

> <i_f3d_flags>
0

> <s_epik_input>
W0NIM11DMShbQ0gzXSlPW0NIMl1bQ0gyXVtDQEhdKFtDSDJdMSlOKFtDSDJdW0NIM10pYyhuW2NIXW4yKWMoYzIzKW5bY0hdbjNbQ0gyXUM0KFtDSDJdW09IXSlbQ0gyXVtDSDJdT1tDSDJdW0NIMl00

> <s_epik_cmdline>
J2VwaWtfcHl0aG9uJywgJy1waCcsICc3LjAnLCAnLXRuJywgJzgnLCAnLW1hJywgJzIwMCcsICctbWV0YWxfYmluZGluZycsICctaW1hZScsICc8aW5maWxlLm1hZT4nLCAnLW9tYWUnLCAnPG91dGZpbGUubWFlPic=

> <r_lp_tautomer_probability>
1

> <r_epik_Ionization_Penalty>
0.00336056

> <r_epik_Ionization_Penalty_Charging>
0

> <r_epik_Ionization_Penalty_Neutral>
0.00336056

> <r_epik_State_Penalty>
0.00222191

> <r_epik_Charging_Adjusted_Penalty>
0.00222191

> <i_epik_Tot_Q>
0

> <i_epik_Tot_abs_Q>
0

> <r_epik_Metal_State_Penalty>
-0

> <b_epik_Metal_Only>
0

> <s_lp_Force_Field>
OPLS_2005

> <r_lp_Energy>
35.7443

> <b_lp_Chiralities_Consistent>
1

> <s_lp_Variant>
AV-unprocessed.smi:85-1

> <Gold.Version>
5.8.1

> <Gold.Id.Protein>
6NUR|6NUR_protein|mol2

> <Gold.PLP.Fitness>
47.4628

> <Gold.PLP.PLP>
-45.3723

> <Gold.PLP.part.hbond>
-3.0000

> <Gold.PLP.part.metal>
0.0000

> <Gold.PLP.part.buried>
-2.6875

> <Gold.PLP.part.nonpolar>
-40.3108

> <Gold.PLP.part.repulsive>
0.0112

> <Gold.PLP.ligand.clash>
0.0000

> <Gold.PLP.ligand.torsion>
2.0116

> <Gold.PLP.Chemscore.Hbond>
1.7500

> <Gold.PLP.Chemscore.CHOScore>
0.0000

> <Gold.PLP.Chemscore.Metal>
0.0000

> <Gold.Chemscore.Hbonds>
donor molecule, donor type, donor heavy atom, donor atom, acceptor molecule, acceptor atom, score
      L1  H    16    41       P1  8029  0.86
      P1  H  6896  6908       L1     5  1.00

> <Gold.PLP.Chemscore.Internal.Correction>
0.8637

> <Gold.Rescore>
     Score         DG    S(hbond)    S(metal)    S(lipo)     H(rot)  DE(clash)    DE(int)     intcor
     14.55     -17.60       1.42        0.00     120.98       2.65       1.18       1.86       ----

> <Gold.Chemscore.Fitness>
14.5531

> <Gold.Chemscore.DG>
-17.5952

> <Gold.Chemscore.ZeroCoef>
-5.4800

> <Gold.Chemscore.Hbond>
1.4180

> <Gold.Chemscore.Metal>
0.0000

> <Gold.Chemscore.Lipo>
120.9844

> <Gold.Chemscore.Internal_Hbond>
0.0000

> <Gold.Chemscore.DEClash>
1.1803

> <Gold.Chemscore.DEInternal>
1.8618

> <Gold.Chemscore.Rot>
2.6469

> <Gold.Chemscore.Internal.Correction>
   9.000000E+99

> <Gold.Chemscore.Hbonds>
donor molecule, donor type, donor heavy atom, donor atom, acceptor molecule, acceptor atom, score
      L1  H    16    41       P1  8029  0.25
      P1  H  6896  6908       L1     5  0.91

> <Gold.Chemscore.Hbond.Weighted>
-4.7361

> <Gold.Chemscore.Metal.Weighted>
-0.0000

> <Gold.Chemscore.Lipo.Weighted>
-14.1552

> <Gold.Chemscore.Internal_Hbond.Weighted>
0.0000

> <Gold.Chemscore.DEClash.Weighted>
1.1803

> <Gold.Chemscore.DEInternal.Weighted>
1.8618

> <Gold.Chemscore.Rot.Weighted>
6.7761

> <Gold.Chemscore.Internal.Correction.Weighted>
   9.000000E+99

> <Gold.Protein.RotatedTorsions>
[ 6907 6896 6895 6894 ] final -161.67 input  -60.11 | X-H torsion
[ 7974 7965 7964 7962 ] final -123.54 input  175.53 | X-H torsion
[ 8008 7997 7996 7995 ] final  -27.15 input   59.86 | X-H torsion
[ 10167 10162 10161 10158 ] final   94.84 input  -65.29 | X-H torsion
[ 10718 10713 10712 10709 ] final  -74.17 input   66.30 | X-H torsion
[ 10763 10752 10751 10750 ] final  176.68 input  -60.55 | X-H torsion
[ 11005 11000 10999 10996 ] final  149.77 input  -57.11 | X-H torsion

> <Gold.Protein.ActiveResidues>
 VAL166  LYS551  ARG553  GLY616  TRP617  ASP618  TYR619  PRO620  LYS621  CYS622 
 ASP623  PHE694  ASN695  SER759  ASP760  ASP761  ALA762  ILE779  LEU786  VAL792 
 PHE793  MET794  SER795  GLU796  ALA797  LYS798  CYS799  TRP800  GLU811  SER814 

> <Gold.Protein.RotatedAtoms>
  151.3683  133.3864  159.2696 H   0  0  0  0  0  0  0  0  0  0  0  0  # atno 6907 bound_to 6896
  150.9671  134.9051  159.7776 H   0  0  0  0  0  0  0  0  0  0  0  0  # atno 6908 bound_to 6896
  152.5171  134.3644  159.9348 H   0  0  0  0  0  0  0  0  0  0  0  0  # atno 6909 bound_to 6896
  145.0176  140.7960  143.4400 H   0  0  0  0  0  0  0  0  0  0  0  0  # atno 7974 bound_to 7965
  154.4391  140.1880  156.0887 H   0  0  0  0  0  0  0  0  0  0  0  0  # atno 8008 bound_to 7997
  156.0383  140.3323  155.7189 H   0  0  0  0  0  0  0  0  0  0  0  0  # atno 8009 bound_to 7997
  155.5738  140.0615  157.2791 H   0  0  0  0  0  0  0  0  0  0  0  0  # atno 8010 bound_to 7997
  139.8045  144.6800  150.9721 H   0  0  0  0  0  0  0  0  0  0  0  0  # atno 10167 bound_to 10162
  156.0252  130.4411  150.2852 H   0  0  0  0  0  0  0  0  0  0  0  0  # atno 10718 bound_to 10713
  154.4843  135.2776  155.1546 H   0  0  0  0  0  0  0  0  0  0  0  0  # atno 10763 bound_to 10752
  154.3243  135.6203  153.5526 H   0  0  0  0  0  0  0  0  0  0  0  0  # atno 10764 bound_to 10752
  152.9879  135.5750  154.5251 H   0  0  0  0  0  0  0  0  0  0  0  0  # atno 10765 bound_to 10752
  140.1073  134.8946  157.1885 H   0  0  0  0  0  0  0  0  0  0  0  0  # atno 11005 bound_to 11000
  145.1939  139.2287  143.5228 LP  0  0  0  0  0  0  0  0  0  0  0  0  # atno 17320 bound_to 7965
  146.3480  140.1741  142.8589 LP  0  0  0  0  0  0  0  0  0  0  0  0  # atno 17321 bound_to 7965
  140.7819  143.4247  151.0786 LP  0  0  0  0  0  0  0  0  0  0  0  0  # atno 17342 bound_to 10162
  139.7917  143.8208  152.3152 LP  0  0  0  0  0  0  0  0  0  0  0  0  # atno 17343 bound_to 10162
  157.0956  131.0181  151.3105 LP  0  0  0  0  0  0  0  0  0  0  0  0  # atno 17370 bound_to 10713
  157.4820  130.7771  149.7423 LP  0  0  0  0  0  0  0  0  0  0  0  0  # atno 17371 bound_to 10713
  140.3138  134.2993  155.7261 LP  0  0  0  0  0  0  0  0  0  0  0  0  # atno 17394 bound_to 11000
  141.2121  133.7667  156.9814 LP  0  0  0  0  0  0  0  0  0  0  0  0  # atno 17395 bound_to 11000

$$$$
