AV-unprocessed.smi:2229|AV-procd|sdf|9031|dock9
  -GOLD-   2272012233D 1   1.00000     0.00000
 Structure written by MMmdl.
 43 44  0  0  0  0  0  0  0  0  2 V2000
  152.4098  144.4182  157.7240 C   0  0  0  0  0  0  0  0  0  0  0  0
  151.7587  143.5203  158.7869 C   0  0  0  0  0  0  0  0  0  0  0  0
  152.6117  143.5072  160.0682 C   0  0  0  0  0  0  0  0  0  0  0  0
  151.5167  142.1030  158.2280 C   0  0  0  0  0  0  0  0  0  0  0  0
  150.6868  142.0747  156.9327 C   0  0  0  0  0  0  0  0  0  0  0  0
  150.4126  140.6502  156.4161 C   0  0  2  0  0  0  0  0  0  0  0  0
  151.6197  139.7092  156.4376 C   0  0  0  0  0  0  0  0  0  0  0  0
  151.2162  138.5805  155.4925 C   0  0  0  0  0  0  0  0  0  0  0  0
  150.4175  139.2648  154.3784 C   0  0  0  0  0  0  0  0  0  0  0  0
  149.9180  140.6035  154.9559 C   0  0  1  0  0  0  0  0  0  0  0  0
  148.4619  140.6950  154.9002 N   0  0  0  0  0  0  0  0  0  0  0  0
  147.7718  141.7830  154.5261 C   0  0  0  0  0  0  0  0  0  0  0  0
  148.3002  142.8026  154.0810 O   0  0  0  0  0  0  0  0  0  0  0  0
  146.2484  141.7008  154.6715 C   0  0  0  0  0  0  0  0  0  0  0  0
  145.7031  142.8069  155.4630 N   0  0  0  0  0  0  0  0  0  0  0  0
  144.6949  143.6219  155.0132 C   0  0  0  0  0  0  0  0  0  0  0  0
  144.3940  144.5045  155.8969 N   0  0  0  0  0  0  0  0  0  0  0  0
  145.2563  144.2695  157.0151 N   0  5  0  0  0  0  0  0  0  0  0  0
  146.0372  143.2159  156.6891 C   0  0  0  0  0  0  0  0  0  0  0  0
  146.9172  142.6805  157.3626 O   0  0  0  0  0  0  0  0  0  0  0  0
  153.3873  144.0361  157.4277 H   0  0  0  0  0  0  0  0  0  0  0  0
  152.5486  145.4333  158.0970 H   0  0  0  0  0  0  0  0  0  0  0  0
  151.7913  144.4814  156.8282 H   0  0  0  0  0  0  0  0  0  0  0  0
  150.7905  143.9595  159.0314 H   0  0  0  0  0  0  0  0  0  0  0  0
  153.5764  143.0283  159.8976 H   0  0  0  0  0  0  0  0  0  0  0  0
  152.1177  142.9765  160.8814 H   0  0  0  0  0  0  0  0  0  0  0  0
  152.8044  144.5205  160.4210 H   0  0  0  0  0  0  0  0  0  0  0  0
  152.4793  141.6307  158.0284 H   0  0  0  0  0  0  0  0  0  0  0  0
  151.0331  141.4909  158.9905 H   0  0  0  0  0  0  0  0  0  0  0  0
  149.7284  142.5587  157.1134 H   0  0  0  0  0  0  0  0  0  0  0  0
  151.1834  142.6633  156.1606 H   0  0  0  0  0  0  0  0  0  0  0  0
  149.6460  140.1996  157.0500 H   0  0  0  0  0  0  0  0  0  0  0  0
  152.5028  140.2190  156.0496 H   0  0  0  0  0  0  0  0  0  0  0  0
  151.8531  139.3468  157.4392 H   0  0  0  0  0  0  0  0  0  0  0  0
  152.0739  138.0245  155.1130 H   0  0  0  0  0  0  0  0  0  0  0  0
  150.5731  137.8765  156.0222 H   0  0  0  0  0  0  0  0  0  0  0  0
  151.0639  139.4569  153.5213 H   0  0  0  0  0  0  0  0  0  0  0  0
  149.6075  138.6233  154.0280 H   0  0  0  0  0  0  0  0  0  0  0  0
  150.3802  141.4089  154.3815 H   0  0  0  0  0  0  0  0  0  0  0  0
  147.9417  139.9001  155.2420 H   0  0  0  0  0  0  0  0  0  0  0  0
  145.8069  141.6792  153.6740 H   0  0  0  0  0  0  0  0  0  0  0  0
  145.9703  140.7612  155.1523 H   0  0  0  0  0  0  0  0  0  0  0  0
  144.2644  143.4696  154.0222 H   0  0  0  0  0  0  0  0  0  0  0  0
  1  2  1  0  0  0  0
  1 21  1  0  0  0  0
  1 22  1  0  0  0  0
  1 23  1  0  0  0  0
  2  3  1  0  0  0  0
  2  4  1  0  0  0  0
  2 24  1  0  0  0  0
  3 25  1  0  0  0  0
  3 26  1  0  0  0  0
  3 27  1  0  0  0  0
  4  5  1  0  0  0  0
  4 28  1  0  0  0  0
  4 29  1  0  0  0  0
  5  6  1  0  0  0  0
  5 30  1  0  0  0  0
  5 31  1  0  0  0  0
  6 10  1  0  0  0  0
  6  7  1  0  0  0  0
  6 32  1  0  0  0  0
  7  8  1  0  0  0  0
  7 33  1  0  0  0  0
  7 34  1  0  0  0  0
  8  9  1  0  0  0  0
  8 35  1  0  0  0  0
  8 36  1  0  0  0  0
  9 10  1  0  0  0  0
  9 37  1  0  0  0  0
  9 38  1  0  0  0  0
 10 11  1  0  0  0  0
 10 39  1  0  0  0  0
 11 12  1  0  0  0  0
 11 40  1  0  0  0  0
 12 13  2  0  0  0  0
 12 14  1  0  0  0  0
 14 15  1  0  0  0  0
 14 41  1  0  0  0  0
 14 42  1  0  0  0  0
 15 19  1  0  0  0  0
 15 16  1  0  0  0  0
 16 17  2  0  0  0  0
 16 43  1  0  0  0  0
 17 18  1  0  0  0  0
 18 19  1  0  0  0  0
 19 20  2  0  0  0  0
M  CHG  1  18  -1
M  END
> <s_m_source_file>
AV-unprocessed.smi

> <i_m_source_file_index>
2229

> <i_lp_mmshare_version>
43012

> <i_f3d_flags>
0

> <s_epik_input>
W0NIM11bQ0hdKFtDSDNdKVtDSDJdW0NIMl1bQ0BASF0xW0NIMl1bQ0gyXVtDSDJdW0NASF0xW05IXUMoPU8pW0NIMl1uMltjSF1uW25IXWMyPU8=

> <s_epik_cmdline>
J2VwaWtfcHl0aG9uJywgJy1waCcsICc3LjAnLCAnLXRuJywgJzgnLCAnLW1hJywgJzIwMCcsICctbWV0YWxfYmluZGluZycsICctaW1hZScsICc8aW5maWxlLm1hZT4nLCAnLW9tYWUnLCAnPG91dGZpbGUubWFlPic=

> <r_lp_tautomer_probability>
1

> <r_epik_Ionization_Penalty>
13.6733

> <r_epik_Ionization_Penalty_Charging>
13.6725

> <r_epik_Ionization_Penalty_Neutral>
0.000837689

> <r_epik_State_Penalty>
5.67062

> <r_epik_Charging_Adjusted_Penalty>
19.3431

> <i_epik_Tot_Q>
-1

> <i_epik_Tot_abs_Q>
1

> <r_epik_Metal_State_Penalty>
1.61781

> <b_epik_Metal_Only>
1

> <s_lp_Force_Field>
OPLS_2005

> <r_lp_Energy>
25.828

> <b_lp_Chiralities_Consistent>
1

> <s_lp_Variant>
AV-unprocessed.smi:2229-5

> <Gold.Version>
5.8.1

> <Gold.Id.Protein>
6NUR|6NUR_protein|mol2

> <Gold.PLP.Fitness>
39.4925

> <Gold.PLP.PLP>
-34.3282

> <Gold.PLP.part.hbond>
-2.0000

> <Gold.PLP.part.metal>
0.0000

> <Gold.PLP.part.buried>
-3.5729

> <Gold.PLP.part.nonpolar>
-33.4303

> <Gold.PLP.part.repulsive>
4.5686

> <Gold.PLP.ligand.clash>
0.0000

> <Gold.PLP.ligand.torsion>
0.3953

> <Gold.PLP.Chemscore.Hbond>
1.0000

> <Gold.PLP.Chemscore.CHOScore>
0.9731

> <Gold.PLP.Chemscore.Metal>
0.0000

> <Gold.Chemscore.Hbonds>
donor molecule, donor type, donor heavy atom, donor atom, acceptor molecule, acceptor atom, score
      P1  H  8022  8030       L1    13  1.00
      L1  C    16    43       P1 10174  0.69

> <Gold.PLP.Chemscore.Internal.Correction>
0.0355

> <Gold.Rescore>
     Score         DG    S(hbond)    S(metal)    S(lipo)     H(rot)  DE(clash)    DE(int)     intcor
     10.02     -12.50       0.83        0.00      93.08       2.59       1.76       0.72       ----

> <Gold.Chemscore.Fitness>
10.0200

> <Gold.Chemscore.DG>
-12.4987

> <Gold.Chemscore.ZeroCoef>
-5.4800

> <Gold.Chemscore.Hbond>
0.8291

> <Gold.Chemscore.Metal>
0.0000

> <Gold.Chemscore.Lipo>
93.0766

> <Gold.Chemscore.Internal_Hbond>
0.0000

> <Gold.Chemscore.DEClash>
1.7596

> <Gold.Chemscore.DEInternal>
0.7192

> <Gold.Chemscore.Rot>
2.5939

> <Gold.Chemscore.Internal.Correction>
   9.000000E+99

> <Gold.Chemscore.Hbonds>
donor molecule, donor type, donor heavy atom, donor atom, acceptor molecule, acceptor atom, score
      P1  H  8011  8017       L1    13  0.02
      P1  H  8022  8030       L1    13  0.88

> <Gold.Chemscore.Hbond.Weighted>
-2.7692

> <Gold.Chemscore.Metal.Weighted>
-0.0000

> <Gold.Chemscore.Lipo.Weighted>
-10.8900

> <Gold.Chemscore.Internal_Hbond.Weighted>
0.0000

> <Gold.Chemscore.DEClash.Weighted>
1.7596

> <Gold.Chemscore.DEInternal.Weighted>
0.7192

> <Gold.Chemscore.Rot.Weighted>
6.6405

> <Gold.Chemscore.Internal.Correction.Weighted>
   9.000000E+99

> <Gold.Protein.RotatedTorsions>
[ 6907 6896 6895 6894 ] final -162.68 input  -60.11 | X-H torsion
[ 7974 7965 7964 7962 ] final   95.79 input  175.53 | X-H torsion
[ 8008 7997 7996 7995 ] final -107.92 input   59.86 | X-H torsion
[ 10167 10162 10161 10158 ] final  -76.90 input  -65.29 | X-H torsion
[ 10718 10713 10712 10709 ] final -100.51 input   66.30 | X-H torsion
[ 10763 10752 10751 10750 ] final  149.91 input  -60.55 | X-H torsion
[ 11005 11000 10999 10996 ] final  -80.34 input  -57.11 | X-H torsion

> <Gold.Protein.ActiveResidues>
 VAL166  LYS551  ARG553  GLY616  TRP617  ASP618  TYR619  PRO620  LYS621  CYS622 
 ASP623  PHE694  ASN695  SER759  ASP760  ASP761  ALA762  ILE779  LEU786  VAL792 
 PHE793  MET794  SER795  GLU796  ALA797  LYS798  CYS799  TRP800  GLU811  SER814 

> <Gold.Protein.RotatedAtoms>
  151.3841  133.3811  159.2713 H   0  0  0  0  0  0  0  0  0  0  0  0  # atno 6907 bound_to 6896
  150.9555  134.8950  159.7709 H   0  0  0  0  0  0  0  0  0  0  0  0  # atno 6908 bound_to 6896
  152.5129  134.3798  159.9399 H   0  0  0  0  0  0  0  0  0  0  0  0  # atno 6909 bound_to 6896
  145.4475  139.2296  143.3058 H   0  0  0  0  0  0  0  0  0  0  0  0  # atno 7974 bound_to 7965
  154.9365  140.0404  157.2075 H   0  0  0  0  0  0  0  0  0  0  0  0  # atno 8008 bound_to 7997
  154.8110  140.2868  155.5831 H   0  0  0  0  0  0  0  0  0  0  0  0  # atno 8009 bound_to 7997
  156.2971  140.2537  156.2998 H   0  0  0  0  0  0  0  0  0  0  0  0  # atno 8010 bound_to 7997
  140.4816  143.2401  151.8048 H   0  0  0  0  0  0  0  0  0  0  0  0  # atno 10167 bound_to 10162
  156.0165  130.5331  150.6828 H   0  0  0  0  0  0  0  0  0  0  0  0  # atno 10718 bound_to 10713
  154.0789  135.2861  155.3294 H   0  0  0  0  0  0  0  0  0  0  0  0  # atno 10763 bound_to 10752
  154.6697  135.5304  153.8126 H   0  0  0  0  0  0  0  0  0  0  0  0  # atno 10764 bound_to 10752
  153.0456  135.6554  154.0965 H   0  0  0  0  0  0  0  0  0  0  0  0  # atno 10765 bound_to 10752
  141.1668  133.7146  156.8258 H   0  0  0  0  0  0  0  0  0  0  0  0  # atno 11005 bound_to 11000
  146.2523  140.5230  142.8888 LP  0  0  0  0  0  0  0  0  0  0  0  0  # atno 17320 bound_to 7965
  144.8082  140.6339  143.6432 LP  0  0  0  0  0  0  0  0  0  0  0  0  # atno 17321 bound_to 7965
  139.4834  144.4764  151.9361 LP  0  0  0  0  0  0  0  0  0  0  0  0  # atno 17342 bound_to 10162
  140.3850  144.2688  150.5905 LP  0  0  0  0  0  0  0  0  0  0  0  0  # atno 17343 bound_to 10162
  157.4526  131.0874  151.0830 LP  0  0  0  0  0  0  0  0  0  0  0  0  # atno 17370 bound_to 10713
  157.1341  130.6115  149.5537 LP  0  0  0  0  0  0  0  0  0  0  0  0  # atno 17371 bound_to 10713
  140.2086  134.8844  157.3249 LP  0  0  0  0  0  0  0  0  0  0  0  0  # atno 17394 bound_to 11000
  140.2111  134.4138  155.7612 LP  0  0  0  0  0  0  0  0  0  0  0  0  # atno 17395 bound_to 11000

$$$$
