AV-unprocessed.smi:915|AV-procd|sdf|4157|dock10
  -GOLD-   22720 2 63D 1   1.00000     0.00000
 Structure written by MMmdl.
 33 34  0  0  0  0  0  0  0  0  2 V2000
  152.4251  144.6863  158.6345 C   0  0  0  0  0  0  0  0  0  0  0  0
  151.7700  143.8737  159.7570 C   0  0  0  0  0  0  0  0  0  0  0  0
  152.6282  142.7307  160.2072 C   0  0  0  0  0  0  0  0  0  0  0  0
  153.0505  142.4661  161.4824 C   0  0  0  0  0  0  0  0  0  0  0  0
  154.0365  141.0344  161.5452 S   0  0  0  0  0  0  0  0  0  0  0  0
  153.8511  140.8241  159.8023 C   0  0  0  0  0  0  0  0  0  0  0  0
  154.4307  139.7996  159.1377 N   0  5  0  0  0  0  0  0  0  0  0  0
  154.9703  138.6949  159.7135 C   0  0  0  0  0  0  0  0  0  0  0  0
  156.1373  138.5299  160.0748 O   0  0  0  0  0  0  0  0  0  0  0  0
  154.0852  137.7041  159.8840 N   0  0  0  0  0  0  0  0  0  0  0  0
  154.3793  136.4081  160.4832 C   0  0  0  0  0  0  0  0  0  0  0  0
  154.7818  136.5576  161.9591 C   0  0  1  0  0  0  0  0  0  0  0  0
  153.6694  137.1756  162.8171 C   0  0  0  0  0  0  0  0  0  0  0  0
  153.9456  136.7723  164.2659 C   0  0  0  0  0  0  0  0  0  0  0  0
  154.2773  135.2804  164.2402 C   0  0  0  0  0  0  0  0  0  0  0  0
  155.2160  134.9662  162.7245 S   0  0  0  0  0  0  0  0  0  0  0  0
  153.0870  141.7957  159.2774 N   0  0  0  0  0  0  0  0  0  0  0  0
  151.7818  145.5097  158.3246 H   0  0  0  0  0  0  0  0  0  0  0  0
  152.6153  144.0645  157.7590 H   0  0  0  0  0  0  0  0  0  0  0  0
  153.3762  145.1093  158.9590 H   0  0  0  0  0  0  0  0  0  0  0  0
  151.5550  144.5339  160.5978 H   0  0  0  0  0  0  0  0  0  0  0  0
  150.8041  143.5010  159.4146 H   0  0  0  0  0  0  0  0  0  0  0  0
  152.8451  143.0221  162.3845 H   0  0  0  0  0  0  0  0  0  0  0  0
  153.1351  137.8676  159.5845 H   0  0  0  0  0  0  0  0  0  0  0  0
  153.4939  135.7754  160.4041 H   0  0  0  0  0  0  0  0  0  0  0  0
  155.1760  135.9178  159.9214 H   0  0  0  0  0  0  0  0  0  0  0  0
  155.6633  137.1961  162.0332 H   0  0  0  0  0  0  0  0  0  0  0  0
  153.6254  138.2588  162.6994 H   0  0  0  0  0  0  0  0  0  0  0  0
  152.6995  136.7785  162.5143 H   0  0  0  0  0  0  0  0  0  0  0  0
  154.8013  137.3327  164.6448 H   0  0  0  0  0  0  0  0  0  0  0  0
  153.0993  136.9878  164.9185 H   0  0  0  0  0  0  0  0  0  0  0  0
  154.8360  134.9653  165.1217 H   0  0  0  0  0  0  0  0  0  0  0  0
  153.3589  134.6939  164.1988 H   0  0  0  0  0  0  0  0  0  0  0  0
  1  2  1  0  0  0  0
  1 18  1  0  0  0  0
  1 19  1  0  0  0  0
  1 20  1  0  0  0  0
  2  3  1  0  0  0  0
  2 21  1  0  0  0  0
  2 22  1  0  0  0  0
  3 17  1  0  0  0  0
  3  4  2  0  0  0  0
  4  5  1  0  0  0  0
  4 23  1  0  0  0  0
  5  6  1  0  0  0  0
  6  7  1  0  0  0  0
  6 17  2  0  0  0  0
  7  8  1  0  0  0  0
  8  9  2  0  0  0  0
  8 10  1  0  0  0  0
 10 11  1  0  0  0  0
 10 24  1  0  0  0  0
 11 12  1  0  0  0  0
 11 25  1  0  0  0  0
 11 26  1  0  0  0  0
 12 16  1  0  0  0  0
 12 13  1  0  0  0  0
 12 27  1  0  0  0  0
 13 14  1  0  0  0  0
 13 28  1  0  0  0  0
 13 29  1  0  0  0  0
 14 15  1  0  0  0  0
 14 30  1  0  0  0  0
 14 31  1  0  0  0  0
 15 16  1  0  0  0  0
 15 32  1  0  0  0  0
 15 33  1  0  0  0  0
M  CHG  1   7  -1
M  END
> <s_m_source_file>
AV-unprocessed.smi

> <i_m_source_file_index>
915

> <i_lp_mmshare_version>
43012

> <i_f3d_flags>
0

> <s_epik_input>
W0NIM11bQ0gyXWMxW2NIXXNjKG4xKVtOSF1DKD1PKVtOSF1bQ0gyXVtDQEBIXTJbQ0gyXVtDSDJdW0NIMl1TMg==

> <s_epik_cmdline>
J2VwaWtfcHl0aG9uJywgJy1waCcsICc3LjAnLCAnLXRuJywgJzgnLCAnLW1hJywgJzIwMCcsICctbWV0YWxfYmluZGluZycsICctaW1hZScsICc8aW5maWxlLm1hZT4nLCAnLW9tYWUnLCAnPG91dGZpbGUubWFlPic=

> <r_lp_tautomer_probability>
0.999

> <r_epik_Ionization_Penalty>
8.73043

> <r_epik_Ionization_Penalty_Charging>
6.79141

> <r_epik_Ionization_Penalty_Neutral>
1.93902

> <r_epik_State_Penalty>
6.79158

> <r_epik_Charging_Adjusted_Penalty>
13.583

> <i_epik_Tot_Q>
-1

> <i_epik_Tot_abs_Q>
1

> <r_epik_Metal_State_Penalty>
2.71141

> <b_epik_Metal_Only>
1

> <s_lp_Force_Field>
OPLS_2005

> <r_lp_Energy>
9.1846

> <b_lp_Chiralities_Consistent>
1

> <s_lp_Variant>
AV-unprocessed.smi:915-4

> <Gold.Version>
5.8.1

> <Gold.Id.Protein>
6NUR|6NUR_protein|mol2

> <Gold.PLP.Fitness>
45.2124

> <Gold.PLP.PLP>
-40.8732

> <Gold.PLP.part.hbond>
-1.0000

> <Gold.PLP.part.metal>
0.0000

> <Gold.PLP.part.buried>
-4.3253

> <Gold.PLP.part.nonpolar>
-35.2426

> <Gold.PLP.part.repulsive>
0.0598

> <Gold.PLP.ligand.clash>
0.0000

> <Gold.PLP.ligand.torsion>
0.8313

> <Gold.PLP.Chemscore.Hbond>
2.0000

> <Gold.PLP.Chemscore.CHOScore>
0.0000

> <Gold.PLP.Chemscore.Metal>
0.0000

> <Gold.Chemscore.Hbonds>
donor molecule, donor type, donor heavy atom, donor atom, acceptor molecule, acceptor atom, score
      P1  H  7997  8008       L1     7  2.00

> <Gold.PLP.Chemscore.Internal.Correction>
0.0018

> <Gold.Rescore>
     Score         DG    S(hbond)    S(metal)    S(lipo)     H(rot)  DE(clash)    DE(int)     intcor
     16.40     -17.26       0.87        0.00     105.04       1.33       0.02       0.84       ----

> <Gold.Chemscore.Fitness>
16.4009

> <Gold.Chemscore.DG>
-17.2634

> <Gold.Chemscore.ZeroCoef>
-5.4800

> <Gold.Chemscore.Hbond>
0.8681

> <Gold.Chemscore.Metal>
0.0000

> <Gold.Chemscore.Lipo>
105.0424

> <Gold.Chemscore.Internal_Hbond>
0.0000

> <Gold.Chemscore.DEClash>
0.0224

> <Gold.Chemscore.DEInternal>
0.8402

> <Gold.Chemscore.Rot>
1.3305

> <Gold.Chemscore.Internal.Correction>
   9.000000E+99

> <Gold.Chemscore.Hbonds>
donor molecule, donor type, donor heavy atom, donor atom, acceptor molecule, acceptor atom, score
      P1  H  7997  8008       L1     7  0.72

> <Gold.Chemscore.Hbond.Weighted>
-2.8995

> <Gold.Chemscore.Metal.Weighted>
-0.0000

> <Gold.Chemscore.Lipo.Weighted>
-12.2900

> <Gold.Chemscore.Internal_Hbond.Weighted>
0.0000

> <Gold.Chemscore.DEClash.Weighted>
0.0224

> <Gold.Chemscore.DEInternal.Weighted>
0.8402

> <Gold.Chemscore.Rot.Weighted>
3.4060

> <Gold.Chemscore.Internal.Correction.Weighted>
   9.000000E+99

> <Gold.Protein.RotatedTorsions>
[ 6907 6896 6895 6894 ] final    8.15 input  -60.11 | X-H torsion
[ 7974 7965 7964 7962 ] final -161.13 input  175.53 | X-H torsion
[ 8008 7997 7996 7995 ] final -122.95 input   59.86 | X-H torsion
[ 10167 10162 10161 10158 ] final  134.34 input  -65.29 | X-H torsion
[ 10718 10713 10712 10709 ] final  -43.45 input   66.30 | X-H torsion
[ 10763 10752 10751 10750 ] final  -69.48 input  -60.55 | X-H torsion
[ 11005 11000 10999 10996 ] final   72.49 input  -57.11 | X-H torsion

> <Gold.Protein.ActiveResidues>
 VAL166  LYS551  ARG553  GLY616  TRP617  ASP618  TYR619  PRO620  LYS621  CYS622 
 ASP623  PHE694  ASN695  SER759  ASP760  ASP761  ALA762  ILE779  LEU786  VAL792 
 PHE793  MET794  SER795  GLU796  ALA797  LYS798  CYS799  TRP800  GLU811  SER814 

> <Gold.Protein.RotatedAtoms>
  151.7014  135.0929  160.0251 H   0  0  0  0  0  0  0  0  0  0  0  0  # atno 6907 bound_to 6896
  152.3718  133.6424  159.6101 H   0  0  0  0  0  0  0  0  0  0  0  0  # atno 6908 bound_to 6896
  150.7679  133.9174  159.3429 H   0  0  0  0  0  0  0  0  0  0  0  0  # atno 6909 bound_to 6896
  144.7402  140.3442  143.6128 H   0  0  0  0  0  0  0  0  0  0  0  0  # atno 7974 bound_to 7965
  155.1726  140.0408  157.2866 H   0  0  0  0  0  0  0  0  0  0  0  0  # atno 8008 bound_to 7997
  154.6259  140.2512  155.7465 H   0  0  0  0  0  0  0  0  0  0  0  0  # atno 8009 bound_to 7997
  156.2459  140.2885  156.0589 H   0  0  0  0  0  0  0  0  0  0  0  0  # atno 8010 bound_to 7997
  139.5260  144.6572  151.5125 H   0  0  0  0  0  0  0  0  0  0  0  0  # atno 10167 bound_to 10162
  156.2489  130.4186  149.8673 H   0  0  0  0  0  0  0  0  0  0  0  0  # atno 10718 bound_to 10713
  154.4040  135.6024  153.5913 H   0  0  0  0  0  0  0  0  0  0  0  0  # atno 10763 bound_to 10752
  152.9788  135.5913  154.4150 H   0  0  0  0  0  0  0  0  0  0  0  0  # atno 10764 bound_to 10752
  154.3953  135.2842  155.2108 H   0  0  0  0  0  0  0  0  0  0  0  0  # atno 10765 bound_to 10752
  139.9488  134.7264  156.0913 H   0  0  0  0  0  0  0  0  0  0  0  0  # atno 11005 bound_to 11000
  145.7342  139.1745  143.2413 LP  0  0  0  0  0  0  0  0  0  0  0  0  # atno 17320 bound_to 7965
  146.1183  140.7342  142.9470 LP  0  0  0  0  0  0  0  0  0  0  0  0  # atno 17321 bound_to 7965
  140.6403  143.8902  150.6686 LP  0  0  0  0  0  0  0  0  0  0  0  0  # atno 17342 bound_to 10162
  140.2234  143.3791  152.1624 LP  0  0  0  0  0  0  0  0  0  0  0  0  # atno 17343 bound_to 10162
  156.6228  130.8633  151.3479 LP  0  0  0  0  0  0  0  0  0  0  0  0  # atno 17370 bound_to 10713
  157.7206  130.9554  150.1425 LP  0  0  0  0  0  0  0  0  0  0  0  0  # atno 17371 bound_to 10713
  141.1146  133.6632  156.3062 LP  0  0  0  0  0  0  0  0  0  0  0  0  # atno 17394 bound_to 11000
  140.5769  134.5785  157.5470 LP  0  0  0  0  0  0  0  0  0  0  0  0  # atno 17395 bound_to 11000

$$$$
