AV-unprocessed.smi:3056|AV-procd|sdf|11657|dock9
  -GOLD-   2272017 63D 1   1.00000     0.00000
 Structure written by MMmdl.
 47 48  0  0  0  0  0  0  0  0  1 V2000
  150.7684  142.9317  158.1733 C   0  0  0  0  0  0  0  0  0  0  0  0
  150.9532  141.7988  157.2055 C   0  0  0  0  0  0  0  0  0  0  0  0
  150.4921  141.7126  155.8615 C   0  0  0  0  0  0  0  0  0  0  0  0
  150.8248  140.5743  155.2761 N   0  0  0  0  0  0  0  0  0  0  0  0
  151.5054  139.8903  156.2233 N   0  0  0  0  0  0  0  0  0  0  0  0
  152.0415  138.5658  155.9336 C   0  0  2  0  0  0  0  0  0  0  0  0
  152.7974  138.5893  154.5902 C   0  0  0  0  0  0  0  0  0  0  0  0
  150.9479  137.4638  155.9846 C   0  0  2  0  0  0  0  0  0  0  0  0
  150.0847  137.5222  157.2639 C   0  0  0  0  0  0  0  0  0  0  0  0
  151.6109  136.1640  155.9184 N   0  0  0  0  0  0  0  0  0  0  0  0
  150.6865  135.0461  156.1521 C   0  0  0  0  0  0  0  0  0  0  0  0
  150.0049  134.5990  154.8538 C   0  0  0  0  0  0  0  0  0  0  0  0
  149.3111  135.4242  154.2589 O   0  0  0  0  0  0  0  0  0  0  0  0
  150.1761  133.3326  154.4017 N   0  0  0  0  0  0  0  0  0  0  0  0
  150.9408  132.2697  155.0607 C   0  0  0  0  0  0  0  0  0  0  0  0
  149.9609  131.1566  155.4693 C   0  0  0  0  0  0  0  0  0  0  0  0
  149.2737  130.6775  154.3154 O   0  0  0  0  0  0  0  0  0  0  0  0
  148.5434  131.6923  153.6272 C   0  0  2  0  0  0  0  0  0  0  0  0
  147.8412  131.0477  152.4269 C   0  0  0  0  0  0  0  0  0  0  0  0
  149.5129  132.8140  153.2022 C   0  0  0  0  0  0  0  0  0  0  0  0
  151.5971  140.6093  157.3970 C   0  0  0  0  0  0  0  0  0  0  0  0
  150.5050  143.8595  157.6651 H   0  0  0  0  0  0  0  0  0  0  0  0
  151.6762  143.1265  158.7450 H   0  0  0  0  0  0  0  0  0  0  0  0
  149.9748  142.7211  158.8901 H   0  0  0  0  0  0  0  0  0  0  0  0
  149.9296  142.4413  155.2966 H   0  0  0  0  0  0  0  0  0  0  0  0
  152.7712  138.3531  156.7172 H   0  0  0  0  0  0  0  0  0  0  0  0
  153.3155  137.6486  154.4040 H   0  0  0  0  0  0  0  0  0  0  0  0
  153.5490  139.3791  154.5795 H   0  0  0  0  0  0  0  0  0  0  0  0
  152.1209  138.7643  153.7528 H   0  0  0  0  0  0  0  0  0  0  0  0
  150.3004  137.5906  155.1149 H   0  0  0  0  0  0  0  0  0  0  0  0
  149.5377  138.4621  157.3371 H   0  0  0  0  0  0  0  0  0  0  0  0
  150.7001  137.4285  158.1593 H   0  0  0  0  0  0  0  0  0  0  0  0
  149.3377  136.7300  157.2927 H   0  0  0  0  0  0  0  0  0  0  0  0
  152.0468  136.0751  155.0114 H   0  0  0  0  0  0  0  0  0  0  0  0
  151.1914  134.1977  156.6128 H   0  0  0  0  0  0  0  0  0  0  0  0
  149.9179  135.3612  156.8597 H   0  0  0  0  0  0  0  0  0  0  0  0
  151.6823  131.8765  154.3641 H   0  0  0  0  0  0  0  0  0  0  0  0
  151.5033  132.6020  155.9308 H   0  0  0  0  0  0  0  0  0  0  0  0
  150.5001  130.3282  155.9284 H   0  0  0  0  0  0  0  0  0  0  0  0
  149.2443  131.5206  156.2073 H   0  0  0  0  0  0  0  0  0  0  0  0
  147.7845  132.0983  154.2986 H   0  0  0  0  0  0  0  0  0  0  0  0
  147.2557  131.7825  151.8736 H   0  0  0  0  0  0  0  0  0  0  0  0
  147.1626  130.2582  152.7502 H   0  0  0  0  0  0  0  0  0  0  0  0
  148.5618  130.6064  151.7381 H   0  0  0  0  0  0  0  0  0  0  0  0
  148.9699  133.5844  152.6532 H   0  0  0  0  0  0  0  0  0  0  0  0
  150.2652  132.4267  152.5133 H   0  0  0  0  0  0  0  0  0  0  0  0
  152.1084  140.2187  158.2647 H   0  0  0  0  0  0  0  0  0  0  0  0
  1  2  1  0  0  0  0
  1 22  1  0  0  0  0
  1 23  1  0  0  0  0
  1 24  1  0  0  0  0
  2 21  2  0  0  0  0
  2  3  1  0  0  0  0
  3  4  2  0  0  0  0
  3 25  1  0  0  0  0
  4  5  1  0  0  0  0
  5  6  1  0  0  0  0
  5 21  1  0  0  0  0
  6  7  1  0  0  0  0
  6  8  1  0  0  0  0
  6 26  1  0  0  0  0
  7 27  1  0  0  0  0
  7 28  1  0  0  0  0
  7 29  1  0  0  0  0
  8  9  1  0  0  0  0
  8 10  1  0  0  0  0
  8 30  1  0  0  0  0
  9 31  1  0  0  0  0
  9 32  1  0  0  0  0
  9 33  1  0  0  0  0
 10 11  1  0  0  0  0
 10 34  1  0  0  0  0
 11 12  1  0  0  0  0
 11 35  1  0  0  0  0
 11 36  1  0  0  0  0
 12 13  2  0  0  0  0
 12 14  1  0  0  0  0
 14 20  1  0  0  0  0
 14 15  1  0  0  0  0
 15 16  1  0  0  0  0
 15 37  1  0  0  0  0
 15 38  1  0  0  0  0
 16 17  1  0  0  0  0
 16 39  1  0  0  0  0
 16 40  1  0  0  0  0
 17 18  1  0  0  0  0
 18 19  1  0  0  0  0
 18 20  1  0  0  0  0
 18 41  1  0  0  0  0
 19 42  1  0  0  0  0
 19 43  1  0  0  0  0
 19 44  1  0  0  0  0
 20 45  1  0  0  0  0
 20 46  1  0  0  0  0
 21 47  1  0  0  0  0
M  END
> <s_m_source_file>
AV-unprocessed.smi

> <i_m_source_file_index>
3056

> <i_lp_mmshare_version>
43012

> <i_f3d_flags>
0

> <s_epik_input>
W0NIM11jMVtjSF1ubihbY0hdMSlbQ0BIXShbQ0gzXSlbQ0BIXShbQ0gzXSlbTkhdW0NIMl1DKD1PKU4yW0NIMl1bQ0gyXU9bQ0BASF0oW0NIM10pW0NIMl0y

> <s_epik_cmdline>
J2VwaWtfcHl0aG9uJywgJy1waCcsICc3LjAnLCAnLXRuJywgJzgnLCAnLW1hJywgJzIwMCcsICctbWV0YWxfYmluZGluZycsICctaW1hZScsICc8aW5maWxlLm1hZT4nLCAnLW9tYWUnLCAnPG91dGZpbGUubWFlPic=

> <r_lp_tautomer_probability>
1

> <r_epik_Ionization_Penalty>
0.667689

> <r_epik_Ionization_Penalty_Charging>
0

> <r_epik_Ionization_Penalty_Neutral>
0.667689

> <r_epik_State_Penalty>
0.684601

> <r_epik_Charging_Adjusted_Penalty>
0.684601

> <i_epik_Tot_Q>
0

> <i_epik_Tot_abs_Q>
0

> <r_epik_Metal_State_Penalty>
0.681448

> <b_epik_Metal_Only>
0

> <s_lp_Force_Field>
OPLS_2005

> <r_lp_Energy>
28.8183

> <b_lp_Chiralities_Consistent>
1

> <s_lp_Variant>
AV-unprocessed.smi:3056-13

> <Gold.Version>
5.8.1

> <Gold.Id.Protein>
6NUR|6NUR_protein|mol2

> <Gold.PLP.Fitness>
39.3767

> <Gold.PLP.PLP>
-34.6595

> <Gold.PLP.part.hbond>
-2.0000

> <Gold.PLP.part.metal>
0.0000

> <Gold.PLP.part.buried>
-6.2650

> <Gold.PLP.part.nonpolar>
-26.9126

> <Gold.PLP.part.repulsive>
1.1384

> <Gold.PLP.ligand.clash>
0.0000

> <Gold.PLP.ligand.torsion>
0.6485

> <Gold.PLP.Chemscore.Hbond>
0.9920

> <Gold.PLP.Chemscore.CHOScore>
0.9830

> <Gold.PLP.Chemscore.Metal>
0.0000

> <Gold.Chemscore.Hbonds>
donor molecule, donor type, donor heavy atom, donor atom, acceptor molecule, acceptor atom, score
      P1  H  7989  7998       L1     4  0.94
      L1  C     3    25       P1  8028  1.00

> <Gold.PLP.Chemscore.Internal.Correction>
0.0892

> <Gold.Rescore>
     Score         DG    S(hbond)    S(metal)    S(lipo)     H(rot)  DE(clash)    DE(int)     intcor
     12.25     -13.39       0.77        0.00      82.48       1.68       0.21       0.94       ----

> <Gold.Chemscore.Fitness>
12.2506

> <Gold.Chemscore.DG>
-13.3944

> <Gold.Chemscore.ZeroCoef>
-5.4800

> <Gold.Chemscore.Hbond>
0.7675

> <Gold.Chemscore.Metal>
0.0000

> <Gold.Chemscore.Lipo>
82.4781

> <Gold.Chemscore.Internal_Hbond>
0.0000

> <Gold.Chemscore.DEClash>
0.2069

> <Gold.Chemscore.DEInternal>
0.9369

> <Gold.Chemscore.Rot>
1.6793

> <Gold.Chemscore.Internal.Correction>
   9.000000E+99

> <Gold.Chemscore.Hbonds>
donor molecule, donor type, donor heavy atom, donor atom, acceptor molecule, acceptor atom, score
      P1  H  7989  7998       L1     4  0.69

> <Gold.Chemscore.Hbond.Weighted>
-2.5635

> <Gold.Chemscore.Metal.Weighted>
-0.0000

> <Gold.Chemscore.Lipo.Weighted>
-9.6499

> <Gold.Chemscore.Internal_Hbond.Weighted>
0.0000

> <Gold.Chemscore.DEClash.Weighted>
0.2069

> <Gold.Chemscore.DEInternal.Weighted>
0.9369

> <Gold.Chemscore.Rot.Weighted>
4.2990

> <Gold.Chemscore.Internal.Correction.Weighted>
   9.000000E+99

> <Gold.Protein.RotatedTorsions>
[ 6907 6896 6895 6894 ] final   69.87 input  -60.11 | X-H torsion
[ 7974 7965 7964 7962 ] final  -91.72 input  175.53 | X-H torsion
[ 8008 7997 7996 7995 ] final   94.41 input   59.86 | X-H torsion
[ 10167 10162 10161 10158 ] final  -65.25 input  -65.29 | X-H torsion
[ 10718 10713 10712 10709 ] final  -53.55 input   66.30 | X-H torsion
[ 10763 10752 10751 10750 ] final  -41.13 input  -60.55 | X-H torsion
[ 11005 11000 10999 10996 ] final  112.76 input  -57.11 | X-H torsion

> <Gold.Protein.ActiveResidues>
 VAL166  LYS551  ARG553  GLY616  TRP617  ASP618  TYR619  PRO620  LYS621  CYS622 
 ASP623  PHE694  ASN695  SER759  ASP760  ASP761  ALA762  ILE779  LEU786  VAL792 
 PHE793  MET794  SER795  GLU796  ALA797  LYS798  CYS799  TRP800  GLU811  SER814 

> <Gold.Protein.RotatedAtoms>
  152.4714  134.4951  159.9707 H   0  0  0  0  0  0  0  0  0  0  0  0  # atno 6907 bound_to 6896
  151.4977  133.3505  159.2871 H   0  0  0  0  0  0  0  0  0  0  0  0  # atno 6908 bound_to 6896
  150.8726  134.8130  159.7227 H   0  0  0  0  0  0  0  0  0  0  0  0  # atno 6909 bound_to 6896
  145.4094  140.9544  143.2243 H   0  0  0  0  0  0  0  0  0  0  0  0  # atno 7974 bound_to 7965
  156.0576  140.3300  155.7424 H   0  0  0  0  0  0  0  0  0  0  0  0  # atno 8008 bound_to 7997
  155.5504  140.0610  157.2868 H   0  0  0  0  0  0  0  0  0  0  0  0  # atno 8009 bound_to 7997
  154.4466  140.1895  156.0669 H   0  0  0  0  0  0  0  0  0  0  0  0  # atno 8010 bound_to 7997
  140.5743  143.2320  151.6474 H   0  0  0  0  0  0  0  0  0  0  0  0  # atno 10167 bound_to 10162
  156.1525  130.4151  149.9922 H   0  0  0  0  0  0  0  0  0  0  0  0  # atno 10718 bound_to 10713
  153.9574  135.6743  153.4744 H   0  0  0  0  0  0  0  0  0  0  0  0  # atno 10763 bound_to 10752
  153.0855  135.4901  154.8584 H   0  0  0  0  0  0  0  0  0  0  0  0  # atno 10764 bound_to 10752
  154.7292  135.3134  154.8880 H   0  0  0  0  0  0  0  0  0  0  0  0  # atno 10765 bound_to 10752
  139.8935  134.9536  156.6636 H   0  0  0  0  0  0  0  0  0  0  0  0  # atno 11005 bound_to 11000
  144.8319  139.5613  143.6939 LP  0  0  0  0  0  0  0  0  0  0  0  0  # atno 17320 bound_to 7965
  146.2712  139.6641  142.9294 LP  0  0  0  0  0  0  0  0  0  0  0  0  # atno 17321 bound_to 7965
  139.5134  144.3443  152.0711 LP  0  0  0  0  0  0  0  0  0  0  0  0  # atno 17342 bound_to 10162
  140.2585  144.4093  150.6194 LP  0  0  0  0  0  0  0  0  0  0  0  0  # atno 17343 bound_to 10162
  156.7775  130.9209  151.3645 LP  0  0  0  0  0  0  0  0  0  0  0  0  # atno 17370 bound_to 10713
  157.6668  130.9015  149.9951 LP  0  0  0  0  0  0  0  0  0  0  0  0  # atno 17371 bound_to 10713
  140.7428  133.8963  155.8290 LP  0  0  0  0  0  0  0  0  0  0  0  0  # atno 17394 bound_to 11000
  141.0064  134.1081  157.4266 LP  0  0  0  0  0  0  0  0  0  0  0  0  # atno 17395 bound_to 11000

$$$$
