AV-unprocessed.smi:924|AV-procd|sdf|4180|dock1
  -GOLD-   22720 2 83D 1   1.00000     0.00000
 Structure written by MMmdl.
 45 48  0  0  0  0  0  0  0  0  2 V2000
  143.7193  136.0498  154.3508 O   0  0  0  0  0  0  0  0  0  0  0  0
  143.4632  137.1728  153.9149 C   0  0  0  0  0  0  0  0  0  0  0  0
  142.4352  137.3656  152.7926 C   0  0  0  0  0  0  0  0  0  0  0  0
  141.0614  137.4917  153.3048 N   0  0  0  0  0  0  0  0  0  0  0  0
  140.4941  138.7784  153.3069 C   0  0  0  0  0  0  0  0  0  0  0  0
  139.2389  139.0019  153.7393 C   0  0  0  0  0  0  0  0  0  0  0  0
  138.4614  137.8650  154.2161 C   0  0  0  0  0  0  0  0  0  0  0  0
  137.3149  138.0506  154.6198 O   0  0  0  0  0  0  0  0  0  0  0  0
  139.0538  136.6353  154.1898 N   0  5  0  0  0  0  0  0  0  0  0  0
  140.3304  136.4221  153.7419 C   0  0  0  0  0  0  0  0  0  0  0  0
  140.8410  135.3019  153.7201 O   0  0  0  0  0  0  0  0  0  0  0  0
  144.0489  138.2898  154.3725 N   0  0  0  0  0  0  0  0  0  0  0  0
  145.0965  138.3463  155.3894 C   0  0  0  0  0  0  0  0  0  0  0  0
  145.8901  139.6786  155.3807 C   0  0  0  0  0  0  0  0  0  0  0  0
  147.0423  139.6717  156.4242 C   0  0  0  0  0  0  0  0  0  0  0  0
  147.7856  141.0242  156.4179 C   0  0  1  0  0  0  0  0  0  0  0  0
  148.3831  141.2761  155.0178 C   0  0  0  0  0  0  0  0  0  0  0  0
  147.2437  141.3125  153.9775 C   0  0  2  0  0  0  0  0  0  0  0  0
  146.2594  142.4474  154.3281 C   0  0  0  0  0  0  0  0  0  0  0  0
  145.6683  142.1906  155.7297 C   0  0  2  0  0  0  0  0  0  0  0  0
  146.8022  142.1574  156.7747 C   0  0  0  0  0  0  0  0  0  0  0  0
  144.9230  140.8391  155.7352 C   0  0  0  0  0  0  0  0  0  0  0  0
  146.4983  139.9601  153.9792 C   0  0  0  0  0  0  0  0  0  0  0  0
  142.7258  138.2338  152.1993 H   0  0  0  0  0  0  0  0  0  0  0  0
  142.4844  136.5207  152.1035 H   0  0  0  0  0  0  0  0  0  0  0  0
  141.1359  139.5621  152.9308 H   0  0  0  0  0  0  0  0  0  0  0  0
  138.8171  139.9961  153.7301 H   0  0  0  0  0  0  0  0  0  0  0  0
  143.7686  139.1688  153.9626 H   0  0  0  0  0  0  0  0  0  0  0  0
  144.6115  138.2168  156.3575 H   0  0  0  0  0  0  0  0  0  0  0  0
  145.7775  137.4997  155.2849 H   0  0  0  0  0  0  0  0  0  0  0  0
  146.6490  139.4659  157.4205 H   0  0  0  0  0  0  0  0  0  0  0  0
  147.7568  138.8770  156.2081 H   0  0  0  0  0  0  0  0  0  0  0  0
  148.5893  140.9976  157.1544 H   0  0  0  0  0  0  0  0  0  0  0  0
  148.9362  142.2161  155.0061 H   0  0  0  0  0  0  0  0  0  0  0  0
  149.0998  140.4931  154.7665 H   0  0  0  0  0  0  0  0  0  0  0  0
  147.6638  141.4924  152.9875 H   0  0  0  0  0  0  0  0  0  0  0  0
  146.7688  143.4115  154.3030 H   0  0  0  0  0  0  0  0  0  0  0  0
  145.4625  142.5003  153.5851 H   0  0  0  0  0  0  0  0  0  0  0  0
  144.9699  142.9897  155.9796 H   0  0  0  0  0  0  0  0  0  0  0  0
  146.3922  142.0017  157.7734 H   0  0  0  0  0  0  0  0  0  0  0  0
  147.3224  143.1157  156.7999 H   0  0  0  0  0  0  0  0  0  0  0  0
  144.0964  140.8727  155.0241 H   0  0  0  0  0  0  0  0  0  0  0  0
  144.4742  140.6704  156.7152 H   0  0  0  0  0  0  0  0  0  0  0  0
  147.1901  139.1670  153.6927 H   0  0  0  0  0  0  0  0  0  0  0  0
  145.7135  139.9686  153.2216 H   0  0  0  0  0  0  0  0  0  0  0  0
  1  2  2  0  0  0  0
  2  3  1  0  0  0  0
  2 12  1  0  0  0  0
  3  4  1  0  0  0  0
  3 24  1  0  0  0  0
  3 25  1  0  0  0  0
  4 10  1  0  0  0  0
  4  5  1  0  0  0  0
  5  6  2  0  0  0  0
  5 26  1  0  0  0  0
  6  7  1  0  0  0  0
  6 27  1  0  0  0  0
  7  8  2  0  0  0  0
  7  9  1  0  0  0  0
  9 10  1  0  0  0  0
 10 11  2  0  0  0  0
 12 13  1  0  0  0  0
 12 28  1  0  0  0  0
 13 14  1  0  0  0  0
 13 29  1  0  0  0  0
 13 30  1  0  0  0  0
 14 22  1  0  0  0  0
 14 23  1  0  0  0  0
 14 15  1  0  0  0  0
 15 16  1  0  0  0  0
 15 31  1  0  0  0  0
 15 32  1  0  0  0  0
 16 21  1  0  0  0  0
 16 17  1  0  0  0  0
 16 33  1  0  0  0  0
 17 18  1  0  0  0  0
 17 34  1  0  0  0  0
 17 35  1  0  0  0  0
 18 19  1  0  0  0  0
 18 23  1  0  0  0  0
 18 36  1  0  0  0  0
 19 20  1  0  0  0  0
 19 37  1  0  0  0  0
 19 38  1  0  0  0  0
 20 21  1  0  0  0  0
 20 22  1  0  0  0  0
 20 39  1  0  0  0  0
 21 40  1  0  0  0  0
 21 41  1  0  0  0  0
 22 42  1  0  0  0  0
 22 43  1  0  0  0  0
 23 44  1  0  0  0  0
 23 45  1  0  0  0  0
M  CHG  1   9  -1
M  END
> <s_m_source_file>
AV-unprocessed.smi

> <i_m_source_file_index>
924

> <i_lp_mmshare_version>
43012

> <i_f3d_flags>
0

> <s_epik_input>
Tz1jMVtuSF1jKD1PKVtjSF1bY0hdbjFbQ0gyXUMoPU8pW05IXVtDSDJdQzIzW0NIMl1bQ0BIXTRbQ0gyXVtDQEBIXShbQ0gyXTMpW0NIMl1bQ0BIXShbQ0gyXTQpW0NIMl0y

> <s_epik_cmdline>
J2VwaWtfcHl0aG9uJywgJy1waCcsICc3LjAnLCAnLXRuJywgJzgnLCAnLW1hJywgJzIwMCcsICctbWV0YWxfYmluZGluZycsICctaW1hZScsICc8aW5maWxlLm1hZT4nLCAnLW9tYWUnLCAnPG91dGZpbGUubWFlPic=

> <r_lp_tautomer_probability>
0.999537

> <r_epik_Ionization_Penalty>
3.12434

> <r_epik_Ionization_Penalty_Charging>
2.83226e-08

> <r_epik_Ionization_Penalty_Neutral>
3.12434

> <r_epik_State_Penalty>
3.12343

> <r_epik_Charging_Adjusted_Penalty>
3.12343

> <i_epik_Tot_Q>
-1

> <i_epik_Tot_abs_Q>
1

> <r_epik_Metal_State_Penalty>
0.463885

> <b_epik_Metal_Only>
1

> <s_lp_Force_Field>
OPLS_2005

> <r_lp_Energy>
43.5062

> <b_lp_Chiralities_Consistent>
1

> <s_lp_Variant>
AV-unprocessed.smi:924-2

> <Gold.Version>
5.8.1

> <Gold.Id.Protein>
6NUR|6NUR_protein|mol2

> <Gold.PLP.Fitness>
41.9148

> <Gold.PLP.PLP>
-32.1184

> <Gold.PLP.part.hbond>
-2.0000

> <Gold.PLP.part.metal>
0.0000

> <Gold.PLP.part.buried>
-4.7976

> <Gold.PLP.part.nonpolar>
-26.5607

> <Gold.PLP.part.repulsive>
0.2996

> <Gold.PLP.ligand.clash>
0.0000

> <Gold.PLP.ligand.torsion>
0.7094

> <Gold.PLP.Chemscore.Hbond>
2.0000

> <Gold.PLP.Chemscore.CHOScore>
1.7252

> <Gold.PLP.Chemscore.Metal>
0.0000

> <Gold.Chemscore.Hbonds>
donor molecule, donor type, donor heavy atom, donor atom, acceptor molecule, acceptor atom, score
      L1  H    12    28       P1 10175  1.00
      P1  H 11000 11005       L1    11  0.34
      L1  C     5    26       P1 10160  0.71
      L1  C     5    26       P1 10175  0.70

> <Gold.PLP.Chemscore.Internal.Correction>
0.0396

> <Gold.Rescore>
     Score         DG    S(hbond)    S(metal)    S(lipo)     H(rot)  DE(clash)    DE(int)     intcor
     12.94     -14.21       1.92        0.00      61.23       1.90       0.32       0.95       ----

> <Gold.Chemscore.Fitness>
12.9399

> <Gold.Chemscore.DG>
-14.2144

> <Gold.Chemscore.ZeroCoef>
-5.4800

> <Gold.Chemscore.Hbond>
1.9232

> <Gold.Chemscore.Metal>
0.0000

> <Gold.Chemscore.Lipo>
61.2347

> <Gold.Chemscore.Internal_Hbond>
0.0000

> <Gold.Chemscore.DEClash>
0.3235

> <Gold.Chemscore.DEInternal>
0.9509

> <Gold.Chemscore.Rot>
1.8959

> <Gold.Chemscore.Internal.Correction>
   9.000000E+99

> <Gold.Chemscore.Hbonds>
donor molecule, donor type, donor heavy atom, donor atom, acceptor molecule, acceptor atom, score
      L1  H    12    28       P1 10175  0.96
      P1  H 11000 11005       L1    11  0.21

> <Gold.Chemscore.Hbond.Weighted>
-6.4234

> <Gold.Chemscore.Metal.Weighted>
-0.0000

> <Gold.Chemscore.Lipo.Weighted>
-7.1645

> <Gold.Chemscore.Internal_Hbond.Weighted>
0.0000

> <Gold.Chemscore.DEClash.Weighted>
0.3235

> <Gold.Chemscore.DEInternal.Weighted>
0.9509

> <Gold.Chemscore.Rot.Weighted>
4.8535

> <Gold.Chemscore.Internal.Correction.Weighted>
   9.000000E+99

> <Gold.Protein.RotatedTorsions>
[ 6907 6896 6895 6894 ] final  -91.31 input  -60.11 | X-H torsion
[ 7974 7965 7964 7962 ] final   30.70 input  175.53 | X-H torsion
[ 8008 7997 7996 7995 ] final  -78.88 input   59.86 | X-H torsion
[ 10167 10162 10161 10158 ] final  -99.35 input  -65.29 | X-H torsion
[ 10718 10713 10712 10709 ] final   -4.79 input   66.30 | X-H torsion
[ 10763 10752 10751 10750 ] final -158.39 input  -60.55 | X-H torsion
[ 11005 11000 10999 10996 ] final   28.47 input  -57.11 | X-H torsion

> <Gold.Protein.ActiveResidues>
 VAL166  LYS551  ARG553  GLY616  TRP617  ASP618  TYR619  PRO620  LYS621  CYS622 
 ASP623  PHE694  ASN695  SER759  ASP760  ASP761  ALA762  ILE779  LEU786  VAL792 
 PHE793  MET794  SER795  GLU796  ALA797  LYS798  CYS799  TRP800  GLU811  SER814 

> <Gold.Protein.RotatedAtoms>
  150.6891  134.2297  159.4429 H   0  0  0  0  0  0  0  0  0  0  0  0  # atno 6907 bound_to 6896
  152.0248  134.9799  160.0580 H   0  0  0  0  0  0  0  0  0  0  0  0  # atno 6908 bound_to 6896
  152.1362  133.4402  159.4781 H   0  0  0  0  0  0  0  0  0  0  0  0  # atno 6909 bound_to 6896
  146.1595  139.6753  142.9043 H   0  0  0  0  0  0  0  0  0  0  0  0  # atno 7974 bound_to 7965
  154.5731  140.0687  156.8994 H   0  0  0  0  0  0  0  0  0  0  0  0  # atno 8008 bound_to 7997
  155.2598  140.3357  155.4256 H   0  0  0  0  0  0  0  0  0  0  0  0  # atno 8009 bound_to 7997
  156.2133  140.1768  156.7630 H   0  0  0  0  0  0  0  0  0  0  0  0  # atno 8010 bound_to 7997
  140.2634  143.3392  152.0604 H   0  0  0  0  0  0  0  0  0  0  0  0  # atno 10167 bound_to 10162
  156.7560  130.5254  149.5794 H   0  0  0  0  0  0  0  0  0  0  0  0  # atno 10718 bound_to 10713
  154.7560  135.3105  154.8469 H   0  0  0  0  0  0  0  0  0  0  0  0  # atno 10763 bound_to 10752
  153.9243  135.6792  153.4751 H   0  0  0  0  0  0  0  0  0  0  0  0  # atno 10764 bound_to 10752
  153.1157  135.4845  154.9042 H   0  0  0  0  0  0  0  0  0  0  0  0  # atno 10765 bound_to 10752
  140.3153  134.2604  155.7726 H   0  0  0  0  0  0  0  0  0  0  0  0  # atno 11005 bound_to 11000
  145.4623  141.0433  143.2744 LP  0  0  0  0  0  0  0  0  0  0  0  0  # atno 17320 bound_to 7965
  144.8008  139.6144  143.7072 LP  0  0  0  0  0  0  0  0  0  0  0  0  # atno 17321 bound_to 7965
  139.5010  144.6704  151.6256 LP  0  0  0  0  0  0  0  0  0  0  0  0  # atno 17342 bound_to 10162
  140.5948  143.9716  150.6347 LP  0  0  0  0  0  0  0  0  0  0  0  0  # atno 17343 bound_to 10162
  156.1370  130.6218  151.0414 LP  0  0  0  0  0  0  0  0  0  0  0  0  # atno 17370 bound_to 10713
  157.6756  131.0851  150.7504 LP  0  0  0  0  0  0  0  0  0  0  0  0  # atno 17371 bound_to 10713
  141.2099  133.7735  156.9967 LP  0  0  0  0  0  0  0  0  0  0  0  0  # atno 17394 bound_to 11000
  140.0989  134.9547  157.1892 LP  0  0  0  0  0  0  0  0  0  0  0  0  # atno 17395 bound_to 11000

$$$$
