#       Name:                AV-unprocessed.smi:49
#       Creating user name   scv26
#       Creation time:       Thu Mar 26 16:35:06 2020


#       File generated by GOLD software.
#

@<TRIPOS>MOLECULE
AV-unprocessed.smi:49
    32    33     1
SMALL
NO_CHARGES


@<TRIPOS>ATOM
      1 ****        -4.1941   0.9818   1.0637 C.3            1 S1                 0.0000
      2 ****        -3.7674  -0.4725   0.8406 C.3            1 S1                 0.0000
      3 ****        -2.2626  -0.6262   0.8140 C.2            1 S1                 0.0000
      4 ****        -1.4868  -0.5024  -0.2582 N.2            1 S1                 0.0000
      5 ****        -0.2314  -0.6843   0.1751 C.2            1 S1                 0.0000
      6 ****         0.9934  -0.5951  -0.7157 C.3            1 S1                 0.0000
      7 ****         1.5819   0.8206  -0.7626 C.3            1 S1                 0.0000
      8 ****         3.0513   0.5567  -1.0559 C.3            1 S1                 0.0000
      9 ****         3.8916   1.6270  -0.6793 O.3            1 S1                 0.0000
     10 ****         3.3156  -0.7064  -0.2415 C.3            1 S1                 0.0000
     11 ****         2.0857  -1.4914  -0.3164 N.3            1 S1                 0.0000
     12 ****        -0.2143  -0.8932   1.5018 N.2            1 S1                 0.0000
     13 ****        -1.4758  -0.8544   1.8801 N.pl3          1 S1                -1.0000
     14 ****         0.6852  -0.8670  -1.7260 H              1 S1                 0.0000
     15 ****         3.1852   0.3488  -2.1185 H              1 S1                 0.0000
     16 ****        -5.2803   1.0708   1.0790 H              1 S1                 0.0000
     17 ****        -3.8160   1.6268   0.2700 H              1 S1                 0.0000
     18 ****        -3.8136   1.3604   2.0129 H              1 S1                 0.0000
     19 ****        -4.1722  -1.1057   1.6305 H              1 S1                 0.0000
     20 ****        -4.1766  -0.8420  -0.1001 H              1 S1                 0.0000
     21 ****         1.0952   1.4619  -1.4978 H              1 S1                 0.0000
     22 ****         1.4855   1.2971   0.2149 H              1 S1                 0.0000
     23 ****         3.6400   2.3926  -1.1727 H              1 S1                 0.0000
     24 ****         4.1791  -1.2659  -0.6020 H              1 S1                 0.0000
     25 ****         3.5060  -0.4391   0.7989 H              1 S1                 0.0000
     26 ****         2.1957  -2.1981  -1.0359 H              1 S1                 0.0000
     27 ****        -1.7795  -0.3126  -1.1953 LP             1 S1                 0.0000
     28 ****         4.8437   1.3949  -0.8785 LP             1 S1                 0.0000
     29 ****         3.7902   1.8076   0.2991 LP             1 S1                 0.0000
     30 ****         1.8899  -1.9195   0.5659 LP             1 S1                 0.0000
     31 ****         0.5869  -1.0460   2.0804 LP             1 S1                 0.0000
     32 ****        -1.7992  -0.9763   2.8185 LP             1 S1                 0.0000
@<TRIPOS>BOND
    1    1    2 1     
    2    1   16 1     
    3    1   17 1     
    4    1   18 1     
    5    2    3 1     
    6    2   19 1     
    7    2   20 1     
    8    3   13 1     
    9    3    4 2     
   10    4    5 1     
   11    5    6 1     
   12    5   12 2     
   13    6   14 1     
   14    6   11 1     
   15    6    7 1     
   16    7    8 1     
   17    7   21 1     
   18    7   22 1     
   19    8   15 1     
   20    8    9 1     
   21    8   10 1     
   22    9   23 1     
   23   10   11 1     
   24   10   24 1     
   25   10   25 1     
   26   11   26 1     
   27   12   13 1     
   28    4   27 1     
   29    9   28 1     
   30    9   29 1     
   31   11   30 1     
   32   12   31 1     
   33   13   32 1     
@<TRIPOS>SUBSTRUCTURE
      1 S1             1
@<TRIPOS>SET
LONE_PAIRS      STATIC     ATOMS    <user>   **** ""
6 27 28 29 30 31 32
DONOR_HYDROGENS      STATIC     ATOMS    <user>   **** ""
2 23 26
ATOM$BLUE        STATIC     ATOMS    COLORGROUP SYSTEM
6 27 28 29 30 31 32
ATOM$RED        STATIC     ATOMS    COLORGROUP SYSTEM
2 23 26
