AV-unprocessed.smi:798|AV-procd|sdf|3775|dock4
  -GOLD-   22720 1203D 1   1.00000     0.00000
 Structure written by MMmdl.
 34 36  0  0  0  0  0  0  0  0  1 V2000
  147.4912  132.8594  154.4977 O   0  0  0  0  0  0  0  0  0  0  0  0
  147.7788  133.8071  153.7665 C   0  0  0  0  0  0  0  0  0  0  0  0
  148.8787  134.5722  153.8794 N   0  0  0  0  0  0  0  0  0  0  0  0
  149.9172  134.4848  154.8440 C   0  0  0  0  0  0  0  0  0  0  0  0
  150.6670  135.5298  155.2280 N   0  0  0  0  0  0  0  0  0  0  0  0
  151.6123  135.1690  156.1795 N   0  0  0  0  0  0  0  0  0  0  0  0
  151.5385  133.8682  156.4751 C   0  0  0  0  0  0  0  0  0  0  0  0
  150.3067  132.9563  155.6197 S   0  0  0  0  0  0  0  0  0  0  0  0
  147.0116  134.2116  152.7439 N   0  0  0  0  0  0  0  0  0  0  0  0
  145.7510  133.5909  152.3330 C   0  0  2  0  0  0  0  0  0  0  0  0
  146.0279  132.2578  151.6048 C   0  0  1  0  0  0  0  0  0  0  0  0
  144.7229  131.4444  151.5307 C   0  0  0  0  0  0  0  0  0  0  0  0
  143.9008  132.2270  150.4891 C   0  0  0  0  0  0  0  0  0  0  0  0
  144.8432  133.3859  150.1070 C   0  0  2  0  0  0  0  0  0  0  0  0
  146.2016  132.6980  150.1561 C   0  0  0  0  0  0  0  0  0  0  0  0
  144.9243  134.3930  151.2813 C   0  0  2  0  0  0  0  0  0  0  0  0
  145.4940  135.7692  150.8681 C   0  0  0  0  0  0  0  0  0  0  0  0
  144.9175  136.1980  149.6524 O   0  0  0  0  0  0  0  0  0  0  0  0
  148.9826  135.3102  153.1990 H   0  0  0  0  0  0  0  0  0  0  0  0
  152.2145  133.4426  157.2018 H   0  0  0  0  0  0  0  0  0  0  0  0
  147.3248  135.0008  152.1980 H   0  0  0  0  0  0  0  0  0  0  0  0
  145.1482  133.4003  153.2230 H   0  0  0  0  0  0  0  0  0  0  0  0
  146.8628  131.6905  152.0178 H   0  0  0  0  0  0  0  0  0  0  0  0
  144.9171  130.4295  151.1816 H   0  0  0  0  0  0  0  0  0  0  0  0
  144.2178  131.3748  152.4948 H   0  0  0  0  0  0  0  0  0  0  0  0
  143.6877  131.5998  149.6226 H   0  0  0  0  0  0  0  0  0  0  0  0
  142.9481  132.5784  150.8874 H   0  0  0  0  0  0  0  0  0  0  0  0
  144.5943  133.8363  149.1457 H   0  0  0  0  0  0  0  0  0  0  0  0
  147.0423  133.3762  150.0040 H   0  0  0  0  0  0  0  0  0  0  0  0
  146.2891  131.8631  149.4582 H   0  0  0  0  0  0  0  0  0  0  0  0
  143.9240  134.5662  151.6821 H   0  0  0  0  0  0  0  0  0  0  0  0
  145.2630  136.5214  151.6226 H   0  0  0  0  0  0  0  0  0  0  0  0
  146.5780  135.7394  150.7578 H   0  0  0  0  0  0  0  0  0  0  0  0
  144.5024  137.0346  149.7952 H   0  0  0  0  0  0  0  0  0  0  0  0
  1  2  2  0  0  0  0
  2  3  1  0  0  0  0
  2  9  1  0  0  0  0
  3  4  1  0  0  0  0
  3 19  1  0  0  0  0
  4  8  1  0  0  0  0
  4  5  2  0  0  0  0
  5  6  1  0  0  0  0
  6  7  2  0  0  0  0
  7  8  1  0  0  0  0
  7 20  1  0  0  0  0
  9 10  1  0  0  0  0
  9 21  1  0  0  0  0
 10 16  1  0  0  0  0
 10 11  1  0  0  0  0
 10 22  1  0  0  0  0
 11 15  1  0  0  0  0
 11 12  1  0  0  0  0
 11 23  1  0  0  0  0
 12 13  1  0  0  0  0
 12 24  1  0  0  0  0
 12 25  1  0  0  0  0
 13 14  1  0  0  0  0
 13 26  1  0  0  0  0
 13 27  1  0  0  0  0
 14 15  1  0  0  0  0
 14 16  1  0  0  0  0
 14 28  1  0  0  0  0
 15 29  1  0  0  0  0
 15 30  1  0  0  0  0
 16 17  1  0  0  0  0
 16 31  1  0  0  0  0
 17 18  1  0  0  0  0
 17 32  1  0  0  0  0
 17 33  1  0  0  0  0
 18 34  1  0  0  0  0
M  END
> <s_m_source_file>
AV-unprocessed.smi

> <i_m_source_file_index>
798

> <i_lp_mmshare_version>
43012

> <i_f3d_flags>
0

> <s_epik_input>
W0NIMl0xW0NIMl1bQ0BASF0oW0NIMl0yKVtDQEBIXShbQ0gyXVtPSF0pW0NAQEhdKFtDQEhdMTIpW05IXUMoPU8pW05IXWMzbm5bY0hdczM=

> <s_epik_cmdline>
J2VwaWtfcHl0aG9uJywgJy1waCcsICc3LjAnLCAnLXRuJywgJzgnLCAnLW1hJywgJzIwMCcsICctbWV0YWxfYmluZGluZycsICctaW1hZScsICc8aW5maWxlLm1hZT4nLCAnLW9tYWUnLCAnPG91dGZpbGUubWFlPic=

> <r_lp_tautomer_probability>
1

> <r_epik_Ionization_Penalty>
0.000329046

> <r_epik_Ionization_Penalty_Charging>
0

> <r_epik_Ionization_Penalty_Neutral>
0.000329046

> <r_epik_State_Penalty>
-0

> <r_epik_Charging_Adjusted_Penalty>
0

> <i_epik_Tot_Q>
0

> <i_epik_Tot_abs_Q>
0

> <r_epik_Metal_State_Penalty>
0.173433

> <b_epik_Metal_Only>
0

> <s_lp_Force_Field>
OPLS_2005

> <r_lp_Energy>
48.6988

> <b_lp_Chiralities_Consistent>
1

> <s_lp_Variant>
AV-unprocessed.smi:798-7

> <Gold.Version>
5.8.1

> <Gold.Id.Protein>
6NUR|6NUR_protein|mol2

> <Gold.PLP.Fitness>
43.8868

> <Gold.PLP.PLP>
-33.1800

> <Gold.PLP.part.hbond>
-5.0697

> <Gold.PLP.part.metal>
0.0000

> <Gold.PLP.part.buried>
-3.5591

> <Gold.PLP.part.nonpolar>
-23.3341

> <Gold.PLP.part.repulsive>
0.1585

> <Gold.PLP.ligand.clash>
0.0000

> <Gold.PLP.ligand.torsion>
0.4371

> <Gold.PLP.Chemscore.Hbond>
3.8564

> <Gold.PLP.Chemscore.CHOScore>
0.0000

> <Gold.PLP.Chemscore.Metal>
0.0000

> <Gold.Chemscore.Hbonds>
donor molecule, donor type, donor heavy atom, donor atom, acceptor molecule, acceptor atom, score
      L1  H     3    19       P1  7948  1.00
      L1  H     9    21       P1  7948  0.86
      L1  H    18    34       P1 10171  1.00
      P1  H 10752 10764       L1     6  0.99

> <Gold.PLP.Chemscore.Internal.Correction>
0.0116

> <Gold.Rescore>
     Score         DG    S(hbond)    S(metal)    S(lipo)     H(rot)  DE(clash)    DE(int)     intcor
     15.58     -17.02       2.58        0.00      67.61       1.94       0.01       1.43       ----

> <Gold.Chemscore.Fitness>
15.5836

> <Gold.Chemscore.DG>
-17.0207

> <Gold.Chemscore.ZeroCoef>
-5.4800

> <Gold.Chemscore.Hbond>
2.5770

> <Gold.Chemscore.Metal>
0.0000

> <Gold.Chemscore.Lipo>
67.6109

> <Gold.Chemscore.Internal_Hbond>
0.0000

> <Gold.Chemscore.DEClash>
0.0050

> <Gold.Chemscore.DEInternal>
1.4321

> <Gold.Chemscore.Rot>
1.9442

> <Gold.Chemscore.Internal.Correction>
   9.000000E+99

> <Gold.Chemscore.Hbonds>
donor molecule, donor type, donor heavy atom, donor atom, acceptor molecule, acceptor atom, score
      L1  H     3    19       P1  7948  0.44
      L1  H     9    21       P1  7948  0.77
      L1  H    18    34       P1 10171  1.00
      P1  H 10752 10764       L1     6  0.16

> <Gold.Chemscore.Hbond.Weighted>
-8.6073

> <Gold.Chemscore.Metal.Weighted>
-0.0000

> <Gold.Chemscore.Lipo.Weighted>
-7.9105

> <Gold.Chemscore.Internal_Hbond.Weighted>
0.0000

> <Gold.Chemscore.DEClash.Weighted>
0.0050

> <Gold.Chemscore.DEInternal.Weighted>
1.4321

> <Gold.Chemscore.Rot.Weighted>
4.9771

> <Gold.Chemscore.Internal.Correction.Weighted>
   9.000000E+99

> <Gold.Protein.RotatedTorsions>
[ 6907 6896 6895 6894 ] final   89.43 input  -60.11 | X-H torsion
[ 7974 7965 7964 7962 ] final  -59.49 input  175.53 | X-H torsion
[ 8008 7997 7996 7995 ] final   79.72 input   59.86 | X-H torsion
[ 10167 10162 10161 10158 ] final  -79.74 input  -65.29 | X-H torsion
[ 10718 10713 10712 10709 ] final   93.12 input   66.30 | X-H torsion
[ 10763 10752 10751 10750 ] final  -19.48 input  -60.55 | X-H torsion
[ 11005 11000 10999 10996 ] final   -3.09 input  -57.11 | X-H torsion

> <Gold.Protein.ActiveResidues>
 VAL166  LYS551  ARG553  GLY616  TRP617  ASP618  TYR619  PRO620  LYS621  CYS622 
 ASP623  PHE694  ASN695  SER759  ASP760  ASP761  ALA762  ILE779  LEU786  VAL792 
 PHE793  MET794  SER795  GLU796  ALA797  LYS798  CYS799  TRP800  GLU811  SER814 

> <Gold.Protein.RotatedAtoms>
  152.5436  134.1968  159.8695 H   0  0  0  0  0  0  0  0  0  0  0  0  # atno 6907 bound_to 6896
  151.1960  133.4632  159.2603 H   0  0  0  0  0  0  0  0  0  0  0  0  # atno 6908 bound_to 6896
  151.1037  134.9999  159.8516 H   0  0  0  0  0  0  0  0  0  0  0  0  # atno 6909 bound_to 6896
  145.8268  140.8505  143.0104 H   0  0  0  0  0  0  0  0  0  0  0  0  # atno 7974 bound_to 7965
  155.8736  140.3448  155.5838 H   0  0  0  0  0  0  0  0  0  0  0  0  # atno 8008 bound_to 7997
  155.7799  140.0857  157.2083 H   0  0  0  0  0  0  0  0  0  0  0  0  # atno 8009 bound_to 7997
  154.4019  140.1502  156.3027 H   0  0  0  0  0  0  0  0  0  0  0  0  # atno 8010 bound_to 7997
  140.4566  143.2466  151.8410 H   0  0  0  0  0  0  0  0  0  0  0  0  # atno 10167 bound_to 10162
  157.6956  131.0467  150.3986 H   0  0  0  0  0  0  0  0  0  0  0  0  # atno 10718 bound_to 10713
  153.6054  135.6998  153.5367 H   0  0  0  0  0  0  0  0  0  0  0  0  # atno 10763 bound_to 10752
  153.3061  135.4114  155.1295 H   0  0  0  0  0  0  0  0  0  0  0  0  # atno 10764 bound_to 10752
  154.8574  135.3661  154.5591 H   0  0  0  0  0  0  0  0  0  0  0  0  # atno 10765 bound_to 10752
  140.6656  133.9282  155.8462 H   0  0  0  0  0  0  0  0  0  0  0  0  # atno 11005 bound_to 11000
  144.6743  140.0614  143.7476 LP  0  0  0  0  0  0  0  0  0  0  0  0  # atno 17320 bound_to 7965
  145.9615  139.2804  143.1153 LP  0  0  0  0  0  0  0  0  0  0  0  0  # atno 17321 bound_to 7965
  139.4802  144.5057  151.9000 LP  0  0  0  0  0  0  0  0  0  0  0  0  # atno 17342 bound_to 10162
  140.4144  144.2327  150.5888 LP  0  0  0  0  0  0  0  0  0  0  0  0  # atno 17343 bound_to 10162
  156.4382  130.3986  149.6715 LP  0  0  0  0  0  0  0  0  0  0  0  0  # atno 17370 bound_to 10713
  156.3908  130.7626  151.2627 LP  0  0  0  0  0  0  0  0  0  0  0  0  # atno 17371 bound_to 10713
  141.0432  134.0592  157.3876 LP  0  0  0  0  0  0  0  0  0  0  0  0  # atno 17394 bound_to 11000
  139.8998  135.0160  156.7214 LP  0  0  0  0  0  0  0  0  0  0  0  0  # atno 17395 bound_to 11000

$$$$
