AV-unprocessed.smi:2147|AV-procd|sdf|8744|dock3
  -GOLD-   2272011523D 1   1.00000     0.00000
 Structure written by MMmdl.
 42 44  0  0  0  0  0  0  0  0  2 V2000
  135.4040  136.6584  155.0171 C   0  0  0  0  0  0  0  0  0  0  0  0
  136.0287  137.8465  154.2875 C   0  0  0  0  0  0  0  0  0  0  0  0
  135.2960  138.7613  153.9118 O   0  0  0  0  0  0  0  0  0  0  0  0
  137.5034  137.8317  154.0700 C   0  0  0  0  0  0  0  0  0  0  0  0
  138.1623  138.8587  153.3553 C   0  0  0  0  0  0  0  0  0  0  0  0
  139.5572  138.8167  153.1690 C   0  0  0  0  0  0  0  0  0  0  0  0
  140.3265  137.7568  153.6879 C   0  0  0  0  0  0  0  0  0  0  0  0
  141.6853  137.7983  153.4602 O   0  0  0  0  0  0  0  0  0  0  0  0
  142.5287  136.9910  154.2711 C   0  0  0  0  0  0  0  0  0  0  0  0
  142.4130  135.5306  153.8102 C   0  0  2  0  0  0  0  0  0  0  0  0
  143.3303  134.7538  154.5545 O   0  0  0  0  0  0  0  0  0  0  0  0
  142.6816  135.3697  152.3001 C   0  0  0  0  0  0  0  0  0  0  0  0
  144.1029  135.1594  151.9901 N   0  0  0  0  0  0  0  0  0  0  0  0
  145.1749  135.9546  152.2542 C   0  0  0  0  0  0  0  0  0  0  0  0
  146.2833  135.3242  151.7761 N   0  3  0  0  0  0  0  0  0  0  0  0
  145.9149  134.1086  151.1960 C   0  0  0  0  0  0  0  0  0  0  0  0
  146.6816  133.1241  150.5803 C   0  0  0  0  0  0  0  0  0  0  0  0
  145.9891  131.9987  150.0870 C   0  0  0  0  0  0  0  0  0  0  0  0
  144.5897  131.8834  150.2146 C   0  0  0  0  0  0  0  0  0  0  0  0
  143.8227  132.8869  150.8425 C   0  0  0  0  0  0  0  0  0  0  0  0
  144.5144  133.9962  151.3286 C   0  0  0  0  0  0  0  0  0  0  0  0
  139.6678  136.7265  154.4025 C   0  0  0  0  0  0  0  0  0  0  0  0
  138.2727  136.7668  154.5903 C   0  0  0  0  0  0  0  0  0  0  0  0
  135.5796  135.7352  154.4647 H   0  0  0  0  0  0  0  0  0  0  0  0
  134.3272  136.7954  155.1181 H   0  0  0  0  0  0  0  0  0  0  0  0
  135.8294  136.5572  156.0156 H   0  0  0  0  0  0  0  0  0  0  0  0
  137.6170  139.6926  152.9396 H   0  0  0  0  0  0  0  0  0  0  0  0
  140.0431  139.6106  152.6209 H   0  0  0  0  0  0  0  0  0  0  0  0
  143.5665  137.3224  154.2033 H   0  0  0  0  0  0  0  0  0  0  0  0
  142.2135  137.0749  155.3127 H   0  0  0  0  0  0  0  0  0  0  0  0
  141.4125  135.1630  154.0417 H   0  0  0  0  0  0  0  0  0  0  0  0
  142.9135  133.9378  154.7870 H   0  0  0  0  0  0  0  0  0  0  0  0
  142.1427  134.5017  151.9183 H   0  0  0  0  0  0  0  0  0  0  0  0
  142.3127  136.2269  151.7365 H   0  0  0  0  0  0  0  0  0  0  0  0
  145.1504  136.9118  152.7549 H   0  0  0  0  0  0  0  0  0  0  0  0
  147.7536  133.2102  150.4802 H   0  0  0  0  0  0  0  0  0  0  0  0
  146.5423  131.2089  149.5996 H   0  0  0  0  0  0  0  0  0  0  0  0
  144.0930  131.0081  149.8218 H   0  0  0  0  0  0  0  0  0  0  0  0
  142.7506  132.7910  150.9294 H   0  0  0  0  0  0  0  0  0  0  0  0
  140.2099  135.8912  154.8185 H   0  0  0  0  0  0  0  0  0  0  0  0
  137.8005  135.9659  155.1411 H   0  0  0  0  0  0  0  0  0  0  0  0
  147.2213  135.6984  151.8420 H   0  0  0  0  0  0  0  0  0  0  0  0
  1  2  1  0  0  0  0
  1 24  1  0  0  0  0
  1 25  1  0  0  0  0
  1 26  1  0  0  0  0
  2  3  2  0  0  0  0
  2  4  1  0  0  0  0
  4 23  1  0  0  0  0
  4  5  2  0  0  0  0
  5  6  1  0  0  0  0
  5 27  1  0  0  0  0
  6  7  2  0  0  0  0
  6 28  1  0  0  0  0
  7  8  1  0  0  0  0
  7 22  1  0  0  0  0
  8  9  1  0  0  0  0
  9 10  1  0  0  0  0
  9 29  1  0  0  0  0
  9 30  1  0  0  0  0
 10 11  1  0  0  0  0
 10 12  1  0  0  0  0
 10 31  1  0  0  0  0
 11 32  1  0  0  0  0
 12 13  1  0  0  0  0
 12 33  1  0  0  0  0
 12 34  1  0  0  0  0
 13 21  1  0  0  0  0
 13 14  1  0  0  0  0
 14 15  2  0  0  0  0
 14 35  1  0  0  0  0
 15 16  1  0  0  0  0
 15 42  1  0  0  0  0
 16 21  2  0  0  0  0
 16 17  1  0  0  0  0
 17 18  2  0  0  0  0
 17 36  1  0  0  0  0
 18 19  1  0  0  0  0
 18 37  1  0  0  0  0
 19 20  2  0  0  0  0
 19 38  1  0  0  0  0
 20 21  1  0  0  0  0
 20 39  1  0  0  0  0
 22 23  2  0  0  0  0
 22 40  1  0  0  0  0
 23 41  1  0  0  0  0
M  CHG  1  15   1
M  END
> <s_m_source_file>
AV-unprocessed.smi

> <i_m_source_file_index>
2147

> <i_lp_mmshare_version>
43012

> <i_f3d_flags>
0

> <s_epik_input>
W0NIM11DKD1PKWMxW2NIXVtjSF1jKFtjSF1bY0hdMSlPW0NIMl1bQ0BIXShbT0hdKVtDSDJdbihbY0hdbjIpYyhjMjMpW2NIXVtjSF1bY0hdW2NIXTM=

> <s_epik_cmdline>
J2VwaWtfcHl0aG9uJywgJy1waCcsICc3LjAnLCAnLXRuJywgJzgnLCAnLW1hJywgJzIwMCcsICctbWV0YWxfYmluZGluZycsICctaW1hZScsICc8aW5maWxlLm1hZT4nLCAnLW9tYWUnLCAnPG91dGZpbGUubWFlPic=

> <r_lp_tautomer_probability>
0.99995

> <r_epik_Ionization_Penalty>
1.40272

> <r_epik_Ionization_Penalty_Charging>
1.40272

> <r_epik_Ionization_Penalty_Neutral>
2.3993e-06

> <r_epik_State_Penalty>
1.48501

> <r_epik_Charging_Adjusted_Penalty>
2.88772

> <i_epik_Tot_Q>
1

> <i_epik_Tot_abs_Q>
1

> <r_epik_Metal_State_Penalty>
5.5274

> <b_epik_Metal_Only>
0

> <s_lp_Force_Field>
OPLS_2005

> <r_lp_Energy>
26.2273

> <b_lp_Chiralities_Consistent>
1

> <s_lp_Variant>
AV-unprocessed.smi:2147-3

> <Gold.Version>
5.8.1

> <Gold.Id.Protein>
6NUR|6NUR_protein|mol2

> <Gold.PLP.Fitness>
51.1285

> <Gold.PLP.PLP>
-43.2914

> <Gold.PLP.part.hbond>
-2.0000

> <Gold.PLP.part.metal>
0.0000

> <Gold.PLP.part.buried>
-6.1217

> <Gold.PLP.part.nonpolar>
-35.7919

> <Gold.PLP.part.repulsive>
0.2137

> <Gold.PLP.ligand.clash>
0.0000

> <Gold.PLP.ligand.torsion>
0.6585

> <Gold.PLP.Chemscore.Hbond>
3.0000

> <Gold.PLP.Chemscore.CHOScore>
0.0000

> <Gold.PLP.Chemscore.Metal>
0.0000

> <Gold.Chemscore.Hbonds>
donor molecule, donor type, donor heavy atom, donor atom, acceptor molecule, acceptor atom, score
      L1  H    11    32       P1 10957  0.62
      L1  H    15    42       P1  7948  2.00

> <Gold.PLP.Chemscore.Internal.Correction>
0.1541

> <Gold.Rescore>
     Score         DG    S(hbond)    S(metal)    S(lipo)     H(rot)  DE(clash)    DE(int)     intcor
     17.88     -18.49       1.99        0.00     108.79       2.48       0.10       0.51       ----

> <Gold.Chemscore.Fitness>
17.8807

> <Gold.Chemscore.DG>
-18.4925

> <Gold.Chemscore.ZeroCoef>
-5.4800

> <Gold.Chemscore.Hbond>
1.9891

> <Gold.Chemscore.Metal>
0.0000

> <Gold.Chemscore.Lipo>
108.7895

> <Gold.Chemscore.Internal_Hbond>
0.0000

> <Gold.Chemscore.DEClash>
0.1007

> <Gold.Chemscore.DEInternal>
0.5111

> <Gold.Chemscore.Rot>
2.4842

> <Gold.Chemscore.Internal.Correction>
   9.000000E+99

> <Gold.Chemscore.Hbonds>
donor molecule, donor type, donor heavy atom, donor atom, acceptor molecule, acceptor atom, score
      L1  H    11    32       P1 10957  0.62
      L1  H    15    42       P1  7948  1.00

> <Gold.Chemscore.Hbond.Weighted>
-6.6436

> <Gold.Chemscore.Metal.Weighted>
-0.0000

> <Gold.Chemscore.Lipo.Weighted>
-12.7284

> <Gold.Chemscore.Internal_Hbond.Weighted>
0.0000

> <Gold.Chemscore.DEClash.Weighted>
0.1007

> <Gold.Chemscore.DEInternal.Weighted>
0.5111

> <Gold.Chemscore.Rot.Weighted>
6.3594

> <Gold.Chemscore.Internal.Correction.Weighted>
   9.000000E+99

> <Gold.Protein.RotatedTorsions>
[ 6907 6896 6895 6894 ] final -132.29 input  -60.11 | X-H torsion
[ 7974 7965 7964 7962 ] final -118.65 input  175.53 | X-H torsion
[ 8008 7997 7996 7995 ] final  -50.13 input   59.86 | X-H torsion
[ 10167 10162 10161 10158 ] final  -38.21 input  -65.29 | X-H torsion
[ 10718 10713 10712 10709 ] final   10.66 input   66.30 | X-H torsion
[ 10763 10752 10751 10750 ] final   68.10 input  -60.55 | X-H torsion
[ 11005 11000 10999 10996 ] final  -67.23 input  -57.11 | X-H torsion

> <Gold.Protein.ActiveResidues>
 VAL166  LYS551  ARG553  GLY616  TRP617  ASP618  TYR619  PRO620  LYS621  CYS622 
 ASP623  PHE694  ASN695  SER759  ASP760  ASP761  ALA762  ILE779  LEU786  VAL792 
 PHE793  MET794  SER795  GLU796  ALA797  LYS798  CYS799  TRP800  GLU811  SER814 

> <Gold.Protein.RotatedAtoms>
  150.9608  133.6448  159.2754 H   0  0  0  0  0  0  0  0  0  0  0  0  # atno 6907 bound_to 6896
  151.3771  135.0932  159.9494 H   0  0  0  0  0  0  0  0  0  0  0  0  # atno 6908 bound_to 6896
  152.5147  133.9150  159.7561 H   0  0  0  0  0  0  0  0  0  0  0  0  # atno 6909 bound_to 6896
  145.0715  140.8362  143.4093 H   0  0  0  0  0  0  0  0  0  0  0  0  # atno 7974 bound_to 7965
  154.4056  140.1280  156.4615 H   0  0  0  0  0  0  0  0  0  0  0  0  # atno 8008 bound_to 7997
  155.7268  140.3492  155.5021 H   0  0  0  0  0  0  0  0  0  0  0  0  # atno 8009 bound_to 7997
  155.9164  140.1045  157.1230 H   0  0  0  0  0  0  0  0  0  0  0  0  # atno 8010 bound_to 7997
  140.7098  143.3291  151.2610 H   0  0  0  0  0  0  0  0  0  0  0  0  # atno 10167 bound_to 10162
  156.9843  130.6018  149.5679 H   0  0  0  0  0  0  0  0  0  0  0  0  # atno 10718 bound_to 10713
  153.0219  135.5259  154.7082 H   0  0  0  0  0  0  0  0  0  0  0  0  # atno 10763 bound_to 10752
  154.6172  135.2885  155.0369 H   0  0  0  0  0  0  0  0  0  0  0  0  # atno 10764 bound_to 10752
  154.1369  135.6584  153.4986 H   0  0  0  0  0  0  0  0  0  0  0  0  # atno 10765 bound_to 10752
  141.1503  133.6715  156.6261 H   0  0  0  0  0  0  0  0  0  0  0  0  # atno 11005 bound_to 11000
  145.1287  139.2646  143.5550 LP  0  0  0  0  0  0  0  0  0  0  0  0  # atno 17320 bound_to 7965
  146.3529  140.0932  142.8611 LP  0  0  0  0  0  0  0  0  0  0  0  0  # atno 17321 bound_to 7965
  139.6768  143.9923  152.2786 LP  0  0  0  0  0  0  0  0  0  0  0  0  # atno 17342 bound_to 10162
  139.9540  144.6602  150.8144 LP  0  0  0  0  0  0  0  0  0  0  0  0  # atno 17343 bound_to 10162
  156.0232  130.5326  150.8334 LP  0  0  0  0  0  0  0  0  0  0  0  0  # atno 17370 bound_to 10713
  157.5504  131.0943  150.9703 LP  0  0  0  0  0  0  0  0  0  0  0  0  # atno 17371 bound_to 10713
  140.3502  134.7775  157.4461 LP  0  0  0  0  0  0  0  0  0  0  0  0  # atno 17394 bound_to 11000
  140.0867  134.5657  155.8485 LP  0  0  0  0  0  0  0  0  0  0  0  0  # atno 17395 bound_to 11000

$$$$
