AV-unprocessed.smi:2339|AV-procd|sdf|9339|dock6
  -GOLD-   2272012563D 1   1.00000     0.00000
 Structure written by MMmdl.
 49 52  0  0  0  0  0  0  0  0  1 V2000
  148.4127  131.3936  161.6045 C   0  0  0  0  0  0  0  0  0  0  0  0
  147.7757  132.2844  160.5321 C   0  0  0  0  0  0  0  0  0  0  0  0
  147.6344  133.6597  160.9883 N   0  0  0  0  0  0  0  0  0  0  0  0
  146.8949  133.9722  162.1238 C   0  0  0  0  0  0  0  0  0  0  0  0
  146.6994  135.2261  162.5747 C   0  0  0  0  0  0  0  0  0  0  0  0
  147.2898  136.3609  161.8372 C   0  0  0  0  0  0  0  0  0  0  0  0
  147.1403  137.5177  162.2302 O   0  0  0  0  0  0  0  0  0  0  0  0
  148.0643  136.0294  160.6115 C   0  0  0  0  0  0  0  0  0  0  0  0
  148.6046  137.1175  159.9053 N   0  0  0  0  0  0  0  0  0  0  0  0
  149.6740  137.1649  159.0844 C   0  0  0  0  0  0  0  0  0  0  0  0
  150.4188  136.2220  158.8281 O   0  0  0  0  0  0  0  0  0  0  0  0
  149.8778  138.3704  158.5268 N   0  0  0  0  0  0  0  0  0  0  0  0
  150.9362  138.7660  157.5975 C   0  0  1  0  0  0  0  0  0  0  0  0
  150.5859  138.4032  156.1539 C   0  0  2  0  0  0  0  0  0  0  0  0
  151.1180  137.4262  155.1674 C   0  0  0  0  0  0  0  0  0  0  0  0
  151.2048  138.3808  153.9475 C   0  0  0  0  0  0  0  0  0  0  0  0
  150.9814  139.7132  154.4692 O   0  0  0  0  0  0  0  0  0  0  0  0
  151.4079  139.6281  155.8138 C   0  0  1  0  0  0  0  0  0  0  0  0
  150.8487  140.2622  157.1023 C   0  0  0  0  0  0  0  0  0  0  0  0
  149.4936  140.9849  157.0451 C   0  0  0  0  0  0  0  0  0  0  0  0
  149.4204  141.8857  158.2757 C   0  0  0  0  0  0  0  0  0  0  0  0
  150.8669  142.2772  158.5712 C   0  0  0  0  0  0  0  0  0  0  0  0
  151.7473  141.2863  157.7984 C   0  0  0  0  0  0  0  0  0  0  0  0
  148.1827  134.7205  160.2699 C   0  0  0  0  0  0  0  0  0  0  0  0
  148.5139  130.3688  161.2468 H   0  0  0  0  0  0  0  0  0  0  0  0
  147.8057  131.3720  162.5102 H   0  0  0  0  0  0  0  0  0  0  0  0
  149.4067  131.7517  161.8746 H   0  0  0  0  0  0  0  0  0  0  0  0
  148.3805  132.2619  159.6248 H   0  0  0  0  0  0  0  0  0  0  0  0
  146.7972  131.8895  160.2561 H   0  0  0  0  0  0  0  0  0  0  0  0
  146.4812  133.1153  162.6357 H   0  0  0  0  0  0  0  0  0  0  0  0
  146.1193  135.4215  163.4646 H   0  0  0  0  0  0  0  0  0  0  0  0
  148.0958  137.9824  160.0190 H   0  0  0  0  0  0  0  0  0  0  0  0
  149.2213  139.0963  158.7756 H   0  0  0  0  0  0  0  0  0  0  0  0
  151.9390  138.4400  157.8889 H   0  0  0  0  0  0  0  0  0  0  0  0
  149.5175  138.5543  155.9731 H   0  0  0  0  0  0  0  0  0  0  0  0
  152.0976  137.0443  155.4583 H   0  0  0  0  0  0  0  0  0  0  0  0
  150.4437  136.5869  154.9956 H   0  0  0  0  0  0  0  0  0  0  0  0
  152.1845  138.3162  153.4726 H   0  0  0  0  0  0  0  0  0  0  0  0
  150.4480  138.1522  153.1968 H   0  0  0  0  0  0  0  0  0  0  0  0
  152.4907  139.4674  155.8696 H   0  0  0  0  0  0  0  0  0  0  0  0
  149.4424  141.5993  156.1453 H   0  0  0  0  0  0  0  0  0  0  0  0
  148.6370  140.3119  157.0132 H   0  0  0  0  0  0  0  0  0  0  0  0
  148.7757  142.7512  158.1206 H   0  0  0  0  0  0  0  0  0  0  0  0
  149.0157  141.3237  159.1179 H   0  0  0  0  0  0  0  0  0  0  0  0
  151.0637  143.2941  158.2298 H   0  0  0  0  0  0  0  0  0  0  0  0
  151.0707  142.2477  159.6423 H   0  0  0  0  0  0  0  0  0  0  0  0
  152.4616  140.8027  158.4637 H   0  0  0  0  0  0  0  0  0  0  0  0
  152.3403  141.8302  157.0618 H   0  0  0  0  0  0  0  0  0  0  0  0
  148.7238  134.3842  159.4007 H   0  0  0  0  0  0  0  0  0  0  0  0
  1  2  1  0  0  0  0
  1 25  1  0  0  0  0
  1 26  1  0  0  0  0
  1 27  1  0  0  0  0
  2  3  1  0  0  0  0
  2 28  1  0  0  0  0
  2 29  1  0  0  0  0
  3 24  1  0  0  0  0
  3  4  1  0  0  0  0
  4  5  2  0  0  0  0
  4 30  1  0  0  0  0
  5  6  1  0  0  0  0
  5 31  1  0  0  0  0
  6  7  2  0  0  0  0
  6  8  1  0  0  0  0
  8  9  1  0  0  0  0
  8 24  2  0  0  0  0
  9 10  1  0  0  0  0
  9 32  1  0  0  0  0
 10 11  2  0  0  0  0
 10 12  1  0  0  0  0
 12 13  1  0  0  0  0
 12 33  1  0  0  0  0
 13 19  1  0  0  0  0
 13 14  1  0  0  0  0
 13 34  1  0  0  0  0
 14 18  1  0  0  0  0
 14 15  1  0  0  0  0
 14 35  1  0  0  0  0
 15 16  1  0  0  0  0
 15 36  1  0  0  0  0
 15 37  1  0  0  0  0
 16 17  1  0  0  0  0
 16 38  1  0  0  0  0
 16 39  1  0  0  0  0
 17 18  1  0  0  0  0
 18 19  1  0  0  0  0
 18 40  1  0  0  0  0
 19 23  1  0  0  0  0
 19 20  1  0  0  0  0
 20 21  1  0  0  0  0
 20 41  1  0  0  0  0
 20 42  1  0  0  0  0
 21 22  1  0  0  0  0
 21 43  1  0  0  0  0
 21 44  1  0  0  0  0
 22 23  1  0  0  0  0
 22 45  1  0  0  0  0
 22 46  1  0  0  0  0
 23 47  1  0  0  0  0
 23 48  1  0  0  0  0
 24 49  1  0  0  0  0
M  END
> <s_m_source_file>
AV-unprocessed.smi

> <i_m_source_file_index>
2339

> <i_lp_mmshare_version>
43012

> <i_f3d_flags>
0

> <s_epik_input>
W0NIM11bQ0gyXW4xW2NIXVtjSF1jKD1PKWMoW2NIXTEpW05IXUMoPU8pW05IXVtDQEBIXTJbQ0BASF0oW0NIMl1bQ0gyXU8zKVtDQEBIXTNDMjRbQ0gyXVtDSDJdW0NIMl1bQ0gyXTQ=

> <s_epik_cmdline>
J2VwaWtfcHl0aG9uJywgJy1waCcsICc3LjAnLCAnLXRuJywgJzgnLCAnLW1hJywgJzIwMCcsICctbWV0YWxfYmluZGluZycsICctaW1hZScsICc8aW5maWxlLm1hZT4nLCAnLW9tYWUnLCAnPG91dGZpbGUubWFlPic=

> <r_lp_tautomer_probability>
1

> <r_epik_Ionization_Penalty>
0.00145966

> <r_epik_Ionization_Penalty_Charging>
0.00143969

> <r_epik_Ionization_Penalty_Neutral>
1.99697e-05

> <r_epik_State_Penalty>
0.000961843

> <r_epik_Charging_Adjusted_Penalty>
0.00240153

> <i_epik_Tot_Q>
0

> <i_epik_Tot_abs_Q>
0

> <r_epik_Metal_State_Penalty>
-0

> <b_epik_Metal_Only>
0

> <s_lp_Force_Field>
OPLS_2005

> <r_lp_Energy>
78.6826

> <b_lp_Chiralities_Consistent>
1

> <s_lp_Variant>
AV-unprocessed.smi:2339-4

> <Gold.Version>
5.8.1

> <Gold.Id.Protein>
6NUR|6NUR_protein|mol2

> <Gold.PLP.Fitness>
51.2275

> <Gold.PLP.PLP>
-41.7982

> <Gold.PLP.part.hbond>
-4.0000

> <Gold.PLP.part.metal>
0.0000

> <Gold.PLP.part.buried>
-6.7109

> <Gold.PLP.part.nonpolar>
-31.5562

> <Gold.PLP.part.repulsive>
1.0580

> <Gold.PLP.ligand.clash>
0.0000

> <Gold.PLP.ligand.torsion>
0.3174

> <Gold.PLP.Chemscore.Hbond>
3.2583

> <Gold.PLP.Chemscore.CHOScore>
0.0000

> <Gold.PLP.Chemscore.Metal>
0.0000

> <Gold.Chemscore.Hbonds>
donor molecule, donor type, donor heavy atom, donor atom, acceptor molecule, acceptor atom, score
      P1  H  6896  6908       L1    11  1.00
      P1  H  6931  6943       L1     7  0.62
      P1  H  6934  6947       L1     7  0.61
      P1  H  7989  7998       L1    17  1.00

> <Gold.PLP.Chemscore.Internal.Correction>
0.2893

> <Gold.Rescore>
     Score         DG    S(hbond)    S(metal)    S(lipo)     H(rot)  DE(clash)    DE(int)     intcor
     22.65     -23.45       3.17        0.00      88.49       1.17       0.37       0.43       ----

> <Gold.Chemscore.Fitness>
22.6460

> <Gold.Chemscore.DG>
-23.4481

> <Gold.Chemscore.ZeroCoef>
-5.4800

> <Gold.Chemscore.Hbond>
3.1743

> <Gold.Chemscore.Metal>
0.0000

> <Gold.Chemscore.Lipo>
88.4908

> <Gold.Chemscore.Internal_Hbond>
0.0000

> <Gold.Chemscore.DEClash>
0.3679

> <Gold.Chemscore.DEInternal>
0.4342

> <Gold.Chemscore.Rot>
1.1670

> <Gold.Chemscore.Internal.Correction>
   9.000000E+99

> <Gold.Chemscore.Hbonds>
donor molecule, donor type, donor heavy atom, donor atom, acceptor molecule, acceptor atom, score
      P1  H  6896  6908       L1    11  0.97
      P1  H  6931  6943       L1     7  0.18
      P1  H  6934  6947       L1     7  0.58
      P1  H  7989  7998       L1    17  0.76

> <Gold.Chemscore.Hbond.Weighted>
-10.6022

> <Gold.Chemscore.Metal.Weighted>
-0.0000

> <Gold.Chemscore.Lipo.Weighted>
-10.3534

> <Gold.Chemscore.Internal_Hbond.Weighted>
0.0000

> <Gold.Chemscore.DEClash.Weighted>
0.3679

> <Gold.Chemscore.DEInternal.Weighted>
0.4342

> <Gold.Chemscore.Rot.Weighted>
2.9874

> <Gold.Chemscore.Internal.Correction.Weighted>
   9.000000E+99

> <Gold.Protein.RotatedTorsions>
[ 6907 6896 6895 6894 ] final -157.44 input  -60.11 | X-H torsion
[ 7974 7965 7964 7962 ] final  -77.79 input  175.53 | X-H torsion
[ 8008 7997 7996 7995 ] final  156.04 input   59.86 | X-H torsion
[ 10167 10162 10161 10158 ] final  150.81 input  -65.29 | X-H torsion
[ 10718 10713 10712 10709 ] final   89.98 input   66.30 | X-H torsion
[ 10763 10752 10751 10750 ] final   82.71 input  -60.55 | X-H torsion
[ 11005 11000 10999 10996 ] final -116.44 input  -57.11 | X-H torsion

> <Gold.Protein.ActiveResidues>
 VAL166  LYS551  ARG553  GLY616  TRP617  ASP618  TYR619  PRO620  LYS621  CYS622 
 ASP623  PHE694  ASN695  SER759  ASP760  ASP761  ALA762  ILE779  LEU786  VAL792 
 PHE793  MET794  SER795  GLU796  ALA797  LYS798  CYS799  TRP800  GLU811  SER814 

> <Gold.Protein.RotatedAtoms>
  151.3029  133.4114  159.2640 H   0  0  0  0  0  0  0  0  0  0  0  0  # atno 6907 bound_to 6896
  151.0180  134.9448  159.8054 H   0  0  0  0  0  0  0  0  0  0  0  0  # atno 6908 bound_to 6896
  152.5317  134.2993  159.9125 H   0  0  0  0  0  0  0  0  0  0  0  0  # atno 6909 bound_to 6896
  145.5950  140.9421  143.1272 H   0  0  0  0  0  0  0  0  0  0  0  0  # atno 7974 bound_to 7965
  156.2445  140.1923  156.6894 H   0  0  0  0  0  0  0  0  0  0  0  0  # atno 8008 bound_to 7997
  154.6263  140.0602  156.9703 H   0  0  0  0  0  0  0  0  0  0  0  0  # atno 8009 bound_to 7997
  155.1782  140.3274  155.4382 H   0  0  0  0  0  0  0  0  0  0  0  0  # atno 8010 bound_to 7997
  139.4846  144.5492  151.7431 H   0  0  0  0  0  0  0  0  0  0  0  0  # atno 10167 bound_to 10162
  157.6957  131.0353  150.3508 H   0  0  0  0  0  0  0  0  0  0  0  0  # atno 10718 bound_to 10713
  153.1227  135.4718  154.9221 H   0  0  0  0  0  0  0  0  0  0  0  0  # atno 10763 bound_to 10752
  154.7590  135.3126  154.8416 H   0  0  0  0  0  0  0  0  0  0  0  0  # atno 10764 bound_to 10752
  153.8977  135.6878  153.4810 H   0  0  0  0  0  0  0  0  0  0  0  0  # atno 10765 bound_to 10752
  141.0422  133.9818  157.2976 H   0  0  0  0  0  0  0  0  0  0  0  0  # atno 11005 bound_to 11000
  144.7334  139.7656  143.7338 LP  0  0  0  0  0  0  0  0  0  0  0  0  # atno 17320 bound_to 7965
  146.1619  139.4736  142.9983 LP  0  0  0  0  0  0  0  0  0  0  0  0  # atno 17321 bound_to 7965
  140.5043  144.1122  150.5978 LP  0  0  0  0  0  0  0  0  0  0  0  0  # atno 17342 bound_to 10162
  140.4026  143.2696  151.9930 LP  0  0  0  0  0  0  0  0  0  0  0  0  # atno 17343 bound_to 10162
  156.3957  130.3906  149.6997 LP  0  0  0  0  0  0  0  0  0  0  0  0  # atno 17370 bound_to 10713
  156.4331  130.7825  151.2845 LP  0  0  0  0  0  0  0  0  0  0  0  0  # atno 17371 bound_to 10713
  139.9284  135.0201  156.8316 LP  0  0  0  0  0  0  0  0  0  0  0  0  # atno 17394 bound_to 11000
  140.6213  133.9991  155.7620 LP  0  0  0  0  0  0  0  0  0  0  0  0  # atno 17395 bound_to 11000

$$$$
