#       Name:                AV-unprocessed.smi:3171
#       Creating user name   scv26
#       Creation time:       Fri Mar 27 17:55:12 2020


#       File generated by GOLD software.
#

@<TRIPOS>MOLECULE
AV-unprocessed.smi:3171
    38    39     1
SMALL
NO_CHARGES


@<TRIPOS>ATOM
      1 ****        -4.5384  -0.0406   0.5894 C.3            1 S1                 0.0000
      2 ****        -3.0479  -0.2871   0.7415 C.ar           1 S1                 0.0000
      3 ****        -2.2963   0.8276   0.8749 N.ar           1 S1                 0.0000
      4 ****        -0.9735   0.7375   1.0190 N.ar           1 S1                 0.0000
      5 ****        -0.3530  -0.4672   1.0322 C.ar           1 S1                 0.0000
      6 ****         1.0459  -0.4806   1.1901 N.pl3          1 S1                 0.0000
      7 ****         1.8443   0.7283   1.0247 C.3            1 S1                 0.0000
      8 ****         1.9910   1.1341  -0.4508 C.3            1 S1                 0.0000
      9 ****         2.7109   2.4648  -0.6471 C.3            1 S1                 0.0000
     10 ****         3.1887   2.3406  -2.0763 C.3            1 S1                 0.0000
     11 ****         3.5493   0.8587  -2.1713 C.3            1 S1                 0.0000
     12 ****         2.8069   0.1981  -1.1482 O.3            1 S1                 0.0000
     13 ****        -1.0810  -1.6784   0.8997 C.ar           1 S1                 0.0000
     14 ****        -0.4086  -2.9760   0.9191 C.1            1 S1                 0.0000
     15 ****         0.1235  -4.0035   0.9344 N.1            1 S1                 0.0000
     16 ****        -2.4874  -1.5875   0.7456 C.ar           1 S1                 0.0000
     17 ****        -3.3514  -2.8372   0.5962 C.3            1 S1                 0.0000
     18 ****        -5.0910  -0.5377   1.3869 H              1 S1                 0.0000
     19 ****        -4.8914  -0.4192  -0.3700 H              1 S1                 0.0000
     20 ****        -4.7748   1.0234   0.6342 H              1 S1                 0.0000
     21 ****         1.5268  -1.3677   1.1473 H              1 S1                 0.0000
     22 ****         1.4015   1.5422   1.5999 H              1 S1                 0.0000
     23 ****         2.8289   0.5527   1.4591 H              1 S1                 0.0000
     24 ****         1.0189   1.1818  -0.9444 H              1 S1                 0.0000
     25 ****         2.0631   3.3269  -0.4860 H              1 S1                 0.0000
     26 ****         3.5645   2.5444   0.0276 H              1 S1                 0.0000
     27 ****         2.3721   2.5721  -2.7617 H              1 S1                 0.0000
     28 ****         4.0257   2.9997  -2.3083 H              1 S1                 0.0000
     29 ****         3.3187   0.4463  -3.1538 H              1 S1                 0.0000
     30 ****         4.6121   0.7060  -1.9813 H              1 S1                 0.0000
     31 ****        -2.9933  -3.4500  -0.2317 H              1 S1                 0.0000
     32 ****        -4.3993  -2.6172   0.4005 H              1 S1                 0.0000
     33 ****        -3.3056  -3.4346   1.5072 H              1 S1                 0.0000
     34 ****        -2.7348   1.7263   0.8656 LP             1 S1                 0.0000
     35 ****        -0.4312   1.5717   1.1189 LP             1 S1                 0.0000
     36 ****         2.2259  -0.5029  -1.5618 LP             1 S1                 0.0000
     37 ****         3.4408  -0.2314  -0.5049 LP             1 S1                 0.0000
     38 ****         0.5833  -4.8914   0.9477 LP             1 S1                 0.0000
@<TRIPOS>BOND
    1    1    2 1     
    2    1   18 1     
    3    1   19 1     
    4    1   20 1     
    5    2   16 ar    
    6    2    3 ar    
    7    3    4 ar    
    8    4    5 ar    
    9    5    6 1     
   10    5   13 ar    
   11    6    7 1     
   12    6   21 1     
   13    7    8 1     
   14    7   22 1     
   15    7   23 1     
   16    8   12 1     
   17    8    9 1     
   18    8   24 1     
   19    9   10 1     
   20    9   25 1     
   21    9   26 1     
   22   10   11 1     
   23   10   27 1     
   24   10   28 1     
   25   11   12 1     
   26   11   29 1     
   27   11   30 1     
   28   13   14 1     
   29   13   16 ar    
   30   14   15 3     
   31   16   17 1     
   32   17   31 1     
   33   17   32 1     
   34   17   33 1     
   35    3   34 1     
   36    4   35 1     
   37   12   36 1     
   38   12   37 1     
   39   15   38 1     
@<TRIPOS>SUBSTRUCTURE
      1 S1             1
@<TRIPOS>SET
LONE_PAIRS      STATIC     ATOMS    <user>   **** ""
5 34 35 36 37 38
DONOR_HYDROGENS      STATIC     ATOMS    <user>   **** ""
1 21
ATOM$BLUE        STATIC     ATOMS    COLORGROUP SYSTEM
5 34 35 36 37 38
ATOM$RED        STATIC     ATOMS    COLORGROUP SYSTEM
1 21
