#       Name:                AV-unprocessed.smi:72
#       Creating user name   scv26
#       Creation time:       Thu Mar 26 17:02:14 2020


#       File generated by GOLD software.
#

@<TRIPOS>MOLECULE
AV-unprocessed.smi:72
    41    42     1
SMALL
NO_CHARGES


@<TRIPOS>ATOM
      1 ****        -5.0147  -0.0103   0.5755 N.pl3          1 S1                 0.0000
      2 ****        -3.6699  -0.3097   0.6467 C.2            1 S1                 0.0000
      3 ****        -2.8170   0.3523  -0.2172 N.pl3          1 S1                 1.0000
      4 ****        -1.4934   0.1586  -0.2879 C.2            1 S1                 0.0000
      5 ****        -0.9345  -0.7551   0.4786 N.am           1 S1                 0.0000
      6 ****         0.5603  -0.9562   0.4307 C.3            1 S1                 0.0000
      7 ****         1.1381   0.1967   0.9522 O.3            1 S1                 0.0000
      8 ****         2.3107   0.5060   0.2120 C.3            1 S1                 0.0000
      9 ****         2.6435   1.9995   0.3541 C.3            1 S1                 0.0000
     10 ****         3.3521   2.2231   1.5540 O.3            1 S1                 0.0000
     11 ****         1.9358   0.0928  -1.2158 C.3            1 S1                 0.0000
     12 ****         3.0980  -0.1980  -1.9656 O.3            1 S1                 0.0000
     13 ****         1.1039  -1.1659  -0.9987 C.3            1 S1                 0.0000
     14 ****         0.1080  -1.3144  -1.9952 O.3            1 S1                 0.0000
     15 ****        -1.7149  -1.4192   1.4611 C.2            1 S1                 0.0000
     16 ****        -1.1980  -2.1994   2.2591 O.2            1 S1                 0.0000
     17 ****        -3.0922  -1.1525   1.4572 N.2            1 S1                 0.0000
     18 ****         0.8059  -1.8083   1.0639 H              1 S1                 0.0000
     19 ****         3.1314  -0.1183   0.5731 H              1 S1                 0.0000
     20 ****         1.3501   0.8760  -1.7000 H              1 S1                 0.0000
     21 ****         1.7393  -2.0531  -0.9838 H              1 S1                 0.0000
     22 ****        -5.7085  -0.4371   1.1735 H              1 S1                 0.0000
     23 ****        -5.4124   0.6517  -0.0754 H              1 S1                 0.0000
     24 ****        -0.8984   0.7664  -0.9578 H              1 S1                 0.0000
     25 ****         3.2842   2.3214  -0.4673 H              1 S1                 0.0000
     26 ****         1.7427   2.6130   0.3227 H              1 S1                 0.0000
     27 ****         3.5772   3.1397   1.6053 H              1 S1                 0.0000
     28 ****         3.5871  -0.8706  -1.5166 H              1 S1                 0.0000
     29 ****        -0.2882  -2.1677  -1.9012 H              1 S1                 0.0000
     30 ****        -3.2257   1.0380  -0.8360 H              1 S1                 0.0000
     31 ****         1.3777   0.0466   1.9114 LP             1 S1                 0.0000
     32 ****         0.4902   0.9555   0.8853 LP             1 S1                 0.0000
     33 ****         4.1856   1.6707   1.5608 LP             1 S1                 0.0000
     34 ****         2.7798   1.9726   2.3348 LP             1 S1                 0.0000
     35 ****         3.6585   0.6258  -2.0509 LP             1 S1                 0.0000
     36 ****         2.8393  -0.5208  -2.8761 LP             1 S1                 0.0000
     37 ****         0.5234  -1.2339  -2.9013 LP             1 S1                 0.0000
     38 ****        -0.5885  -0.6055  -1.8837 LP             1 S1                 0.0000
     39 ****        -0.2141  -2.3739   2.2217 LP             1 S1                 0.0000
     40 ****        -1.7617  -2.6592   2.9452 LP             1 S1                 0.0000
     41 ****        -3.6662  -1.6384   2.1163 LP             1 S1                 0.0000
@<TRIPOS>BOND
    1    1    2 1     
    2    1   22 1     
    3    1   23 1     
    4    2   17 2     
    5    2    3 1     
    6    3    4 2     
    7    3   30 1     
    8    4    5 1     
    9    4   24 1     
   10    5    6 1     
   11    5   15 am    
   12    6   18 1     
   13    6   13 1     
   14    6    7 1     
   15    7    8 1     
   16    8   19 1     
   17    8    9 1     
   18    8   11 1     
   19    9   10 1     
   20    9   25 1     
   21    9   26 1     
   22   10   27 1     
   23   11   20 1     
   24   11   12 1     
   25   11   13 1     
   26   12   28 1     
   27   13   21 1     
   28   13   14 1     
   29   14   29 1     
   30   15   16 2     
   31   15   17 1     
   32    7   31 1     
   33    7   32 1     
   34   10   33 1     
   35   10   34 1     
   36   12   35 1     
   37   12   36 1     
   38   14   37 1     
   39   14   38 1     
   40   16   39 1     
   41   16   40 1     
   42   17   41 1     
@<TRIPOS>SUBSTRUCTURE
      1 S1             1
@<TRIPOS>SET
LONE_PAIRS      STATIC     ATOMS    <user>   **** ""
11 31 32 33 34 35 36 37 38 39 40 41
DONOR_HYDROGENS      STATIC     ATOMS    <user>   **** ""
6 22 23 30 27 28 29
ATOM$BLUE        STATIC     ATOMS    COLORGROUP SYSTEM
11 31 32 33 34 35 36 37 38 39 40 41
ATOM$RED        STATIC     ATOMS    COLORGROUP SYSTEM
6 22 23 30 27 28 29
