AV-unprocessed.smi:3149|AV-procd|sdf|12002|dock4
  -GOLD-   2272017403D 1   1.00000     0.00000
 Structure written by MMmdl.
 38 39  0  0  0  0  0  0  0  0  2 V2000
  149.6927  142.3097  158.6094 C   0  0  0  0  0  0  0  0  0  0  0  0
  151.0387  142.3770  157.8620 C   0  0  1  0  0  0  0  0  0  0  0  0
  150.8045  142.6267  156.4201 N   0  3  0  0  0  0  0  0  0  0  0  0
  150.2938  141.4742  155.6489 C   0  0  0  0  0  0  0  0  0  0  0  0
  151.2529  140.2829  155.7274 C   0  0  0  0  0  0  0  0  0  0  0  0
  152.2183  140.3050  156.4917 O   0  0  0  0  0  0  0  0  0  0  0  0
  150.9334  139.1503  154.9760 N   0  0  0  0  0  0  0  0  0  0  0  0
  149.5543  138.7234  154.7923 C   0  0  0  0  0  0  0  0  0  0  0  0
  150.1198  137.3021  154.7057 C   0  0  0  0  0  0  0  0  0  0  0  0
  151.3940  137.8286  155.3747 C   0  0  0  0  0  0  0  0  0  0  0  0
  151.9839  143.4667  158.4393 C   0  0  1  0  0  0  0  0  0  0  0  0
  151.4558  144.8991  158.2366 C   0  0  0  0  0  0  0  0  0  0  0  0
  152.2624  143.2503  159.8555 N   0  0  0  0  0  0  0  0  0  0  0  0
  151.9432  144.0677  160.9205 C   0  0  0  0  0  0  0  0  0  0  0  0
  152.3834  143.4507  162.0561 C   0  0  0  0  0  0  0  0  0  0  0  0
  152.9555  142.2377  161.5826 C   0  0  0  0  0  0  0  0  0  0  0  0
  152.8772  142.1181  160.2673 N   0  0  0  0  0  0  0  0  0  0  0  0
  149.8272  142.0495  159.6587 H   0  0  0  0  0  0  0  0  0  0  0  0
  149.0341  141.5514  158.1868 H   0  0  0  0  0  0  0  0  0  0  0  0
  149.1673  143.2645  158.5672 H   0  0  0  0  0  0  0  0  0  0  0  0
  151.5344  141.4100  157.9623 H   0  0  0  0  0  0  0  0  0  0  0  0
  150.1770  143.4103  156.3119 H   0  0  0  0  0  0  0  0  0  0  0  0
  149.3253  141.1668  156.0450 H   0  0  0  0  0  0  0  0  0  0  0  0
  150.1506  141.7641  154.6081 H   0  0  0  0  0  0  0  0  0  0  0  0
  148.9259  138.8814  155.6712 H   0  0  0  0  0  0  0  0  0  0  0  0
  149.0939  139.0849  153.8722 H   0  0  0  0  0  0  0  0  0  0  0  0
  149.5743  136.5664  155.2976 H   0  0  0  0  0  0  0  0  0  0  0  0
  150.2785  136.9609  153.6809 H   0  0  0  0  0  0  0  0  0  0  0  0
  152.3225  137.5190  154.8936 H   0  0  0  0  0  0  0  0  0  0  0  0
  151.4065  137.6747  156.4558 H   0  0  0  0  0  0  0  0  0  0  0  0
  152.9400  143.3931  157.9182 H   0  0  0  0  0  0  0  0  0  0  0  0
  151.4000  145.1658  157.1818 H   0  0  0  0  0  0  0  0  0  0  0  0
  152.1131  145.6281  158.7121 H   0  0  0  0  0  0  0  0  0  0  0  0
  150.4614  145.0216  158.6670 H   0  0  0  0  0  0  0  0  0  0  0  0
  151.4355  145.0114  160.7843 H   0  0  0  0  0  0  0  0  0  0  0  0
  152.3030  143.8088  163.0720 H   0  0  0  0  0  0  0  0  0  0  0  0
  153.4193  141.4453  162.1515 H   0  0  0  0  0  0  0  0  0  0  0  0
  151.6945  142.8740  156.0103 H   0  0  0  0  0  0  0  0  0  0  0  0
  1  2  1  0  0  0  0
  1 18  1  0  0  0  0
  1 19  1  0  0  0  0
  1 20  1  0  0  0  0
  2  3  1  0  0  0  0
  2 11  1  0  0  0  0
  2 21  1  0  0  0  0
  3  4  1  0  0  0  0
  3 22  1  0  0  0  0
  3 38  1  0  0  0  0
  4  5  1  0  0  0  0
  4 23  1  0  0  0  0
  4 24  1  0  0  0  0
  5  6  2  0  0  0  0
  5  7  1  0  0  0  0
  7 10  1  0  0  0  0
  7  8  1  0  0  0  0
  8  9  1  0  0  0  0
  8 25  1  0  0  0  0
  8 26  1  0  0  0  0
  9 10  1  0  0  0  0
  9 27  1  0  0  0  0
  9 28  1  0  0  0  0
 10 29  1  0  0  0  0
 10 30  1  0  0  0  0
 11 12  1  0  0  0  0
 11 13  1  0  0  0  0
 11 31  1  0  0  0  0
 12 32  1  0  0  0  0
 12 33  1  0  0  0  0
 12 34  1  0  0  0  0
 13 17  1  0  0  0  0
 13 14  1  0  0  0  0
 14 15  2  0  0  0  0
 14 35  1  0  0  0  0
 15 16  1  0  0  0  0
 15 36  1  0  0  0  0
 16 17  2  0  0  0  0
 16 37  1  0  0  0  0
M  CHG  1   3   1
M  END
> <s_m_source_file>
AV-unprocessed.smi

> <i_m_source_file_index>
3149

> <i_lp_mmshare_version>
43012

> <i_f3d_flags>
0

> <s_epik_input>
bjFbY0hdW2NIXVtjSF1uMVtDQEBIXShbQ0gzXSlbQ0BIXShbQ0gzXSlbTkhdW0NIMl1DKD1PKU4yW0NIMl1bQ0gyXVtDSDJdMg==

> <s_epik_cmdline>
J2VwaWtfcHl0aG9uJywgJy1waCcsICc3LjAnLCAnLXRuJywgJzgnLCAnLW1hJywgJzIwMCcsICctbWV0YWxfYmluZGluZycsICctaW1hZScsICc8aW5maWxlLm1hZT4nLCAnLW9tYWUnLCAnPG91dGZpbGUubWFlPic=

> <r_lp_tautomer_probability>
1

> <r_epik_Ionization_Penalty>
0.141739

> <r_epik_Ionization_Penalty_Charging>
0.141731

> <r_epik_Ionization_Penalty_Neutral>
8.82171e-06

> <r_epik_State_Penalty>
0.131043

> <r_epik_Charging_Adjusted_Penalty>
0.272773

> <i_epik_Tot_Q>
1

> <i_epik_Tot_abs_Q>
1

> <r_epik_Metal_State_Penalty>
0.131384

> <b_epik_Metal_Only>
0

> <s_lp_Force_Field>
OPLS_2005

> <r_lp_Energy>
20.424

> <b_lp_Chiralities_Consistent>
1

> <s_lp_Variant>
AV-unprocessed.smi:3149-4

> <Gold.Version>
5.8.1

> <Gold.Id.Protein>
6NUR|6NUR_protein|mol2

> <Gold.PLP.Fitness>
49.8285

> <Gold.PLP.PLP>
-41.1620

> <Gold.PLP.part.hbond>
-2.0000

> <Gold.PLP.part.metal>
0.0000

> <Gold.PLP.part.buried>
-0.2861

> <Gold.PLP.part.nonpolar>
-37.9942

> <Gold.PLP.part.repulsive>
0.0953

> <Gold.PLP.ligand.clash>
0.0019

> <Gold.PLP.ligand.torsion>
0.6713

> <Gold.PLP.Chemscore.Hbond>
3.0000

> <Gold.PLP.Chemscore.CHOScore>
0.0000

> <Gold.PLP.Chemscore.Metal>
0.0000

> <Gold.Chemscore.Hbonds>
donor molecule, donor type, donor heavy atom, donor atom, acceptor molecule, acceptor atom, score
      L1  H     3    22       P1  8028  2.00
      P1  H  7997  8010       L1     6  0.63

> <Gold.PLP.Chemscore.Internal.Correction>
1.0109

> <Gold.Rescore>
     Score         DG    S(hbond)    S(metal)    S(lipo)     H(rot)  DE(clash)    DE(int)     intcor
     15.78     -18.14       1.85        0.00      96.07       1.85       0.31       2.06       ----

> <Gold.Chemscore.Fitness>
15.7755

> <Gold.Chemscore.DG>
-18.1439

> <Gold.Chemscore.ZeroCoef>
-5.4800

> <Gold.Chemscore.Hbond>
1.8475

> <Gold.Chemscore.Metal>
0.0000

> <Gold.Chemscore.Lipo>
96.0722

> <Gold.Chemscore.Internal_Hbond>
0.0000

> <Gold.Chemscore.DEClash>
0.3117

> <Gold.Chemscore.DEInternal>
2.0566

> <Gold.Chemscore.Rot>
1.8544

> <Gold.Chemscore.Internal.Correction>
   9.000000E+99

> <Gold.Chemscore.Hbonds>
donor molecule, donor type, donor heavy atom, donor atom, acceptor molecule, acceptor atom, score
      L1  H     3    22       P1  8028  0.99
      P1  H  7997  8010       L1     6  0.61

> <Gold.Chemscore.Hbond.Weighted>
-6.1706

> <Gold.Chemscore.Metal.Weighted>
-0.0000

> <Gold.Chemscore.Lipo.Weighted>
-11.2404

> <Gold.Chemscore.Internal_Hbond.Weighted>
0.0000

> <Gold.Chemscore.DEClash.Weighted>
0.3117

> <Gold.Chemscore.DEInternal.Weighted>
2.0566

> <Gold.Chemscore.Rot.Weighted>
4.7472

> <Gold.Chemscore.Internal.Correction.Weighted>
   9.000000E+99

> <Gold.Protein.RotatedTorsions>
[ 6907 6896 6895 6894 ] final    6.88 input  -60.11 | X-H torsion
[ 7974 7965 7964 7962 ] final  -91.82 input  175.53 | X-H torsion
[ 8008 7997 7996 7995 ] final   88.19 input   59.86 | X-H torsion
[ 10167 10162 10161 10158 ] final -139.89 input  -65.29 | X-H torsion
[ 10718 10713 10712 10709 ] final  114.65 input   66.30 | X-H torsion
[ 10763 10752 10751 10750 ] final -151.72 input  -60.55 | X-H torsion
[ 11005 11000 10999 10996 ] final  -42.27 input  -57.11 | X-H torsion

> <Gold.Protein.ActiveResidues>
 VAL166  LYS551  ARG553  GLY616  TRP617  ASP618  TYR619  PRO620  LYS621  CYS622 
 ASP623  PHE694  ASN695  SER759  ASP760  ASP761  ALA762  ILE779  LEU786  VAL792 
 PHE793  MET794  SER795  GLU796  ALA797  LYS798  CYS799  TRP800  GLU811  SER814 

> <Gold.Protein.RotatedAtoms>
  151.6809  135.0962  160.0215 H   0  0  0  0  0  0  0  0  0  0  0  0  # atno 6907 bound_to 6896
  152.3836  133.6575  159.6189 H   0  0  0  0  0  0  0  0  0  0  0  0  # atno 6908 bound_to 6896
  150.7767  133.8989  159.3377 H   0  0  0  0  0  0  0  0  0  0  0  0  # atno 6909 bound_to 6896
  145.4081  140.9543  143.2249 H   0  0  0  0  0  0  0  0  0  0  0  0  # atno 7974 bound_to 7965
  155.9847  140.3374  155.6696 H   0  0  0  0  0  0  0  0  0  0  0  0  # atno 8008 bound_to 7997
  155.6501  140.0704  157.2608 H   0  0  0  0  0  0  0  0  0  0  0  0  # atno 8009 bound_to 7997
  154.4202  140.1727  156.1653 H   0  0  0  0  0  0  0  0  0  0  0  0  # atno 8010 bound_to 7997
  139.8335  143.7416  152.2665 H   0  0  0  0  0  0  0  0  0  0  0  0  # atno 10167 bound_to 10162
  157.6269  131.1001  150.7216 H   0  0  0  0  0  0  0  0  0  0  0  0  # atno 10718 bound_to 10713
  154.8040  135.3253  154.7479 H   0  0  0  0  0  0  0  0  0  0  0  0  # atno 10763 bound_to 10752
  153.8141  135.6893  153.4841 H   0  0  0  0  0  0  0  0  0  0  0  0  # atno 10764 bound_to 10752
  153.1773  135.4600  154.9926 H   0  0  0  0  0  0  0  0  0  0  0  0  # atno 10765 bound_to 10752
  141.0304  133.6823  156.2571 H   0  0  0  0  0  0  0  0  0  0  0  0  # atno 11005 bound_to 11000
  144.8328  139.5600  143.6936 LP  0  0  0  0  0  0  0  0  0  0  0  0  # atno 17320 bound_to 7965
  146.2719  139.6655  142.9290 LP  0  0  0  0  0  0  0  0  0  0  0  0  # atno 17321 bound_to 7965
  139.7631  144.7500  151.0335 LP  0  0  0  0  0  0  0  0  0  0  0  0  # atno 17342 bound_to 10162
  140.7804  143.4729  151.0122 LP  0  0  0  0  0  0  0  0  0  0  0  0  # atno 17343 bound_to 10162
  156.7563  130.4784  149.5446 LP  0  0  0  0  0  0  0  0  0  0  0  0  # atno 17370 bound_to 10713
  156.1446  130.6268  151.0514 LP  0  0  0  0  0  0  0  0  0  0  0  0  # atno 17371 bound_to 10713
  140.6417  134.5159  157.5570 LP  0  0  0  0  0  0  0  0  0  0  0  0  # atno 17394 bound_to 11000
  139.9204  134.8161  156.1231 LP  0  0  0  0  0  0  0  0  0  0  0  0  # atno 17395 bound_to 11000

$$$$
