AV-unprocessed.smi:2531|AV-procd|sdf|9966|dock6
  -GOLD-   2272014 13D 1   1.00000     0.00000
 Structure written by MMmdl.
 45 47  0  0  0  0  0  0  0  0  2 V2000
  150.2212  142.5466  158.3077 O   0  0  0  0  0  0  0  0  0  0  0  0
  151.2860  141.9432  158.1679 C   0  0  0  0  0  0  0  0  0  0  0  0
  152.5158  142.3107  159.0240 C   0  0  0  0  0  0  0  0  0  0  0  0
  152.2744  142.0916  160.5350 C   0  0  0  0  0  0  0  0  0  0  0  0
  152.1905  143.4800  161.1888 C   0  0  0  0  0  0  0  0  0  0  0  0
  152.1253  144.4873  160.0410 C   0  0  0  0  0  0  0  0  0  0  0  0
  152.8668  143.8023  158.8945 C   0  0  0  0  0  0  0  0  0  0  0  0
  151.4476  140.9724  157.1751 N   0  0  0  0  0  0  0  0  0  0  0  0
  152.4596  139.9345  157.3060 C   0  0  0  0  0  0  0  0  0  0  0  0
  151.5175  139.0610  156.4711 C   0  0  0  0  0  0  0  0  0  0  0  0
  151.3351  137.3516  157.1536 S   0  0  0  0  0  0  0  0  0  0  0  0
  151.7151  136.4490  156.0547 O   0  0  0  0  0  0  0  0  0  0  0  0
  152.1515  137.2834  158.3767 O   0  0  0  0  0  0  0  0  0  0  0  0
  149.7441  137.3315  157.4717 N   0  5  0  0  0  0  0  0  0  0  0  0
  149.2849  137.2858  158.8521 C   0  0  0  0  0  0  0  0  0  0  0  0
  148.1312  136.2671  159.0200 C   0  0  0  0  0  0  0  0  0  0  0  0
  147.8210  135.8483  160.4548 C   0  0  0  0  0  0  0  0  0  0  0  0
  147.7130  134.4804  160.7946 C   0  0  0  0  0  0  0  0  0  0  0  0
  147.4340  134.1369  162.1308 C   0  0  0  0  0  0  0  0  0  0  0  0
  147.2596  135.1675  163.0738 C   0  0  0  0  0  0  0  0  0  0  0  0
  147.3720  136.5018  162.6358 C   0  0  0  0  0  0  0  0  0  0  0  0
  147.6388  136.8432  161.3570 N   0  0  0  0  0  0  0  0  0  0  0  0
  150.3873  140.0330  156.8370 C   0  0  0  0  0  0  0  0  0  0  0  0
  153.3623  141.7004  158.7069 H   0  0  0  0  0  0  0  0  0  0  0  0
  151.3662  141.5200  160.7323 H   0  0  0  0  0  0  0  0  0  0  0  0
  153.0948  141.5224  160.9733 H   0  0  0  0  0  0  0  0  0  0  0  0
  151.3365  143.5714  161.8607 H   0  0  0  0  0  0  0  0  0  0  0  0
  153.0903  143.6578  161.7790 H   0  0  0  0  0  0  0  0  0  0  0  0
  151.0857  144.6584  159.7586 H   0  0  0  0  0  0  0  0  0  0  0  0
  152.5600  145.4519  160.3041 H   0  0  0  0  0  0  0  0  0  0  0  0
  153.9423  143.9350  159.0185 H   0  0  0  0  0  0  0  0  0  0  0  0
  152.5993  144.2302  157.9271 H   0  0  0  0  0  0  0  0  0  0  0  0
  153.4061  140.1725  156.8206 H   0  0  0  0  0  0  0  0  0  0  0  0
  152.5899  139.5793  158.3306 H   0  0  0  0  0  0  0  0  0  0  0  0
  151.7784  139.0479  155.4118 H   0  0  0  0  0  0  0  0  0  0  0  0
  150.0856  137.0477  159.5531 H   0  0  0  0  0  0  0  0  0  0  0  0
  148.9173  138.2649  159.1601 H   0  0  0  0  0  0  0  0  0  0  0  0
  147.2231  136.6924  158.5912 H   0  0  0  0  0  0  0  0  0  0  0  0
  148.3412  135.3746  158.4291 H   0  0  0  0  0  0  0  0  0  0  0  0
  147.8606  133.7117  160.0502 H   0  0  0  0  0  0  0  0  0  0  0  0
  147.3573  133.1014  162.4270 H   0  0  0  0  0  0  0  0  0  0  0  0
  147.0463  134.9414  164.1078 H   0  0  0  0  0  0  0  0  0  0  0  0
  147.2414  137.3175  163.3313 H   0  0  0  0  0  0  0  0  0  0  0  0
  149.7854  139.7296  157.6939 H   0  0  0  0  0  0  0  0  0  0  0  0
  149.7755  140.3451  155.9904 H   0  0  0  0  0  0  0  0  0  0  0  0
  1  2  2  0  0  0  0
  2  3  1  0  0  0  0
  2  8  1  0  0  0  0
  3  7  1  0  0  0  0
  3  4  1  0  0  0  0
  3 24  1  0  0  0  0
  4  5  1  0  0  0  0
  4 25  1  0  0  0  0
  4 26  1  0  0  0  0
  5  6  1  0  0  0  0
  5 27  1  0  0  0  0
  5 28  1  0  0  0  0
  6  7  1  0  0  0  0
  6 29  1  0  0  0  0
  6 30  1  0  0  0  0
  7 31  1  0  0  0  0
  7 32  1  0  0  0  0
  8 23  1  0  0  0  0
  8  9  1  0  0  0  0
  9 10  1  0  0  0  0
  9 33  1  0  0  0  0
  9 34  1  0  0  0  0
 10 11  1  0  0  0  0
 10 23  1  0  0  0  0
 10 35  1  0  0  0  0
 11 12  2  0  0  0  0
 11 13  2  0  0  0  0
 11 14  1  0  0  0  0
 14 15  1  0  0  0  0
 15 16  1  0  0  0  0
 15 36  1  0  0  0  0
 15 37  1  0  0  0  0
 16 17  1  0  0  0  0
 16 38  1  0  0  0  0
 16 39  1  0  0  0  0
 17 22  1  0  0  0  0
 17 18  2  0  0  0  0
 18 19  1  0  0  0  0
 18 40  1  0  0  0  0
 19 20  2  0  0  0  0
 19 41  1  0  0  0  0
 20 21  1  0  0  0  0
 20 42  1  0  0  0  0
 21 22  2  0  0  0  0
 21 43  1  0  0  0  0
 23 44  1  0  0  0  0
 23 45  1  0  0  0  0
M  CHG  1  14  -1
M  END
> <s_m_source_file>
AV-unprocessed.smi

> <i_m_source_file_index>
2531

> <i_lp_mmshare_version>
43012

> <i_f3d_flags>
0

> <s_epik_input>
W0NIMl0xW0NIMl1bQ0gyXVtDSDJdW0NIXTFDKD1PKU4yW0NIMl1bQ0hdKFtDSDJdMilTKD1PKSg9TylbTkhdW0NIMl1bQ0gyXWMzW2NIXVtjSF1bY0hdW2NIXW4z

> <s_epik_cmdline>
J2VwaWtfcHl0aG9uJywgJy1waCcsICc3LjAnLCAnLXRuJywgJzgnLCAnLW1hJywgJzIwMCcsICctbWV0YWxfYmluZGluZycsICctaW1hZScsICc8aW5maWxlLm1hZT4nLCAnLW9tYWUnLCAnPG91dGZpbGUubWFlPic=

> <r_epik_Ionization_Penalty>
5.87379

> <r_epik_Ionization_Penalty_Charging>
5.8024

> <r_epik_Ionization_Penalty_Neutral>
0.0713848

> <r_epik_State_Penalty>
5.81862

> <r_epik_Charging_Adjusted_Penalty>
11.621

> <i_epik_Tot_Q>
-1

> <i_epik_Tot_abs_Q>
1

> <r_epik_Metal_State_Penalty>
1.80653

> <b_epik_Metal_Only>
1

> <s_lp_Force_Field>
OPLS_2005

> <r_lp_Energy>
33.3625

> <b_lp_Chiralities_Consistent>
1

> <s_lp_Variant>
AV-unprocessed.smi:2531-3

> <Gold.Version>
5.8.1

> <Gold.Id.Protein>
6NUR|6NUR_protein|mol2

> <Gold.PLP.Fitness>
53.2365

> <Gold.PLP.PLP>
-46.5467

> <Gold.PLP.part.hbond>
-3.0000

> <Gold.PLP.part.metal>
0.0000

> <Gold.PLP.part.buried>
-3.5615

> <Gold.PLP.part.nonpolar>
-40.9460

> <Gold.PLP.part.repulsive>
0.1288

> <Gold.PLP.ligand.clash>
0.0000

> <Gold.PLP.ligand.torsion>
1.6056

> <Gold.PLP.Chemscore.Hbond>
2.4564

> <Gold.PLP.Chemscore.CHOScore>
0.0000

> <Gold.PLP.Chemscore.Metal>
0.0000

> <Gold.Chemscore.Hbonds>
donor molecule, donor type, donor heavy atom, donor atom, acceptor molecule, acceptor atom, score
      P1  H  6931  6943       L1    22  0.61
      P1  H  6934  6947       L1    22  0.38
      P1  H 10752 10765       L1    12  0.96

> <Gold.PLP.Chemscore.Internal.Correction>
2.5317

> <Gold.Rescore>
     Score         DG    S(hbond)    S(metal)    S(lipo)     H(rot)  DE(clash)    DE(int)     intcor
     19.23     -21.37       1.63        0.00     124.61       1.61       0.38       1.76       ----

> <Gold.Chemscore.Fitness>
19.2266

> <Gold.Chemscore.DG>
-21.3745

> <Gold.Chemscore.ZeroCoef>
-5.4800

> <Gold.Chemscore.Hbond>
1.6284

> <Gold.Chemscore.Metal>
0.0000

> <Gold.Chemscore.Lipo>
124.6139

> <Gold.Chemscore.Internal_Hbond>
0.0000

> <Gold.Chemscore.DEClash>
0.3832

> <Gold.Chemscore.DEInternal>
1.7646

> <Gold.Chemscore.Rot>
1.6110

> <Gold.Chemscore.Internal.Correction>
   9.000000E+99

> <Gold.Chemscore.Hbonds>
donor molecule, donor type, donor heavy atom, donor atom, acceptor molecule, acceptor atom, score
      P1  H  6931  6943       L1    22  0.05
      P1  H  6934  6947       L1    22  0.30
      P1  H 10752 10765       L1    12  0.88

> <Gold.Chemscore.Hbond.Weighted>
-5.4389

> <Gold.Chemscore.Metal.Weighted>
-0.0000

> <Gold.Chemscore.Lipo.Weighted>
-14.5798

> <Gold.Chemscore.Internal_Hbond.Weighted>
0.0000

> <Gold.Chemscore.DEClash.Weighted>
0.3832

> <Gold.Chemscore.DEInternal.Weighted>
1.7646

> <Gold.Chemscore.Rot.Weighted>
4.1243

> <Gold.Chemscore.Internal.Correction.Weighted>
   9.000000E+99

> <Gold.Protein.RotatedTorsions>
[ 6907 6896 6895 6894 ] final  107.88 input  -60.11 | X-H torsion
[ 7974 7965 7964 7962 ] final  -45.00 input  175.53 | X-H torsion
[ 8008 7997 7996 7995 ] final -171.96 input   59.86 | X-H torsion
[ 10167 10162 10161 10158 ] final  158.13 input  -65.29 | X-H torsion
[ 10718 10713 10712 10709 ] final -151.30 input   66.30 | X-H torsion
[ 10763 10752 10751 10750 ] final -139.25 input  -60.55 | X-H torsion
[ 11005 11000 10999 10996 ] final  -24.97 input  -57.11 | X-H torsion

> <Gold.Protein.ActiveResidues>
 VAL166  LYS551  ARG553  GLY616  TRP617  ASP618  TYR619  PRO620  LYS621  CYS622 
 ASP623  PHE694  ASN695  SER759  ASP760  ASP761  ALA762  ILE779  LEU786  VAL792 
 PHE793  MET794  SER795  GLU796  ALA797  LYS798  CYS799  TRP800  GLU811  SER814 

> <Gold.Protein.RotatedAtoms>
  152.5136  133.9170  159.7515 H   0  0  0  0  0  0  0  0  0  0  0  0  # atno 6907 bound_to 6896
  150.9550  133.6498  159.2771 H   0  0  0  0  0  0  0  0  0  0  0  0  # atno 6908 bound_to 6896
  151.3763  135.0937  159.9534 H   0  0  0  0  0  0  0  0  0  0  0  0  # atno 6909 bound_to 6896
  145.9864  140.7228  142.9338 H   0  0  0  0  0  0  0  0  0  0  0  0  # atno 7974 bound_to 7965
  155.9384  140.1104  157.1075 H   0  0  0  0  0  0  0  0  0  0  0  0  # atno 8008 bound_to 7997
  154.4084  140.1224  156.4961 H   0  0  0  0  0  0  0  0  0  0  0  0  # atno 8009 bound_to 7997
  155.6992  140.3472  155.4928 H   0  0  0  0  0  0  0  0  0  0  0  0  # atno 8010 bound_to 7997
  139.4825  144.4853  151.8386 H   0  0  0  0  0  0  0  0  0  0  0  0  # atno 10167 bound_to 10162
  156.4574  130.8197  151.2428 H   0  0  0  0  0  0  0  0  0  0  0  0  # atno 10718 bound_to 10713
  154.8614  135.3588  154.5516 H   0  0  0  0  0  0  0  0  0  0  0  0  # atno 10763 bound_to 10752
  153.6134  135.7008  153.5343 H   0  0  0  0  0  0  0  0  0  0  0  0  # atno 10764 bound_to 10752
  153.3190  135.4156  155.1361 H   0  0  0  0  0  0  0  0  0  0  0  0  # atno 10765 bound_to 10752
  140.8894  133.7598  156.0402 H   0  0  0  0  0  0  0  0  0  0  0  0  # atno 11005 bound_to 11000
  144.6876  140.2996  143.7265 LP  0  0  0  0  0  0  0  0  0  0  0  0  # atno 17320 bound_to 7965
  145.7694  139.1852  143.2221 LP  0  0  0  0  0  0  0  0  0  0  0  0  # atno 17321 bound_to 7965
  140.4333  144.2086  150.5888 LP  0  0  0  0  0  0  0  0  0  0  0  0  # atno 17342 bound_to 10162
  140.4758  143.2397  151.9026 LP  0  0  0  0  0  0  0  0  0  0  0  0  # atno 17343 bound_to 10162
  157.7500  131.0118  150.3360 LP  0  0  0  0  0  0  0  0  0  0  0  0  # atno 17370 bound_to 10713
  156.3752  130.3870  149.7144 LP  0  0  0  0  0  0  0  0  0  0  0  0  # atno 17371 bound_to 10713
  140.8365  134.3117  157.5330 LP  0  0  0  0  0  0  0  0  0  0  0  0  # atno 17394 bound_to 11000
  139.8728  134.9392  156.3736 LP  0  0  0  0  0  0  0  0  0  0  0  0  # atno 17395 bound_to 11000

$$$$
