AV-unprocessed.smi:1675|AV-procd|sdf|6717|dock9
  -GOLD-   22720 7463D 1   1.00000     0.00000
 Structure written by MMmdl.
 40 42  0  0  0  0  0  0  0  0  1 V2000
  147.2061  136.5902  153.8661 N   0  0  0  0  0  0  0  0  0  0  0  0
  146.5871  137.7714  153.9375 C   0  0  0  0  0  0  0  0  0  0  0  0
  145.7169  138.0039  154.7745 O   0  0  0  0  0  0  0  0  0  0  0  0
  147.0050  138.8409  152.9237 C   0  0  0  0  0  0  0  0  0  0  0  0
  147.4434  140.0590  153.5830 N   0  0  0  0  0  0  0  0  0  0  0  0
  148.4872  140.2183  154.4740 C   0  0  0  0  0  0  0  0  0  0  0  0
  148.4853  141.5415  154.8137 C   0  0  0  0  0  0  0  0  0  0  0  0
  149.3336  142.2423  155.7075 N   0  0  0  0  0  0  0  0  0  0  0  0
  150.2917  141.7300  156.4997 C   0  0  0  0  0  0  0  0  0  0  0  0
  150.5838  140.5354  156.5502 O   0  0  0  0  0  0  0  0  0  0  0  0
  151.0353  142.7370  157.3847 C   0  0  0  0  0  0  0  0  0  0  0  0
  152.0930  142.0808  158.3005 C   0  0  2  0  0  0  0  0  0  0  0  0
  151.5440  141.3306  159.5360 C   0  0  0  0  0  0  0  0  0  0  0  0
  152.3820  141.9098  160.6915 C   0  0  2  0  0  0  0  0  0  0  0  0
  151.8974  143.3392  160.9945 C   0  0  0  0  0  0  0  0  0  0  0  0
  152.4228  144.1361  159.7866 C   0  0  0  0  0  0  0  0  0  0  0  0
  153.1162  143.0521  158.9349 C   0  0  1  0  0  0  0  0  0  0  0  0
  153.7260  142.1693  160.0195 C   0  0  0  0  0  0  0  0  0  0  0  0
  147.4108  142.1246  154.0934 C   0  0  0  0  0  0  0  0  0  0  0  0
  146.7900  141.2245  153.3466 N   0  0  0  0  0  0  0  0  0  0  0  0
  146.9586  135.8571  154.5147 H   0  0  0  0  0  0  0  0  0  0  0  0
  147.9159  136.4315  153.1657 H   0  0  0  0  0  0  0  0  0  0  0  0
  147.8178  138.4780  152.2925 H   0  0  0  0  0  0  0  0  0  0  0  0
  146.1631  139.0644  152.2665 H   0  0  0  0  0  0  0  0  0  0  0  0
  149.1119  139.3916  154.7786 H   0  0  0  0  0  0  0  0  0  0  0  0
  149.2065  143.2435  155.7415 H   0  0  0  0  0  0  0  0  0  0  0  0
  151.5204  143.4827  156.7531 H   0  0  0  0  0  0  0  0  0  0  0  0
  150.2921  143.2718  157.9762 H   0  0  0  0  0  0  0  0  0  0  0  0
  152.6594  141.3687  157.6970 H   0  0  0  0  0  0  0  0  0  0  0  0
  150.4766  141.4903  159.6945 H   0  0  0  0  0  0  0  0  0  0  0  0
  151.7057  140.2569  159.4340 H   0  0  0  0  0  0  0  0  0  0  0  0
  152.4206  141.2656  161.5704 H   0  0  0  0  0  0  0  0  0  0  0  0
  150.8126  143.3969  161.0919 H   0  0  0  0  0  0  0  0  0  0  0  0
  152.3367  143.7123  161.9203 H   0  0  0  0  0  0  0  0  0  0  0  0
  151.6335  144.6668  159.2554 H   0  0  0  0  0  0  0  0  0  0  0  0
  153.1477  144.8817  160.1156 H   0  0  0  0  0  0  0  0  0  0  0  0
  153.8351  143.4539  158.2203 H   0  0  0  0  0  0  0  0  0  0  0  0
  154.4357  142.6958  160.6600 H   0  0  0  0  0  0  0  0  0  0  0  0
  154.1981  141.2644  159.6322 H   0  0  0  0  0  0  0  0  0  0  0  0
  147.0683  143.1490  154.0863 H   0  0  0  0  0  0  0  0  0  0  0  0
  1  2  1  0  0  0  0
  1 21  1  0  0  0  0
  1 22  1  0  0  0  0
  2  3  2  0  0  0  0
  2  4  1  0  0  0  0
  4  5  1  0  0  0  0
  4 23  1  0  0  0  0
  4 24  1  0  0  0  0
  5 20  1  0  0  0  0
  5  6  1  0  0  0  0
  6  7  2  0  0  0  0
  6 25  1  0  0  0  0
  7  8  1  0  0  0  0
  7 19  1  0  0  0  0
  8  9  1  0  0  0  0
  8 26  1  0  0  0  0
  9 10  2  0  0  0  0
  9 11  1  0  0  0  0
 11 12  1  0  0  0  0
 11 27  1  0  0  0  0
 11 28  1  0  0  0  0
 12 17  1  0  0  0  0
 12 13  1  0  0  0  0
 12 29  1  0  0  0  0
 13 14  1  0  0  0  0
 13 30  1  0  0  0  0
 13 31  1  0  0  0  0
 14 18  1  0  0  0  0
 14 15  1  0  0  0  0
 14 32  1  0  0  0  0
 15 16  1  0  0  0  0
 15 33  1  0  0  0  0
 15 34  1  0  0  0  0
 16 17  1  0  0  0  0
 16 35  1  0  0  0  0
 16 36  1  0  0  0  0
 17 18  1  0  0  0  0
 17 37  1  0  0  0  0
 18 38  1  0  0  0  0
 18 39  1  0  0  0  0
 19 20  2  0  0  0  0
 19 40  1  0  0  0  0
M  END
> <s_m_source_file>
AV-unprocessed.smi

> <i_m_source_file_index>
1675

> <i_lp_mmshare_version>
43012

> <i_f3d_flags>
0

> <s_epik_input>
W05IMl1DKD1PKVtDSDJdbjFbY0hdYyhbY0hdbjEpW05IXUMoPU8pW0NIMl1bQ0BIXShbQ0gyXVtDQEBIXTIzKVtDQEBIXShbQ0gyXTMpW0NIMl1bQ0gyXTI=

> <s_epik_cmdline>
J2VwaWtfcHl0aG9uJywgJy1waCcsICc3LjAnLCAnLXRuJywgJzgnLCAnLW1hJywgJzIwMCcsICctbWV0YWxfYmluZGluZycsICctaW1hZScsICc8aW5maWxlLm1hZT4nLCAnLW9tYWUnLCAnPG91dGZpbGUubWFlPic=

> <r_lp_tautomer_probability>
1

> <r_epik_Ionization_Penalty>
2.17494e-05

> <r_epik_Ionization_Penalty_Charging>
0

> <r_epik_Ionization_Penalty_Neutral>
2.17494e-05

> <r_epik_State_Penalty>
-0

> <r_epik_Charging_Adjusted_Penalty>
0

> <i_epik_Tot_Q>
0

> <i_epik_Tot_abs_Q>
0

> <r_epik_Metal_State_Penalty>
-0

> <b_epik_Metal_Only>
0

> <s_lp_Force_Field>
OPLS_2005

> <r_lp_Energy>
53.8438

> <b_lp_Chiralities_Consistent>
1

> <s_lp_Variant>
AV-unprocessed.smi:1675-3

> <Gold.Version>
5.8.1

> <Gold.Id.Protein>
6NUR|6NUR_protein|mol2

> <Gold.PLP.Fitness>
46.0140

> <Gold.PLP.PLP>
-40.0303

> <Gold.PLP.part.hbond>
-1.8392

> <Gold.PLP.part.metal>
0.0000

> <Gold.PLP.part.buried>
-4.4009

> <Gold.PLP.part.nonpolar>
-34.3402

> <Gold.PLP.part.repulsive>
0.4357

> <Gold.PLP.ligand.clash>
0.0000

> <Gold.PLP.ligand.torsion>
0.1411

> <Gold.PLP.Chemscore.Hbond>
1.8775

> <Gold.PLP.Chemscore.CHOScore>
0.2085

> <Gold.PLP.Chemscore.Metal>
0.0000

> <Gold.Chemscore.Hbonds>
donor molecule, donor type, donor heavy atom, donor atom, acceptor molecule, acceptor atom, score
      L1  H     1    22       P1  7948  1.00
      L1  H     8    26       P1  8028  0.96
      L1  C    19    40       P1  8028  0.17

> <Gold.PLP.Chemscore.Internal.Correction>
0.0077

> <Gold.Rescore>
     Score         DG    S(hbond)    S(metal)    S(lipo)     H(rot)  DE(clash)    DE(int)     intcor
     18.43     -19.75       1.96        0.00     112.94       2.15       0.01       1.31       ----

> <Gold.Chemscore.Fitness>
18.4341

> <Gold.Chemscore.DG>
-19.7517

> <Gold.Chemscore.ZeroCoef>
-5.4800

> <Gold.Chemscore.Hbond>
1.9636

> <Gold.Chemscore.Metal>
0.0000

> <Gold.Chemscore.Lipo>
112.9368

> <Gold.Chemscore.Internal_Hbond>
0.0000

> <Gold.Chemscore.DEClash>
0.0082

> <Gold.Chemscore.DEInternal>
1.3094

> <Gold.Chemscore.Rot>
2.1486

> <Gold.Chemscore.Internal.Correction>
   9.000000E+99

> <Gold.Chemscore.Hbonds>
donor molecule, donor type, donor heavy atom, donor atom, acceptor molecule, acceptor atom, score
      L1  H     1    22       P1  7948  1.00
      L1  H     8    26       P1  8028  0.90

> <Gold.Chemscore.Hbond.Weighted>
-6.5585

> <Gold.Chemscore.Metal.Weighted>
-0.0000

> <Gold.Chemscore.Lipo.Weighted>
-13.2136

> <Gold.Chemscore.Internal_Hbond.Weighted>
0.0000

> <Gold.Chemscore.DEClash.Weighted>
0.0082

> <Gold.Chemscore.DEInternal.Weighted>
1.3094

> <Gold.Chemscore.Rot.Weighted>
5.5004

> <Gold.Chemscore.Internal.Correction.Weighted>
   9.000000E+99

> <Gold.Protein.RotatedTorsions>
[ 6907 6896 6895 6894 ] final  103.74 input  -60.11 | X-H torsion
[ 7974 7965 7964 7962 ] final    7.71 input  175.53 | X-H torsion
[ 8008 7997 7996 7995 ] final  125.15 input   59.86 | X-H torsion
[ 10167 10162 10161 10158 ] final  172.01 input  -65.29 | X-H torsion
[ 10718 10713 10712 10709 ] final -153.71 input   66.30 | X-H torsion
[ 10763 10752 10751 10750 ] final   21.57 input  -60.55 | X-H torsion
[ 11005 11000 10999 10996 ] final  -38.50 input  -57.11 | X-H torsion

> <Gold.Protein.ActiveResidues>
 VAL166  LYS551  ARG553  GLY616  TRP617  ASP618  TYR619  PRO620  LYS621  CYS622 
 ASP623  PHE694  ASN695  SER759  ASP760  ASP761  ALA762  ILE779  LEU786  VAL792 
 PHE793  MET794  SER795  GLU796  ALA797  LYS798  CYS799  TRP800  GLU811  SER814 

> <Gold.Protein.RotatedAtoms>
  152.5286  133.9780  159.7792 H   0  0  0  0  0  0  0  0  0  0  0  0  # atno 6907 bound_to 6896
  151.0039  133.6021  159.2698 H   0  0  0  0  0  0  0  0  0  0  0  0  # atno 6908 bound_to 6896
  151.3120  135.0803  159.9329 H   0  0  0  0  0  0  0  0  0  0  0  0  # atno 6909 bound_to 6896
  146.2424  140.0043  142.8413 H   0  0  0  0  0  0  0  0  0  0  0  0  # atno 7974 bound_to 7965
  156.2825  140.2723  156.1903 H   0  0  0  0  0  0  0  0  0  0  0  0  # atno 8008 bound_to 7997
  155.0465  140.0386  157.2546 H   0  0  0  0  0  0  0  0  0  0  0  0  # atno 8009 bound_to 7997
  154.7231  140.2691  155.6529 H   0  0  0  0  0  0  0  0  0  0  0  0  # atno 8010 bound_to 7997
  139.5064  144.3421  152.0007 H   0  0  0  0  0  0  0  0  0  0  0  0  # atno 10167 bound_to 10162
  156.4896  130.8341  151.2564 H   0  0  0  0  0  0  0  0  0  0  0  0  # atno 10718 bound_to 10713
  153.0984  135.6666  153.9718 H   0  0  0  0  0  0  0  0  0  0  0  0  # atno 10763 bound_to 10752
  153.9296  135.3005  155.3447 H   0  0  0  0  0  0  0  0  0  0  0  0  # atno 10764 bound_to 10752
  154.7404  135.5082  153.9188 H   0  0  0  0  0  0  0  0  0  0  0  0  # atno 10765 bound_to 10752
  141.0032  133.6945  156.2062 H   0  0  0  0  0  0  0  0  0  0  0  0  # atno 11005 bound_to 11000
  145.1386  140.9559  143.4502 LP  0  0  0  0  0  0  0  0  0  0  0  0  # atno 17320 bound_to 7965
  145.0317  139.3335  143.6021 LP  0  0  0  0  0  0  0  0  0  0  0  0  # atno 17321 bound_to 7965
  140.2859  144.3808  150.6104 LP  0  0  0  0  0  0  0  0  0  0  0  0  # atno 17342 bound_to 10162
  140.5983  143.2167  151.7121 LP  0  0  0  0  0  0  0  0  0  0  0  0  # atno 17343 bound_to 10162
  157.7475  131.0018  150.2977 LP  0  0  0  0  0  0  0  0  0  0  0  0  # atno 17370 bound_to 10713
  156.3440  130.3820  149.7385 LP  0  0  0  0  0  0  0  0  0  0  0  0  # atno 17371 bound_to 10713
  140.6855  134.4722  157.5589 LP  0  0  0  0  0  0  0  0  0  0  0  0  # atno 17394 bound_to 11000
  139.9050  134.8470  156.1744 LP  0  0  0  0  0  0  0  0  0  0  0  0  # atno 17395 bound_to 11000

$$$$
