AV-unprocessed.smi:3161|AV-procd|sdf|12058|dock5
  -GOLD-   2272017483D 1   1.00000     0.00000
 Structure written by MMmdl.
 41 42  0  0  0  0  0  0  0  0  2 V2000
  144.1969  144.4660  154.0374 C   0  0  0  0  0  0  0  0  0  0  0  0
  145.3369  143.5486  154.3746 C   0  0  0  0  0  0  0  0  0  0  0  0
  145.6969  143.0327  155.6521 C   0  0  0  0  0  0  0  0  0  0  0  0
  146.7619  142.2484  155.6086 N   0  0  0  0  0  0  0  0  0  0  0  0
  147.1142  142.2308  154.3059 N   0  0  0  0  0  0  0  0  0  0  0  0
  148.2701  141.4611  153.8830 C   0  0  0  0  0  0  0  0  0  0  0  0
  149.1122  140.9294  155.0668 C   0  0  1  0  0  0  0  0  0  0  0  0
  150.1874  139.9231  154.6215 C   0  0  0  0  0  0  0  0  0  0  0  0
  149.7585  142.0377  155.8047 N   0  3  0  0  0  0  0  0  0  0  0  0
  149.8496  141.8602  157.2698 C   0  0  0  0  0  0  0  0  0  0  0  0
  151.0336  142.6503  157.8453 C   0  0  1  0  0  0  0  0  0  0  0  0
  150.6040  144.0403  158.3535 C   0  0  0  0  0  0  0  0  0  0  0  0
  151.7882  144.7669  159.0014 C   0  0  0  0  0  0  0  0  0  0  0  0
  152.4161  143.8744  160.0768 C   0  0  0  0  0  0  0  0  0  0  0  0
  152.7460  142.4899  159.4967 C   0  0  0  0  0  0  0  0  0  0  0  0
  151.5738  141.9055  158.9354 O   0  0  0  0  0  0  0  0  0  0  0  0
  146.2760  143.0127  153.5395 C   0  0  0  0  0  0  0  0  0  0  0  0
  143.4183  144.4423  154.8002 H   0  0  0  0  0  0  0  0  0  0  0  0
  143.7267  144.1946  153.0919 H   0  0  0  0  0  0  0  0  0  0  0  0
  144.5276  145.5008  153.9475 H   0  0  0  0  0  0  0  0  0  0  0  0
  145.2191  143.2054  156.6053 H   0  0  0  0  0  0  0  0  0  0  0  0
  147.9203  140.6302  153.2688 H   0  0  0  0  0  0  0  0  0  0  0  0
  148.8697  142.0984  153.2330 H   0  0  0  0  0  0  0  0  0  0  0  0
  148.4527  140.4089  155.7632 H   0  0  0  0  0  0  0  0  0  0  0  0
  149.7454  139.0360  154.1671 H   0  0  0  0  0  0  0  0  0  0  0  0
  150.7823  139.5842  155.4702 H   0  0  0  0  0  0  0  0  0  0  0  0
  150.8678  140.3660  153.8934 H   0  0  0  0  0  0  0  0  0  0  0  0
  150.7048  142.1187  155.4601 H   0  0  0  0  0  0  0  0  0  0  0  0
  148.9250  142.2071  157.7311 H   0  0  0  0  0  0  0  0  0  0  0  0
  149.9534  140.8013  157.5108 H   0  0  0  0  0  0  0  0  0  0  0  0
  151.7945  142.7674  157.0713 H   0  0  0  0  0  0  0  0  0  0  0  0
  150.2054  144.6380  157.5330 H   0  0  0  0  0  0  0  0  0  0  0  0
  149.7995  143.9343  159.0828 H   0  0  0  0  0  0  0  0  0  0  0  0
  152.5332  145.0060  158.2414 H   0  0  0  0  0  0  0  0  0  0  0  0
  151.4650  145.7143  159.4335 H   0  0  0  0  0  0  0  0  0  0  0  0
  153.3167  144.3415  160.4767 H   0  0  0  0  0  0  0  0  0  0  0  0
  151.7234  143.7636  160.9121 H   0  0  0  0  0  0  0  0  0  0  0  0
  153.5284  142.5610  158.7397 H   0  0  0  0  0  0  0  0  0  0  0  0
  153.1239  141.8358  160.2830 H   0  0  0  0  0  0  0  0  0  0  0  0
  146.4132  143.1207  152.4735 H   0  0  0  0  0  0  0  0  0  0  0  0
  149.2709  142.8985  155.6014 H   0  0  0  0  0  0  0  0  0  0  0  0
  1  2  1  0  0  0  0
  1 18  1  0  0  0  0
  1 19  1  0  0  0  0
  1 20  1  0  0  0  0
  2 17  2  0  0  0  0
  2  3  1  0  0  0  0
  3  4  2  0  0  0  0
  3 21  1  0  0  0  0
  4  5  1  0  0  0  0
  5  6  1  0  0  0  0
  5 17  1  0  0  0  0
  6  7  1  0  0  0  0
  6 22  1  0  0  0  0
  6 23  1  0  0  0  0
  7  8  1  0  0  0  0
  7  9  1  0  0  0  0
  7 24  1  0  0  0  0
  8 25  1  0  0  0  0
  8 26  1  0  0  0  0
  8 27  1  0  0  0  0
  9 10  1  0  0  0  0
  9 28  1  0  0  0  0
  9 41  1  0  0  0  0
 10 11  1  0  0  0  0
 10 29  1  0  0  0  0
 10 30  1  0  0  0  0
 11 16  1  0  0  0  0
 11 12  1  0  0  0  0
 11 31  1  0  0  0  0
 12 13  1  0  0  0  0
 12 32  1  0  0  0  0
 12 33  1  0  0  0  0
 13 14  1  0  0  0  0
 13 34  1  0  0  0  0
 13 35  1  0  0  0  0
 14 15  1  0  0  0  0
 14 36  1  0  0  0  0
 14 37  1  0  0  0  0
 15 16  1  0  0  0  0
 15 38  1  0  0  0  0
 15 39  1  0  0  0  0
 17 40  1  0  0  0  0
M  CHG  1   9   1
M  END
> <s_m_source_file>
AV-unprocessed.smi

> <i_m_source_file_index>
3161

> <i_lp_mmshare_version>
43012

> <i_f3d_flags>
0

> <s_epik_input>
W0NIM11jMVtjSF1ubihbY0hdMSlbQ0gyXVtDQEhdKFtDSDNdKVtOSF1bQ0gyXVtDQEBIXTJbQ0gyXVtDSDJdW0NIMl1bQ0gyXU8y

> <s_epik_cmdline>
J2VwaWtfcHl0aG9uJywgJy1waCcsICc3LjAnLCAnLXRuJywgJzgnLCAnLW1hJywgJzIwMCcsICctbWV0YWxfYmluZGluZycsICctaW1hZScsICc8aW5maWxlLm1hZT4nLCAnLW9tYWUnLCAnPG91dGZpbGUubWFlPic=

> <r_lp_tautomer_probability>
1

> <r_epik_Ionization_Penalty>
0.00849661

> <r_epik_Ionization_Penalty_Charging>
0.00848754

> <r_epik_Ionization_Penalty_Neutral>
9.06711e-06

> <r_epik_State_Penalty>
0.00639836

> <r_epik_Charging_Adjusted_Penalty>
0.0148859

> <i_epik_Tot_Q>
1

> <i_epik_Tot_abs_Q>
1

> <r_epik_Metal_State_Penalty>
0.00639921

> <b_epik_Metal_Only>
0

> <s_lp_Force_Field>
OPLS_2005

> <r_lp_Energy>
12.4103

> <b_lp_Chiralities_Consistent>
1

> <s_lp_Variant>
AV-unprocessed.smi:3161-4

> <Gold.Version>
5.8.1

> <Gold.Id.Protein>
6NUR|6NUR_protein|mol2

> <Gold.PLP.Fitness>
45.1142

> <Gold.PLP.PLP>
-41.4779

> <Gold.PLP.part.hbond>
-1.0000

> <Gold.PLP.part.metal>
0.0000

> <Gold.PLP.part.buried>
-4.1800

> <Gold.PLP.part.nonpolar>
-36.5431

> <Gold.PLP.part.repulsive>
0.2893

> <Gold.PLP.ligand.clash>
0.0000

> <Gold.PLP.ligand.torsion>
1.1981

> <Gold.PLP.Chemscore.Hbond>
2.0000

> <Gold.PLP.Chemscore.CHOScore>
0.0000

> <Gold.PLP.Chemscore.Metal>
0.0000

> <Gold.Chemscore.Hbonds>
donor molecule, donor type, donor heavy atom, donor atom, acceptor molecule, acceptor atom, score
      L1  H     9    41       P1  8028  2.00

> <Gold.PLP.Chemscore.Internal.Correction>
0.0325

> <Gold.Rescore>
     Score         DG    S(hbond)    S(metal)    S(lipo)     H(rot)  DE(clash)    DE(int)     intcor
     15.68     -16.98       1.00        0.00     104.25       1.57       0.04       1.26       ----

> <Gold.Chemscore.Fitness>
15.6789

> <Gold.Chemscore.DG>
-16.9837

> <Gold.Chemscore.ZeroCoef>
-5.4800

> <Gold.Chemscore.Hbond>
0.9968

> <Gold.Chemscore.Metal>
0.0000

> <Gold.Chemscore.Lipo>
104.2489

> <Gold.Chemscore.Internal_Hbond>
0.0000

> <Gold.Chemscore.DEClash>
0.0440

> <Gold.Chemscore.DEInternal>
1.2608

> <Gold.Chemscore.Rot>
1.5714

> <Gold.Chemscore.Internal.Correction>
   9.000000E+99

> <Gold.Chemscore.Hbonds>
donor molecule, donor type, donor heavy atom, donor atom, acceptor molecule, acceptor atom, score
      L1  H     9    41       P1  8028  0.99

> <Gold.Chemscore.Hbond.Weighted>
-3.3294

> <Gold.Chemscore.Metal.Weighted>
-0.0000

> <Gold.Chemscore.Lipo.Weighted>
-12.1971

> <Gold.Chemscore.Internal_Hbond.Weighted>
0.0000

> <Gold.Chemscore.DEClash.Weighted>
0.0440

> <Gold.Chemscore.DEInternal.Weighted>
1.2608

> <Gold.Chemscore.Rot.Weighted>
4.0228

> <Gold.Chemscore.Internal.Correction.Weighted>
   9.000000E+99

> <Gold.Protein.RotatedTorsions>
[ 6907 6896 6895 6894 ] final  -89.31 input  -60.11 | X-H torsion
[ 7974 7965 7964 7962 ] final  -41.29 input  175.53 | X-H torsion
[ 8008 7997 7996 7995 ] final -100.56 input   59.86 | X-H torsion
[ 10167 10162 10161 10158 ] final  100.37 input  -65.29 | X-H torsion
[ 10718 10713 10712 10709 ] final  -11.34 input   66.30 | X-H torsion
[ 10763 10752 10751 10750 ] final  -40.61 input  -60.55 | X-H torsion
[ 11005 11000 10999 10996 ] final  -79.61 input  -57.11 | X-H torsion

> <Gold.Protein.ActiveResidues>
 VAL166  LYS551  ARG553  GLY616  TRP617  ASP618  TYR619  PRO620  LYS621  CYS622 
 ASP623  PHE694  ASN695  SER759  ASP760  ASP761  ALA762  ILE779  LEU786  VAL792 
 PHE793  MET794  SER795  GLU796  ALA797  LYS798  CYS799  TRP800  GLU811  SER814 

> <Gold.Protein.RotatedAtoms>
  150.6873  134.2607  159.4547 H   0  0  0  0  0  0  0  0  0  0  0  0  # atno 6907 bound_to 6896
  152.0537  134.9635  160.0584 H   0  0  0  0  0  0  0  0  0  0  0  0  # atno 6908 bound_to 6896
  152.1089  133.4255  159.4659 H   0  0  0  0  0  0  0  0  0  0  0  0  # atno 6909 bound_to 6896
  146.0225  140.6832  142.9171 H   0  0  0  0  0  0  0  0  0  0  0  0  # atno 7974 bound_to 7965
  154.8303  140.0440  157.1472 H   0  0  0  0  0  0  0  0  0  0  0  0  # atno 8008 bound_to 7997
  154.9160  140.3020  155.5221 H   0  0  0  0  0  0  0  0  0  0  0  0  # atno 8009 bound_to 7997
  156.2986  140.2349  156.4204 H   0  0  0  0  0  0  0  0  0  0  0  0  # atno 8010 bound_to 7997
  139.7533  144.6977  151.0400 H   0  0  0  0  0  0  0  0  0  0  0  0  # atno 10167 bound_to 10162
  156.6604  130.4980  149.6032 H   0  0  0  0  0  0  0  0  0  0  0  0  # atno 10718 bound_to 10713
  153.9488  135.6753  153.4744 H   0  0  0  0  0  0  0  0  0  0  0  0  # atno 10763 bound_to 10752
  153.0894  135.4882  154.8658 H   0  0  0  0  0  0  0  0  0  0  0  0  # atno 10764 bound_to 10752
  154.7337  135.3144  154.8807 H   0  0  0  0  0  0  0  0  0  0  0  0  # atno 10765 bound_to 10752
  141.1667  133.7113  156.8148 H   0  0  0  0  0  0  0  0  0  0  0  0  # atno 11005 bound_to 11000
  144.6996  140.3591  143.7167 LP  0  0  0  0  0  0  0  0  0  0  0  0  # atno 17320 bound_to 7965
  145.7170  139.1699  143.2506 LP  0  0  0  0  0  0  0  0  0  0  0  0  # atno 17321 bound_to 7965
  140.7800  143.4783  151.0052 LP  0  0  0  0  0  0  0  0  0  0  0  0  # atno 17342 bound_to 10162
  139.8470  143.7488  152.3179 LP  0  0  0  0  0  0  0  0  0  0  0  0  # atno 17343 bound_to 10162
  156.2015  130.6623  151.1173 LP  0  0  0  0  0  0  0  0  0  0  0  0  # atno 17370 bound_to 10713
  157.7111  131.0733  150.6495 LP  0  0  0  0  0  0  0  0  0  0  0  0  # atno 17371 bound_to 10713
  140.2162  134.8791  157.3328 LP  0  0  0  0  0  0  0  0  0  0  0  0  # atno 17394 bound_to 11000
  140.2035  134.4225  155.7650 LP  0  0  0  0  0  0  0  0  0  0  0  0  # atno 17395 bound_to 11000

$$$$
