#       Name:                AV-unprocessed.smi:3303
#       Creating user name   scv26
#       Creation time:       Fri Mar 27 19:02:22 2020


#       File generated by GOLD software.
#

@<TRIPOS>MOLECULE
AV-unprocessed.smi:3303
    46    47     1
SMALL
NO_CHARGES


@<TRIPOS>ATOM
      1 ****        -0.1612  -1.9479  -1.6070 C.3            1 S1                 0.0000
      2 ****        -0.9306  -0.7817  -0.9518 C.3            1 S1                 0.0000
      3 ****        -2.4542  -0.9611  -1.1133 C.3            1 S1                 0.0000
      4 ****        -2.9732  -2.0490  -0.2440 N.4            1 S1                 1.0000
      5 ****        -4.3829  -2.3938  -0.5359 C.3            1 S1                 0.0000
      6 ****        -2.6804  -1.8472   1.2045 C.3            1 S1                 0.0000
      7 ****        -3.5004  -0.7086   1.8493 C.3            1 S1                 0.0000
      8 ****        -1.1636  -1.6704   1.4195 C.3            1 S1                 0.0000
      9 ****        -0.5821  -0.5460   0.5419 C.3            1 S1                 0.0000
     10 ****         0.8534  -0.4562   0.7885 N.3            1 S1                 0.0000
     11 ****         1.4212   0.7869   0.2866 C.3            1 S1                 0.0000
     12 ****         2.9141   0.8484   0.6360 C.3            1 S1                 0.0000
     13 ****         3.5663   2.1172   0.1209 C.ar           1 S1                 0.0000
     14 ****         4.3229   2.1053  -1.0705 C.ar           1 S1                 0.0000
     15 ****         4.8993   3.3122  -1.5112 C.ar           1 S1                 0.0000
     16 ****         4.6975   4.4785  -0.7486 C.ar           1 S1                 0.0000
     17 ****         3.9242   4.3856   0.4259 C.ar           1 S1                 0.0000
     18 ****         3.3664   3.2337   0.8572 N.ar           1 S1                 0.0000
     19 ****        -0.3706  -2.9010  -1.1221 H              1 S1                 0.0000
     20 ****         0.9166  -1.7879  -1.5713 H              1 S1                 0.0000
     21 ****        -0.4321  -2.0500  -2.6579 H              1 S1                 0.0000
     22 ****        -0.6669   0.1173  -1.5094 H              1 S1                 0.0000
     23 ****        -2.9690  -0.0281  -0.8827 H              1 S1                 0.0000
     24 ****        -2.6876  -1.1848  -2.1553 H              1 S1                 0.0000
     25 ****        -5.0419  -1.5367  -0.3954 H              1 S1                 0.0000
     26 ****        -4.7260  -3.2039   0.1084 H              1 S1                 0.0000
     27 ****        -4.4839  -2.7276  -1.5690 H              1 S1                 0.0000
     28 ****        -2.9652  -2.7682   1.7150 H              1 S1                 0.0000
     29 ****        -3.2439  -0.6011   2.9034 H              1 S1                 0.0000
     30 ****        -4.5713  -0.9063   1.8061 H              1 S1                 0.0000
     31 ****        -3.3206   0.2554   1.3747 H              1 S1                 0.0000
     32 ****        -0.9616  -1.4681   2.4723 H              1 S1                 0.0000
     33 ****        -0.6588  -2.6116   1.1972 H              1 S1                 0.0000
     34 ****        -1.0338   0.3932   0.8641 H              1 S1                 0.0000
     35 ****         1.0249  -0.5115   1.7828 H              1 S1                 0.0000
     36 ****         1.2983   0.8516  -0.7942 H              1 S1                 0.0000
     37 ****         0.8992   1.6360   0.7299 H              1 S1                 0.0000
     38 ****         3.0516   0.7942   1.7172 H              1 S1                 0.0000
     39 ****         3.4328  -0.0150   0.2166 H              1 S1                 0.0000
     40 ****         4.4578   1.1948  -1.6357 H              1 S1                 0.0000
     41 ****         5.4849   3.3422  -2.4182 H              1 S1                 0.0000
     42 ****         5.1241   5.4215  -1.0565 H              1 S1                 0.0000
     43 ****         3.7484   5.2599   1.0348 H              1 S1                 0.0000
     44 ****        -2.4429  -2.8686  -0.5040 H              1 S1                 0.0000
     45 ****         1.2896  -1.2150   0.3048 LP             1 S1                 0.0000
     46 ****         2.8221   3.2072   1.6957 LP             1 S1                 0.0000
@<TRIPOS>BOND
    1    1    2 1     
    2    1   19 1     
    3    1   20 1     
    4    1   21 1     
    5    2    9 1     
    6    2    3 1     
    7    2   22 1     
    8    3    4 1     
    9    3   23 1     
   10    3   24 1     
   11    4    5 1     
   12    4    6 1     
   13    4   44 1     
   14    5   25 1     
   15    5   26 1     
   16    5   27 1     
   17    6    7 1     
   18    6    8 1     
   19    6   28 1     
   20    7   29 1     
   21    7   30 1     
   22    7   31 1     
   23    8    9 1     
   24    8   32 1     
   25    8   33 1     
   26    9   10 1     
   27    9   34 1     
   28   10   11 1     
   29   10   35 1     
   30   11   12 1     
   31   11   36 1     
   32   11   37 1     
   33   12   13 1     
   34   12   38 1     
   35   12   39 1     
   36   13   18 ar    
   37   13   14 ar    
   38   14   15 ar    
   39   14   40 1     
   40   15   16 ar    
   41   15   41 1     
   42   16   17 ar    
   43   16   42 1     
   44   17   18 ar    
   45   17   43 1     
   46   10   45 1     
   47   18   46 1     
@<TRIPOS>SUBSTRUCTURE
      1 S1             1
@<TRIPOS>SET
LONE_PAIRS      STATIC     ATOMS    <user>   **** ""
2 45 46
DONOR_HYDROGENS      STATIC     ATOMS    <user>   **** ""
2 44 35
ATOM$BLUE        STATIC     ATOMS    COLORGROUP SYSTEM
2 45 46
ATOM$RED        STATIC     ATOMS    COLORGROUP SYSTEM
2 44 35
