#       Name:                AV-unprocessed.smi:2938
#       Creating user name   scv26
#       Creation time:       Fri Mar 27 16:15:19 2020


#       File generated by GOLD software.
#

@<TRIPOS>MOLECULE
AV-unprocessed.smi:2938
    32    33     1
SMALL
NO_CHARGES


@<TRIPOS>ATOM
      1 ****        -3.3579   1.8449   0.0053 N.1            1 S1                 0.0000
      2 ****        -2.2016   1.8969   0.0055 C.1            1 S1                 0.0000
      3 ****        -0.7415   1.9606   0.0057 C.ar           1 S1                 0.0000
      4 ****        -0.0458   3.1963   0.0042 C.ar           1 S1                 0.0000
      5 ****        -0.6773   4.4095   0.0021 O.co2          1 S1                -1.0000
      6 ****         1.3030   3.2575   0.0045 N.ar           1 S1                 0.0000
      7 ****         1.9568   2.0973   0.0066 C.ar           1 S1                 0.0000
      8 ****         3.3274   2.1686   0.0064 N.pl3          1 S1                 0.0000
      9 ****         1.4208   0.8767   0.0084 N.ar           1 S1                 0.0000
     10 ****         0.0671   0.7926   0.0080 C.ar           1 S1                 0.0000
     11 ****        -0.5037  -0.4927   0.0070 N.3            1 S1                 0.0000
     12 ****        -0.2510  -1.2423  -1.2169 C.3            1 S1                 0.0000
     13 ****        -1.0260  -2.5710  -1.1872 C.3            1 S1                 0.0000
     14 ****        -0.6741  -3.3044  -0.0169 O.3            1 S1                 0.0000
     15 ****        -0.9933  -2.5928   1.1760 C.3            1 S1                 0.0000
     16 ****        -0.2161  -1.2653   1.2087 C.3            1 S1                 0.0000
     17 ****         3.7935   3.0636   0.0047 H              1 S1                 0.0000
     18 ****         3.8783   1.3229   0.0091 H              1 S1                 0.0000
     19 ****        -0.5535  -0.6505  -2.0818 H              1 S1                 0.0000
     20 ****         0.8176  -1.4384  -1.3159 H              1 S1                 0.0000
     21 ****        -2.1027  -2.3938  -1.2075 H              1 S1                 0.0000
     22 ****        -0.7845  -3.1675  -2.0670 H              1 S1                 0.0000
     23 ****        -2.0687  -2.4154   1.2290 H              1 S1                 0.0000
     24 ****        -0.7284  -3.2056   2.0377 H              1 S1                 0.0000
     25 ****         0.8545  -1.4644   1.2734 H              1 S1                 0.0000
     26 ****        -0.4932  -0.6897   2.0928 H              1 S1                 0.0000
     27 ****        -4.3569   1.7999   0.0051 LP             1 S1                 0.0000
     28 ****         1.7878   4.1321   0.0032 LP             1 S1                 0.0000
     29 ****         1.9933   0.0568   0.0100 LP             1 S1                 0.0000
     30 ****        -1.4897  -0.3269   0.0255 LP             1 S1                 0.0000
     31 ****         0.3096  -3.4840  -0.0322 LP             1 S1                 0.0000
     32 ****        -1.1714  -4.1720  -0.0180 LP             1 S1                 0.0000
@<TRIPOS>BOND
    1    1    2 3     
    2    2    3 1     
    3    3   10 ar    
    4    3    4 ar    
    5    4    5 ar    
    6    4    6 ar    
    7    6    7 ar    
    8    7    8 1     
    9    7    9 ar    
   10    8   17 1     
   11    8   18 1     
   12    9   10 ar    
   13   10   11 1     
   14   11   16 1     
   15   11   12 1     
   16   12   13 1     
   17   12   19 1     
   18   12   20 1     
   19   13   14 1     
   20   13   21 1     
   21   13   22 1     
   22   14   15 1     
   23   15   16 1     
   24   15   23 1     
   25   15   24 1     
   26   16   25 1     
   27   16   26 1     
   28    1   27 1     
   29    6   28 1     
   30    9   29 1     
   31   11   30 1     
   32   14   31 1     
   33   14   32 1     
@<TRIPOS>SUBSTRUCTURE
      1 S1             1
@<TRIPOS>SET
LONE_PAIRS      STATIC     ATOMS    <user>   **** ""
7 27 5 28 29 30 31 32
DONOR_HYDROGENS      STATIC     ATOMS    <user>   **** ""
2 17 18
ATOM$BLUE        STATIC     ATOMS    COLORGROUP SYSTEM
7 27 5 28 29 30 31 32
ATOM$RED        STATIC     ATOMS    COLORGROUP SYSTEM
2 17 18
