AV-unprocessed.smi:183|AV-procd|sdf|1459|dock9
  -GOLD-   2262019263D 1   1.00000     0.00000
 Structure written by MMmdl.
 55 57  0  0  0  0  0  0  0  0  1 V2000
  146.6542  134.4095  153.9892 C   0  0  0  0  0  0  0  0  0  0  0  0
  147.0119  135.6148  154.8518 C   0  0  0  0  0  0  0  0  0  0  0  0
  146.7219  135.6270  156.0478 O   0  0  0  0  0  0  0  0  0  0  0  0
  147.6438  136.6219  154.2309 N   0  0  0  0  0  0  0  0  0  0  0  0
  148.0665  137.8609  154.8696 C   0  0  0  0  0  0  0  0  0  0  0  0
  148.5107  138.9050  153.8259 C   0  0  0  0  0  0  0  0  0  0  0  0
  148.8377  140.2108  154.4063 N   0  0  0  0  0  0  0  0  0  0  0  0
  149.9586  140.1477  155.1662 C   0  0  0  0  0  0  0  0  0  0  0  0
  151.0404  139.5361  154.6219 N   0  0  0  0  0  0  0  0  0  0  0  0
  152.1734  139.4297  155.3223 C   0  0  0  0  0  0  0  0  0  0  0  0
  152.4317  139.8515  156.5616 N   0  0  0  0  0  0  0  0  0  0  0  0
  151.3433  140.4581  157.1161 C   0  0  0  0  0  0  0  0  0  0  0  0
  150.0761  140.6464  156.4959 C   0  0  0  0  0  0  0  0  0  0  0  0
  149.2117  141.2897  157.3744 N   0  0  0  0  0  0  0  0  0  0  0  0
  149.9275  141.4738  158.4494 C   0  0  0  0  0  0  0  0  0  0  0  0
  151.2224  141.0127  158.3781 N   0  0  0  0  0  0  0  0  0  0  0  0
  152.2334  141.0893  159.4208 C   0  0  0  0  0  0  0  0  0  0  0  0
  152.6024  142.5396  159.8136 C   0  0  1  0  0  0  0  0  0  0  0  0
  154.0153  142.6672  159.7996 O   0  0  0  0  0  0  0  0  0  0  0  0
  152.0169  143.5994  158.8914 C   0  0  0  0  0  0  0  0  0  0  0  0
  151.9804  144.8316  159.7858 C   0  0  0  0  0  0  0  0  0  0  0  0
  151.6401  144.3296  161.0708 O   0  0  0  0  0  0  0  0  0  0  0  0
  152.0244  142.9597  161.1843 C   0  0  2  0  0  0  0  0  0  0  0  0
  152.9305  142.7474  162.4078 C   0  0  0  0  0  0  0  0  0  0  0  0
  147.7607  141.1152  154.8454 C   0  0  0  0  0  0  0  0  0  0  0  0
  146.9414  140.5106  156.0015 C   0  0  0  0  0  0  0  0  0  0  0  0
  146.7974  141.4875  153.6972 C   0  0  0  0  0  0  0  0  0  0  0  0
  147.5565  133.8689  153.7022 H   0  0  0  0  0  0  0  0  0  0  0  0
  146.1364  134.7259  153.0833 H   0  0  0  0  0  0  0  0  0  0  0  0
  146.0023  133.7241  154.5317 H   0  0  0  0  0  0  0  0  0  0  0  0
  147.8418  136.5247  153.2455 H   0  0  0  0  0  0  0  0  0  0  0  0
  147.2262  138.2373  155.4522 H   0  0  0  0  0  0  0  0  0  0  0  0
  148.8675  137.6512  155.5795 H   0  0  0  0  0  0  0  0  0  0  0  0
  149.3747  138.5253  153.2780 H   0  0  0  0  0  0  0  0  0  0  0  0
  147.7333  139.0338  153.0734 H   0  0  0  0  0  0  0  0  0  0  0  0
  152.9893  138.9337  154.8180 H   0  0  0  0  0  0  0  0  0  0  0  0
  149.5286  141.9577  159.3288 H   0  0  0  0  0  0  0  0  0  0  0  0
  151.8595  140.5456  160.2894 H   0  0  0  0  0  0  0  0  0  0  0  0
  153.1211  140.5517  159.0848 H   0  0  0  0  0  0  0  0  0  0  0  0
  154.3605  142.0994  159.1279 H   0  0  0  0  0  0  0  0  0  0  0  0
  152.5894  143.7517  157.9752 H   0  0  0  0  0  0  0  0  0  0  0  0
  150.9977  143.3319  158.6094 H   0  0  0  0  0  0  0  0  0  0  0  0
  152.9643  145.3001  159.8361 H   0  0  0  0  0  0  0  0  0  0  0  0
  151.2644  145.5794  159.4448 H   0  0  0  0  0  0  0  0  0  0  0  0
  151.0956  142.4131  161.3535 H   0  0  0  0  0  0  0  0  0  0  0  0
  153.2403  141.7054  162.4897 H   0  0  0  0  0  0  0  0  0  0  0  0
  152.4052  143.0103  163.3261 H   0  0  0  0  0  0  0  0  0  0  0  0
  153.8276  143.3646  162.3569 H   0  0  0  0  0  0  0  0  0  0  0  0
  148.2149  142.0344  155.2149 H   0  0  0  0  0  0  0  0  0  0  0  0
  146.1163  141.1661  156.2813 H   0  0  0  0  0  0  0  0  0  0  0  0
  147.5451  140.3700  156.8980 H   0  0  0  0  0  0  0  0  0  0  0  0
  146.5172  139.5448  155.7253 H   0  0  0  0  0  0  0  0  0  0  0  0
  145.9883  142.1232  154.0576 H   0  0  0  0  0  0  0  0  0  0  0  0
  146.3456  140.5975  153.2578 H   0  0  0  0  0  0  0  0  0  0  0  0
  147.2923  142.0381  152.8978 H   0  0  0  0  0  0  0  0  0  0  0  0
  1  2  1  0  0  0  0
  1 28  1  0  0  0  0
  1 29  1  0  0  0  0
  1 30  1  0  0  0  0
  2  3  2  0  0  0  0
  2  4  1  0  0  0  0
  4  5  1  0  0  0  0
  4 31  1  0  0  0  0
  5  6  1  0  0  0  0
  5 32  1  0  0  0  0
  5 33  1  0  0  0  0
  6  7  1  0  0  0  0
  6 34  1  0  0  0  0
  6 35  1  0  0  0  0
  7  8  1  0  0  0  0
  7 25  1  0  0  0  0
  8 13  1  0  0  0  0
  8  9  2  0  0  0  0
  9 10  1  0  0  0  0
 10 11  2  0  0  0  0
 10 36  1  0  0  0  0
 11 12  1  0  0  0  0
 12 16  1  0  0  0  0
 12 13  2  0  0  0  0
 13 14  1  0  0  0  0
 14 15  2  0  0  0  0
 15 16  1  0  0  0  0
 15 37  1  0  0  0  0
 16 17  1  0  0  0  0
 17 18  1  0  0  0  0
 17 38  1  0  0  0  0
 17 39  1  0  0  0  0
 18 23  1  0  0  0  0
 18 19  1  0  0  0  0
 18 20  1  0  0  0  0
 19 40  1  0  0  0  0
 20 21  1  0  0  0  0
 20 41  1  0  0  0  0
 20 42  1  0  0  0  0
 21 22  1  0  0  0  0
 21 43  1  0  0  0  0
 21 44  1  0  0  0  0
 22 23  1  0  0  0  0
 23 24  1  0  0  0  0
 23 45  1  0  0  0  0
 24 46  1  0  0  0  0
 24 47  1  0  0  0  0
 24 48  1  0  0  0  0
 25 26  1  0  0  0  0
 25 27  1  0  0  0  0
 25 49  1  0  0  0  0
 26 50  1  0  0  0  0
 26 51  1  0  0  0  0
 26 52  1  0  0  0  0
 27 53  1  0  0  0  0
 27 54  1  0  0  0  0
 27 55  1  0  0  0  0
M  END
> <s_m_source_file>
AV-unprocessed.smi

> <i_m_source_file_index>
183

> <i_lp_mmshare_version>
43012

> <i_f3d_flags>
0

> <s_epik_input>
W0NIM11DKD1PKVtOSF1bQ0gyXVtDSDJdTihbQ0hdKFtDSDNdKVtDSDNdKWMobltjSF1uMSljKGMxMiluW2NIXW4yW0NIMl1bQ0BAXTMoW09IXSlbQ0gyXVtDSDJdT1tDQEhdM1tDSDNd

> <s_epik_cmdline>
J2VwaWtfcHl0aG9uJywgJy1waCcsICc3LjAnLCAnLXRuJywgJzgnLCAnLW1hJywgJzIwMCcsICctbWV0YWxfYmluZGluZycsICctaW1hZScsICc8aW5maWxlLm1hZT4nLCAnLW9tYWUnLCAnPG91dGZpbGUubWFlPic=

> <r_lp_tautomer_probability>
1

> <r_epik_Ionization_Penalty>
0.00156158

> <r_epik_Ionization_Penalty_Charging>
0

> <r_epik_Ionization_Penalty_Neutral>
0.00156158

> <r_epik_State_Penalty>
0.000865808

> <r_epik_Charging_Adjusted_Penalty>
0.000865808

> <i_epik_Tot_Q>
0

> <i_epik_Tot_abs_Q>
0

> <r_epik_Metal_State_Penalty>
-0

> <b_epik_Metal_Only>
0

> <s_lp_Force_Field>
OPLS_2005

> <r_lp_Energy>
29.9876

> <b_lp_Chiralities_Consistent>
1

> <s_lp_Variant>
AV-unprocessed.smi:183-3

> <Gold.Version>
5.8.1

> <Gold.Id.Protein>
6NUR|6NUR_protein|mol2

> <Gold.PLP.Fitness>
50.7962

> <Gold.PLP.PLP>
-44.6167

> <Gold.PLP.part.hbond>
-3.0000

> <Gold.PLP.part.metal>
0.0000

> <Gold.PLP.part.buried>
-2.4022

> <Gold.PLP.part.nonpolar>
-39.1118

> <Gold.PLP.part.repulsive>
0.4712

> <Gold.PLP.ligand.clash>
0.0000

> <Gold.PLP.ligand.torsion>
1.6213

> <Gold.PLP.Chemscore.Hbond>
2.7920

> <Gold.PLP.Chemscore.CHOScore>
0.0000

> <Gold.PLP.Chemscore.Metal>
0.0000

> <Gold.Chemscore.Hbonds>
donor molecule, donor type, donor heavy atom, donor atom, acceptor molecule, acceptor atom, score
      L1  H     4    31       P1  7948  1.00
      P1  H  7989  7998       L1     9  0.80
      P1  H  7997  8009       L1    11  1.00

> <Gold.PLP.Chemscore.Internal.Correction>
1.0461

> <Gold.Rescore>
     Score         DG    S(hbond)    S(metal)    S(lipo)     H(rot)  DE(clash)    DE(int)     intcor
      8.07     -13.66       1.39        0.00     105.55       3.45       1.72       3.87       ----

> <Gold.Chemscore.Fitness>
8.0678

> <Gold.Chemscore.DG>
-13.6615

> <Gold.Chemscore.ZeroCoef>
-5.4800

> <Gold.Chemscore.Hbond>
1.3926

> <Gold.Chemscore.Metal>
0.0000

> <Gold.Chemscore.Lipo>
105.5511

> <Gold.Chemscore.Internal_Hbond>
0.0000

> <Gold.Chemscore.DEClash>
1.7233

> <Gold.Chemscore.DEInternal>
3.8704

> <Gold.Chemscore.Rot>
3.4451

> <Gold.Chemscore.Internal.Correction>
   9.000000E+99

> <Gold.Chemscore.Hbonds>
donor molecule, donor type, donor heavy atom, donor atom, acceptor molecule, acceptor atom, score
      L1  H     4    31       P1  7948  0.97
      P1  H  7989  7998       L1     9  0.04
      P1  H  7997  8009       L1    11  0.39

> <Gold.Chemscore.Hbond.Weighted>
-4.6514

> <Gold.Chemscore.Metal.Weighted>
-0.0000

> <Gold.Chemscore.Lipo.Weighted>
-12.3495

> <Gold.Chemscore.Internal_Hbond.Weighted>
0.0000

> <Gold.Chemscore.DEClash.Weighted>
1.7233

> <Gold.Chemscore.DEInternal.Weighted>
3.8704

> <Gold.Chemscore.Rot.Weighted>
8.8194

> <Gold.Chemscore.Internal.Correction.Weighted>
   9.000000E+99

> <Gold.Protein.RotatedTorsions>
[ 6907 6896 6895 6894 ] final  113.54 input  -60.11 | X-H torsion
[ 7974 7965 7964 7962 ] final    5.51 input  175.53 | X-H torsion
[ 8008 7997 7996 7995 ] final -174.79 input   59.86 | X-H torsion
[ 10167 10162 10161 10158 ] final -134.37 input  -65.29 | X-H torsion
[ 10718 10713 10712 10709 ] final -157.78 input   66.30 | X-H torsion
[ 10763 10752 10751 10750 ] final -130.76 input  -60.55 | X-H torsion
[ 11005 11000 10999 10996 ] final  -68.42 input  -57.11 | X-H torsion

> <Gold.Protein.ActiveResidues>
 VAL166  LYS551  ARG553  GLY616  TRP617  ASP618  TYR619  PRO620  LYS621  CYS622 
 ASP623  PHE694  ASN695  SER759  ASP760  ASP761  ALA762  ILE779  LEU786  VAL792 
 PHE793  MET794  SER795  GLU796  ALA797  LYS798  CYS799  TRP800  GLU811  SER814 

> <Gold.Protein.RotatedAtoms>
  152.4854  133.8361  159.7127 H   0  0  0  0  0  0  0  0  0  0  0  0  # atno 6907 bound_to 6896
  150.8937  133.7199  159.2904 H   0  0  0  0  0  0  0  0  0  0  0  0  # atno 6908 bound_to 6896
  151.4664  135.1046  159.9791 H   0  0  0  0  0  0  0  0  0  0  0  0  # atno 6909 bound_to 6896
  146.2440  140.0373  142.8385 H   0  0  0  0  0  0  0  0  0  0  0  0  # atno 7974 bound_to 7965
  155.9745  140.1169  157.0782 H   0  0  0  0  0  0  0  0  0  0  0  0  # atno 8008 bound_to 7997
  154.4165  140.1156  156.5419 H   0  0  0  0  0  0  0  0  0  0  0  0  # atno 8009 bound_to 7997
  155.6552  140.3473  155.4765 H   0  0  0  0  0  0  0  0  0  0  0  0  # atno 8010 bound_to 7997
  139.8887  143.6749  152.2616 H   0  0  0  0  0  0  0  0  0  0  0  0  # atno 10167 bound_to 10162
  156.5450  130.8580  151.2761 H   0  0  0  0  0  0  0  0  0  0  0  0  # atno 10718 bound_to 10713
  154.8754  135.3852  154.4136 H   0  0  0  0  0  0  0  0  0  0  0  0  # atno 10763 bound_to 10752
  153.4847  135.7030  153.5923 H   0  0  0  0  0  0  0  0  0  0  0  0  # atno 10764 bound_to 10752
  153.4323  135.3876  155.2145 H   0  0  0  0  0  0  0  0  0  0  0  0  # atno 10765 bound_to 10752
  141.1531  133.6740  156.6443 H   0  0  0  0  0  0  0  0  0  0  0  0  # atno 11005 bound_to 11000
  145.1101  140.9400  143.4661 LP  0  0  0  0  0  0  0  0  0  0  0  0  # atno 17320 bound_to 7965
  145.0585  139.3125  143.5892 LP  0  0  0  0  0  0  0  0  0  0  0  0  # atno 17321 bound_to 7965
  139.7129  144.7617  151.1082 LP  0  0  0  0  0  0  0  0  0  0  0  0  # atno 17342 bound_to 10162
  140.7731  143.5307  150.9427 LP  0  0  0  0  0  0  0  0  0  0  0  0  # atno 17343 bound_to 10162
  157.7398  130.9839  150.2338 LP  0  0  0  0  0  0  0  0  0  0  0  0  # atno 17370 bound_to 10713
  156.2937  130.3749  149.7817 LP  0  0  0  0  0  0  0  0  0  0  0  0  # atno 17371 bound_to 10713
  140.3369  134.7882  157.4368 LP  0  0  0  0  0  0  0  0  0  0  0  0  # atno 17394 bound_to 11000
  140.0970  134.5524  155.8389 LP  0  0  0  0  0  0  0  0  0  0  0  0  # atno 17395 bound_to 11000

$$$$
