AV-unprocessed.smi:469|AV-procd|sdf|2653|dock5
  -GOLD-   2262023 63D 1   1.00000     0.00000
 Structure written by MMmdl.
 37 38  0  0  0  0  0  0  0  0  1 V2000
  147.2852  134.3757  161.2940 C   0  0  0  0  0  0  0  0  0  0  0  0
  147.3487  135.1447  160.0606 N   0  0  0  0  0  0  0  0  0  0  0  0
  147.5532  136.4684  160.0060 C   0  0  0  0  0  0  0  0  0  0  0  0
  147.7129  137.1652  161.0094 O   0  0  0  0  0  0  0  0  0  0  0  0
  147.5930  137.0816  158.5985 C   0  0  0  0  0  0  0  0  0  0  0  0
  148.9180  137.0114  157.9603 N   0  0  0  0  0  0  0  0  0  0  0  0
  149.4252  138.2061  157.4138 C   0  0  0  0  0  0  0  0  0  0  0  0
  150.6391  138.2638  156.8422 C   0  0  0  0  0  0  0  0  0  0  0  0
  151.1925  139.7803  156.0200 S   0  0  0  0  0  0  0  0  0  0  0  0
  152.6636  139.7688  156.0021 O   0  0  0  0  0  0  0  0  0  0  0  0
  150.4472  139.9068  154.7575 O   0  0  0  0  0  0  0  0  0  0  0  0
  150.6965  141.0798  157.0478 N   0  0  0  0  0  0  0  0  0  0  0  0
  151.1679  141.0778  158.4391 C   0  0  0  0  0  0  0  0  0  0  0  0
  151.8292  142.4386  158.6529 C   0  0  0  0  0  0  0  0  0  0  0  0
  151.0500  143.3497  157.7166 C   0  0  0  0  0  0  0  0  0  0  0  0
  150.7632  142.4490  156.5157 C   0  0  0  0  0  0  0  0  0  0  0  0
  151.4001  137.0415  156.7239 C   0  0  0  0  0  0  0  0  0  0  0  0
  150.9091  135.8874  157.2178 C   0  0  0  0  0  0  0  0  0  0  0  0
  149.6037  135.8288  157.8866 C   0  0  0  0  0  0  0  0  0  0  0  0
  149.1537  134.7809  158.3505 O   0  0  0  0  0  0  0  0  0  0  0  0
  147.1495  133.3182  161.0665 H   0  0  0  0  0  0  0  0  0  0  0  0
  146.4479  134.7027  161.9119 H   0  0  0  0  0  0  0  0  0  0  0  0
  148.2063  134.4848  161.8687 H   0  0  0  0  0  0  0  0  0  0  0  0
  147.2303  134.6400  159.1940 H   0  0  0  0  0  0  0  0  0  0  0  0
  146.8527  136.5702  157.9814 H   0  0  0  0  0  0  0  0  0  0  0  0
  147.2516  138.1171  158.6514 H   0  0  0  0  0  0  0  0  0  0  0  0
  148.7618  139.0564  157.4795 H   0  0  0  0  0  0  0  0  0  0  0  0
  150.3087  140.9564  159.0994 H   0  0  0  0  0  0  0  0  0  0  0  0
  151.8591  140.2556  158.6275 H   0  0  0  0  0  0  0  0  0  0  0  0
  151.7954  142.7677  159.6918 H   0  0  0  0  0  0  0  0  0  0  0  0
  152.8750  142.3964  158.3448 H   0  0  0  0  0  0  0  0  0  0  0  0
  150.1134  143.6519  158.1872 H   0  0  0  0  0  0  0  0  0  0  0  0
  151.6001  144.2517  157.4470 H   0  0  0  0  0  0  0  0  0  0  0  0
  151.5791  142.5209  155.7952 H   0  0  0  0  0  0  0  0  0  0  0  0
  149.8362  142.7127  156.0058 H   0  0  0  0  0  0  0  0  0  0  0  0
  152.3651  137.0489  156.2391 H   0  0  0  0  0  0  0  0  0  0  0  0
  151.4906  134.9822  157.1211 H   0  0  0  0  0  0  0  0  0  0  0  0
  1  2  1  0  0  0  0
  1 21  1  0  0  0  0
  1 22  1  0  0  0  0
  1 23  1  0  0  0  0
  2  3  1  0  0  0  0
  2 24  1  0  0  0  0
  3  4  2  0  0  0  0
  3  5  1  0  0  0  0
  5  6  1  0  0  0  0
  5 25  1  0  0  0  0
  5 26  1  0  0  0  0
  6 19  1  0  0  0  0
  6  7  1  0  0  0  0
  7  8  2  0  0  0  0
  7 27  1  0  0  0  0
  8  9  1  0  0  0  0
  8 17  1  0  0  0  0
  9 10  2  0  0  0  0
  9 11  2  0  0  0  0
  9 12  1  0  0  0  0
 12 16  1  0  0  0  0
 12 13  1  0  0  0  0
 13 14  1  0  0  0  0
 13 28  1  0  0  0  0
 13 29  1  0  0  0  0
 14 15  1  0  0  0  0
 14 30  1  0  0  0  0
 14 31  1  0  0  0  0
 15 16  1  0  0  0  0
 15 32  1  0  0  0  0
 15 33  1  0  0  0  0
 16 34  1  0  0  0  0
 16 35  1  0  0  0  0
 17 18  2  0  0  0  0
 17 36  1  0  0  0  0
 18 19  1  0  0  0  0
 18 37  1  0  0  0  0
 19 20  2  0  0  0  0
M  END
> <s_m_source_file>
AV-unprocessed.smi

> <i_m_source_file_index>
469

> <i_lp_mmshare_version>
43012

> <i_f3d_flags>
0

> <s_epik_input>
W0NIM11bTkhdQyg9TylbQ0gyXW4xW2NIXWMoW2NIXVtjSF1jMT1PKVMoPU8pKD1PKU4yW0NIMl1bQ0gyXVtDSDJdW0NIMl0y

> <s_epik_cmdline>
J2VwaWtfcHl0aG9uJywgJy1waCcsICc3LjAnLCAnLXRuJywgJzgnLCAnLW1hJywgJzIwMCcsICctbWV0YWxfYmluZGluZycsICctaW1hZScsICc8aW5maWxlLm1hZT4nLCAnLW9tYWUnLCAnPG91dGZpbGUubWFlPic=

> <r_lp_tautomer_probability>
1

> <r_epik_Ionization_Penalty>
2.91909e-08

> <r_epik_Ionization_Penalty_Charging>
9.91299e-09

> <r_epik_Ionization_Penalty_Neutral>
1.92779e-08

> <r_epik_State_Penalty>
-0

> <r_epik_Charging_Adjusted_Penalty>
9.91299e-09

> <i_epik_Tot_Q>
0

> <i_epik_Tot_abs_Q>
0

> <r_epik_Metal_State_Penalty>
-0

> <b_epik_Metal_Only>
0

> <s_lp_Force_Field>
OPLS_2005

> <r_lp_Energy>
18.9882

> <b_lp_Chiralities_Consistent>
1

> <s_lp_Variant>
AV-unprocessed.smi:469-1

> <Gold.Version>
5.8.1

> <Gold.Id.Protein>
6NUR|6NUR_protein|mol2

> <Gold.PLP.Fitness>
38.3054

> <Gold.PLP.PLP>
-25.3710

> <Gold.PLP.part.hbond>
-5.0000

> <Gold.PLP.part.metal>
0.0000

> <Gold.PLP.part.buried>
-3.9930

> <Gold.PLP.part.nonpolar>
-16.8790

> <Gold.PLP.part.repulsive>
0.1525

> <Gold.PLP.ligand.clash>
0.0000

> <Gold.PLP.ligand.torsion>
1.8338

> <Gold.PLP.Chemscore.Hbond>
4.7200

> <Gold.PLP.Chemscore.CHOScore>
0.0000

> <Gold.PLP.Chemscore.Metal>
0.0000

> <Gold.Chemscore.Hbonds>
donor molecule, donor type, donor heavy atom, donor atom, acceptor molecule, acceptor atom, score
      P1  H  6896  6907       L1    20  1.00
      P1  H  6931  6943       L1     4  0.91
      P1  H  6934  6947       L1     4  0.88
      P1  H  7989  7998       L1    11  1.00
      P1  H  7997  8010       L1    10  1.00

> <Gold.PLP.Chemscore.Internal.Correction>
2.4419

> <Gold.Rescore>
     Score         DG    S(hbond)    S(metal)    S(lipo)     H(rot)  DE(clash)    DE(int)     intcor
     16.26     -21.29       4.01        0.00      56.19       1.62       0.16       4.86       ----

> <Gold.Chemscore.Fitness>
16.2635

> <Gold.Chemscore.DG>
-21.2864

> <Gold.Chemscore.ZeroCoef>
-5.4800

> <Gold.Chemscore.Hbond>
4.0078

> <Gold.Chemscore.Metal>
0.0000

> <Gold.Chemscore.Lipo>
56.1901

> <Gold.Chemscore.Internal_Hbond>
0.0000

> <Gold.Chemscore.DEClash>
0.1611

> <Gold.Chemscore.DEInternal>
4.8617

> <Gold.Chemscore.Rot>
1.6226

> <Gold.Chemscore.Internal.Correction>
   9.000000E+99

> <Gold.Chemscore.Hbonds>
donor molecule, donor type, donor heavy atom, donor atom, acceptor molecule, acceptor atom, score
      P1  H  6896  6907       L1    20  0.34
      P1  H  6931  6943       L1     4  0.89
      P1  H  6934  6947       L1     4  0.83
      P1  H  7989  7998       L1    11  0.59
      P1  H  7997  8010       L1    10  0.99

> <Gold.Chemscore.Hbond.Weighted>
-13.3860

> <Gold.Chemscore.Metal.Weighted>
-0.0000

> <Gold.Chemscore.Lipo.Weighted>
-6.5742

> <Gold.Chemscore.Internal_Hbond.Weighted>
0.0000

> <Gold.Chemscore.DEClash.Weighted>
0.1611

> <Gold.Chemscore.DEInternal.Weighted>
4.8617

> <Gold.Chemscore.Rot.Weighted>
4.1539

> <Gold.Chemscore.Internal.Correction.Weighted>
   9.000000E+99

> <Gold.Protein.RotatedTorsions>
[ 6907 6896 6895 6894 ] final  -99.55 input  -60.11 | X-H torsion
[ 7974 7965 7964 7962 ] final -102.69 input  175.53 | X-H torsion
[ 8008 7997 7996 7995 ] final   95.44 input   59.86 | X-H torsion
[ 10167 10162 10161 10158 ] final  150.90 input  -65.29 | X-H torsion
[ 10718 10713 10712 10709 ] final   91.38 input   66.30 | X-H torsion
[ 10763 10752 10751 10750 ] final -178.62 input  -60.55 | X-H torsion
[ 11005 11000 10999 10996 ] final  -69.64 input  -57.11 | X-H torsion

> <Gold.Protein.ActiveResidues>
 VAL166  LYS551  ARG553  GLY616  TRP617  ASP618  TYR619  PRO620  LYS621  CYS622 
 ASP623  PHE694  ASN695  SER759  ASP760  ASP761  ALA762  ILE779  LEU786  VAL792 
 PHE793  MET794  SER795  GLU796  ALA797  LYS798  CYS799  TRP800  GLU811  SER814 

> <Gold.Protein.RotatedAtoms>
  150.7084  134.1023  159.3970 H   0  0  0  0  0  0  0  0  0  0  0  0  # atno 6907 bound_to 6896
  151.9010  135.0376  160.0515 H   0  0  0  0  0  0  0  0  0  0  0  0  # atno 6908 bound_to 6896
  152.2414  133.5103  159.5309 H   0  0  0  0  0  0  0  0  0  0  0  0  # atno 6909 bound_to 6896
  145.2655  140.9282  143.3016 H   0  0  0  0  0  0  0  0  0  0  0  0  # atno 7974 bound_to 7965
  156.0689  140.3286  155.7552 H   0  0  0  0  0  0  0  0  0  0  0  0  # atno 8008 bound_to 7997
  155.5336  140.0595  157.2901 H   0  0  0  0  0  0  0  0  0  0  0  0  # atno 8009 bound_to 7997
  154.4520  140.1923  156.0509 H   0  0  0  0  0  0  0  0  0  0  0  0  # atno 8010 bound_to 7997
  139.4845  144.5485  151.7442 H   0  0  0  0  0  0  0  0  0  0  0  0  # atno 10167 bound_to 10162
  157.6960  131.0405  150.3721 H   0  0  0  0  0  0  0  0  0  0  0  0  # atno 10718 bound_to 10713
  154.5453  135.2809  155.1058 H   0  0  0  0  0  0  0  0  0  0  0  0  # atno 10763 bound_to 10752
  154.2525  135.6337  153.5249 H   0  0  0  0  0  0  0  0  0  0  0  0  # atno 10764 bound_to 10752
  152.9989  135.5586  154.6004 H   0  0  0  0  0  0  0  0  0  0  0  0  # atno 10765 bound_to 10752
  141.1558  133.6769  156.6631 H   0  0  0  0  0  0  0  0  0  0  0  0  # atno 11005 bound_to 11000
  144.9380  139.4221  143.6462 LP  0  0  0  0  0  0  0  0  0  0  0  0  # atno 17320 bound_to 7965
  146.3262  139.8326  142.8905 LP  0  0  0  0  0  0  0  0  0  0  0  0  # atno 17321 bound_to 7965
  140.5035  144.1133  150.5977 LP  0  0  0  0  0  0  0  0  0  0  0  0  # atno 17342 bound_to 10162
  140.4034  143.2692  151.9920 LP  0  0  0  0  0  0  0  0  0  0  0  0  # atno 17343 bound_to 10162
  156.4144  130.3940  149.6868 LP  0  0  0  0  0  0  0  0  0  0  0  0  # atno 17370 bound_to 10713
  156.4141  130.7736  151.2751 LP  0  0  0  0  0  0  0  0  0  0  0  0  # atno 17371 bound_to 10713
  140.3232  134.7990  157.4269 LP  0  0  0  0  0  0  0  0  0  0  0  0  # atno 17394 bound_to 11000
  140.1079  134.5385  155.8293 LP  0  0  0  0  0  0  0  0  0  0  0  0  # atno 17395 bound_to 11000

$$$$
