AV-unprocessed.smi:1056|AV-procd|sdf|4645|dock5
  -GOLD-   22720 3153D 1   1.00000     0.00000
 Structure written by MMmdl.
 44 46  0  0  0  0  0  0  0  0  3 V2000
  151.7178  144.2778  160.4709 C   0  0  0  0  0  0  0  0  0  0  0  0
  151.7442  143.1070  159.5035 C   0  0  0  0  0  0  0  0  0  0  0  0
  151.0212  143.1999  158.2931 C   0  0  0  0  0  0  0  0  0  0  0  0
  151.0230  142.1359  157.3649 C   0  0  0  0  0  0  0  0  0  0  0  0
  150.3934  142.0124  156.1384 N   0  0  0  0  0  0  0  0  0  0  0  0
  150.7803  140.7983  155.7590 C   0  0  0  0  0  0  0  0  0  0  0  0
  151.5837  140.1169  156.5979 N   0  0  0  0  0  0  0  0  0  0  0  0
  152.1254  138.7855  156.3951 C   0  0  0  0  0  0  0  0  0  0  0  0
  151.0272  137.7198  156.2132 C   0  0  1  0  0  0  0  0  0  0  0  0
  149.9417  138.0860  157.0416 O   0  0  0  0  0  0  0  0  0  0  0  0
  150.5322  137.5972  154.7542 C   0  0  0  0  0  0  0  0  0  0  0  0
  149.7387  136.3655  154.5126 N   0  3  1  0  0  0  0  0  0  0  0  0
  150.4574  135.1341  154.9288 C   0  0  0  0  0  0  0  0  0  0  0  0
  149.7443  133.8855  154.3755 C   0  0  0  0  0  0  0  0  0  0  0  0
  148.3018  133.9653  154.6338 N   0  5  0  0  0  0  0  0  0  0  0  0
  147.5783  135.1049  154.8633 C   0  0  0  0  0  0  0  0  0  0  0  0
  146.3536  135.1669  154.9452 O   0  0  0  0  0  0  0  0  0  0  0  0
  148.3644  136.4246  155.0892 C   0  0  0  0  0  0  0  0  0  0  0  0
  151.7754  140.9672  157.6821 C   0  0  0  0  0  0  0  0  0  0  0  0
  152.4968  140.8618  158.8845 C   0  0  0  0  0  0  0  0  0  0  0  0
  152.4823  141.9334  159.8017 C   0  0  0  0  0  0  0  0  0  0  0  0
  153.2642  141.8101  161.0973 C   0  0  0  0  0  0  0  0  0  0  0  0
  151.1513  145.1166  160.0658 H   0  0  0  0  0  0  0  0  0  0  0  0
  152.7293  144.6283  160.6764 H   0  0  0  0  0  0  0  0  0  0  0  0
  151.2544  143.9846  161.4131 H   0  0  0  0  0  0  0  0  0  0  0  0
  150.4584  144.0934  158.0660 H   0  0  0  0  0  0  0  0  0  0  0  0
  150.4593  140.3776  154.8171 H   0  0  0  0  0  0  0  0  0  0  0  0
  152.7721  138.8141  155.5169 H   0  0  0  0  0  0  0  0  0  0  0  0
  152.7653  138.5358  157.2425 H   0  0  0  0  0  0  0  0  0  0  0  0
  151.4167  136.7668  156.5695 H   0  0  0  0  0  0  0  0  0  0  0  0
  150.0483  137.6766  157.8866 H   0  0  0  0  0  0  0  0  0  0  0  0
  149.9300  138.4772  154.5232 H   0  0  0  0  0  0  0  0  0  0  0  0
  151.3669  137.6097  154.0529 H   0  0  0  0  0  0  0  0  0  0  0  0
  151.4832  135.1458  154.5587 H   0  0  0  0  0  0  0  0  0  0  0  0
  150.5133  135.0954  156.0180 H   0  0  0  0  0  0  0  0  0  0  0  0
  149.9403  133.8206  153.3051 H   0  0  0  0  0  0  0  0  0  0  0  0
  150.1889  132.9923  154.8135 H   0  0  0  0  0  0  0  0  0  0  0  0
  148.4180  136.6166  156.1618 H   0  0  0  0  0  0  0  0  0  0  0  0
  147.8000  137.2422  154.6421 H   0  0  0  0  0  0  0  0  0  0  0  0
  153.0565  139.9636  159.0995 H   0  0  0  0  0  0  0  0  0  0  0  0
  153.7282  140.8278  161.1902 H   0  0  0  0  0  0  0  0  0  0  0  0
  152.6080  141.9519  161.9563 H   0  0  0  0  0  0  0  0  0  0  0  0
  154.0547  142.5597  161.1372 H   0  0  0  0  0  0  0  0  0  0  0  0
  149.6288  136.2799  153.5127 H   0  0  0  0  0  0  0  0  0  0  0  0
  1  2  1  0  0  0  0
  1 23  1  0  0  0  0
  1 24  1  0  0  0  0
  1 25  1  0  0  0  0
  2 21  1  0  0  0  0
  2  3  2  0  0  0  0
  3  4  1  0  0  0  0
  3 26  1  0  0  0  0
  4 19  2  0  0  0  0
  4  5  1  0  0  0  0
  5  6  2  0  0  0  0
  6  7  1  0  0  0  0
  6 27  1  0  0  0  0
  7  8  1  0  0  0  0
  7 19  1  0  0  0  0
  8  9  1  0  0  0  0
  8 28  1  0  0  0  0
  8 29  1  0  0  0  0
  9 10  1  0  0  0  0
  9 11  1  0  0  0  0
  9 30  1  0  0  0  0
 10 31  1  0  0  0  0
 11 12  1  0  0  0  0
 11 32  1  0  0  0  0
 11 33  1  0  0  0  0
 12 18  1  0  0  0  0
 12 13  1  0  0  0  0
 12 44  1  0  0  0  0
 13 14  1  0  0  0  0
 13 34  1  0  0  0  0
 13 35  1  0  0  0  0
 14 15  1  0  0  0  0
 14 36  1  0  0  0  0
 14 37  1  0  0  0  0
 15 16  1  0  0  0  0
 16 17  2  0  0  0  0
 16 18  1  0  0  0  0
 18 38  1  0  0  0  0
 18 39  1  0  0  0  0
 19 20  1  0  0  0  0
 20 21  2  0  0  0  0
 20 40  1  0  0  0  0
 21 22  1  0  0  0  0
 22 41  1  0  0  0  0
 22 42  1  0  0  0  0
 22 43  1  0  0  0  0
M  CHG  1  12   1
M  CHG  1  15  -1
M  END
> <s_m_source_file>
AV-unprocessed.smi

> <i_m_source_file_index>
1056

> <i_lp_mmshare_version>
43012

> <i_f3d_flags>
0

> <s_epik_input>
W0NIM11jKFtjSF0xKWMoW0NIM10pW2NIXWMoYzEyKW4oW2NIXW4yKVtDSDJdW0NASF0oW09IXSlbQ0gyXU4zW0NIMl1bQ0gyXVtOSF1DKD1PKVtDSDJdMw==

> <s_epik_cmdline>
J2VwaWtfcHl0aG9uJywgJy1waCcsICc3LjAnLCAnLXRuJywgJzgnLCAnLW1hJywgJzIwMCcsICctbWV0YWxfYmluZGluZycsICctaW1hZScsICc8aW5maWxlLm1hZT4nLCAnLW9tYWUnLCAnPG91dGZpbGUubWFlPic=

> <r_epik_Ionization_Penalty>
5.13411

> <r_epik_Ionization_Penalty_Charging>
5.04792

> <r_epik_Ionization_Penalty_Neutral>
0.0861879

> <r_epik_State_Penalty>
5.18224

> <r_epik_Charging_Adjusted_Penalty>
10.2302

> <i_epik_Tot_Q>
0

> <i_epik_Tot_abs_Q>
2

> <r_epik_Metal_State_Penalty>
1.33873

> <b_epik_Metal_Only>
1

> <s_lp_Force_Field>
OPLS_2005

> <r_lp_Energy>
19.55

> <b_lp_Chiralities_Consistent>
1

> <s_lp_Variant>
AV-unprocessed.smi:1056-16

> <Gold.Version>
5.8.1

> <Gold.Id.Protein>
6NUR|6NUR_protein|mol2

> <Gold.PLP.Fitness>
43.8087

> <Gold.PLP.PLP>
-38.6614

> <Gold.PLP.part.hbond>
-1.0000

> <Gold.PLP.part.metal>
0.0000

> <Gold.PLP.part.buried>
-4.8603

> <Gold.PLP.part.nonpolar>
-33.4091

> <Gold.PLP.part.repulsive>
1.1885

> <Gold.PLP.ligand.clash>
0.0000

> <Gold.PLP.ligand.torsion>
0.4493

> <Gold.PLP.Chemscore.Hbond>
2.0000

> <Gold.PLP.Chemscore.CHOScore>
0.0000

> <Gold.PLP.Chemscore.Metal>
0.0000

> <Gold.Chemscore.Hbonds>
donor molecule, donor type, donor heavy atom, donor atom, acceptor molecule, acceptor atom, score
      L1  H    12    44       P1  7948  2.00

> <Gold.PLP.Chemscore.Internal.Correction>
0.0460

> <Gold.Rescore>
     Score         DG    S(hbond)    S(metal)    S(lipo)     H(rot)  DE(clash)    DE(int)     intcor
     14.71     -15.43       0.98        0.00     107.64       2.31       0.10       0.63       ----

> <Gold.Chemscore.Fitness>
14.7109

> <Gold.Chemscore.DG>
-15.4345

> <Gold.Chemscore.ZeroCoef>
-5.4800

> <Gold.Chemscore.Hbond>
0.9838

> <Gold.Chemscore.Metal>
0.0000

> <Gold.Chemscore.Lipo>
107.6419

> <Gold.Chemscore.Internal_Hbond>
0.0000

> <Gold.Chemscore.DEClash>
0.0958

> <Gold.Chemscore.DEInternal>
0.6278

> <Gold.Chemscore.Rot>
2.3147

> <Gold.Chemscore.Internal.Correction>
   9.000000E+99

> <Gold.Chemscore.Hbonds>
donor molecule, donor type, donor heavy atom, donor atom, acceptor molecule, acceptor atom, score
      L1  H    12    44       P1  7948  0.40

> <Gold.Chemscore.Hbond.Weighted>
-3.2860

> <Gold.Chemscore.Metal.Weighted>
-0.0000

> <Gold.Chemscore.Lipo.Weighted>
-12.5941

> <Gold.Chemscore.Internal_Hbond.Weighted>
0.0000

> <Gold.Chemscore.DEClash.Weighted>
0.0958

> <Gold.Chemscore.DEInternal.Weighted>
0.6278

> <Gold.Chemscore.Rot.Weighted>
5.9256

> <Gold.Chemscore.Internal.Correction.Weighted>
   9.000000E+99

> <Gold.Protein.RotatedTorsions>
[ 6907 6896 6895 6894 ] final  -73.00 input  -60.11 | X-H torsion
[ 7974 7965 7964 7962 ] final    4.62 input  175.53 | X-H torsion
[ 8008 7997 7996 7995 ] final   29.37 input   59.86 | X-H torsion
[ 10167 10162 10161 10158 ] final   28.07 input  -65.29 | X-H torsion
[ 10718 10713 10712 10709 ] final -111.04 input   66.30 | X-H torsion
[ 10763 10752 10751 10750 ] final -147.69 input  -60.55 | X-H torsion
[ 11005 11000 10999 10996 ] final -104.58 input  -57.11 | X-H torsion

> <Gold.Protein.ActiveResidues>
 VAL166  LYS551  ARG553  GLY616  TRP617  ASP618  TYR619  PRO620  LYS621  CYS622 
 ASP623  PHE694  ASN695  SER759  ASP760  ASP761  ALA762  ILE779  LEU786  VAL792 
 PHE793  MET794  SER795  GLU796  ALA797  LYS798  CYS799  TRP800  GLU811  SER814 

> <Gold.Protein.RotatedAtoms>
  150.7147  134.5080  159.5593 H   0  0  0  0  0  0  0  0  0  0  0  0  # atno 6907 bound_to 6896
  152.2663  134.7978  160.0431 H   0  0  0  0  0  0  0  0  0  0  0  0  # atno 6908 bound_to 6896
  151.8673  133.3433  159.3760 H   0  0  0  0  0  0  0  0  0  0  0  0  # atno 6909 bound_to 6896
  146.2443  140.0508  142.8375 H   0  0  0  0  0  0  0  0  0  0  0  0  # atno 7974 bound_to 7965
  155.0734  140.3202  155.4623 H   0  0  0  0  0  0  0  0  0  0  0  0  # atno 8008 bound_to 7997
  156.2785  140.2108  156.5807 H   0  0  0  0  0  0  0  0  0  0  0  0  # atno 8009 bound_to 7997
  154.7036  140.0504  157.0470 H   0  0  0  0  0  0  0  0  0  0  0  0  # atno 8010 bound_to 7997
  140.4884  144.0506  150.6288 H   0  0  0  0  0  0  0  0  0  0  0  0  # atno 10167 bound_to 10162
  156.0624  130.5847  150.8319 H   0  0  0  0  0  0  0  0  0  0  0  0  # atno 10718 bound_to 10713
  154.8273  135.3354  154.6857 H   0  0  0  0  0  0  0  0  0  0  0  0  # atno 10763 bound_to 10752
  153.7481  135.6941  153.4956 H   0  0  0  0  0  0  0  0  0  0  0  0  # atno 10764 bound_to 10752
  153.2196  135.4453  155.0424 H   0  0  0  0  0  0  0  0  0  0  0  0  # atno 10765 bound_to 10752
  141.1094  133.8735  157.1628 H   0  0  0  0  0  0  0  0  0  0  0  0  # atno 11005 bound_to 11000
  145.0986  140.9331  143.4726 LP  0  0  0  0  0  0  0  0  0  0  0  0  # atno 17320 bound_to 7965
  145.0696  139.3042  143.5839 LP  0  0  0  0  0  0  0  0  0  0  0  0  # atno 17321 bound_to 7965
  140.3768  143.2824  152.0216 LP  0  0  0  0  0  0  0  0  0  0  0  0  # atno 17342 bound_to 10162
  139.4846  144.6186  151.7298 LP  0  0  0  0  0  0  0  0  0  0  0  0  # atno 17343 bound_to 10162
  157.5643  131.0946  150.9513 LP  0  0  0  0  0  0  0  0  0  0  0  0  # atno 17370 bound_to 10713
  156.9743  130.5503  149.5292 LP  0  0  0  0  0  0  0  0  0  0  0  0  # atno 17371 bound_to 10713
  139.9979  135.0039  157.0125 LP  0  0  0  0  0  0  0  0  0  0  0  0  # atno 17394 bound_to 11000
  140.4816  134.1283  155.7218 LP  0  0  0  0  0  0  0  0  0  0  0  0  # atno 17395 bound_to 11000

$$$$
