AV-unprocessed.smi:102|AV-procd|sdf|956|dock6
  -GOLD-   2262017493D 1   1.00000     0.00000
 Structure written by MMmdl.
 44 45  0  0  0  0  0  0  0  0  1 V2000
  151.9102  138.1415  154.1430 C   0  0  0  0  0  0  0  0  0  0  0  0
  152.3546  137.9739  155.5898 C   0  0  0  0  0  0  0  0  0  0  0  0
  153.3239  138.5865  156.0390 O   0  0  0  0  0  0  0  0  0  0  0  0
  151.5780  137.1095  156.2683 O   0  0  0  0  0  0  0  0  0  0  0  0
  151.9313  136.7046  157.5839 C   0  0  0  0  0  0  0  0  0  0  0  0
  151.2293  137.5779  158.6414 C   0  0  1  0  0  0  0  0  0  0  0  0
  151.7667  138.8938  158.6264 O   0  0  0  0  0  0  0  0  0  0  0  0
  151.0584  139.6580  157.7076 C   0  0  2  0  0  0  0  0  0  0  0  0
  151.1436  141.1085  158.1060 N   0  0  0  0  0  0  0  0  0  0  0  0
  151.8704  141.5032  159.2209 C   0  0  0  0  0  0  0  0  0  0  0  0
  151.9587  142.7936  159.6211 C   0  0  0  0  0  0  0  0  0  0  0  0
  152.6804  143.1022  160.7118 F   0  0  0  0  0  0  0  0  0  0  0  0
  151.2692  143.8501  158.8855 C   0  0  0  0  0  0  0  0  0  0  0  0
  151.2929  145.0467  159.1667 O   0  0  0  0  0  0  0  0  0  0  0  0
  150.5320  143.4015  157.7850 N   0  0  0  0  0  0  0  0  0  0  0  0
  150.4287  142.0740  157.3647 C   0  0  0  0  0  0  0  0  0  0  0  0
  149.7303  141.7882  156.3930 O   0  0  0  0  0  0  0  0  0  0  0  0
  149.6106  139.1736  157.7488 C   0  0  1  0  0  0  0  0  0  0  0  0
  149.0611  139.1564  156.4387 O   0  0  0  0  0  0  0  0  0  0  0  0
  147.8967  138.5300  156.2065 C   0  0  0  0  0  0  0  0  0  0  0  0
  147.4969  138.5762  154.7381 C   0  0  0  0  0  0  0  0  0  0  0  0
  147.1978  137.9641  157.0473 O   0  0  0  0  0  0  0  0  0  0  0  0
  149.7346  137.7666  158.3285 C   0  0  2  0  0  0  0  0  0  0  0  0
  148.9380  137.6763  159.5031 O   0  0  0  0  0  0  0  0  0  0  0  0
  148.5858  136.4750  159.9933 C   0  0  0  0  0  0  0  0  0  0  0  0
  147.6828  136.5890  161.2141 C   0  0  0  0  0  0  0  0  0  0  0  0
  148.9321  135.3805  159.5487 O   0  0  0  0  0  0  0  0  0  0  0  0
  150.0272  144.0961  157.2535 H   0  0  0  0  0  0  0  0  0  0  0  0
  150.9652  138.6828  154.0988 H   0  0  0  0  0  0  0  0  0  0  0  0
  151.7754  137.1683  153.6707 H   0  0  0  0  0  0  0  0  0  0  0  0
  152.6555  138.6997  153.5760 H   0  0  0  0  0  0  0  0  0  0  0  0
  151.7406  135.6427  157.7457 H   0  0  0  0  0  0  0  0  0  0  0  0
  153.0093  136.8379  157.6753 H   0  0  0  0  0  0  0  0  0  0  0  0
  151.3747  137.1333  159.6267 H   0  0  0  0  0  0  0  0  0  0  0  0
  151.5391  139.5474  156.7329 H   0  0  0  0  0  0  0  0  0  0  0  0
  152.3863  140.7567  159.8076 H   0  0  0  0  0  0  0  0  0  0  0  0
  149.0449  139.8224  158.4205 H   0  0  0  0  0  0  0  0  0  0  0  0
  147.4561  139.6080  154.3885 H   0  0  0  0  0  0  0  0  0  0  0  0
  146.5160  138.1232  154.5935 H   0  0  0  0  0  0  0  0  0  0  0  0
  148.2214  138.0324  154.1317 H   0  0  0  0  0  0  0  0  0  0  0  0
  149.4013  137.0301  157.5951 H   0  0  0  0  0  0  0  0  0  0  0  0
  146.7949  137.1751  160.9765 H   0  0  0  0  0  0  0  0  0  0  0  0
  148.2129  137.0780  162.0315 H   0  0  0  0  0  0  0  0  0  0  0  0
  147.3657  135.6015  161.5497 H   0  0  0  0  0  0  0  0  0  0  0  0
  1  2  1  0  0  0  0
  1 29  1  0  0  0  0
  1 30  1  0  0  0  0
  1 31  1  0  0  0  0
  2  3  2  0  0  0  0
  2  4  1  0  0  0  0
  4  5  1  0  0  0  0
  5  6  1  0  0  0  0
  5 32  1  0  0  0  0
  5 33  1  0  0  0  0
  6 23  1  0  0  0  0
  6  7  1  0  0  0  0
  6 34  1  0  0  0  0
  7  8  1  0  0  0  0
  8  9  1  0  0  0  0
  8 18  1  0  0  0  0
  8 35  1  0  0  0  0
  9 16  1  0  0  0  0
  9 10  1  0  0  0  0
 10 11  2  0  0  0  0
 10 36  1  0  0  0  0
 11 12  1  0  0  0  0
 11 13  1  0  0  0  0
 13 14  2  0  0  0  0
 13 15  1  0  0  0  0
 15 28  1  0  0  0  0
 15 16  1  0  0  0  0
 16 17  2  0  0  0  0
 18 19  1  0  0  0  0
 18 23  1  0  0  0  0
 18 37  1  0  0  0  0
 19 20  1  0  0  0  0
 20 21  1  0  0  0  0
 20 22  2  0  0  0  0
 21 38  1  0  0  0  0
 21 39  1  0  0  0  0
 21 40  1  0  0  0  0
 23 24  1  0  0  0  0
 23 41  1  0  0  0  0
 24 25  1  0  0  0  0
 25 26  1  0  0  0  0
 25 27  2  0  0  0  0
 26 42  1  0  0  0  0
 26 43  1  0  0  0  0
 26 44  1  0  0  0  0
M  END
> <s_m_source_file>
AV-unprocessed.smi

> <i_m_source_file_index>
102

> <i_lp_mmshare_version>
43012

> <i_f3d_flags>
0

> <s_epik_input>
W0NIM11DKD1PKU9bQ0gyXVtDQEBIXTFPW0NASF0oW0NAQEhdKE9DKD1PKVtDSDNdKVtDQEhdMU9DKD1PKVtDSDNdKW4yW2NIXWMoRiljKD1PKVtuSF1jMj1P

> <s_epik_cmdline>
J2VwaWtfcHl0aG9uJywgJy1waCcsICc3LjAnLCAnLXRuJywgJzgnLCAnLW1hJywgJzIwMCcsICctbWV0YWxfYmluZGluZycsICctaW1hZScsICc8aW5maWxlLm1hZT4nLCAnLW9tYWUnLCAnPG91dGZpbGUubWFlPic=

> <r_lp_tautomer_probability>
0.999537

> <r_epik_Ionization_Penalty>
0.058267

> <r_epik_Ionization_Penalty_Charging>
0.058267

> <r_epik_Ionization_Penalty_Neutral>
6.57791e-16

> <r_epik_State_Penalty>
0.0503774

> <r_epik_Charging_Adjusted_Penalty>
0.108644

> <i_epik_Tot_Q>
0

> <i_epik_Tot_abs_Q>
0

> <r_epik_Metal_State_Penalty>
2.6644

> <b_epik_Metal_Only>
0

> <s_epik_Chemistry_Notes>
This compound has an ester and may undergo hydrolysis at high or low pH. This compound contains an acetal/aminal-like group ( X-CH(R)-Y where X, Y are N, S, or O) that may be acid/base labile, releasing an aldehyde.

> <s_lp_Force_Field>
OPLS_2005

> <r_lp_Energy>
12.7651

> <b_lp_Chiralities_Consistent>
1

> <s_lp_Variant>
AV-unprocessed.smi:102-12

> <Gold.Version>
5.8.1

> <Gold.Id.Protein>
6NUR|6NUR_protein|mol2

> <Gold.PLP.Fitness>
45.3095

> <Gold.PLP.PLP>
-37.5982

> <Gold.PLP.part.hbond>
-4.7686

> <Gold.PLP.part.metal>
0.0000

> <Gold.PLP.part.buried>
-7.5201

> <Gold.PLP.part.nonpolar>
-26.7135

> <Gold.PLP.part.repulsive>
0.3539

> <Gold.PLP.ligand.clash>
0.0000

> <Gold.PLP.ligand.torsion>
0.6148

> <Gold.PLP.Chemscore.Hbond>
2.9353

> <Gold.PLP.Chemscore.CHOScore>
0.0000

> <Gold.PLP.Chemscore.Metal>
0.0000

> <Gold.Chemscore.Hbonds>
donor molecule, donor type, donor heavy atom, donor atom, acceptor molecule, acceptor atom, score
      L1  H    15    28       P1  8028  0.99
      P1  H  6896  6907       L1    27  1.00
      P1  H  7997  8008       L1     3  0.93

> <Gold.PLP.Chemscore.Internal.Correction>
0.1352

> <Gold.Rescore>
     Score         DG    S(hbond)    S(metal)    S(lipo)     H(rot)  DE(clash)    DE(int)     intcor
      3.15      -9.77       2.67        0.00      49.13       4.05       0.29       6.33       ----

> <Gold.Chemscore.Fitness>
3.1471

> <Gold.Chemscore.DG>
-9.7674

> <Gold.Chemscore.ZeroCoef>
-5.4800

> <Gold.Chemscore.Hbond>
2.6682

> <Gold.Chemscore.Metal>
0.0000

> <Gold.Chemscore.Lipo>
49.1345

> <Gold.Chemscore.Internal_Hbond>
0.0000

> <Gold.Chemscore.DEClash>
0.2885

> <Gold.Chemscore.DEInternal>
6.3318

> <Gold.Chemscore.Rot>
4.0520

> <Gold.Chemscore.Internal.Correction>
   9.000000E+99

> <Gold.Chemscore.Hbonds>
donor molecule, donor type, donor heavy atom, donor atom, acceptor molecule, acceptor atom, score
      L1  H    15    28       P1  8028  0.67
      P1  H  6896  6907       L1    27  0.97
      P1  H  7997  8008       L1     3  0.90

> <Gold.Chemscore.Hbond.Weighted>
-8.9118

> <Gold.Chemscore.Metal.Weighted>
-0.0000

> <Gold.Chemscore.Lipo.Weighted>
-5.7487

> <Gold.Chemscore.Internal_Hbond.Weighted>
0.0000

> <Gold.Chemscore.DEClash.Weighted>
0.2885

> <Gold.Chemscore.DEInternal.Weighted>
6.3318

> <Gold.Chemscore.Rot.Weighted>
10.3732

> <Gold.Chemscore.Internal.Correction.Weighted>
   9.000000E+99

> <Gold.Protein.RotatedTorsions>
[ 6907 6896 6895 6894 ] final  -76.45 input  -60.11 | X-H torsion
[ 7974 7965 7964 7962 ] final -123.59 input  175.53 | X-H torsion
[ 8008 7997 7996 7995 ] final  -45.62 input   59.86 | X-H torsion
[ 10167 10162 10161 10158 ] final   -8.22 input  -65.29 | X-H torsion
[ 10718 10713 10712 10709 ] final -106.08 input   66.30 | X-H torsion
[ 10763 10752 10751 10750 ] final -113.65 input  -60.55 | X-H torsion
[ 11005 11000 10999 10996 ] final  -84.83 input  -57.11 | X-H torsion

> <Gold.Protein.ActiveResidues>
 VAL166  LYS551  ARG553  GLY616  TRP617  ASP618  TYR619  PRO620  LYS621  CYS622 
 ASP623  PHE694  ASN695  SER759  ASP760  ASP761  ALA762  ILE779  LEU786  VAL792 
 PHE793  MET794  SER795  GLU796  ALA797  LYS798  CYS799  TRP800  GLU811  SER814 

> <Gold.Protein.RotatedAtoms>
  150.7027  134.4571  159.5362 H   0  0  0  0  0  0  0  0  0  0  0  0  # atno 6907 bound_to 6896
  152.2252  134.8372  160.0490 H   0  0  0  0  0  0  0  0  0  0  0  0  # atno 6908 bound_to 6896
  151.9207  133.3550  159.3933 H   0  0  0  0  0  0  0  0  0  0  0  0  # atno 6909 bound_to 6896
  145.0170  140.7956  143.4404 H   0  0  0  0  0  0  0  0  0  0  0  0  # atno 7974 bound_to 7965
  154.4002  140.1392  156.3877 H   0  0  0  0  0  0  0  0  0  0  0  0  # atno 8008 bound_to 7997
  155.7944  140.3478  155.5346 H   0  0  0  0  0  0  0  0  0  0  0  0  # atno 8009 bound_to 7997
  155.8547  140.0947  157.1642 H   0  0  0  0  0  0  0  0  0  0  0  0  # atno 8010 bound_to 7997
  140.7052  143.5993  150.8814 H   0  0  0  0  0  0  0  0  0  0  0  0  # atno 10167 bound_to 10162
  156.0374  130.5595  150.7630 H   0  0  0  0  0  0  0  0  0  0  0  0  # atno 10718 bound_to 10713
  154.8405  135.4446  154.1382 H   0  0  0  0  0  0  0  0  0  0  0  0  # atno 10763 bound_to 10752
  153.2574  135.6933  153.7620 H   0  0  0  0  0  0  0  0  0  0  0  0  # atno 10764 bound_to 10752
  153.6910  135.3387  155.3177 H   0  0  0  0  0  0  0  0  0  0  0  0  # atno 10765 bound_to 10752
  141.1647  133.7367  156.8926 H   0  0  0  0  0  0  0  0  0  0  0  0  # atno 11005 bound_to 11000
  145.1946  139.2283  143.5225 LP  0  0  0  0  0  0  0  0  0  0  0  0  # atno 17320 bound_to 7965
  146.3479  140.1750  142.8589 LP  0  0  0  0  0  0  0  0  0  0  0  0  # atno 17321 bound_to 7965
  139.9718  143.6048  152.2971 LP  0  0  0  0  0  0  0  0  0  0  0  0  # atno 17342 bound_to 10162
  139.6638  144.7662  151.1912 LP  0  0  0  0  0  0  0  0  0  0  0  0  # atno 17343 bound_to 10162
  157.5144  131.0927  151.0158 LP  0  0  0  0  0  0  0  0  0  0  0  0  # atno 17370 bound_to 10713
  157.0505  130.5785  149.5369 LP  0  0  0  0  0  0  0  0  0  0  0  0  # atno 17371 bound_to 10713
  140.1638  134.9147  157.2748 LP  0  0  0  0  0  0  0  0  0  0  0  0  # atno 17394 bound_to 11000
  140.2581  134.3604  155.7417 LP  0  0  0  0  0  0  0  0  0  0  0  0  # atno 17395 bound_to 11000

$$$$
