AV-unprocessed.smi:1047|AV-procd|sdf|4573|dock8
  -GOLD-   22720 3 33D 1   1.00000     0.00000
 Structure written by MMmdl.
 56 58  0  0  0  0  0  0  0  0  2 V2000
  146.6772  137.3790  155.9198 C   0  0  0  0  0  0  0  0  0  0  0  0
  147.5580  136.1268  156.0330 C   0  0  0  0  0  0  0  0  0  0  0  0
  148.3215  135.8510  154.7870 N   0  3  2  0  0  0  0  0  0  0  0  0
  149.2409  134.6929  154.9022 C   0  0  0  0  0  0  0  0  0  0  0  0
  150.5201  135.0733  155.6690 C   0  0  0  0  0  0  0  0  0  0  0  0
  151.1495  136.1743  155.0244 O   0  0  0  0  0  0  0  0  0  0  0  0
  150.3313  137.3395  155.0048 C   0  0  1  0  0  0  0  0  0  0  0  0
  151.1468  138.4676  154.3549 C   0  0  0  0  0  0  0  0  0  0  0  0
  150.3034  139.6125  154.0248 N   0  0  0  0  0  0  0  0  0  0  0  0
  149.3213  139.9274  155.0576 C   0  0  0  0  0  0  0  0  0  0  0  0
  149.3512  141.4235  155.4229 C   0  0  2  0  0  0  0  0  0  0  0  0
  148.8676  142.1625  154.3187 O   0  0  0  0  0  0  0  0  0  0  0  0
  150.7624  141.9357  155.7850 C   0  0  0  0  0  0  0  0  0  0  0  0
  151.2641  141.4249  157.0516 N   0  0  0  0  0  0  0  0  0  0  0  0
  151.5265  140.1403  157.3618 C   0  0  0  0  0  0  0  0  0  0  0  0
  151.9814  139.8888  158.5856 N   0  0  0  0  0  0  0  0  0  0  0  0
  152.0092  141.1574  159.1386 C   0  0  0  0  0  0  0  0  0  0  0  0
  152.3961  141.5869  160.4269 C   0  0  0  0  0  0  0  0  0  0  0  0
  152.3406  142.9533  160.7823 C   0  0  0  0  0  0  0  0  0  0  0  0
  152.7656  143.3709  162.1791 C   0  0  0  0  0  0  0  0  0  0  0  0
  151.8926  143.9144  159.8408 C   0  0  0  0  0  0  0  0  0  0  0  0
  151.8240  145.3881  160.1999 C   0  0  0  0  0  0  0  0  0  0  0  0
  151.5030  143.5025  158.5493 C   0  0  0  0  0  0  0  0  0  0  0  0
  151.5635  142.1401  158.2068 C   0  0  0  0  0  0  0  0  0  0  0  0
  149.0369  137.0227  154.2198 C   0  0  0  0  0  0  0  0  0  0  0  0
  146.0561  137.4901  156.8086 H   0  0  0  0  0  0  0  0  0  0  0  0
  146.0111  137.3167  155.0590 H   0  0  0  0  0  0  0  0  0  0  0  0
  147.2674  138.2900  155.8254 H   0  0  0  0  0  0  0  0  0  0  0  0
  148.2246  136.2085  156.8910 H   0  0  0  0  0  0  0  0  0  0  0  0
  146.9009  135.2808  156.2379 H   0  0  0  0  0  0  0  0  0  0  0  0
  148.7408  133.8471  155.3755 H   0  0  0  0  0  0  0  0  0  0  0  0
  149.5086  134.3657  153.8968 H   0  0  0  0  0  0  0  0  0  0  0  0
  150.3024  135.3172  156.7097 H   0  0  0  0  0  0  0  0  0  0  0  0
  151.2124  134.2314  155.6802 H   0  0  0  0  0  0  0  0  0  0  0  0
  150.1016  137.6222  156.0334 H   0  0  0  0  0  0  0  0  0  0  0  0
  151.9276  138.7848  155.0472 H   0  0  0  0  0  0  0  0  0  0  0  0
  151.6547  138.0970  153.4635 H   0  0  0  0  0  0  0  0  0  0  0  0
  149.8305  139.4518  153.1410 H   0  0  0  0  0  0  0  0  0  0  0  0
  148.3282  139.6783  154.6815 H   0  0  0  0  0  0  0  0  0  0  0  0
  149.4792  139.3109  155.9438 H   0  0  0  0  0  0  0  0  0  0  0  0
  148.6944  141.6116  156.2734 H   0  0  0  0  0  0  0  0  0  0  0  0
  148.6175  143.0227  154.6202 H   0  0  0  0  0  0  0  0  0  0  0  0
  151.4730  141.6748  154.9996 H   0  0  0  0  0  0  0  0  0  0  0  0
  150.7555  143.0253  155.8378 H   0  0  0  0  0  0  0  0  0  0  0  0
  151.3792  139.3445  156.6462 H   0  0  0  0  0  0  0  0  0  0  0  0
  152.7365  140.8542  161.1438 H   0  0  0  0  0  0  0  0  0  0  0  0
  151.9464  143.8726  162.6945 H   0  0  0  0  0  0  0  0  0  0  0  0
  153.6153  144.0523  162.1317 H   0  0  0  0  0  0  0  0  0  0  0  0
  153.0602  142.5101  162.7799 H   0  0  0  0  0  0  0  0  0  0  0  0
  151.4782  145.9870  159.3570 H   0  0  0  0  0  0  0  0  0  0  0  0
  152.8076  145.7574  160.4907 H   0  0  0  0  0  0  0  0  0  0  0  0
  151.1343  145.5470  161.0291 H   0  0  0  0  0  0  0  0  0  0  0  0
  151.1603  144.2243  157.8226 H   0  0  0  0  0  0  0  0  0  0  0  0
  149.2922  136.7900  153.1851 H   0  0  0  0  0  0  0  0  0  0  0  0
  148.3846  137.8938  154.1770 H   0  0  0  0  0  0  0  0  0  0  0  0
  147.6248  135.5831  154.1064 H   0  0  0  0  0  0  0  0  0  0  0  0
  1  2  1  0  0  0  0
  1 26  1  0  0  0  0
  1 27  1  0  0  0  0
  1 28  1  0  0  0  0
  2  3  1  0  0  0  0
  2 29  1  0  0  0  0
  2 30  1  0  0  0  0
  3 25  1  0  0  0  0
  3  4  1  0  0  0  0
  3 56  1  0  0  0  0
  4  5  1  0  0  0  0
  4 31  1  0  0  0  0
  4 32  1  0  0  0  0
  5  6  1  0  0  0  0
  5 33  1  0  0  0  0
  5 34  1  0  0  0  0
  6  7  1  0  0  0  0
  7  8  1  0  0  0  0
  7 25  1  0  0  0  0
  7 35  1  0  0  0  0
  8  9  1  0  0  0  0
  8 36  1  0  0  0  0
  8 37  1  0  0  0  0
  9 10  1  0  0  0  0
  9 38  1  0  0  0  0
 10 11  1  0  0  0  0
 10 39  1  0  0  0  0
 10 40  1  0  0  0  0
 11 12  1  0  0  0  0
 11 13  1  0  0  0  0
 11 41  1  0  0  0  0
 12 42  1  0  0  0  0
 13 14  1  0  0  0  0
 13 43  1  0  0  0  0
 13 44  1  0  0  0  0
 14 24  1  0  0  0  0
 14 15  1  0  0  0  0
 15 16  2  0  0  0  0
 15 45  1  0  0  0  0
 16 17  1  0  0  0  0
 17 24  2  0  0  0  0
 17 18  1  0  0  0  0
 18 19  2  0  0  0  0
 18 46  1  0  0  0  0
 19 20  1  0  0  0  0
 19 21  1  0  0  0  0
 20 47  1  0  0  0  0
 20 48  1  0  0  0  0
 20 49  1  0  0  0  0
 21 22  1  0  0  0  0
 21 23  2  0  0  0  0
 22 50  1  0  0  0  0
 22 51  1  0  0  0  0
 22 52  1  0  0  0  0
 23 24  1  0  0  0  0
 23 53  1  0  0  0  0
 25 54  1  0  0  0  0
 25 55  1  0  0  0  0
M  CHG  1   3   1
M  END
> <s_m_source_file>
AV-unprocessed.smi

> <i_m_source_file_index>
1047

> <i_lp_mmshare_version>
43012

> <i_f3d_flags>
0

> <s_epik_input>
W0NIM11bQ0gyXU4xW0NIMl1bQ0gyXU9bQ0BIXShbQ0gyXTEpW0NIMl1bTkhdW0NIMl1bQ0BIXShbT0hdKVtDSDJdbihbY0hdbjIpYyhjMjMpW2NIXWMoW0NIM10pYyhbY0hdMylbQ0gzXQ==

> <s_epik_cmdline>
J2VwaWtfcHl0aG9uJywgJy1waCcsICc3LjAnLCAnLXRuJywgJzgnLCAnLW1hJywgJzIwMCcsICctbWV0YWxfYmluZGluZycsICctaW1hZScsICc8aW5maWxlLm1hZT4nLCAnLW9tYWUnLCAnPG91dGZpbGUubWFlPic=

> <r_epik_Ionization_Penalty>
1.19246

> <r_epik_Ionization_Penalty_Charging>
0.210041

> <r_epik_Ionization_Penalty_Neutral>
0.982415

> <r_epik_State_Penalty>
1.57595

> <r_epik_Charging_Adjusted_Penalty>
1.78599

> <i_epik_Tot_Q>
1

> <i_epik_Tot_abs_Q>
1

> <r_epik_Metal_State_Penalty>
1.46172

> <b_epik_Metal_Only>
0

> <s_lp_Force_Field>
OPLS_2005

> <r_lp_Energy>
32.195

> <b_lp_Chiralities_Consistent>
1

> <s_lp_Variant>
AV-unprocessed.smi:1047-14

> <Gold.Version>
5.8.1

> <Gold.Id.Protein>
6NUR|6NUR_protein|mol2

> <Gold.PLP.Fitness>
57.5970

> <Gold.PLP.PLP>
-46.1418

> <Gold.PLP.part.hbond>
-6.0000

> <Gold.PLP.part.metal>
0.0000

> <Gold.PLP.part.buried>
-2.1704

> <Gold.PLP.part.nonpolar>
-37.4090

> <Gold.PLP.part.repulsive>
0.1386

> <Gold.PLP.ligand.clash>
0.0000

> <Gold.PLP.ligand.torsion>
0.6428

> <Gold.PLP.Chemscore.Hbond>
4.1960

> <Gold.PLP.Chemscore.CHOScore>
0.0000

> <Gold.PLP.Chemscore.Metal>
0.0000

> <Gold.Chemscore.Hbonds>
donor molecule, donor type, donor heavy atom, donor atom, acceptor molecule, acceptor atom, score
      L1  H     9    38       P1  7957  0.83
      L1  H    12    42       P1  8028  1.00
      P1  H  7989  7998       L1     9  1.00
      P1  H  8011  8017       L1    12  0.18
      P1  H 10752 10764       L1     6  1.00

> <Gold.PLP.Chemscore.Internal.Correction>
0.1528

> <Gold.Rescore>
     Score         DG    S(hbond)    S(metal)    S(lipo)     H(rot)  DE(clash)    DE(int)     intcor
     18.62     -19.52       1.41        0.00     137.01       2.62       0.25       0.66       ----

> <Gold.Chemscore.Fitness>
18.6150

> <Gold.Chemscore.DG>
-19.5180

> <Gold.Chemscore.ZeroCoef>
-5.4800

> <Gold.Chemscore.Hbond>
1.4122

> <Gold.Chemscore.Metal>
0.0000

> <Gold.Chemscore.Lipo>
137.0148

> <Gold.Chemscore.Internal_Hbond>
0.0000

> <Gold.Chemscore.DEClash>
0.2463

> <Gold.Chemscore.DEInternal>
0.6566

> <Gold.Chemscore.Rot>
2.6209

> <Gold.Chemscore.Internal.Correction>
   9.000000E+99

> <Gold.Chemscore.Hbonds>
donor molecule, donor type, donor heavy atom, donor atom, acceptor molecule, acceptor atom, score
      L1  H     9    38       P1  7957  0.79
      L1  H    12    42       P1  8028  0.95
      P1  H  7989  7998       L1     9  0.06
      P1  H  8011  8017       L1    12  0.10
      P1  H 10752 10764       L1     6  0.60

> <Gold.Chemscore.Hbond.Weighted>
-4.7168

> <Gold.Chemscore.Metal.Weighted>
-0.0000

> <Gold.Chemscore.Lipo.Weighted>
-16.0307

> <Gold.Chemscore.Internal_Hbond.Weighted>
0.0000

> <Gold.Chemscore.DEClash.Weighted>
0.2463

> <Gold.Chemscore.DEInternal.Weighted>
0.6566

> <Gold.Chemscore.Rot.Weighted>
6.7096

> <Gold.Chemscore.Internal.Correction.Weighted>
   9.000000E+99

> <Gold.Protein.RotatedTorsions>
[ 6907 6896 6895 6894 ] final   -5.60 input  -60.11 | X-H torsion
[ 7974 7965 7964 7962 ] final   -8.89 input  175.53 | X-H torsion
[ 8008 7997 7996 7995 ] final   29.89 input   59.86 | X-H torsion
[ 10167 10162 10161 10158 ] final -156.57 input  -65.29 | X-H torsion
[ 10718 10713 10712 10709 ] final  -60.90 input   66.30 | X-H torsion
[ 10763 10752 10751 10750 ] final  -63.01 input  -60.55 | X-H torsion
[ 11005 11000 10999 10996 ] final  132.74 input  -57.11 | X-H torsion

> <Gold.Protein.ActiveResidues>
 VAL166  LYS551  ARG553  GLY616  TRP617  ASP618  TYR619  PRO620  LYS621  CYS622 
 ASP623  PHE694  ASN695  SER759  ASP760  ASP761  ALA762  ILE779  LEU786  VAL792 
 PHE793  MET794  SER795  GLU796  ALA797  LYS798  CYS799  TRP800  GLU811  SER814 

> <Gold.Protein.RotatedAtoms>
  151.4789  135.1051  159.9771 H   0  0  0  0  0  0  0  0  0  0  0  0  # atno 6907 bound_to 6896
  152.4787  133.8197  159.7057 H   0  0  0  0  0  0  0  0  0  0  0  0  # atno 6908 bound_to 6896
  150.8843  133.7268  159.2949 H   0  0  0  0  0  0  0  0  0  0  0  0  # atno 6909 bound_to 6896
  146.2267  140.2536  142.8348 H   0  0  0  0  0  0  0  0  0  0  0  0  # atno 7974 bound_to 7965
  155.0817  140.3211  155.4599 H   0  0  0  0  0  0  0  0  0  0  0  0  # atno 8008 bound_to 7997
  156.2765  140.2093  156.5890 H   0  0  0  0  0  0  0  0  0  0  0  0  # atno 8009 bound_to 7997
  154.6973  140.0510  157.0411 H   0  0  0  0  0  0  0  0  0  0  0  0  # atno 8010 bound_to 7997
  139.6840  143.9533  152.2351 H   0  0  0  0  0  0  0  0  0  0  0  0  # atno 10167 bound_to 10162
  156.0958  130.4193  150.0919 H   0  0  0  0  0  0  0  0  0  0  0  0  # atno 10718 bound_to 10713
  154.3086  135.6220  153.5456 H   0  0  0  0  0  0  0  0  0  0  0  0  # atno 10763 bound_to 10752
  152.9832  135.5696  154.5202 H   0  0  0  0  0  0  0  0  0  0  0  0  # atno 10764 bound_to 10752
  154.4847  135.2864  155.1519 H   0  0  0  0  0  0  0  0  0  0  0  0  # atno 10765 bound_to 10752
  139.9808  134.9548  156.9625 H   0  0  0  0  0  0  0  0  0  0  0  0  # atno 11005 bound_to 11000
  144.9393  140.8061  143.5640 LP  0  0  0  0  0  0  0  0  0  0  0  0  # atno 17320 bound_to 7965
  145.2486  139.2041  143.4954 LP  0  0  0  0  0  0  0  0  0  0  0  0  # atno 17321 bound_to 7965
  139.9331  144.6729  150.8343 LP  0  0  0  0  0  0  0  0  0  0  0  0  # atno 17342 bound_to 10162
  140.7661  143.3295  151.2441 LP  0  0  0  0  0  0  0  0  0  0  0  0  # atno 17343 bound_to 10162
  156.8918  130.9591  151.3587 LP  0  0  0  0  0  0  0  0  0  0  0  0  # atno 17370 bound_to 10713
  157.6119  130.8589  149.8965 LP  0  0  0  0  0  0  0  0  0  0  0  0  # atno 17371 bound_to 10713
  140.5100  134.1012  155.7268 LP  0  0  0  0  0  0  0  0  0  0  0  0  # atno 17394 bound_to 11000
  141.1480  133.9019  157.2167 LP  0  0  0  0  0  0  0  0  0  0  0  0  # atno 17395 bound_to 11000

$$$$
