AV-unprocessed.smi:3301|AV-procd|sdf|12653|dock10
  -GOLD-   2272018593D 1   1.00000     0.00000
 Structure written by MMmdl.
 37 38  0  0  0  0  0  0  0  0  2 V2000
  145.0719  136.6211  153.8132 C   0  0  0  0  0  0  0  0  0  0  0  0
  143.9015  136.9501  152.8723 C   0  0  1  0  0  0  0  0  0  0  0  0
  143.1087  135.6997  152.4332 C   0  0  0  0  0  0  0  0  0  0  0  0
  143.8613  134.8444  151.5109 N   0  0  0  0  0  0  0  0  0  0  0  0
  144.1477  133.5127  151.6675 C   0  0  0  0  0  0  0  0  0  0  0  0
  144.8717  133.1364  150.5656 C   0  0  0  0  0  0  0  0  0  0  0  0
  144.9999  134.2545  149.7856 N   0  3  0  0  0  0  0  0  0  0  0  0
  144.3876  135.2932  150.3637 C   0  0  0  0  0  0  0  0  0  0  0  0
  143.0126  137.9060  153.5259 N   0  0  0  0  0  0  0  0  0  0  0  0
  142.1780  137.6195  154.5371 C   0  0  0  0  0  0  0  0  0  0  0  0
  142.0629  136.4904  155.0162 O   0  0  0  0  0  0  0  0  0  0  0  0
  141.3373  138.7865  155.0703 C   0  0  0  0  0  0  0  0  0  0  0  0
  139.9144  138.6577  154.7523 N   0  0  0  0  0  0  0  0  0  0  0  0
  139.2125  139.7158  154.0443 C   0  0  0  0  0  0  0  0  0  0  0  0
  137.7360  139.2935  154.0506 C   0  0  0  0  0  0  0  0  0  0  0  0
  137.7167  137.8350  154.5217 C   0  0  0  0  0  0  0  0  0  0  0  0
  139.1311  137.6069  155.0264 C   0  0  0  0  0  0  0  0  0  0  0  0
  139.4766  136.5769  155.6037 O   0  0  0  0  0  0  0  0  0  0  0  0
  145.8049  135.9754  153.3294 H   0  0  0  0  0  0  0  0  0  0  0  0
  144.7254  136.1158  154.7153 H   0  0  0  0  0  0  0  0  0  0  0  0
  145.5942  137.5281  154.1196 H   0  0  0  0  0  0  0  0  0  0  0  0
  144.3227  137.4255  151.9842 H   0  0  0  0  0  0  0  0  0  0  0  0
  142.8180  135.1036  153.2998 H   0  0  0  0  0  0  0  0  0  0  0  0
  142.1869  135.9849  151.9241 H   0  0  0  0  0  0  0  0  0  0  0  0
  143.8220  132.9473  152.5290 H   0  0  0  0  0  0  0  0  0  0  0  0
  145.2950  132.1827  150.2862 H   0  0  0  0  0  0  0  0  0  0  0  0
  144.3274  136.2951  149.9773 H   0  0  0  0  0  0  0  0  0  0  0  0
  143.0370  138.8577  153.1887 H   0  0  0  0  0  0  0  0  0  0  0  0
  141.4569  138.8655  156.1523 H   0  0  0  0  0  0  0  0  0  0  0  0
  141.7258  139.7136  154.6472 H   0  0  0  0  0  0  0  0  0  0  0  0
  139.3559  140.6819  154.5300 H   0  0  0  0  0  0  0  0  0  0  0  0
  139.5969  139.7842  153.0256 H   0  0  0  0  0  0  0  0  0  0  0  0
  137.1700  139.9158  154.7454 H   0  0  0  0  0  0  0  0  0  0  0  0
  137.2823  139.4075  153.0656 H   0  0  0  0  0  0  0  0  0  0  0  0
  136.9818  137.6665  155.3095 H   0  0  0  0  0  0  0  0  0  0  0  0
  137.5105  137.1521  153.6969 H   0  0  0  0  0  0  0  0  0  0  0  0
  145.4881  134.2925  148.8996 H   0  0  0  0  0  0  0  0  0  0  0  0
  1  2  1  0  0  0  0
  1 19  1  0  0  0  0
  1 20  1  0  0  0  0
  1 21  1  0  0  0  0
  2  3  1  0  0  0  0
  2  9  1  0  0  0  0
  2 22  1  0  0  0  0
  3  4  1  0  0  0  0
  3 23  1  0  0  0  0
  3 24  1  0  0  0  0
  4  8  1  0  0  0  0
  4  5  1  0  0  0  0
  5  6  2  0  0  0  0
  5 25  1  0  0  0  0
  6  7  1  0  0  0  0
  6 26  1  0  0  0  0
  7  8  2  0  0  0  0
  7 37  1  0  0  0  0
  8 27  1  0  0  0  0
  9 10  1  0  0  0  0
  9 28  1  0  0  0  0
 10 11  2  0  0  0  0
 10 12  1  0  0  0  0
 12 13  1  0  0  0  0
 12 29  1  0  0  0  0
 12 30  1  0  0  0  0
 13 17  1  0  0  0  0
 13 14  1  0  0  0  0
 14 15  1  0  0  0  0
 14 31  1  0  0  0  0
 14 32  1  0  0  0  0
 15 16  1  0  0  0  0
 15 33  1  0  0  0  0
 15 34  1  0  0  0  0
 16 17  1  0  0  0  0
 16 35  1  0  0  0  0
 16 36  1  0  0  0  0
 17 18  2  0  0  0  0
M  CHG  1   7   1
M  END
> <s_m_source_file>
AV-unprocessed.smi

> <i_m_source_file_index>
3301

> <i_lp_mmshare_version>
43012

> <i_f3d_flags>
0

> <s_epik_input>
W2NIXTFuW2NIXVtjSF1uMVtDSDJdW0NAQEhdKFtDSDNdKVtOSF1DKD1PKVtDSDJdTjJbQ0gyXVtDSDJdW0NIMl1DMj1P

> <s_epik_cmdline>
J2VwaWtfcHl0aG9uJywgJy1waCcsICc3LjAnLCAnLXRuJywgJzgnLCAnLW1hJywgJzIwMCcsICctbWV0YWxfYmluZGluZycsICctaW1hZScsICc8aW5maWxlLm1hZT4nLCAnLW9tYWUnLCAnPG91dGZpbGUubWFlPic=

> <r_lp_tautomer_probability>
1

> <r_epik_Ionization_Penalty>
0.254232

> <r_epik_Ionization_Penalty_Charging>
0

> <r_epik_Ionization_Penalty_Neutral>
0.254232

> <r_epik_State_Penalty>
0.245698

> <r_epik_Charging_Adjusted_Penalty>
0.245698

> <i_epik_Tot_Q>
1

> <i_epik_Tot_abs_Q>
1

> <r_epik_Metal_State_Penalty>
0.5358

> <b_epik_Metal_Only>
0

> <s_lp_Force_Field>
OPLS_2005

> <r_lp_Energy>
15.9577

> <b_lp_Chiralities_Consistent>
1

> <s_lp_Variant>
AV-unprocessed.smi:3301-2

> <Gold.Version>
5.8.1

> <Gold.Id.Protein>
6NUR|6NUR_protein|mol2

> <Gold.PLP.Fitness>
42.0364

> <Gold.PLP.PLP>
-27.6228

> <Gold.PLP.part.hbond>
-3.1762

> <Gold.PLP.part.metal>
0.0000

> <Gold.PLP.part.buried>
-6.3973

> <Gold.PLP.part.nonpolar>
-19.0543

> <Gold.PLP.part.repulsive>
0.1352

> <Gold.PLP.ligand.clash>
0.0000

> <Gold.PLP.ligand.torsion>
0.3103

> <Gold.PLP.Chemscore.Hbond>
3.0000

> <Gold.PLP.Chemscore.CHOScore>
1.9977

> <Gold.PLP.Chemscore.Metal>
0.0000

> <Gold.Chemscore.Hbonds>
donor molecule, donor type, donor heavy atom, donor atom, acceptor molecule, acceptor atom, score
      L1  H     7    37       P1  7921  0.96
      L1  H     9    28       P1 10175  1.00
      P1  H 11000 11005       L1    18  1.00
      L1  C     5    25       P1 10957  0.36
      L1  C     8    27       P1 10171  1.00

> <Gold.PLP.Chemscore.Internal.Correction>
0.0412

> <Gold.Rescore>
     Score         DG    S(hbond)    S(metal)    S(lipo)     H(rot)  DE(clash)    DE(int)     intcor
     11.95     -14.70       2.94        0.00      46.26       2.35       0.01       2.74       ----

> <Gold.Chemscore.Fitness>
11.9525

> <Gold.Chemscore.DG>
-14.7010

> <Gold.Chemscore.ZeroCoef>
-5.4800

> <Gold.Chemscore.Hbond>
2.9392

> <Gold.Chemscore.Metal>
0.0000

> <Gold.Chemscore.Lipo>
46.2601

> <Gold.Chemscore.Internal_Hbond>
0.0000

> <Gold.Chemscore.DEClash>
0.0093

> <Gold.Chemscore.DEInternal>
2.7393

> <Gold.Chemscore.Rot>
2.3470

> <Gold.Chemscore.Internal.Correction>
   9.000000E+99

> <Gold.Chemscore.Hbonds>
donor molecule, donor type, donor heavy atom, donor atom, acceptor molecule, acceptor atom, score
      L1  H     7    37       P1  7921  0.85
      L1  H     9    28       P1 10175  1.00
      P1  H 11000 11005       L1    18  1.00

> <Gold.Chemscore.Hbond.Weighted>
-9.8169

> <Gold.Chemscore.Metal.Weighted>
-0.0000

> <Gold.Chemscore.Lipo.Weighted>
-5.4124

> <Gold.Chemscore.Internal_Hbond.Weighted>
0.0000

> <Gold.Chemscore.DEClash.Weighted>
0.0093

> <Gold.Chemscore.DEInternal.Weighted>
2.7393

> <Gold.Chemscore.Rot.Weighted>
6.0083

> <Gold.Chemscore.Internal.Correction.Weighted>
   9.000000E+99

> <Gold.Protein.RotatedTorsions>
[ 6907 6896 6895 6894 ] final  -55.43 input  -60.11 | X-H torsion
[ 7974 7965 7964 7962 ] final  102.19 input  175.53 | X-H torsion
[ 8008 7997 7996 7995 ] final  161.92 input   59.86 | X-H torsion
[ 10167 10162 10161 10158 ] final  -88.37 input  -65.29 | X-H torsion
[ 10718 10713 10712 10709 ] final  101.64 input   66.30 | X-H torsion
[ 10763 10752 10751 10750 ] final   25.11 input  -60.55 | X-H torsion
[ 11005 11000 10999 10996 ] final  101.94 input  -57.11 | X-H torsion

> <Gold.Protein.ActiveResidues>
 VAL166  LYS551  ARG553  GLY616  TRP617  ASP618  TYR619  PRO620  LYS621  CYS622 
 ASP623  PHE694  ASN695  SER759  ASP760  ASP761  ALA762  ILE779  LEU786  VAL792 
 PHE793  MET794  SER795  GLU796  ALA797  LYS798  CYS799  TRP800  GLU811  SER814 

> <Gold.Protein.RotatedAtoms>
  150.8252  134.7480  159.6806 H   0  0  0  0  0  0  0  0  0  0  0  0  # atno 6907 bound_to 6896
  152.4364  134.5675  159.9921 H   0  0  0  0  0  0  0  0  0  0  0  0  # atno 6908 bound_to 6896
  151.5849  133.3336  159.3052 H   0  0  0  0  0  0  0  0  0  0  0  0  # atno 6909 bound_to 6896
  145.3624  139.2415  143.3499 H   0  0  0  0  0  0  0  0  0  0  0  0  # atno 7974 bound_to 7965
  156.2069  140.1764  156.7781 H   0  0  0  0  0  0  0  0  0  0  0  0  # atno 8008 bound_to 7997
  154.5667  140.0690  156.8932 H   0  0  0  0  0  0  0  0  0  0  0  0  # atno 8009 bound_to 7997
  155.2748  140.3345  155.4265 H   0  0  0  0  0  0  0  0  0  0  0  0  # atno 8010 bound_to 7997
  140.3753  143.2774  151.9450 H   0  0  0  0  0  0  0  0  0  0  0  0  # atno 10167 bound_to 10162
  157.6824  131.0731  150.5282 H   0  0  0  0  0  0  0  0  0  0  0  0  # atno 10718 bound_to 10713
  153.0715  135.6590  154.0237 H   0  0  0  0  0  0  0  0  0  0  0  0  # atno 10763 bound_to 10752
  153.9881  135.2948  155.3416 H   0  0  0  0  0  0  0  0  0  0  0  0  # atno 10764 bound_to 10752
  154.7091  135.5213  153.8709 H   0  0  0  0  0  0  0  0  0  0  0  0  # atno 10765 bound_to 10752
  139.8775  134.9203  156.4982 H   0  0  0  0  0  0  0  0  0  0  0  0  # atno 11005 bound_to 11000
  146.2921  140.4261  142.8735 LP  0  0  0  0  0  0  0  0  0  0  0  0  # atno 17320 bound_to 7965
  144.8636  140.7175  143.6091 LP  0  0  0  0  0  0  0  0  0  0  0  0  # atno 17321 bound_to 7965
  139.4800  144.5869  151.7838 LP  0  0  0  0  0  0  0  0  0  0  0  0  # atno 17342 bound_to 10162
  140.4992  144.1194  150.5967 LP  0  0  0  0  0  0  0  0  0  0  0  0  # atno 17343 bound_to 10162
  156.5593  130.4251  149.6070 LP  0  0  0  0  0  0  0  0  0  0  0  0  # atno 17370 bound_to 10713
  156.2835  130.7084  151.1914 LP  0  0  0  0  0  0  0  0  0  0  0  0  # atno 17371 bound_to 10713
  140.8609  133.8061  155.9264 LP  0  0  0  0  0  0  0  0  0  0  0  0  # atno 17394 bound_to 11000
  140.9050  134.2331  157.5019 LP  0  0  0  0  0  0  0  0  0  0  0  0  # atno 17395 bound_to 11000

$$$$
