AV-unprocessed.smi:236|AV-procd|sdf|1810|dock10
  -GOLD-   2262020393D 1   1.00000     0.00000
 Structure written by MMmdl.
 58 62  0  0  0  0  0  0  0  0  1 V2000
  143.5902  132.9141  149.5344 C   0  0  0  0  0  0  0  0  0  0  0  0
  144.3279  133.0926  150.8713 C   0  0  1  0  0  0  0  0  0  0  0  0
  145.3846  132.1400  150.9411 O   0  0  0  0  0  0  0  0  0  0  0  0
  146.4207  132.6762  151.7439 C   0  0  0  0  0  0  0  0  0  0  0  0
  146.4641  134.1244  151.2847 C   0  0  0  0  0  0  0  0  0  0  0  0
  144.9839  134.4783  151.1281 C   0  0  1  0  0  0  0  0  0  0  0  0
  144.8524  135.3581  150.0237 O   0  0  0  0  0  0  0  0  0  0  0  0
  144.3671  135.1619  152.3770 C   0  0  0  0  0  0  0  0  0  0  0  0
  145.1258  136.3002  152.8746 N   0  0  0  0  0  0  0  0  0  0  0  0
  144.8352  137.6333  152.6882 C   0  0  0  0  0  0  0  0  0  0  0  0
  145.6746  138.4684  153.2372 N   0  0  0  0  0  0  0  0  0  0  0  0
  146.6047  137.6498  153.8664 C   0  0  0  0  0  0  0  0  0  0  0  0
  147.7754  137.8833  154.6425 C   0  0  0  0  0  0  0  0  0  0  0  0
  148.2711  139.1006  154.9469 N   0  0  0  0  0  0  0  0  0  0  0  0
  147.2999  140.1746  154.7915 C   0  0  0  0  0  0  0  0  0  0  0  0
  147.9889  141.5330  154.9959 C   0  0  0  0  0  0  0  0  0  0  0  0
  148.6380  141.5482  156.2639 O   0  0  0  0  0  0  0  0  0  0  0  0
  149.6528  140.5508  156.3694 C   0  0  1  0  0  0  0  0  0  0  0  0
  150.3351  140.7055  157.7345 C   0  0  0  0  0  0  0  0  0  0  0  0
  151.0569  141.9258  157.7533 O   0  0  0  0  0  0  0  0  0  0  0  0
  151.5927  142.2244  159.0304 C   0  0  0  0  0  0  0  0  0  0  0  0
  152.3947  143.5053  158.9409 C   0  0  0  0  0  0  0  0  0  0  0  0
  151.8897  144.7801  159.5784 C   0  0  0  0  0  0  0  0  0  0  0  0
  151.9117  144.6483  158.0772 C   0  0  0  0  0  0  0  0  0  0  0  0
  148.9924  139.1672  156.2118 C   0  0  0  0  0  0  0  0  0  0  0  0
  148.4609  136.8077  155.1008 N   0  0  0  0  0  0  0  0  0  0  0  0
  148.0273  135.5733  154.8273 C   0  0  0  0  0  0  0  0  0  0  0  0
  146.9569  135.2012  154.1217 N   0  0  0  0  0  0  0  0  0  0  0  0
  146.2704  136.2830  153.6529 C   0  0  0  0  0  0  0  0  0  0  0  0
  142.7631  133.6185  149.4436 H   0  0  0  0  0  0  0  0  0  0  0  0
  143.1775  131.9085  149.4518 H   0  0  0  0  0  0  0  0  0  0  0  0
  144.2596  133.0650  148.6870 H   0  0  0  0  0  0  0  0  0  0  0  0
  143.6351  132.8569  151.6805 H   0  0  0  0  0  0  0  0  0  0  0  0
  146.1530  132.6033  152.7993 H   0  0  0  0  0  0  0  0  0  0  0  0
  147.3644  132.1540  151.5859 H   0  0  0  0  0  0  0  0  0  0  0  0
  147.0187  134.7680  151.9653 H   0  0  0  0  0  0  0  0  0  0  0  0
  146.9716  134.1639  150.3193 H   0  0  0  0  0  0  0  0  0  0  0  0
  145.0642  134.8818  149.2356 H   0  0  0  0  0  0  0  0  0  0  0  0
  143.3557  135.5037  152.1527 H   0  0  0  0  0  0  0  0  0  0  0  0
  144.2681  134.4406  153.1891 H   0  0  0  0  0  0  0  0  0  0  0  0
  143.9780  137.9693  152.1228 H   0  0  0  0  0  0  0  0  0  0  0  0
  146.8478  140.1296  153.7999 H   0  0  0  0  0  0  0  0  0  0  0  0
  146.4969  140.0539  155.5196 H   0  0  0  0  0  0  0  0  0  0  0  0
  148.7122  141.7271  154.2023 H   0  0  0  0  0  0  0  0  0  0  0  0
  147.2541  142.3373  154.9616 H   0  0  0  0  0  0  0  0  0  0  0  0
  150.3942  140.6911  155.5804 H   0  0  0  0  0  0  0  0  0  0  0  0
  149.5954  140.6757  158.5363 H   0  0  0  0  0  0  0  0  0  0  0  0
  151.0308  139.8807  157.8976 H   0  0  0  0  0  0  0  0  0  0  0  0
  150.7884  142.3602  159.7548 H   0  0  0  0  0  0  0  0  0  0  0  0
  152.2297  141.4114  159.3826 H   0  0  0  0  0  0  0  0  0  0  0  0
  153.4721  143.3515  158.9543 H   0  0  0  0  0  0  0  0  0  0  0  0
  150.9195  144.7523  160.0711 H   0  0  0  0  0  0  0  0  0  0  0  0
  152.6264  145.4363  160.0375 H   0  0  0  0  0  0  0  0  0  0  0  0
  152.6621  145.2189  157.5339 H   0  0  0  0  0  0  0  0  0  0  0  0
  150.9560  144.5330  157.5694 H   0  0  0  0  0  0  0  0  0  0  0  0
  148.3087  138.9911  157.0428 H   0  0  0  0  0  0  0  0  0  0  0  0
  149.7501  138.3831  156.2442 H   0  0  0  0  0  0  0  0  0  0  0  0
  148.6245  134.7686  155.2303 H   0  0  0  0  0  0  0  0  0  0  0  0
  1  2  1  0  0  0  0
  1 30  1  0  0  0  0
  1 31  1  0  0  0  0
  1 32  1  0  0  0  0
  2  6  1  0  0  0  0
  2  3  1  0  0  0  0
  2 33  1  0  0  0  0
  3  4  1  0  0  0  0
  4  5  1  0  0  0  0
  4 34  1  0  0  0  0
  4 35  1  0  0  0  0
  5  6  1  0  0  0  0
  5 36  1  0  0  0  0
  5 37  1  0  0  0  0
  6  7  1  0  0  0  0
  6  8  1  0  0  0  0
  7 38  1  0  0  0  0
  8  9  1  0  0  0  0
  8 39  1  0  0  0  0
  8 40  1  0  0  0  0
  9 29  1  0  0  0  0
  9 10  1  0  0  0  0
 10 11  2  0  0  0  0
 10 41  1  0  0  0  0
 11 12  1  0  0  0  0
 12 29  2  0  0  0  0
 12 13  1  0  0  0  0
 13 14  1  0  0  0  0
 13 26  2  0  0  0  0
 14 25  1  0  0  0  0
 14 15  1  0  0  0  0
 15 16  1  0  0  0  0
 15 42  1  0  0  0  0
 15 43  1  0  0  0  0
 16 17  1  0  0  0  0
 16 44  1  0  0  0  0
 16 45  1  0  0  0  0
 17 18  1  0  0  0  0
 18 19  1  0  0  0  0
 18 25  1  0  0  0  0
 18 46  1  0  0  0  0
 19 20  1  0  0  0  0
 19 47  1  0  0  0  0
 19 48  1  0  0  0  0
 20 21  1  0  0  0  0
 21 22  1  0  0  0  0
 21 49  1  0  0  0  0
 21 50  1  0  0  0  0
 22 24  1  0  0  0  0
 22 23  1  0  0  0  0
 22 51  1  0  0  0  0
 23 24  1  0  0  0  0
 23 52  1  0  0  0  0
 23 53  1  0  0  0  0
 24 54  1  0  0  0  0
 24 55  1  0  0  0  0
 25 56  1  0  0  0  0
 25 57  1  0  0  0  0
 26 27  1  0  0  0  0
 27 28  2  0  0  0  0
 27 58  1  0  0  0  0
 28 29  1  0  0  0  0
M  END
> <s_m_source_file>
AV-unprocessed.smi

> <i_m_source_file_index>
236

> <i_lp_mmshare_version>
43012

> <i_f3d_flags>
0

> <s_epik_input>
W0NIMl0xW0NIMl1PW0NAQEhdKFtDSDNdKVtDQEBdMShbT0hdKVtDSDJdbihbY0hdbjIpYyhjMjMpbltjSF1uYzNONFtDSDJdW0NIMl1PW0NASF0oW0NIMl00KVtDSDJdT1tDSDJdW0NIXTVbQ0gyXVtDSDJdNQ==

> <s_epik_cmdline>
J2VwaWtfcHl0aG9uJywgJy1waCcsICc3LjAnLCAnLXRuJywgJzgnLCAnLW1hJywgJzIwMCcsICctbWV0YWxfYmluZGluZycsICctaW1hZScsICc8aW5maWxlLm1hZT4nLCAnLW9tYWUnLCAnPG91dGZpbGUubWFlPic=

> <r_lp_tautomer_probability>
1

> <r_epik_Ionization_Penalty>
7.21838e-05

> <r_epik_Ionization_Penalty_Charging>
0

> <r_epik_Ionization_Penalty_Neutral>
7.21838e-05

> <r_epik_State_Penalty>
-0

> <r_epik_Charging_Adjusted_Penalty>
0

> <i_epik_Tot_Q>
0

> <i_epik_Tot_abs_Q>
0

> <r_epik_Metal_State_Penalty>
-0

> <b_epik_Metal_Only>
0

> <s_lp_Force_Field>
OPLS_2005

> <r_lp_Energy>
50.1764

> <b_lp_Chiralities_Consistent>
1

> <s_lp_Variant>
AV-unprocessed.smi:236-2

> <Gold.Version>
5.8.1

> <Gold.Id.Protein>
6NUR|6NUR_protein|mol2

> <Gold.PLP.Fitness>
45.0955

> <Gold.PLP.PLP>
-40.6435

> <Gold.PLP.part.hbond>
-1.0000

> <Gold.PLP.part.metal>
0.0000

> <Gold.PLP.part.buried>
-5.9431

> <Gold.PLP.part.nonpolar>
-34.6419

> <Gold.PLP.part.repulsive>
0.7643

> <Gold.PLP.ligand.clash>
0.0000

> <Gold.PLP.ligand.torsion>
1.4635

> <Gold.PLP.Chemscore.Hbond>
0.8000

> <Gold.PLP.Chemscore.CHOScore>
1.4082

> <Gold.PLP.Chemscore.Metal>
0.0000

> <Gold.Chemscore.Hbonds>
donor molecule, donor type, donor heavy atom, donor atom, acceptor molecule, acceptor atom, score
      L1  H     7    38       P1  7921  0.93
      L1  C    10    41       P1 10171  0.98
      L1  C    10    41       P1 10175  0.61

> <Gold.PLP.Chemscore.Internal.Correction>
0.7543

> <Gold.Rescore>
     Score         DG    S(hbond)    S(metal)    S(lipo)     H(rot)  DE(clash)    DE(int)     intcor
     11.90     -14.58       0.96        0.00     113.01       2.87       0.09       2.58       ----

> <Gold.Chemscore.Fitness>
11.9043

> <Gold.Chemscore.DG>
-14.5786

> <Gold.Chemscore.ZeroCoef>
-5.4800

> <Gold.Chemscore.Hbond>
0.9618

> <Gold.Chemscore.Metal>
0.0000

> <Gold.Chemscore.Lipo>
113.0092

> <Gold.Chemscore.Internal_Hbond>
0.0000

> <Gold.Chemscore.DEClash>
0.0913

> <Gold.Chemscore.DEInternal>
2.5830

> <Gold.Chemscore.Rot>
2.8655

> <Gold.Chemscore.Internal.Correction>
   9.000000E+99

> <Gold.Chemscore.Hbonds>
donor molecule, donor type, donor heavy atom, donor atom, acceptor molecule, acceptor atom, score
      L1  H     7    38       P1  7921  0.89

> <Gold.Chemscore.Hbond.Weighted>
-3.2123

> <Gold.Chemscore.Metal.Weighted>
-0.0000

> <Gold.Chemscore.Lipo.Weighted>
-13.2221

> <Gold.Chemscore.Internal_Hbond.Weighted>
0.0000

> <Gold.Chemscore.DEClash.Weighted>
0.0913

> <Gold.Chemscore.DEInternal.Weighted>
2.5830

> <Gold.Chemscore.Rot.Weighted>
7.3358

> <Gold.Chemscore.Internal.Correction.Weighted>
   9.000000E+99

> <Gold.Protein.RotatedTorsions>
[ 6907 6896 6895 6894 ] final  101.63 input  -60.11 | X-H torsion
[ 7974 7965 7964 7962 ] final   82.00 input  175.53 | X-H torsion
[ 8008 7997 7996 7995 ] final  -41.62 input   59.86 | X-H torsion
[ 10167 10162 10161 10158 ] final  117.96 input  -65.29 | X-H torsion
[ 10718 10713 10712 10709 ] final  -81.44 input   66.30 | X-H torsion
[ 10763 10752 10751 10750 ] final  146.02 input  -60.55 | X-H torsion
[ 11005 11000 10999 10996 ] final   61.53 input  -57.11 | X-H torsion

> <Gold.Protein.ActiveResidues>
 VAL166  LYS551  ARG553  GLY616  TRP617  ASP618  TYR619  PRO620  LYS621  CYS622 
 ASP623  PHE694  ASN695  SER759  ASP760  ASP761  ALA762  ILE779  LEU786  VAL792 
 PHE793  MET794  SER795  GLU796  ALA797  LYS798  CYS799  TRP800  GLU811  SER814 

> <Gold.Protein.RotatedAtoms>
  152.5344  134.0097  159.7932 H   0  0  0  0  0  0  0  0  0  0  0  0  # atno 6907 bound_to 6896
  151.0302  133.5789  159.2669 H   0  0  0  0  0  0  0  0  0  0  0  0  # atno 6908 bound_to 6896
  151.2797  135.0717  159.9218 H   0  0  0  0  0  0  0  0  0  0  0  0  # atno 6909 bound_to 6896
  145.6308  139.2404  143.2086 H   0  0  0  0  0  0  0  0  0  0  0  0  # atno 7974 bound_to 7965
  154.4003  140.1495  156.3220 H   0  0  0  0  0  0  0  0  0  0  0  0  # atno 8008 bound_to 7997
  155.8521  140.3457  155.5678 H   0  0  0  0  0  0  0  0  0  0  0  0  # atno 8009 bound_to 7997
  155.7973  140.0865  157.1967 H   0  0  0  0  0  0  0  0  0  0  0  0  # atno 8010 bound_to 7997
  139.6143  144.7088  151.2774 H   0  0  0  0  0  0  0  0  0  0  0  0  # atno 10167 bound_to 10162
  156.0050  130.4604  150.3953 H   0  0  0  0  0  0  0  0  0  0  0  0  # atno 10718 bound_to 10713
  154.0149  135.2911  155.3388 H   0  0  0  0  0  0  0  0  0  0  0  0  # atno 10763 bound_to 10752
  154.7081  135.5161  153.8628 H   0  0  0  0  0  0  0  0  0  0  0  0  # atno 10764 bound_to 10752
  153.0706  135.6646  154.0377 H   0  0  0  0  0  0  0  0  0  0  0  0  # atno 10765 bound_to 10752
  140.0155  134.6232  155.9716 H   0  0  0  0  0  0  0  0  0  0  0  0  # atno 11005 bound_to 11000
  146.1358  140.7124  142.9390 LP  0  0  0  0  0  0  0  0  0  0  0  0  # atno 17320 bound_to 7965
  144.7194  140.4323  143.7019 LP  0  0  0  0  0  0  0  0  0  0  0  0  # atno 17321 bound_to 7965
  140.7340  143.6777  150.8027 LP  0  0  0  0  0  0  0  0  0  0  0  0  # atno 17342 bound_to 10162
  140.0377  143.5378  152.2732 LP  0  0  0  0  0  0  0  0  0  0  0  0  # atno 17343 bound_to 10162
  157.2026  131.0441  151.2642 LP  0  0  0  0  0  0  0  0  0  0  0  0  # atno 17370 bound_to 10713
  157.3962  130.7308  149.6733 LP  0  0  0  0  0  0  0  0  0  0  0  0  # atno 17371 bound_to 10713
  141.1740  133.6539  156.4757 LP  0  0  0  0  0  0  0  0  0  0  0  0  # atno 17394 bound_to 11000
  140.4479  134.6956  157.5025 LP  0  0  0  0  0  0  0  0  0  0  0  0  # atno 17395 bound_to 11000

$$$$
