AV-unprocessed.smi:2356|AV-procd|sdf|9396|dock5
  -GOLD-   2272013 33D 1   1.00000     0.00000
 Structure written by MMmdl.
 53 56  0  0  0  0  0  0  0  0  1 V2000
  149.4781  140.5478  154.3804 C   0  0  0  0  0  0  0  0  0  0  0  0
  150.1523  140.2945  155.7181 C   0  0  0  0  0  0  0  0  0  0  0  0
  150.5393  141.4009  156.3891 N   0  0  0  0  0  0  0  0  0  0  0  0
  151.1431  141.2664  157.5928 C   0  0  0  0  0  0  0  0  0  0  0  0
  151.5274  142.4463  158.2598 N   0  0  0  0  0  0  0  0  0  0  0  0
  151.6013  143.7254  157.5708 C   0  0  0  0  0  0  0  0  0  0  0  0
  152.1848  144.6875  158.6040 C   0  0  0  0  0  0  0  0  0  0  0  0
  153.1106  143.7916  159.4267 C   0  0  0  0  0  0  0  0  0  0  0  0
  152.4208  142.4225  159.4101 C   0  0  0  0  0  0  0  0  0  0  0  0
  151.3656  139.9964  158.1725 C   0  0  0  0  0  0  0  0  0  0  0  0
  150.9629  138.8425  157.4743 C   0  0  0  0  0  0  0  0  0  0  0  0
  150.3475  138.9815  156.2078 C   0  0  0  0  0  0  0  0  0  0  0  0
  149.8903  137.8903  155.4167 N   0  0  0  0  0  0  0  0  0  0  0  0
  149.5811  136.6283  155.7733 C   0  0  0  0  0  0  0  0  0  0  0  0
  149.6550  136.1780  156.9139 O   0  0  0  0  0  0  0  0  0  0  0  0
  149.1706  135.8591  154.7479 N   0  0  0  0  0  0  0  0  0  0  0  0
  148.7606  134.4528  154.7789 C   0  0  1  0  0  0  0  0  0  0  0  0
  147.2850  134.3320  154.3753 C   0  0  0  0  0  0  0  0  0  0  0  0
  146.8624  132.8564  154.3020 C   0  0  0  0  0  0  0  0  0  0  0  0
  147.7029  132.1410  153.3989 O   0  0  0  0  0  0  0  0  0  0  0  0
  149.0954  132.1548  153.7186 C   0  0  2  0  0  0  0  0  0  0  0  0
  149.4038  131.3191  154.9540 C   0  0  0  0  0  0  0  0  0  0  0  0
  150.8311  131.0116  155.3428 C   0  0  0  0  0  0  0  0  0  0  0  0
  149.9390  129.9138  154.8139 C   0  0  0  0  0  0  0  0  0  0  0  0
  149.6121  133.6033  153.8170 C   0  0  0  0  0  0  0  0  0  0  0  0
  148.4646  140.1464  154.3875 H   0  0  0  0  0  0  0  0  0  0  0  0
  150.0339  140.0657  153.5761 H   0  0  0  0  0  0  0  0  0  0  0  0
  149.4165  141.6136  154.1562 H   0  0  0  0  0  0  0  0  0  0  0  0
  152.2646  143.6371  156.7093 H   0  0  0  0  0  0  0  0  0  0  0  0
  150.6217  144.0534  157.2218 H   0  0  0  0  0  0  0  0  0  0  0  0
  152.6999  145.5353  158.1515 H   0  0  0  0  0  0  0  0  0  0  0  0
  151.3873  145.0759  159.2391 H   0  0  0  0  0  0  0  0  0  0  0  0
  154.0790  143.7175  158.9302 H   0  0  0  0  0  0  0  0  0  0  0  0
  153.2804  144.1672  160.4362 H   0  0  0  0  0  0  0  0  0  0  0  0
  151.8277  142.2773  160.3136 H   0  0  0  0  0  0  0  0  0  0  0  0
  153.1548  141.6182  159.3474 H   0  0  0  0  0  0  0  0  0  0  0  0
  151.8279  139.8905  159.1426 H   0  0  0  0  0  0  0  0  0  0  0  0
  151.1262  137.8826  157.9368 H   0  0  0  0  0  0  0  0  0  0  0  0
  149.8155  138.0870  154.4294 H   0  0  0  0  0  0  0  0  0  0  0  0
  149.1161  136.3096  153.8458 H   0  0  0  0  0  0  0  0  0  0  0  0
  148.8613  134.0715  155.7963 H   0  0  0  0  0  0  0  0  0  0  0  0
  146.6522  134.8651  155.0858 H   0  0  0  0  0  0  0  0  0  0  0  0
  147.1254  134.7997  153.4025 H   0  0  0  0  0  0  0  0  0  0  0  0
  146.8799  132.3965  155.2902 H   0  0  0  0  0  0  0  0  0  0  0  0
  145.8345  132.7830  153.9467 H   0  0  0  0  0  0  0  0  0  0  0  0
  149.6021  131.6813  152.8769 H   0  0  0  0  0  0  0  0  0  0  0  0
  148.7231  131.4782  155.7872 H   0  0  0  0  0  0  0  0  0  0  0  0
  151.6236  131.3749  154.6916 H   0  0  0  0  0  0  0  0  0  0  0  0
  151.0708  130.9956  156.4041 H   0  0  0  0  0  0  0  0  0  0  0  0
  149.5820  129.1688  155.5221 H   0  0  0  0  0  0  0  0  0  0  0  0
  150.1383  129.5449  153.8096 H   0  0  0  0  0  0  0  0  0  0  0  0
  149.5828  134.0525  152.8232 H   0  0  0  0  0  0  0  0  0  0  0  0
  150.6601  133.6026  154.1187 H   0  0  0  0  0  0  0  0  0  0  0  0
  1  2  1  0  0  0  0
  1 26  1  0  0  0  0
  1 27  1  0  0  0  0
  1 28  1  0  0  0  0
  2 12  1  0  0  0  0
  2  3  2  0  0  0  0
  3  4  1  0  0  0  0
  4  5  1  0  0  0  0
  4 10  2  0  0  0  0
  5  9  1  0  0  0  0
  5  6  1  0  0  0  0
  6  7  1  0  0  0  0
  6 29  1  0  0  0  0
  6 30  1  0  0  0  0
  7  8  1  0  0  0  0
  7 31  1  0  0  0  0
  7 32  1  0  0  0  0
  8  9  1  0  0  0  0
  8 33  1  0  0  0  0
  8 34  1  0  0  0  0
  9 35  1  0  0  0  0
  9 36  1  0  0  0  0
 10 11  1  0  0  0  0
 10 37  1  0  0  0  0
 11 12  2  0  0  0  0
 11 38  1  0  0  0  0
 12 13  1  0  0  0  0
 13 14  1  0  0  0  0
 13 39  1  0  0  0  0
 14 15  2  0  0  0  0
 14 16  1  0  0  0  0
 16 17  1  0  0  0  0
 16 40  1  0  0  0  0
 17 25  1  0  0  0  0
 17 18  1  0  0  0  0
 17 41  1  0  0  0  0
 18 19  1  0  0  0  0
 18 42  1  0  0  0  0
 18 43  1  0  0  0  0
 19 20  1  0  0  0  0
 19 44  1  0  0  0  0
 19 45  1  0  0  0  0
 20 21  1  0  0  0  0
 21 22  1  0  0  0  0
 21 25  1  0  0  0  0
 21 46  1  0  0  0  0
 22 24  1  0  0  0  0
 22 23  1  0  0  0  0
 22 47  1  0  0  0  0
 23 24  1  0  0  0  0
 23 48  1  0  0  0  0
 23 49  1  0  0  0  0
 24 50  1  0  0  0  0
 24 51  1  0  0  0  0
 25 52  1  0  0  0  0
 25 53  1  0  0  0  0
M  END
> <s_m_source_file>
AV-unprocessed.smi

> <i_m_source_file_index>
2356

> <i_lp_mmshare_version>
43012

> <i_f3d_flags>
0

> <s_epik_input>
W0NIMl0xW0NIMl1bQ0gyXVtDSDJdTjFjKG5jMltDSDNdKVtjSF1bY0hdYzJbTkhdQyg9TylbTkhdW0NAQEhdM1tDSDJdW0NIMl1PW0NASF0oW0NIMl0zKVtDSF00W0NIMl1bQ0gyXTQ=

> <s_epik_cmdline>
J2VwaWtfcHl0aG9uJywgJy1waCcsICc3LjAnLCAnLXRuJywgJzgnLCAnLW1hJywgJzIwMCcsICctbWV0YWxfYmluZGluZycsICctaW1hZScsICc8aW5maWxlLm1hZT4nLCAnLW9tYWUnLCAnPG91dGZpbGUubWFlPic=

> <r_lp_tautomer_probability>
1

> <r_epik_Ionization_Penalty>
0.308781

> <r_epik_Ionization_Penalty_Charging>
0

> <r_epik_Ionization_Penalty_Neutral>
0.308781

> <r_epik_State_Penalty>
0.302092

> <r_epik_Charging_Adjusted_Penalty>
0.302092

> <i_epik_Tot_Q>
0

> <i_epik_Tot_abs_Q>
0

> <r_epik_Metal_State_Penalty>
0.197467

> <b_epik_Metal_Only>
0

> <s_lp_Force_Field>
OPLS_2005

> <r_lp_Energy>
54.1465

> <b_lp_Chiralities_Consistent>
1

> <s_lp_Variant>
AV-unprocessed.smi:2356-4

> <Gold.Version>
5.8.1

> <Gold.Id.Protein>
6NUR|6NUR_protein|mol2

> <Gold.PLP.Fitness>
45.5980

> <Gold.PLP.PLP>
-42.9759

> <Gold.PLP.part.hbond>
-1.0000

> <Gold.PLP.part.metal>
0.0000

> <Gold.PLP.part.buried>
-5.0147

> <Gold.PLP.part.nonpolar>
-36.6265

> <Gold.PLP.part.repulsive>
0.1804

> <Gold.PLP.ligand.clash>
0.0000

> <Gold.PLP.ligand.torsion>
0.8250

> <Gold.PLP.Chemscore.Hbond>
1.0000

> <Gold.PLP.Chemscore.CHOScore>
0.0000

> <Gold.PLP.Chemscore.Metal>
0.0000

> <Gold.Chemscore.Hbonds>
donor molecule, donor type, donor heavy atom, donor atom, acceptor molecule, acceptor atom, score
      L1  H    16    40       P1  7948  1.00

> <Gold.PLP.Chemscore.Internal.Correction>
1.2722

> <Gold.Rescore>
     Score         DG    S(hbond)    S(metal)    S(lipo)     H(rot)  DE(clash)    DE(int)     intcor
     17.22     -18.99       0.93        0.00     113.88       1.14       0.02       1.75       ----

> <Gold.Chemscore.Fitness>
17.2151

> <Gold.Chemscore.DG>
-18.9890

> <Gold.Chemscore.ZeroCoef>
-5.4800

> <Gold.Chemscore.Hbond>
0.9287

> <Gold.Chemscore.Metal>
0.0000

> <Gold.Chemscore.Lipo>
113.8814

> <Gold.Chemscore.Internal_Hbond>
0.0000

> <Gold.Chemscore.DEClash>
0.0202

> <Gold.Chemscore.DEInternal>
1.7536

> <Gold.Chemscore.Rot>
1.1395

> <Gold.Chemscore.Internal.Correction>
   9.000000E+99

> <Gold.Chemscore.Hbonds>
donor molecule, donor type, donor heavy atom, donor atom, acceptor molecule, acceptor atom, score
      L1  H    16    40       P1  7948  0.90

> <Gold.Chemscore.Hbond.Weighted>
-3.1020

> <Gold.Chemscore.Metal.Weighted>
-0.0000

> <Gold.Chemscore.Lipo.Weighted>
-13.3241

> <Gold.Chemscore.Internal_Hbond.Weighted>
0.0000

> <Gold.Chemscore.DEClash.Weighted>
0.0202

> <Gold.Chemscore.DEInternal.Weighted>
1.7536

> <Gold.Chemscore.Rot.Weighted>
2.9171

> <Gold.Chemscore.Internal.Correction.Weighted>
   9.000000E+99

> <Gold.Protein.RotatedTorsions>
[ 6907 6896 6895 6894 ] final  -97.82 input  -60.11 | X-H torsion
[ 7974 7965 7964 7962 ] final  -48.98 input  175.53 | X-H torsion
[ 8008 7997 7996 7995 ] final  160.97 input   59.86 | X-H torsion
[ 10167 10162 10161 10158 ] final -177.79 input  -65.29 | X-H torsion
[ 10718 10713 10712 10709 ] final  156.38 input   66.30 | X-H torsion
[ 10763 10752 10751 10750 ] final  171.43 input  -60.55 | X-H torsion
[ 11005 11000 10999 10996 ] final -150.19 input  -57.11 | X-H torsion

> <Gold.Protein.ActiveResidues>
 VAL166  LYS551  ARG553  GLY616  TRP617  ASP618  TYR619  PRO620  LYS621  CYS622 
 ASP623  PHE694  ASN695  SER759  ASP760  ASP761  ALA762  ILE779  LEU786  VAL792 
 PHE793  MET794  SER795  GLU796  ALA797  LYS798  CYS799  TRP800  GLU811  SER814 

> <Gold.Protein.RotatedAtoms>
  150.7028  134.1289  159.4062 H   0  0  0  0  0  0  0  0  0  0  0  0  # atno 6907 bound_to 6896
  151.9275  135.0269  160.0536 H   0  0  0  0  0  0  0  0  0  0  0  0  # atno 6908 bound_to 6896
  152.2203  133.4943  159.5196 H   0  0  0  0  0  0  0  0  0  0  0  0  # atno 6909 bound_to 6896
  145.9454  140.7623  142.9531 H   0  0  0  0  0  0  0  0  0  0  0  0  # atno 7974 bound_to 7965
  156.2135  140.1790  156.7641 H   0  0  0  0  0  0  0  0  0  0  0  0  # atno 8008 bound_to 7997
  154.5757  140.0674  156.9060 H   0  0  0  0  0  0  0  0  0  0  0  0  # atno 8009 bound_to 7997
  155.2592  140.3334  155.4277 H   0  0  0  0  0  0  0  0  0  0  0  0  # atno 8010 bound_to 7997
  139.5463  144.2227  152.0994 H   0  0  0  0  0  0  0  0  0  0  0  0  # atno 10167 bound_to 10162
  157.2057  131.0686  151.1999 H   0  0  0  0  0  0  0  0  0  0  0  0  # atno 10718 bound_to 10713
  154.4117  135.2756  155.2032 H   0  0  0  0  0  0  0  0  0  0  0  0  # atno 10763 bound_to 10752
  154.4015  135.6043  153.5903 H   0  0  0  0  0  0  0  0  0  0  0  0  # atno 10764 bound_to 10752
  152.9831  135.5927  154.4400 H   0  0  0  0  0  0  0  0  0  0  0  0  # atno 10765 bound_to 10752
  140.7428  134.3494  157.5143 H   0  0  0  0  0  0  0  0  0  0  0  0  # atno 11005 bound_to 11000
  144.6786  140.2348  143.7351 LP  0  0  0  0  0  0  0  0  0  0  0  0  # atno 17320 bound_to 7965
  145.8243  139.2057  143.1920 LP  0  0  0  0  0  0  0  0  0  0  0  0  # atno 17321 bound_to 7965
  140.1714  144.4932  150.6577 LP  0  0  0  0  0  0  0  0  0  0  0  0  # atno 17342 bound_to 10162
  140.6712  143.2286  151.5620 LP  0  0  0  0  0  0  0  0  0  0  0  0  # atno 17343 bound_to 10162
  157.3723  130.7187  149.6573 LP  0  0  0  0  0  0  0  0  0  0  0  0  # atno 17370 bound_to 10713
  155.9696  130.4195  150.4380 LP  0  0  0  0  0  0  0  0  0  0  0  0  # atno 17371 bound_to 10713
  139.8802  134.9092  156.2985 LP  0  0  0  0  0  0  0  0  0  0  0  0  # atno 17394 bound_to 11000
  140.9821  133.7261  156.0687 LP  0  0  0  0  0  0  0  0  0  0  0  0  # atno 17395 bound_to 11000

$$$$
