AV-unprocessed.smi:667|AV-procd|sdf|3255|dock4
  -GOLD-   22720 0203D 1   1.00000     0.00000
 Structure written by MMmdl.
 48 49  0  0  0  0  0  0  0  0  1 V2000
  146.8942  136.4975  162.9630 C   0  0  0  0  0  0  0  0  0  0  0  0
  147.0124  135.3433  162.0090 C   0  0  0  0  0  0  0  0  0  0  0  0
  147.0625  134.1159  162.4980 N   0  0  0  0  0  0  0  0  0  0  0  0
  147.1497  133.3166  161.4165 N   0  0  0  0  0  0  0  0  0  0  0  0
  147.2113  131.8793  161.5966 C   0  0  0  0  0  0  0  0  0  0  0  0
  147.1597  134.0405  160.2408 C   0  0  0  0  0  0  0  0  0  0  0  0
  147.2407  133.3807  158.9020 C   0  0  0  0  0  0  0  0  0  0  0  0
  147.0676  135.3635  160.5830 C   0  0  0  0  0  0  0  0  0  0  0  0
  147.0038  136.5639  159.6712 C   0  0  0  0  0  0  0  0  0  0  0  0
  148.2645  136.5836  158.8093 C   0  0  0  0  0  0  0  0  0  0  0  0
  149.1248  135.7161  158.9568 O   0  0  0  0  0  0  0  0  0  0  0  0
  148.3277  137.5473  157.8775 N   0  0  0  0  0  0  0  0  0  0  0  0
  149.2950  137.6081  156.7860 C   0  0  0  0  0  0  0  0  0  0  0  0
  149.2877  138.9788  156.0727 C   0  0  2  0  0  0  0  0  0  0  0  0
  148.3009  139.0943  154.9244 C   0  0  0  0  0  0  0  0  0  0  0  0
  148.8244  140.3055  154.1501 C   0  0  0  0  0  0  0  0  0  0  0  0
  150.1955  140.4562  154.5111 O   0  0  0  0  0  0  0  0  0  0  0  0
  150.5883  139.3852  155.3607 C   0  0  1  0  0  0  0  0  0  0  0  0
  151.7779  139.7783  156.2635 C   0  0  0  0  0  0  0  0  0  0  0  0
  152.3825  138.5910  157.0330 C   0  0  0  0  0  0  0  0  0  0  0  0
  151.3785  140.9065  157.2268 C   0  0  0  0  0  0  0  0  0  0  0  0
  146.5746  137.4070  162.4551 H   0  0  0  0  0  0  0  0  0  0  0  0
  147.8503  136.7048  163.4436 H   0  0  0  0  0  0  0  0  0  0  0  0
  146.1644  136.2883  163.7461 H   0  0  0  0  0  0  0  0  0  0  0  0
  148.1223  131.4914  161.1405 H   0  0  0  0  0  0  0  0  0  0  0  0
  146.3476  131.4143  161.1208 H   0  0  0  0  0  0  0  0  0  0  0  0
  147.2104  131.6224  162.6569 H   0  0  0  0  0  0  0  0  0  0  0  0
  147.1964  134.1123  158.0956 H   0  0  0  0  0  0  0  0  0  0  0  0
  146.4143  132.6837  158.7626 H   0  0  0  0  0  0  0  0  0  0  0  0
  148.1730  132.8256  158.7996 H   0  0  0  0  0  0  0  0  0  0  0  0
  146.1228  136.5401  159.0292 H   0  0  0  0  0  0  0  0  0  0  0  0
  146.9401  137.4942  160.2364 H   0  0  0  0  0  0  0  0  0  0  0  0
  147.5756  138.2204  157.8506 H   0  0  0  0  0  0  0  0  0  0  0  0
  150.2855  137.4156  157.1986 H   0  0  0  0  0  0  0  0  0  0  0  0
  149.1162  136.8161  156.0572 H   0  0  0  0  0  0  0  0  0  0  0  0
  149.0197  139.7413  156.8041 H   0  0  0  0  0  0  0  0  0  0  0  0
  148.3407  138.2096  154.2884 H   0  0  0  0  0  0  0  0  0  0  0  0
  147.2710  139.2211  155.2589 H   0  0  0  0  0  0  0  0  0  0  0  0
  148.7173  140.1721  153.0730 H   0  0  0  0  0  0  0  0  0  0  0  0
  148.2886  141.2115  154.4344 H   0  0  0  0  0  0  0  0  0  0  0  0
  150.9022  138.5768  154.6998 H   0  0  0  0  0  0  0  0  0  0  0  0
  152.5601  140.1808  155.6189 H   0  0  0  0  0  0  0  0  0  0  0  0
  151.6406  138.1104  157.6712 H   0  0  0  0  0  0  0  0  0  0  0  0
  153.2025  138.9197  157.6719 H   0  0  0  0  0  0  0  0  0  0  0  0
  152.7871  137.8356  156.3608 H   0  0  0  0  0  0  0  0  0  0  0  0
  150.5972  140.5832  157.9152 H   0  0  0  0  0  0  0  0  0  0  0  0
  151.0031  141.7729  156.6827 H   0  0  0  0  0  0  0  0  0  0  0  0
  152.2306  141.2377  157.8209 H   0  0  0  0  0  0  0  0  0  0  0  0
  1  2  1  0  0  0  0
  1 22  1  0  0  0  0
  1 23  1  0  0  0  0
  1 24  1  0  0  0  0
  2  8  1  0  0  0  0
  2  3  2  0  0  0  0
  3  4  1  0  0  0  0
  4  5  1  0  0  0  0
  4  6  1  0  0  0  0
  5 25  1  0  0  0  0
  5 26  1  0  0  0  0
  5 27  1  0  0  0  0
  6  7  1  0  0  0  0
  6  8  2  0  0  0  0
  7 28  1  0  0  0  0
  7 29  1  0  0  0  0
  7 30  1  0  0  0  0
  8  9  1  0  0  0  0
  9 10  1  0  0  0  0
  9 31  1  0  0  0  0
  9 32  1  0  0  0  0
 10 11  2  0  0  0  0
 10 12  1  0  0  0  0
 12 13  1  0  0  0  0
 12 33  1  0  0  0  0
 13 14  1  0  0  0  0
 13 34  1  0  0  0  0
 13 35  1  0  0  0  0
 14 18  1  0  0  0  0
 14 15  1  0  0  0  0
 14 36  1  0  0  0  0
 15 16  1  0  0  0  0
 15 37  1  0  0  0  0
 15 38  1  0  0  0  0
 16 17  1  0  0  0  0
 16 39  1  0  0  0  0
 16 40  1  0  0  0  0
 17 18  1  0  0  0  0
 18 19  1  0  0  0  0
 18 41  1  0  0  0  0
 19 20  1  0  0  0  0
 19 21  1  0  0  0  0
 19 42  1  0  0  0  0
 20 43  1  0  0  0  0
 20 44  1  0  0  0  0
 20 45  1  0  0  0  0
 21 46  1  0  0  0  0
 21 47  1  0  0  0  0
 21 48  1  0  0  0  0
M  END
> <s_m_source_file>
AV-unprocessed.smi

> <i_m_source_file_index>
667

> <i_lp_mmshare_version>
43012

> <i_f3d_flags>
0

> <s_epik_input>
W0NIM11jMW5uKFtDSDNdKWMoW0NIM10pYzFbQ0gyXUMoPU8pW05IXVtDSDJdW0NAQEhdMltDSDJdW0NIMl1PW0NASF0yW0NIXShbQ0gzXSlbQ0gzXQ==

> <s_epik_cmdline>
J2VwaWtfcHl0aG9uJywgJy1waCcsICc3LjAnLCAnLXRuJywgJzgnLCAnLW1hJywgJzIwMCcsICctbWV0YWxfYmluZGluZycsICctaW1hZScsICc8aW5maWxlLm1hZT4nLCAnLW9tYWUnLCAnPG91dGZpbGUubWFlPic=

> <r_lp_tautomer_probability>
1

> <r_epik_Ionization_Penalty>
0.00315488

> <r_epik_Ionization_Penalty_Charging>
0

> <r_epik_Ionization_Penalty_Neutral>
0.00315488

> <r_epik_State_Penalty>
0.00222269

> <r_epik_Charging_Adjusted_Penalty>
0.00222269

> <i_epik_Tot_Q>
0

> <i_epik_Tot_abs_Q>
0

> <r_epik_Metal_State_Penalty>
-0

> <b_epik_Metal_Only>
0

> <s_lp_Force_Field>
OPLS_2005

> <r_lp_Energy>
14.51

> <b_lp_Chiralities_Consistent>
1

> <s_lp_Variant>
AV-unprocessed.smi:667-1

> <Gold.Version>
5.8.1

> <Gold.Id.Protein>
6NUR|6NUR_protein|mol2

> <Gold.PLP.Fitness>
37.4057

> <Gold.PLP.PLP>
-32.2734

> <Gold.PLP.part.hbond>
-2.0000

> <Gold.PLP.part.metal>
0.0000

> <Gold.PLP.part.buried>
-4.5508

> <Gold.PLP.part.nonpolar>
-25.9284

> <Gold.PLP.part.repulsive>
0.2214

> <Gold.PLP.ligand.clash>
0.0000

> <Gold.PLP.ligand.torsion>
0.4473

> <Gold.PLP.Chemscore.Hbond>
1.9920

> <Gold.PLP.Chemscore.CHOScore>
0.0000

> <Gold.PLP.Chemscore.Metal>
0.0000

> <Gold.Chemscore.Hbonds>
donor molecule, donor type, donor heavy atom, donor atom, acceptor molecule, acceptor atom, score
      P1  H  6896  6908       L1    11  1.00
      P1  H  7989  7998       L1    17  0.94

> <Gold.PLP.Chemscore.Internal.Correction>
0.0510

> <Gold.Rescore>
     Score         DG    S(hbond)    S(metal)    S(lipo)     H(rot)  DE(clash)    DE(int)     intcor
     16.28     -17.99       1.93        0.00      85.01       1.52       0.18       1.53       ----

> <Gold.Chemscore.Fitness>
16.2786

> <Gold.Chemscore.DG>
-17.9890

> <Gold.Chemscore.ZeroCoef>
-5.4800

> <Gold.Chemscore.Hbond>
1.9333

> <Gold.Chemscore.Metal>
0.0000

> <Gold.Chemscore.Lipo>
85.0105

> <Gold.Chemscore.Internal_Hbond>
0.0000

> <Gold.Chemscore.DEClash>
0.1776

> <Gold.Chemscore.DEInternal>
1.5328

> <Gold.Chemscore.Rot>
1.5213

> <Gold.Chemscore.Internal.Correction>
   9.000000E+99

> <Gold.Chemscore.Hbonds>
donor molecule, donor type, donor heavy atom, donor atom, acceptor molecule, acceptor atom, score
      P1  H  6896  6908       L1    11  0.96
      P1  H  7989  7998       L1    17  0.59

> <Gold.Chemscore.Hbond.Weighted>
-6.4573

> <Gold.Chemscore.Metal.Weighted>
-0.0000

> <Gold.Chemscore.Lipo.Weighted>
-9.9462

> <Gold.Chemscore.Internal_Hbond.Weighted>
0.0000

> <Gold.Chemscore.DEClash.Weighted>
0.1776

> <Gold.Chemscore.DEInternal.Weighted>
1.5328

> <Gold.Chemscore.Rot.Weighted>
3.8945

> <Gold.Chemscore.Internal.Correction.Weighted>
   9.000000E+99

> <Gold.Protein.RotatedTorsions>
[ 6907 6896 6895 6894 ] final  173.76 input  -60.11 | X-H torsion
[ 7974 7965 7964 7962 ] final  -33.64 input  175.53 | X-H torsion
[ 8008 7997 7996 7995 ] final  -42.76 input   59.86 | X-H torsion
[ 10167 10162 10161 10158 ] final  -51.23 input  -65.29 | X-H torsion
[ 10718 10713 10712 10709 ] final  170.40 input   66.30 | X-H torsion
[ 10763 10752 10751 10750 ] final  -33.46 input  -60.55 | X-H torsion
[ 11005 11000 10999 10996 ] final   -2.69 input  -57.11 | X-H torsion

> <Gold.Protein.ActiveResidues>
 VAL166  LYS551  ARG553  GLY616  TRP617  ASP618  TYR619  PRO620  LYS621  CYS622 
 ASP623  PHE694  ASN695  SER759  ASP760  ASP761  ALA762  ILE779  LEU786  VAL792 
 PHE793  MET794  SER795  GLU796  ALA797  LYS798  CYS799  TRP800  GLU811  SER814 

> <Gold.Protein.RotatedAtoms>
  151.7631  133.3335  159.3423 H   0  0  0  0  0  0  0  0  0  0  0  0  # atno 6907 bound_to 6896
  150.7490  134.6087  159.6084 H   0  0  0  0  0  0  0  0  0  0  0  0  # atno 6908 bound_to 6896
  152.3391  134.7160  160.0320 H   0  0  0  0  0  0  0  0  0  0  0  0  # atno 6909 bound_to 6896
  146.0894  140.5941  142.8871 H   0  0  0  0  0  0  0  0  0  0  0  0  # atno 7974 bound_to 7965
  154.3998  140.1465  156.3408 H   0  0  0  0  0  0  0  0  0  0  0  0  # atno 8008 bound_to 7997
  155.8358  140.3464  155.5580 H   0  0  0  0  0  0  0  0  0  0  0  0  # atno 8009 bound_to 7997
  155.8139  140.0888  157.1878 H   0  0  0  0  0  0  0  0  0  0  0  0  # atno 8010 bound_to 7997
  140.6599  143.2627  151.4473 H   0  0  0  0  0  0  0  0  0  0  0  0  # atno 10167 bound_to 10162
  157.0087  131.0197  151.2809 H   0  0  0  0  0  0  0  0  0  0  0  0  # atno 10718 bound_to 10713
  153.8306  135.6866  153.4815 H   0  0  0  0  0  0  0  0  0  0  0  0  # atno 10763 bound_to 10752
  153.1513  135.4617  154.9639 H   0  0  0  0  0  0  0  0  0  0  0  0  # atno 10764 bound_to 10752
  154.7888  135.3294  154.7770 H   0  0  0  0  0  0  0  0  0  0  0  0  # atno 10765 bound_to 10752
  140.6611  133.9319  155.8437 H   0  0  0  0  0  0  0  0  0  0  0  0  # atno 11005 bound_to 11000
  144.7349  140.4779  143.6911 LP  0  0  0  0  0  0  0  0  0  0  0  0  # atno 17320 bound_to 7965
  145.6068  139.1509  143.3098 LP  0  0  0  0  0  0  0  0  0  0  0  0  # atno 17321 bound_to 7965
  139.5830  144.1667  152.1993 LP  0  0  0  0  0  0  0  0  0  0  0  0  # atno 17342 bound_to 10162
  140.0998  144.5549  150.6996 LP  0  0  0  0  0  0  0  0  0  0  0  0  # atno 17343 bound_to 10162
  157.5337  130.8075  149.7946 LP  0  0  0  0  0  0  0  0  0  0  0  0  # atno 17370 bound_to 10713
  156.0144  130.3819  150.2158 LP  0  0  0  0  0  0  0  0  0  0  0  0  # atno 17371 bound_to 10713
  141.0464  134.0547  157.3838 LP  0  0  0  0  0  0  0  0  0  0  0  0  # atno 17394 bound_to 11000
  139.9012  135.0165  156.7279 LP  0  0  0  0  0  0  0  0  0  0  0  0  # atno 17395 bound_to 11000

$$$$
