AV-unprocessed.smi:2923|AV-procd|sdf|11210|dock4
  -GOLD-   2272016103D 1   1.00000     0.00000
 Structure written by MMmdl.
 46 48  0  0  0  0  0  0  0  0  1 V2000
  145.9244  132.8794  151.0351 C   0  0  0  0  0  0  0  0  0  0  0  0
  144.5097  133.0768  150.7596 N   0  0  0  0  0  0  0  0  0  0  0  0
  144.1032  132.9686  149.3667 C   0  0  0  0  0  0  0  0  0  0  0  0
  143.9827  134.2071  151.3976 C   0  0  0  0  0  0  0  0  0  0  0  0
  142.8965  134.1049  152.2961 C   0  0  0  0  0  0  0  0  0  0  0  0
  142.4105  135.2757  152.9089 C   0  0  0  0  0  0  0  0  0  0  0  0
  143.0218  136.5137  152.5985 C   0  0  0  0  0  0  0  0  0  0  0  0
  142.6420  137.7586  153.1677 N   0  0  0  0  0  0  0  0  0  0  0  0
  141.7047  138.0025  154.0991 C   0  0  0  0  0  0  0  0  0  0  0  0
  140.9665  137.1593  154.6078 O   0  0  0  0  0  0  0  0  0  0  0  0
  141.6571  139.3057  154.4041 N   0  0  0  0  0  0  0  0  0  0  0  0
  140.7271  139.9046  155.3673 C   0  0  2  0  0  0  0  0  0  0  0  0
  139.3343  140.1297  154.7733 C   0  0  2  0  0  0  0  0  0  0  0  0
  138.5854  139.6227  153.5940 C   0  0  0  0  0  0  0  0  0  0  0  0
  137.9511  140.9755  153.1706 C   0  0  0  0  0  0  0  0  0  0  0  0
  138.6079  141.9925  153.9702 O   0  0  0  0  0  0  0  0  0  0  0  0
  139.8804  141.4400  154.2438 C   0  0  1  0  0  0  0  0  0  0  0  0
  140.7895  141.4794  155.4924 C   0  0  0  0  0  0  0  0  0  0  0  0
  140.2016  142.1096  156.7681 C   0  0  0  0  0  0  0  0  0  0  0  0
  142.1553  142.1452  155.2912 C   0  0  0  0  0  0  0  0  0  0  0  0
  144.1065  136.5025  151.6975 C   0  0  0  0  0  0  0  0  0  0  0  0
  144.5763  135.3844  151.1053 N   0  0  0  0  0  0  0  0  0  0  0  0
  146.1307  132.9824  152.1013 H   0  0  0  0  0  0  0  0  0  0  0  0
  146.5334  133.6044  150.4943 H   0  0  0  0  0  0  0  0  0  0  0  0
  146.2307  131.8791  150.7287 H   0  0  0  0  0  0  0  0  0  0  0  0
  143.0270  133.1143  149.2641 H   0  0  0  0  0  0  0  0  0  0  0  0
  144.3466  131.9790  148.9797 H   0  0  0  0  0  0  0  0  0  0  0  0
  144.6121  133.7103  148.7505 H   0  0  0  0  0  0  0  0  0  0  0  0
  142.4447  133.1491  152.5181 H   0  0  0  0  0  0  0  0  0  0  0  0
  141.5951  135.1976  153.6110 H   0  0  0  0  0  0  0  0  0  0  0  0
  143.1077  138.5682  152.7844 H   0  0  0  0  0  0  0  0  0  0  0  0
  142.2970  139.9308  153.9365 H   0  0  0  0  0  0  0  0  0  0  0  0
  140.6984  139.3932  156.3310 H   0  0  0  0  0  0  0  0  0  0  0  0
  138.6297  140.2669  155.5970 H   0  0  0  0  0  0  0  0  0  0  0  0
  139.2463  139.2211  152.8249 H   0  0  0  0  0  0  0  0  0  0  0  0
  137.8390  138.8719  153.8542 H   0  0  0  0  0  0  0  0  0  0  0  0
  138.1126  141.1642  152.1083 H   0  0  0  0  0  0  0  0  0  0  0  0
  136.8774  140.9994  153.3590 H   0  0  0  0  0  0  0  0  0  0  0  0
  140.4585  141.3428  153.3190 H   0  0  0  0  0  0  0  0  0  0  0  0
  140.0144  143.1750  156.6302 H   0  0  0  0  0  0  0  0  0  0  0  0
  140.8850  142.0065  157.6116 H   0  0  0  0  0  0  0  0  0  0  0  0
  139.2586  141.6642  157.0802 H   0  0  0  0  0  0  0  0  0  0  0  0
  142.0749  143.2327  155.2858 H   0  0  0  0  0  0  0  0  0  0  0  0
  142.6141  141.8608  154.3443 H   0  0  0  0  0  0  0  0  0  0  0  0
  142.8521  141.8698  156.0835 H   0  0  0  0  0  0  0  0  0  0  0  0
  144.6134  137.4206  151.4387 H   0  0  0  0  0  0  0  0  0  0  0  0
  1  2  1  0  0  0  0
  1 23  1  0  0  0  0
  1 24  1  0  0  0  0
  1 25  1  0  0  0  0
  2  3  1  0  0  0  0
  2  4  1  0  0  0  0
  3 26  1  0  0  0  0
  3 27  1  0  0  0  0
  3 28  1  0  0  0  0
  4 22  1  0  0  0  0
  4  5  2  0  0  0  0
  5  6  1  0  0  0  0
  5 29  1  0  0  0  0
  6  7  2  0  0  0  0
  6 30  1  0  0  0  0
  7  8  1  0  0  0  0
  7 21  1  0  0  0  0
  8  9  1  0  0  0  0
  8 31  1  0  0  0  0
  9 10  2  0  0  0  0
  9 11  1  0  0  0  0
 11 12  1  0  0  0  0
 11 32  1  0  0  0  0
 12 18  1  0  0  0  0
 12 13  1  0  0  0  0
 12 33  1  0  0  0  0
 13 17  1  0  0  0  0
 13 14  1  0  0  0  0
 13 34  1  0  0  0  0
 14 15  1  0  0  0  0
 14 35  1  0  0  0  0
 14 36  1  0  0  0  0
 15 16  1  0  0  0  0
 15 37  1  0  0  0  0
 15 38  1  0  0  0  0
 16 17  1  0  0  0  0
 17 18  1  0  0  0  0
 17 39  1  0  0  0  0
 18 19  1  0  0  0  0
 18 20  1  0  0  0  0
 19 40  1  0  0  0  0
 19 41  1  0  0  0  0
 19 42  1  0  0  0  0
 20 43  1  0  0  0  0
 20 44  1  0  0  0  0
 20 45  1  0  0  0  0
 21 22  2  0  0  0  0
 21 46  1  0  0  0  0
M  END
> <s_m_source_file>
AV-unprocessed.smi

> <i_m_source_file_index>
2923

> <i_lp_mmshare_version>
43012

> <i_f3d_flags>
0

> <s_epik_input>
W0NIM11OKFtDSDNdKWMxW2NIXVtjSF1jKFtjSF1uMSlbTkhdQyg9TylbTkhdW0NASF0yQyhbQ0gzXSkoW0NIM10pW0NAQEhdKFtDQEhdMjMpT1tDSDJdW0NIMl0z

> <s_epik_cmdline>
J2VwaWtfcHl0aG9uJywgJy1waCcsICc3LjAnLCAnLXRuJywgJzgnLCAnLW1hJywgJzIwMCcsICctbWV0YWxfYmluZGluZycsICctaW1hZScsICc8aW5maWxlLm1hZT4nLCAnLW9tYWUnLCAnPG91dGZpbGUubWFlPic=

> <r_lp_tautomer_probability>
1

> <r_epik_Ionization_Penalty>
0.628785

> <r_epik_Ionization_Penalty_Charging>
0

> <r_epik_Ionization_Penalty_Neutral>
0.628785

> <r_epik_State_Penalty>
0.644286

> <r_epik_Charging_Adjusted_Penalty>
0.644286

> <i_epik_Tot_Q>
0

> <i_epik_Tot_abs_Q>
0

> <r_epik_Metal_State_Penalty>
0.308404

> <b_epik_Metal_Only>
0

> <s_lp_Force_Field>
OPLS_2005

> <r_lp_Energy>
70.0189

> <b_lp_Chiralities_Consistent>
1

> <s_lp_Variant>
AV-unprocessed.smi:2923-9

> <Gold.Version>
5.8.1

> <Gold.Id.Protein>
6NUR|6NUR_protein|mol2

> <Gold.PLP.Fitness>
36.1231

> <Gold.PLP.PLP>
-28.0620

> <Gold.PLP.part.hbond>
-2.0000

> <Gold.PLP.part.metal>
0.0000

> <Gold.PLP.part.buried>
-3.8838

> <Gold.PLP.part.nonpolar>
-22.0301

> <Gold.PLP.part.repulsive>
0.4907

> <Gold.PLP.ligand.clash>
0.0000

> <Gold.PLP.ligand.torsion>
0.3714

> <Gold.PLP.Chemscore.Hbond>
2.0000

> <Gold.PLP.Chemscore.CHOScore>
0.7779

> <Gold.PLP.Chemscore.Metal>
0.0000

> <Gold.Chemscore.Hbonds>
donor molecule, donor type, donor heavy atom, donor atom, acceptor molecule, acceptor atom, score
      L1  H     8    31       P1 10175  1.00
      L1  H    11    32       P1 10175  1.00
      L1  C    21    46       P1 10171  0.77

> <Gold.PLP.Chemscore.Internal.Correction>
0.4702

> <Gold.Rescore>
     Score         DG    S(hbond)    S(metal)    S(lipo)     H(rot)  DE(clash)    DE(int)     intcor
     14.45     -16.40       1.93        0.00      64.42       1.19       0.29       1.66       ----

> <Gold.Chemscore.Fitness>
14.4535

> <Gold.Chemscore.DG>
-16.4032

> <Gold.Chemscore.ZeroCoef>
-5.4800

> <Gold.Chemscore.Hbond>
1.9286

> <Gold.Chemscore.Metal>
0.0000

> <Gold.Chemscore.Lipo>
64.4239

> <Gold.Chemscore.Internal_Hbond>
0.0000

> <Gold.Chemscore.DEClash>
0.2855

> <Gold.Chemscore.DEInternal>
1.6643

> <Gold.Chemscore.Rot>
1.1937

> <Gold.Chemscore.Internal.Correction>
   9.000000E+99

> <Gold.Chemscore.Hbonds>
donor molecule, donor type, donor heavy atom, donor atom, acceptor molecule, acceptor atom, score
      L1  H     8    31       P1 10175  0.98
      L1  H    11    32       P1 10175  0.90

> <Gold.Chemscore.Hbond.Weighted>
-6.4415

> <Gold.Chemscore.Metal.Weighted>
-0.0000

> <Gold.Chemscore.Lipo.Weighted>
-7.5376

> <Gold.Chemscore.Internal_Hbond.Weighted>
0.0000

> <Gold.Chemscore.DEClash.Weighted>
0.2855

> <Gold.Chemscore.DEInternal.Weighted>
1.6643

> <Gold.Chemscore.Rot.Weighted>
3.0559

> <Gold.Chemscore.Internal.Correction.Weighted>
   9.000000E+99

> <Gold.Protein.RotatedTorsions>
[ 6907 6896 6895 6894 ] final  158.75 input  -60.11 | X-H torsion
[ 7974 7965 7964 7962 ] final -101.78 input  175.53 | X-H torsion
[ 8008 7997 7996 7995 ] final  152.69 input   59.86 | X-H torsion
[ 10167 10162 10161 10158 ] final -135.79 input  -65.29 | X-H torsion
[ 10718 10713 10712 10709 ] final  143.07 input   66.30 | X-H torsion
[ 10763 10752 10751 10750 ] final -134.35 input  -60.55 | X-H torsion
[ 11005 11000 10999 10996 ] final  -21.08 input  -57.11 | X-H torsion

> <Gold.Protein.ActiveResidues>
 VAL166  LYS551  ARG553  GLY616  TRP617  ASP618  TYR619  PRO620  LYS621  CYS622 
 ASP623  PHE694  ASN695  SER759  ASP760  ASP761  ALA762  ILE779  LEU786  VAL792 
 PHE793  MET794  SER795  GLU796  ALA797  LYS798  CYS799  TRP800  GLU811  SER814 

> <Gold.Protein.RotatedAtoms>
  151.9957  133.3807  159.4161 H   0  0  0  0  0  0  0  0  0  0  0  0  # atno 6907 bound_to 6896
  150.6916  134.3888  159.5076 H   0  0  0  0  0  0  0  0  0  0  0  0  # atno 6908 bound_to 6896
  152.1628  134.8898  160.0591 H   0  0  0  0  0  0  0  0  0  0  0  0  # atno 6909 bound_to 6896
  145.2772  140.9316  143.2953 H   0  0  0  0  0  0  0  0  0  0  0  0  # atno 7974 bound_to 7965
  156.2617  140.2014  156.6372 H   0  0  0  0  0  0  0  0  0  0  0  0  # atno 8008 bound_to 7997
  154.6637  140.0558  157.0115 H   0  0  0  0  0  0  0  0  0  0  0  0  # atno 8009 bound_to 7997
  155.1238  140.3227  155.4493 H   0  0  0  0  0  0  0  0  0  0  0  0  # atno 8010 bound_to 7997
  139.8743  143.6918  152.2636 H   0  0  0  0  0  0  0  0  0  0  0  0  # atno 10167 bound_to 10162
  157.3733  131.0982  151.0808 H   0  0  0  0  0  0  0  0  0  0  0  0  # atno 10718 bound_to 10713
  154.8720  135.3737  154.4721 H   0  0  0  0  0  0  0  0  0  0  0  0  # atno 10763 bound_to 10752
  153.5380  135.7027  153.5655 H   0  0  0  0  0  0  0  0  0  0  0  0  # atno 10764 bound_to 10752
  153.3830  135.3992  155.1835 H   0  0  0  0  0  0  0  0  0  0  0  0  # atno 10765 bound_to 10752
  140.8527  133.7845  155.9984 H   0  0  0  0  0  0  0  0  0  0  0  0  # atno 11005 bound_to 11000
  144.9284  139.4327  143.6507 LP  0  0  0  0  0  0  0  0  0  0  0  0  # atno 17320 bound_to 7965
  146.3228  139.8182  142.8932 LP  0  0  0  0  0  0  0  0  0  0  0  0  # atno 17321 bound_to 7965
  139.7254  144.7594  151.0887 LP  0  0  0  0  0  0  0  0  0  0  0  0  # atno 17342 bound_to 10162
  140.7755  143.5154  150.9601 LP  0  0  0  0  0  0  0  0  0  0  0  0  # atno 17343 bound_to 10162
  157.1904  130.6349  149.5702 LP  0  0  0  0  0  0  0  0  0  0  0  0  # atno 17370 bound_to 10713
  155.9760  130.4724  150.6497 LP  0  0  0  0  0  0  0  0  0  0  0  0  # atno 17371 bound_to 10713
  140.8772  134.2655  157.5162 LP  0  0  0  0  0  0  0  0  0  0  0  0  # atno 17394 bound_to 11000
  139.8704  134.9597  156.4340 LP  0  0  0  0  0  0  0  0  0  0  0  0  # atno 17395 bound_to 11000

$$$$
