AV-unprocessed.smi:2742|AV-procd|sdf|10563|dock5
  -GOLD-   2272015 13D 1   1.00000     0.00000
 Structure written by MMmdl.
 37 38  0  0  0  0  0  0  0  0  1 V2000
  154.2653  141.1824  161.9581 C   0  0  0  0  0  0  0  0  0  0  0  0
  153.7433  140.8928  160.2460 S   0  0  0  0  0  0  0  0  0  0  0  0
  152.4762  142.1810  160.0555 C   0  0  1  0  0  0  0  0  0  0  0  0
  153.0970  143.5906  160.0986 C   0  0  0  0  0  0  0  0  0  0  0  0
  152.0308  144.6794  159.8994 C   0  0  0  0  0  0  0  0  0  0  0  0
  151.2502  144.4647  158.5936 C   0  0  0  0  0  0  0  0  0  0  0  0
  150.6195  143.0614  158.5452 C   0  0  1  0  0  0  0  0  0  0  0  0
  149.9299  142.8759  157.2718 N   0  0  0  0  0  0  0  0  0  0  0  0
  149.5653  141.6942  156.7531 C   0  0  0  0  0  0  0  0  0  0  0  0
  149.7789  140.6169  157.3084 O   0  0  0  0  0  0  0  0  0  0  0  0
  148.9380  141.8563  155.5752 N   0  0  0  0  0  0  0  0  0  0  0  0
  148.3812  140.8746  154.7090 C   0  0  0  0  0  0  0  0  0  0  0  0
  148.8217  139.5305  154.6312 C   0  0  0  0  0  0  0  0  0  0  0  0
  148.1882  138.6639  153.7179 C   0  0  0  0  0  0  0  0  0  0  0  0
  147.1827  139.0465  152.9028 N   0  0  0  0  0  0  0  0  0  0  0  0
  146.7730  140.3305  152.9711 C   0  0  0  0  0  0  0  0  0  0  0  0
  147.3383  141.2779  153.8482 C   0  0  0  0  0  0  0  0  0  0  0  0
  146.8811  142.5536  153.8619 F   0  0  0  0  0  0  0  0  0  0  0  0
  151.6943  141.9730  158.7457 C   0  0  0  0  0  0  0  0  0  0  0  0
  155.0191  140.4499  162.2470 H   0  0  0  0  0  0  0  0  0  0  0  0
  153.4172  141.0897  162.6367 H   0  0  0  0  0  0  0  0  0  0  0  0
  154.6957  142.1770  162.0702 H   0  0  0  0  0  0  0  0  0  0  0  0
  151.7773  142.0754  160.8864 H   0  0  0  0  0  0  0  0  0  0  0  0
  153.6046  143.7543  161.0488 H   0  0  0  0  0  0  0  0  0  0  0  0
  153.8583  143.6811  159.3227 H   0  0  0  0  0  0  0  0  0  0  0  0
  151.3399  144.6726  160.7434 H   0  0  0  0  0  0  0  0  0  0  0  0
  152.5011  145.6630  159.8933 H   0  0  0  0  0  0  0  0  0  0  0  0
  150.4757  145.2270  158.4997 H   0  0  0  0  0  0  0  0  0  0  0  0
  151.9221  144.5998  157.7445 H   0  0  0  0  0  0  0  0  0  0  0  0
  149.8926  142.9913  159.3568 H   0  0  0  0  0  0  0  0  0  0  0  0
  149.7115  143.7117  156.7492 H   0  0  0  0  0  0  0  0  0  0  0  0
  148.7926  142.8116  155.2831 H   0  0  0  0  0  0  0  0  0  0  0  0
  149.6288  139.1483  155.2359 H   0  0  0  0  0  0  0  0  0  0  0  0
  148.5028  137.6339  153.6367 H   0  0  0  0  0  0  0  0  0  0  0  0
  145.9713  140.6125  152.3048 H   0  0  0  0  0  0  0  0  0  0  0  0
  152.3867  141.9806  157.9023 H   0  0  0  0  0  0  0  0  0  0  0  0
  151.2277  140.9871  158.7523 H   0  0  0  0  0  0  0  0  0  0  0  0
  1  2  1  0  0  0  0
  1 20  1  0  0  0  0
  1 21  1  0  0  0  0
  1 22  1  0  0  0  0
  2  3  1  0  0  0  0
  3 19  1  0  0  0  0
  3  4  1  0  0  0  0
  3 23  1  0  0  0  0
  4  5  1  0  0  0  0
  4 24  1  0  0  0  0
  4 25  1  0  0  0  0
  5  6  1  0  0  0  0
  5 26  1  0  0  0  0
  5 27  1  0  0  0  0
  6  7  1  0  0  0  0
  6 28  1  0  0  0  0
  6 29  1  0  0  0  0
  7  8  1  0  0  0  0
  7 19  1  0  0  0  0
  7 30  1  0  0  0  0
  8  9  1  0  0  0  0
  8 31  1  0  0  0  0
  9 10  2  0  0  0  0
  9 11  1  0  0  0  0
 11 12  1  0  0  0  0
 11 32  1  0  0  0  0
 12 17  1  0  0  0  0
 12 13  2  0  0  0  0
 13 14  1  0  0  0  0
 13 33  1  0  0  0  0
 14 15  2  0  0  0  0
 14 34  1  0  0  0  0
 15 16  1  0  0  0  0
 16 17  2  0  0  0  0
 16 35  1  0  0  0  0
 17 18  1  0  0  0  0
 19 36  1  0  0  0  0
 19 37  1  0  0  0  0
M  END
> <s_m_source_file>
AV-unprocessed.smi

> <i_m_source_file_index>
2742

> <i_lp_mmshare_version>
43012

> <i_f3d_flags>
0

> <s_epik_input>
W0NIM11TW0NAQEhdMVtDSDJdW0NIMl1bQ0gyXVtDQEhdKFtDSDJdMSlbTkhdQyg9TylbTkhdYzJbY0hdW2NIXW5bY0hdYzJG

> <s_epik_cmdline>
J2VwaWtfcHl0aG9uJywgJy1waCcsICc3LjAnLCAnLXRuJywgJzgnLCAnLW1hJywgJzIwMCcsICctbWV0YWxfYmluZGluZycsICctaW1hZScsICc8aW5maWxlLm1hZT4nLCAnLW9tYWUnLCAnPG91dGZpbGUubWFlPic=

> <r_epik_Ionization_Penalty>
0.00344009

> <r_epik_Ionization_Penalty_Charging>
0

> <r_epik_Ionization_Penalty_Neutral>
0.00344009

> <r_epik_State_Penalty>
0.0024078

> <r_epik_Charging_Adjusted_Penalty>
0.0024078

> <i_epik_Tot_Q>
0

> <i_epik_Tot_abs_Q>
0

> <r_epik_Metal_State_Penalty>
-0

> <b_epik_Metal_Only>
0

> <s_lp_Force_Field>
OPLS_2005

> <r_lp_Energy>
14.4942

> <b_lp_Chiralities_Consistent>
1

> <s_lp_Variant>
AV-unprocessed.smi:2742-2

> <Gold.Version>
5.8.1

> <Gold.Id.Protein>
6NUR|6NUR_protein|mol2

> <Gold.PLP.Fitness>
50.4196

> <Gold.PLP.PLP>
-39.4602

> <Gold.PLP.part.hbond>
-2.0000

> <Gold.PLP.part.metal>
0.0000

> <Gold.PLP.part.buried>
-3.6084

> <Gold.PLP.part.nonpolar>
-34.5593

> <Gold.PLP.part.repulsive>
0.6225

> <Gold.PLP.ligand.clash>
0.0000

> <Gold.PLP.ligand.torsion>
0.4451

> <Gold.PLP.Chemscore.Hbond>
2.0000

> <Gold.PLP.Chemscore.CHOScore>
1.9474

> <Gold.PLP.Chemscore.Metal>
0.0000

> <Gold.Chemscore.Hbonds>
donor molecule, donor type, donor heavy atom, donor atom, acceptor molecule, acceptor atom, score
      L1  H     8    31       P1  8028  1.00
      L1  H    11    32       P1  8028  1.00
      L1  C    14    34       P1  7948  1.00
      L1  C    16    35       P1 10175  0.99

> <Gold.PLP.Chemscore.Internal.Correction>
0.0072

> <Gold.Rescore>
     Score         DG    S(hbond)    S(metal)    S(lipo)     H(rot)  DE(clash)    DE(int)     intcor
     19.02     -22.30       1.90        0.00     115.41       1.19       0.26       3.02       ----

> <Gold.Chemscore.Fitness>
19.0236

> <Gold.Chemscore.DG>
-22.3032

> <Gold.Chemscore.ZeroCoef>
-5.4800

> <Gold.Chemscore.Hbond>
1.9042

> <Gold.Chemscore.Metal>
0.0000

> <Gold.Chemscore.Lipo>
115.4104

> <Gold.Chemscore.Internal_Hbond>
0.0000

> <Gold.Chemscore.DEClash>
0.2574

> <Gold.Chemscore.DEInternal>
3.0222

> <Gold.Chemscore.Rot>
1.1875

> <Gold.Chemscore.Internal.Correction>
   9.000000E+99

> <Gold.Chemscore.Hbonds>
donor molecule, donor type, donor heavy atom, donor atom, acceptor molecule, acceptor atom, score
      L1  H     8    31       P1  8028  0.99
      L1  H    11    32       P1  8028  0.95

> <Gold.Chemscore.Hbond.Weighted>
-6.3602

> <Gold.Chemscore.Metal.Weighted>
-0.0000

> <Gold.Chemscore.Lipo.Weighted>
-13.5030

> <Gold.Chemscore.Internal_Hbond.Weighted>
0.0000

> <Gold.Chemscore.DEClash.Weighted>
0.2574

> <Gold.Chemscore.DEInternal.Weighted>
3.0222

> <Gold.Chemscore.Rot.Weighted>
3.0400

> <Gold.Chemscore.Internal.Correction.Weighted>
   9.000000E+99

> <Gold.Protein.RotatedTorsions>
[ 6907 6896 6895 6894 ] final   75.16 input  -60.11 | X-H torsion
[ 7974 7965 7964 7962 ] final  -18.51 input  175.53 | X-H torsion
[ 8008 7997 7996 7995 ] final  -39.39 input   59.86 | X-H torsion
[ 10167 10162 10161 10158 ] final  112.95 input  -65.29 | X-H torsion
[ 10718 10713 10712 10709 ] final   32.13 input   66.30 | X-H torsion
[ 10763 10752 10751 10750 ] final -137.43 input  -60.55 | X-H torsion
[ 11005 11000 10999 10996 ] final  -57.14 input  -57.11 | X-H torsion

> <Gold.Protein.ActiveResidues>
 VAL166  LYS551  ARG553  GLY616  TRP617  ASP618  TYR619  PRO620  LYS621  CYS622 
 ASP623  PHE694  ASN695  SER759  ASP760  ASP761  ALA762  ILE779  LEU786  VAL792 
 PHE793  MET794  SER795  GLU796  ALA797  LYS798  CYS799  TRP800  GLU811  SER814 

> <Gold.Protein.RotatedAtoms>
  152.5012  134.4162  159.9464 H   0  0  0  0  0  0  0  0  0  0  0  0  # atno 6907 bound_to 6896
  151.4132  133.3714  159.2754 H   0  0  0  0  0  0  0  0  0  0  0  0  # atno 6908 bound_to 6896
  150.9276  134.8714  159.7589 H   0  0  0  0  0  0  0  0  0  0  0  0  # atno 6909 bound_to 6896
  146.1888  140.3931  142.8466 H   0  0  0  0  0  0  0  0  0  0  0  0  # atno 7974 bound_to 7965
  154.4023  140.1553  156.2856 H   0  0  0  0  0  0  0  0  0  0  0  0  # atno 8008 bound_to 7997
  155.8831  140.3443  155.5880 H   0  0  0  0  0  0  0  0  0  0  0  0  # atno 8009 bound_to 7997
  155.7645  140.0822  157.2129 H   0  0  0  0  0  0  0  0  0  0  0  0  # atno 8010 bound_to 7997
  139.6497  144.7128  151.2072 H   0  0  0  0  0  0  0  0  0  0  0  0  # atno 10167 bound_to 10162
  157.2813  130.7256  149.6558 H   0  0  0  0  0  0  0  0  0  0  0  0  # atno 10718 bound_to 10713
  154.8662  135.3642  154.5222 H   0  0  0  0  0  0  0  0  0  0  0  0  # atno 10763 bound_to 10752
  153.5852  135.7017  153.5451 H   0  0  0  0  0  0  0  0  0  0  0  0  # atno 10764 bound_to 10752
  153.3422  135.4095  155.1543 H   0  0  0  0  0  0  0  0  0  0  0  0  # atno 10765 bound_to 10752
  141.1152  133.6610  156.4725 H   0  0  0  0  0  0  0  0  0  0  0  0  # atno 11005 bound_to 11000
  144.8448  140.6912  143.6206 LP  0  0  0  0  0  0  0  0  0  0  0  0  # atno 17320 bound_to 7965
  145.3856  139.1627  143.4257 LP  0  0  0  0  0  0  0  0  0  0  0  0  # atno 17321 bound_to 7965
  140.7532  143.6171  150.8549 LP  0  0  0  0  0  0  0  0  0  0  0  0  # atno 17342 bound_to 10162
  139.9817  143.5943  152.2940 LP  0  0  0  0  0  0  0  0  0  0  0  0  # atno 17343 bound_to 10162
  155.9664  130.4337  150.5018 LP  0  0  0  0  0  0  0  0  0  0  0  0  # atno 17370 bound_to 10713
  157.2962  131.0636  151.2100 LP  0  0  0  0  0  0  0  0  0  0  0  0  # atno 17371 bound_to 10713
  140.4667  134.6791  157.5110 LP  0  0  0  0  0  0  0  0  0  0  0  0  # atno 17394 bound_to 11000
  140.0069  134.6750  155.9441 LP  0  0  0  0  0  0  0  0  0  0  0  0  # atno 17395 bound_to 11000

$$$$
