#       Name:                AV-unprocessed.smi:2702
#       Creating user name   scv26
#       Creation time:       Fri Mar 27 14:47:10 2020


#       File generated by GOLD software.
#

@<TRIPOS>MOLECULE
AV-unprocessed.smi:2702
    54    55     1
SMALL
NO_CHARGES


@<TRIPOS>ATOM
      1 ****        -7.9730  -1.0750  -0.1421 C.3            1 S1                 0.0000
      2 ****        -6.5574  -1.0504  -0.1913 O.3            1 S1                 0.0000
      3 ****        -6.0493  -1.4966  -1.4369 C.3            1 S1                 0.0000
      4 ****        -4.5352  -1.4454  -1.4386 C.2            1 S1                 0.0000
      5 ****        -3.8548  -0.4170  -1.9967 C.2            1 S1                 0.0000
      6 ****        -2.3919  -0.4028  -1.9973 C.2            1 S1                 0.0000
      7 ****        -1.7371   0.5201  -2.4827 O.2            1 S1                 0.0000
      8 ****        -1.8066  -1.4935  -1.4201 N.am           1 S1                 0.0000
      9 ****        -0.3400  -1.6309  -1.3517 C.3            1 S1                 0.0000
     10 ****         0.2943  -0.8996  -0.1595 C.2            1 S1                 0.0000
     11 ****        -0.3990  -0.4559   0.7572 O.2            1 S1                 0.0000
     12 ****         1.6312  -0.7956  -0.1863 N.am           1 S1                 0.0000
     13 ****         2.4513  -0.1497   0.8358 C.3            1 S1                 0.0000
     14 ****         3.8743  -0.7398   0.8106 C.3            1 S1                 0.0000
     15 ****         4.7578  -0.1088   1.8969 C.3            1 S1                 0.0000
     16 ****         4.7807   1.4238   1.7862 C.3            1 S1                 0.0000
     17 ****         3.3554   2.0125   1.8050 C.3            1 S1                 0.0000
     18 ****         3.3732   3.5501   1.8004 C.3            1 S1                 0.0000
     19 ****         2.4682   1.3971   0.6898 C.3            1 S1                 0.0000
     20 ****         2.8467   1.8704  -0.7333 C.3            1 S1                 0.0000
     21 ****        -2.5639  -2.5394  -0.8555 C.2            1 S1                 0.0000
     22 ****        -3.8589  -2.5263  -0.8644 N.2            1 S1                 0.0000
     23 ****        -8.3109  -0.7252   0.8334 H              1 S1                 0.0000
     24 ****        -8.3555  -2.0860  -0.2885 H              1 S1                 0.0000
     25 ****        -8.4055  -0.4228  -0.9021 H              1 S1                 0.0000
     26 ****        -6.3737  -2.5210  -1.6290 H              1 S1                 0.0000
     27 ****        -6.4382  -0.8778  -2.2475 H              1 S1                 0.0000
     28 ****        -4.3912   0.4063  -2.4455 H              1 S1                 0.0000
     29 ****        -0.0438  -2.6804  -1.3044 H              1 S1                 0.0000
     30 ****         0.1107  -1.2549  -2.2723 H              1 S1                 0.0000
     31 ****         2.1196  -1.1886  -0.9777 H              1 S1                 0.0000
     32 ****         2.0220  -0.3937   1.8099 H              1 S1                 0.0000
     33 ****         3.8319  -1.8192   0.9619 H              1 S1                 0.0000
     34 ****         4.3305  -0.5864  -0.1680 H              1 S1                 0.0000
     35 ****         4.3833  -0.3955   2.8805 H              1 S1                 0.0000
     36 ****         5.7721  -0.5024   1.8268 H              1 S1                 0.0000
     37 ****         5.3626   1.8346   2.6119 H              1 S1                 0.0000
     38 ****         5.2991   1.7195   0.8736 H              1 S1                 0.0000
     39 ****         2.9071   1.7216   2.7566 H              1 S1                 0.0000
     40 ****         3.8934   3.9481   0.9292 H              1 S1                 0.0000
     41 ****         3.8831   3.9337   2.6844 H              1 S1                 0.0000
     42 ****         2.3613   3.9560   1.8040 H              1 S1                 0.0000
     43 ****         1.4501   1.7480   0.8654 H              1 S1                 0.0000
     44 ****         3.8649   1.5913  -1.0020 H              1 S1                 0.0000
     45 ****         2.7653   2.9525  -0.8292 H              1 S1                 0.0000
     46 ****         2.1823   1.4475  -1.4867 H              1 S1                 0.0000
     47 ****        -1.9849  -3.3512  -0.4122 H              1 S1                 0.0000
     48 ****        -6.2012  -1.6430   0.5312 LP             1 S1                 0.0000
     49 ****        -6.2475  -0.1124  -0.0360 LP             1 S1                 0.0000
     50 ****        -2.2046   1.3004  -2.8979 LP             1 S1                 0.0000
     51 ****        -0.7378   0.4892  -2.4616 LP             1 S1                 0.0000
     52 ****        -1.3923  -0.5693   0.7329 LP             1 S1                 0.0000
     53 ****         0.0315   0.0176   1.5256 LP             1 S1                 0.0000
     54 ****        -4.3723  -3.2848  -0.4629 LP             1 S1                 0.0000
@<TRIPOS>BOND
    1    1    2 1     
    2    1   23 1     
    3    1   24 1     
    4    1   25 1     
    5    2    3 1     
    6    3    4 1     
    7    3   26 1     
    8    3   27 1     
    9    4   22 1     
   10    4    5 2     
   11    5    6 1     
   12    5   28 1     
   13    6    7 2     
   14    6    8 am    
   15    8    9 1     
   16    8   21 1     
   17    9   10 1     
   18    9   29 1     
   19    9   30 1     
   20   10   11 2     
   21   10   12 am    
   22   12   13 1     
   23   12   31 1     
   24   13   19 1     
   25   13   14 1     
   26   13   32 1     
   27   14   15 1     
   28   14   33 1     
   29   14   34 1     
   30   15   16 1     
   31   15   35 1     
   32   15   36 1     
   33   16   17 1     
   34   16   37 1     
   35   16   38 1     
   36   17   18 1     
   37   17   19 1     
   38   17   39 1     
   39   18   40 1     
   40   18   41 1     
   41   18   42 1     
   42   19   20 1     
   43   19   43 1     
   44   20   44 1     
   45   20   45 1     
   46   20   46 1     
   47   21   22 2     
   48   21   47 1     
   49    2   48 1     
   50    2   49 1     
   51    7   50 1     
   52    7   51 1     
   53   11   52 1     
   54   11   53 1     
   55   22   54 1     
@<TRIPOS>SUBSTRUCTURE
      1 S1             1
@<TRIPOS>SET
LONE_PAIRS      STATIC     ATOMS    <user>   **** ""
7 48 49 50 51 52 53 54
DONOR_HYDROGENS      STATIC     ATOMS    <user>   **** ""
1 31
ATOM$BLUE        STATIC     ATOMS    COLORGROUP SYSTEM
7 48 49 50 51 52 53 54
ATOM$RED        STATIC     ATOMS    COLORGROUP SYSTEM
1 31
