AV-unprocessed.smi:704|AV-procd|sdf|3444|dock10
  -GOLD-   22720 0433D 1   1.00000     0.00000
 Structure written by MMmdl.
 38 39  0  0  0  0  0  0  0  0  1 V2000
  151.2198  137.6367  154.6321 C   0  0  0  0  0  0  0  0  0  0  0  0
  150.3602  136.5259  154.4011 O   0  0  0  0  0  0  0  0  0  0  0  0
  150.5969  135.3535  155.0931 C   0  0  0  0  0  0  0  0  0  0  0  0
  151.5341  135.3611  156.0744 N   0  0  0  0  0  0  0  0  0  0  0  0
  151.7677  134.2165  156.7488 C   0  0  0  0  0  0  0  0  0  0  0  0
  151.0912  133.0124  156.4808 C   0  0  0  0  0  0  0  0  0  0  0  0
  150.1191  133.0020  155.4637 C   0  0  0  0  0  0  0  0  0  0  0  0
  149.8522  134.1991  154.7566 C   0  0  0  0  0  0  0  0  0  0  0  0
  148.9084  134.2908  153.6972 N   0  0  0  0  0  0  0  0  0  0  0  0
  147.8483  133.5024  153.4540 C   0  0  0  0  0  0  0  0  0  0  0  0
  147.4894  132.5553  154.1537 O   0  0  0  0  0  0  0  0  0  0  0  0
  147.1949  133.8970  152.3524 N   0  0  0  0  0  0  0  0  0  0  0  0
  145.9776  133.2737  151.8299 C   0  0  2  0  0  0  0  0  0  0  0  0
  146.1997  132.7199  150.4097 C   0  0  0  0  0  0  0  0  0  0  0  0
  144.9394  133.0526  149.6002 C   0  0  0  0  0  0  0  0  0  0  0  0
  143.9229  133.5974  150.6076 C   0  0  0  0  0  0  0  0  0  0  0  0
  144.7489  134.2177  151.7444 C   0  0  2  0  0  0  0  0  0  0  0  0
  145.0786  135.6968  151.4463 C   0  0  0  0  0  0  0  0  0  0  0  0
  145.5530  135.9766  150.2297 N   0  0  0  0  0  0  0  0  0  0  0  0
  144.9021  136.5727  152.2917 O   0  0  0  0  0  0  0  0  0  0  0  0
  150.8923  138.4782  154.0221 H   0  0  0  0  0  0  0  0  0  0  0  0
  152.2496  137.4076  154.3545 H   0  0  0  0  0  0  0  0  0  0  0  0
  151.1914  137.9542  155.6754 H   0  0  0  0  0  0  0  0  0  0  0  0
  152.5214  134.2604  157.5210 H   0  0  0  0  0  0  0  0  0  0  0  0
  151.3171  132.1159  157.0386 H   0  0  0  0  0  0  0  0  0  0  0  0
  149.6110  132.0775  155.2364 H   0  0  0  0  0  0  0  0  0  0  0  0
  149.0164  135.0914  153.0915 H   0  0  0  0  0  0  0  0  0  0  0  0
  147.5524  134.6928  151.8445 H   0  0  0  0  0  0  0  0  0  0  0  0
  145.7124  132.4326  152.4739 H   0  0  0  0  0  0  0  0  0  0  0  0
  147.0709  133.1705  149.9313 H   0  0  0  0  0  0  0  0  0  0  0  0
  146.3742  131.6440  150.4432 H   0  0  0  0  0  0  0  0  0  0  0  0
  145.1708  133.8166  148.8571 H   0  0  0  0  0  0  0  0  0  0  0  0
  144.5531  132.1859  149.0632 H   0  0  0  0  0  0  0  0  0  0  0  0
  143.2267  134.2992  150.1458 H   0  0  0  0  0  0  0  0  0  0  0  0
  143.3283  132.7740  151.0057 H   0  0  0  0  0  0  0  0  0  0  0  0
  144.1856  134.1748  152.6783 H   0  0  0  0  0  0  0  0  0  0  0  0
  145.7889  136.9279  149.9867 H   0  0  0  0  0  0  0  0  0  0  0  0
  145.6791  135.2333  149.5580 H   0  0  0  0  0  0  0  0  0  0  0  0
  1  2  1  0  0  0  0
  1 21  1  0  0  0  0
  1 22  1  0  0  0  0
  1 23  1  0  0  0  0
  2  3  1  0  0  0  0
  3  8  1  0  0  0  0
  3  4  2  0  0  0  0
  4  5  1  0  0  0  0
  5  6  2  0  0  0  0
  5 24  1  0  0  0  0
  6  7  1  0  0  0  0
  6 25  1  0  0  0  0
  7  8  2  0  0  0  0
  7 26  1  0  0  0  0
  8  9  1  0  0  0  0
  9 10  1  0  0  0  0
  9 27  1  0  0  0  0
 10 11  2  0  0  0  0
 10 12  1  0  0  0  0
 12 13  1  0  0  0  0
 12 28  1  0  0  0  0
 13 17  1  0  0  0  0
 13 14  1  0  0  0  0
 13 29  1  0  0  0  0
 14 15  1  0  0  0  0
 14 30  1  0  0  0  0
 14 31  1  0  0  0  0
 15 16  1  0  0  0  0
 15 32  1  0  0  0  0
 15 33  1  0  0  0  0
 16 17  1  0  0  0  0
 16 34  1  0  0  0  0
 16 35  1  0  0  0  0
 17 18  1  0  0  0  0
 17 36  1  0  0  0  0
 18 19  1  0  0  0  0
 18 20  2  0  0  0  0
 19 37  1  0  0  0  0
 19 38  1  0  0  0  0
M  END
> <s_m_source_file>
AV-unprocessed.smi

> <i_m_source_file_index>
704

> <i_lp_mmshare_version>
43012

> <i_f3d_flags>
0

> <s_epik_input>
W0NIM11PYzFuW2NIXVtjSF1bY0hdYzFbTkhdQyg9TylbTkhdW0NAQEhdMltDSDJdW0NIMl1bQ0gyXVtDQEhdMkMoPU8pW05IMl0=

> <s_epik_cmdline>
J2VwaWtfcHl0aG9uJywgJy1waCcsICc3LjAnLCAnLXRuJywgJzgnLCAnLW1hJywgJzIwMCcsICctbWV0YWxfYmluZGluZycsICctaW1hZScsICc8aW5maWxlLm1hZT4nLCAnLW9tYWUnLCAnPG91dGZpbGUubWFlPic=

> <r_lp_tautomer_probability>
1

> <r_epik_Ionization_Penalty>
9.09123e-05

> <r_epik_Ionization_Penalty_Charging>
0

> <r_epik_Ionization_Penalty_Neutral>
9.09123e-05

> <r_epik_State_Penalty>
-0

> <r_epik_Charging_Adjusted_Penalty>
0

> <i_epik_Tot_Q>
0

> <i_epik_Tot_abs_Q>
0

> <r_epik_Metal_State_Penalty>
-0

> <b_epik_Metal_Only>
0

> <s_lp_Force_Field>
OPLS_2005

> <r_lp_Energy>
16.4905

> <b_lp_Chiralities_Consistent>
1

> <s_lp_Variant>
AV-unprocessed.smi:704-3

> <Gold.Version>
5.8.1

> <Gold.Id.Protein>
6NUR|6NUR_protein|mol2

> <Gold.PLP.Fitness>
39.3677

> <Gold.PLP.PLP>
-28.8971

> <Gold.PLP.part.hbond>
-4.6714

> <Gold.PLP.part.metal>
0.0000

> <Gold.PLP.part.buried>
-0.4135

> <Gold.PLP.part.nonpolar>
-25.4088

> <Gold.PLP.part.repulsive>
2.5346

> <Gold.PLP.ligand.clash>
0.0000

> <Gold.PLP.ligand.torsion>
0.3628

> <Gold.PLP.Chemscore.Hbond>
3.7260

> <Gold.PLP.Chemscore.CHOScore>
0.0000

> <Gold.PLP.Chemscore.Metal>
0.0000

> <Gold.Chemscore.Hbonds>
donor molecule, donor type, donor heavy atom, donor atom, acceptor molecule, acceptor atom, score
      L1  H     9    27       P1  7948  0.90
      L1  H    12    28       P1  7948  0.91
      L1  H    19    38       P1  7921  0.88
      P1  H 10752 10764       L1     4  1.00

> <Gold.PLP.Chemscore.Internal.Correction>
0.0182

> <Gold.Rescore>
     Score         DG    S(hbond)    S(metal)    S(lipo)     H(rot)  DE(clash)    DE(int)     intcor
     12.95     -16.85       2.66        0.00      62.16       1.86       1.52       2.37       ----

> <Gold.Chemscore.Fitness>
12.9531

> <Gold.Chemscore.DG>
-16.8470

> <Gold.Chemscore.ZeroCoef>
-5.4800

> <Gold.Chemscore.Hbond>
2.6553

> <Gold.Chemscore.Metal>
0.0000

> <Gold.Chemscore.Lipo>
62.1551

> <Gold.Chemscore.Internal_Hbond>
0.0000

> <Gold.Chemscore.DEClash>
1.5194

> <Gold.Chemscore.DEInternal>
2.3746

> <Gold.Chemscore.Rot>
1.8648

> <Gold.Chemscore.Internal.Correction>
   9.000000E+99

> <Gold.Chemscore.Hbonds>
donor molecule, donor type, donor heavy atom, donor atom, acceptor molecule, acceptor atom, score
      L1  H     9    27       P1  7948  0.18
      L1  H    12    28       P1  7948  0.46
      L1  H    19    38       P1  7921  0.82
      P1  H 10752 10764       L1     4  0.06

> <Gold.Chemscore.Hbond.Weighted>
-8.8688

> <Gold.Chemscore.Metal.Weighted>
-0.0000

> <Gold.Chemscore.Lipo.Weighted>
-7.2721

> <Gold.Chemscore.Internal_Hbond.Weighted>
0.0000

> <Gold.Chemscore.DEClash.Weighted>
1.5194

> <Gold.Chemscore.DEInternal.Weighted>
2.3746

> <Gold.Chemscore.Rot.Weighted>
4.7739

> <Gold.Chemscore.Internal.Correction.Weighted>
   9.000000E+99

> <Gold.Protein.RotatedTorsions>
[ 6907 6896 6895 6894 ] final   48.95 input  -60.11 | X-H torsion
[ 7974 7965 7964 7962 ] final -129.36 input  175.53 | X-H torsion
[ 8008 7997 7996 7995 ] final  -79.09 input   59.86 | X-H torsion
[ 10167 10162 10161 10158 ] final  -10.52 input  -65.29 | X-H torsion
[ 10718 10713 10712 10709 ] final  173.35 input   66.30 | X-H torsion
[ 10763 10752 10751 10750 ] final  -31.80 input  -60.55 | X-H torsion
[ 11005 11000 10999 10996 ] final  127.58 input  -57.11 | X-H torsion

> <Gold.Protein.ActiveResidues>
 VAL166  LYS551  ARG553  GLY616  TRP617  ASP618  TYR619  PRO620  LYS621  CYS622 
 ASP623  PHE694  ASN695  SER759  ASP760  ASP761  ALA762  ILE779  LEU786  VAL792 
 PHE793  MET794  SER795  GLU796  ALA797  LYS798  CYS799  TRP800  GLU811  SER814 

> <Gold.Protein.RotatedAtoms>
  152.2853  134.7783  160.0388 H   0  0  0  0  0  0  0  0  0  0  0  0  # atno 6907 bound_to 6896
  151.8348  133.3409  159.3633 H   0  0  0  0  0  0  0  0  0  0  0  0  # atno 6908 bound_to 6896
  150.7207  134.5377  159.5776 H   0  0  0  0  0  0  0  0  0  0  0  0  # atno 6909 bound_to 6896
  144.9579  140.7416  143.4747 H   0  0  0  0  0  0  0  0  0  0  0  0  # atno 7974 bound_to 7965
  154.5751  140.0684  156.9022 H   0  0  0  0  0  0  0  0  0  0  0  0  # atno 8008 bound_to 7997
  155.2563  140.3355  155.4259 H   0  0  0  0  0  0  0  0  0  0  0  0  # atno 8009 bound_to 7997
  156.2148  140.1774  156.7599 H   0  0  0  0  0  0  0  0  0  0  0  0  # atno 8010 bound_to 7997
  140.7116  143.5739  150.9063 H   0  0  0  0  0  0  0  0  0  0  0  0  # atno 10167 bound_to 10162
  156.9655  131.0074  151.2917 H   0  0  0  0  0  0  0  0  0  0  0  0  # atno 10718 bound_to 10713
  153.8033  135.6888  153.4852 H   0  0  0  0  0  0  0  0  0  0  0  0  # atno 10763 bound_to 10752
  153.1675  135.4555  154.9855 H   0  0  0  0  0  0  0  0  0  0  0  0  # atno 10764 bound_to 10752
  154.7998  135.3333  154.7519 H   0  0  0  0  0  0  0  0  0  0  0  0  # atno 10765 bound_to 10752
  139.9515  134.9621  156.8875 H   0  0  0  0  0  0  0  0  0  0  0  0  # atno 11005 bound_to 11000
  145.2744  139.1942  143.4824 LP  0  0  0  0  0  0  0  0  0  0  0  0  # atno 17320 bound_to 7965
  146.3343  140.2695  142.8605 LP  0  0  0  0  0  0  0  0  0  0  0  0  # atno 17321 bound_to 7965
  139.9465  143.6321  152.3040 LP  0  0  0  0  0  0  0  0  0  0  0  0  # atno 17342 bound_to 10162
  139.6825  144.7654  151.1583 LP  0  0  0  0  0  0  0  0  0  0  0  0  # atno 17343 bound_to 10162
  157.5628  130.8257  149.8288 LP  0  0  0  0  0  0  0  0  0  0  0  0  # atno 17370 bound_to 10713
  156.0304  130.3766  150.1703 LP  0  0  0  0  0  0  0  0  0  0  0  0  # atno 17371 bound_to 10713
  140.5709  134.0444  155.7430 LP  0  0  0  0  0  0  0  0  0  0  0  0  # atno 17394 bound_to 11000
  141.1178  133.9511  157.2788 LP  0  0  0  0  0  0  0  0  0  0  0  0  # atno 17395 bound_to 11000

$$$$
