AV-unprocessed.smi:2551|AV-procd|sdf|10014|dock10
  -GOLD-   2272014 63D 1   1.00000     0.00000
 Structure written by MMmdl.
 25 26  0  0  0  0  0  0  0  0  2 V2000
  152.8194  140.1748  157.9642 O   0  0  0  0  0  0  0  0  0  0  0  0
  151.8594  140.8398  157.5768 C   0  0  0  0  0  0  0  0  0  0  0  0
  150.9115  140.3558  156.7313 N   0  5  0  0  0  0  0  0  0  0  0  0
  151.0993  139.2509  155.9861 C   0  0  0  0  0  0  0  0  0  0  0  0
  151.9312  138.2646  156.3577 N   0  0  0  0  0  0  0  0  0  0  0  0
  151.9800  137.2190  155.4460 N   0  0  0  0  0  0  0  0  0  0  0  0
  151.1713  137.4396  154.4099 C   0  0  0  0  0  0  0  0  0  0  0  0
  150.2789  138.9453  154.4527 S   0  0  0  0  0  0  0  0  0  0  0  0
  151.7331  142.1115  158.0043 N   0  0  0  0  0  0  0  0  0  0  0  0
  152.6390  142.8105  158.9122 C   0  0  0  0  0  0  0  0  0  0  0  0
  152.1739  142.6528  160.3725 C   0  0  0  0  0  0  0  0  0  0  0  0
  152.2014  144.0562  160.9799 C   0  0  0  0  0  0  0  0  0  0  0  0
  151.9254  144.9821  159.8000 C   0  0  0  0  0  0  0  0  0  0  0  0
  152.6604  144.3262  158.6308 C   0  0  0  0  0  0  0  0  0  0  0  0
  151.0990  136.7109  153.6163 H   0  0  0  0  0  0  0  0  0  0  0  0
  150.9411  142.6367  157.6641 H   0  0  0  0  0  0  0  0  0  0  0  0
  153.6475  142.4059  158.8093 H   0  0  0  0  0  0  0  0  0  0  0  0
  151.1524  142.2705  160.4116 H   0  0  0  0  0  0  0  0  0  0  0  0
  152.7989  141.9546  160.9302 H   0  0  0  0  0  0  0  0  0  0  0  0
  151.4801  144.1781  161.7883 H   0  0  0  0  0  0  0  0  0  0  0  0
  153.1936  144.2631  161.3833 H   0  0  0  0  0  0  0  0  0  0  0  0
  150.8545  145.0057  159.5942 H   0  0  0  0  0  0  0  0  0  0  0  0
  152.2539  146.0059  159.9816 H   0  0  0  0  0  0  0  0  0  0  0  0
  153.6947  144.6722  158.6161 H   0  0  0  0  0  0  0  0  0  0  0  0
  152.2205  144.5966  157.6697 H   0  0  0  0  0  0  0  0  0  0  0  0
  1  2  2  0  0  0  0
  2  3  1  0  0  0  0
  2  9  1  0  0  0  0
  3  4  1  0  0  0  0
  4  8  1  0  0  0  0
  4  5  2  0  0  0  0
  5  6  1  0  0  0  0
  6  7  2  0  0  0  0
  7  8  1  0  0  0  0
  7 15  1  0  0  0  0
  9 10  1  0  0  0  0
  9 16  1  0  0  0  0
 10 14  1  0  0  0  0
 10 11  1  0  0  0  0
 10 17  1  0  0  0  0
 11 12  1  0  0  0  0
 11 18  1  0  0  0  0
 11 19  1  0  0  0  0
 12 13  1  0  0  0  0
 12 20  1  0  0  0  0
 12 21  1  0  0  0  0
 13 14  1  0  0  0  0
 13 22  1  0  0  0  0
 13 23  1  0  0  0  0
 14 24  1  0  0  0  0
 14 25  1  0  0  0  0
M  CHG  1   3  -1
M  END
> <s_m_source_file>
AV-unprocessed.smi

> <i_m_source_file_index>
2551

> <i_lp_mmshare_version>
43012

> <i_f3d_flags>
0

> <s_epik_input>
W0NIMl0xW0NIMl1bQ0gyXVtDSDJdW0NIXTFbTkhdQyg9TylbTkhdYzJubltjSF1zMg==

> <s_epik_cmdline>
J2VwaWtfcHl0aG9uJywgJy1waCcsICc3LjAnLCAnLXRuJywgJzgnLCAnLW1hJywgJzIwMCcsICctbWV0YWxfYmluZGluZycsICctaW1hZScsICc8aW5maWxlLm1hZT4nLCAnLW9tYWUnLCAnPG91dGZpbGUubWFlPic=

> <r_lp_tautomer_probability>
1

> <r_epik_Ionization_Penalty>
4.51495

> <r_epik_Ionization_Penalty_Charging>
4.46823

> <r_epik_Ionization_Penalty_Neutral>
0.0467187

> <r_epik_State_Penalty>
4.46792

> <r_epik_Charging_Adjusted_Penalty>
8.93614

> <i_epik_Tot_Q>
-1

> <i_epik_Tot_abs_Q>
1

> <r_epik_Metal_State_Penalty>
0.803637

> <b_epik_Metal_Only>
1

> <s_lp_Force_Field>
OPLS_2005

> <r_lp_Energy>
17.7165

> <b_lp_Chiralities_Consistent>
1

> <s_lp_Variant>
AV-unprocessed.smi:2551-2

> <Gold.Version>
5.8.1

> <Gold.Id.Protein>
6NUR|6NUR_protein|mol2

> <Gold.PLP.Fitness>
39.5734

> <Gold.PLP.PLP>
-32.1120

> <Gold.PLP.part.hbond>
-2.0000

> <Gold.PLP.part.metal>
0.0000

> <Gold.PLP.part.buried>
-2.9557

> <Gold.PLP.part.nonpolar>
-27.5199

> <Gold.PLP.part.repulsive>
0.1179

> <Gold.PLP.ligand.clash>
0.0000

> <Gold.PLP.ligand.torsion>
0.5916

> <Gold.PLP.Chemscore.Hbond>
1.8802

> <Gold.PLP.Chemscore.CHOScore>
1.0000

> <Gold.PLP.Chemscore.Metal>
0.0000

> <Gold.Chemscore.Hbonds>
donor molecule, donor type, donor heavy atom, donor atom, acceptor molecule, acceptor atom, score
      P1  H  7997  8008       L1     1  1.00
      P1  H 10752 10765       L1     6  0.74
      L1  C     7    15       P1  7949  1.00

> <Gold.PLP.Chemscore.Internal.Correction>
0.0040

> <Gold.Rescore>
     Score         DG    S(hbond)    S(metal)    S(lipo)     H(rot)  DE(clash)    DE(int)     intcor
     15.74     -17.95       1.77        0.00      77.92       1.00       0.03       2.18       ----

> <Gold.Chemscore.Fitness>
15.7373

> <Gold.Chemscore.DG>
-17.9495

> <Gold.Chemscore.ZeroCoef>
-5.4800

> <Gold.Chemscore.Hbond>
1.7703

> <Gold.Chemscore.Metal>
0.0000

> <Gold.Chemscore.Lipo>
77.9222

> <Gold.Chemscore.Internal_Hbond>
0.0000

> <Gold.Chemscore.DEClash>
0.0310

> <Gold.Chemscore.DEInternal>
2.1813

> <Gold.Chemscore.Rot>
1.0000

> <Gold.Chemscore.Internal.Correction>
   9.000000E+99

> <Gold.Chemscore.Hbonds>
donor molecule, donor type, donor heavy atom, donor atom, acceptor molecule, acceptor atom, score
      P1  H  7997  8008       L1     1  0.90
      P1  H 10752 10765       L1     6  0.12

> <Gold.Chemscore.Hbond.Weighted>
-5.9127

> <Gold.Chemscore.Metal.Weighted>
-0.0000

> <Gold.Chemscore.Lipo.Weighted>
-9.1169

> <Gold.Chemscore.Internal_Hbond.Weighted>
0.0000

> <Gold.Chemscore.DEClash.Weighted>
0.0310

> <Gold.Chemscore.DEInternal.Weighted>
2.1813

> <Gold.Chemscore.Rot.Weighted>
2.5600

> <Gold.Chemscore.Internal.Correction.Weighted>
   9.000000E+99

> <Gold.Protein.RotatedTorsions>
[ 6907 6896 6895 6894 ] final   72.84 input  -60.11 | X-H torsion
[ 7974 7965 7964 7962 ] final  -65.01 input  175.53 | X-H torsion
[ 8008 7997 7996 7995 ] final  -73.14 input   59.86 | X-H torsion
[ 10167 10162 10161 10158 ] final  -23.52 input  -65.29 | X-H torsion
[ 10718 10713 10712 10709 ] final -126.57 input   66.30 | X-H torsion
[ 10763 10752 10751 10750 ] final -176.92 input  -60.55 | X-H torsion
[ 11005 11000 10999 10996 ] final   96.78 input  -57.11 | X-H torsion

> <Gold.Protein.ActiveResidues>
 VAL166  LYS551  ARG553  GLY616  TRP617  ASP618  TYR619  PRO620  LYS621  CYS622 
 ASP623  PHE694  ASN695  SER759  ASP760  ASP761  ALA762  ILE779  LEU786  VAL792 
 PHE793  MET794  SER795  GLU796  ALA797  LYS798  CYS799  TRP800  GLU811  SER814 

> <Gold.Protein.RotatedAtoms>
  152.4890  134.4511  159.9574 H   0  0  0  0  0  0  0  0  0  0  0  0  # atno 6907 bound_to 6896
  151.4502  133.3613  159.2802 H   0  0  0  0  0  0  0  0  0  0  0  0  # atno 6908 bound_to 6896
  150.9027  134.8464  159.7431 H   0  0  0  0  0  0  0  0  0  0  0  0  # atno 6909 bound_to 6896
  145.7595  140.8868  143.0437 H   0  0  0  0  0  0  0  0  0  0  0  0  # atno 7974 bound_to 7965
  154.5223  140.0784  156.8195 H   0  0  0  0  0  0  0  0  0  0  0  0  # atno 8008 bound_to 7997
  155.3550  140.3415  155.4221 H   0  0  0  0  0  0  0  0  0  0  0  0  # atno 8009 bound_to 7997
  156.1694  140.1615  156.8460 H   0  0  0  0  0  0  0  0  0  0  0  0  # atno 8010 bound_to 7997
  140.7288  143.4436  151.0620 H   0  0  0  0  0  0  0  0  0  0  0  0  # atno 10167 bound_to 10162
  156.1778  130.6711  151.0264 H   0  0  0  0  0  0  0  0  0  0  0  0  # atno 10718 bound_to 10713
  154.5664  135.2824  155.0869 H   0  0  0  0  0  0  0  0  0  0  0  0  # atno 10763 bound_to 10752
  154.2259  135.6383  153.5163 H   0  0  0  0  0  0  0  0  0  0  0  0  # atno 10764 bound_to 10752
  153.0044  135.5525  154.6274 H   0  0  0  0  0  0  0  0  0  0  0  0  # atno 10765 bound_to 10752
  139.8779  134.8968  156.4210 H   0  0  0  0  0  0  0  0  0  0  0  0  # atno 11005 bound_to 11000
  144.6833  139.9703  143.7482 LP  0  0  0  0  0  0  0  0  0  0  0  0  # atno 17320 bound_to 7965
  146.0277  139.3307  143.0774 LP  0  0  0  0  0  0  0  0  0  0  0  0  # atno 17321 bound_to 7965
  139.8105  143.7957  152.3171 LP  0  0  0  0  0  0  0  0  0  0  0  0  # atno 17342 bound_to 10162
  139.8005  144.7376  150.9831 LP  0  0  0  0  0  0  0  0  0  0  0  0  # atno 17343 bound_to 10162
  157.6847  131.0828  150.7274 LP  0  0  0  0  0  0  0  0  0  0  0  0  # atno 17370 bound_to 10713
  156.7332  130.4716  149.5494 LP  0  0  0  0  0  0  0  0  0  0  0  0  # atno 17371 bound_to 10713
  140.9134  133.7696  155.9818 LP  0  0  0  0  0  0  0  0  0  0  0  0  # atno 17394 bound_to 11000
  140.8521  134.2941  157.5271 LP  0  0  0  0  0  0  0  0  0  0  0  0  # atno 17395 bound_to 11000

$$$$
