AV-unprocessed.smi:988|AV-procd|sdf|4324|dock6
  -GOLD-   22720 2233D 1   1.00000     0.00000
 Structure written by MMmdl.
 28 28  0  0  0  0  0  0  0  0  1 V2000
  151.0618  144.5936  160.3306 C   0  0  0  0  0  0  0  0  0  0  0  0
  152.1166  144.1342  159.5047 O   0  0  0  0  0  0  0  0  0  0  0  0
  151.6852  143.8240  158.1895 C   0  0  0  0  0  0  0  0  0  0  0  0
  150.9352  142.4838  158.1943 C   0  0  0  0  0  0  0  0  0  0  0  0
  150.1979  142.2946  156.9508 N   0  0  0  0  0  0  0  0  0  0  0  0
  150.2555  141.2010  156.1751 C   0  0  0  0  0  0  0  0  0  0  0  0
  150.8834  140.1853  156.4731 O   0  0  0  0  0  0  0  0  0  0  0  0
  149.5062  141.2728  154.8448 C   0  0  0  0  0  0  0  0  0  0  0  0
  148.5881  140.1551  154.7113 N   0  0  0  0  0  0  0  0  0  0  0  0
  148.6725  139.0755  153.8561 C   0  0  0  0  0  0  0  0  0  0  0  0
  147.5749  138.2948  154.0792 C   0  0  0  0  0  0  0  0  0  0  0  0
  147.2513  137.0915  153.4244 N   0  0  0  0  0  0  0  0  0  0  0  0
  146.8692  138.9860  155.1039 C   0  0  0  0  0  0  0  0  0  0  0  0
  147.4779  140.0993  155.4803 N   0  0  0  0  0  0  0  0  0  0  0  0
  151.4451  144.8074  161.3282 H   0  0  0  0  0  0  0  0  0  0  0  0
  150.2769  143.8421  160.4241 H   0  0  0  0  0  0  0  0  0  0  0  0
  150.6244  145.5112  159.9352 H   0  0  0  0  0  0  0  0  0  0  0  0
  151.0250  144.6141  157.8287 H   0  0  0  0  0  0  0  0  0  0  0  0
  152.5367  143.7751  157.5083 H   0  0  0  0  0  0  0  0  0  0  0  0
  151.6219  141.6569  158.3822 H   0  0  0  0  0  0  0  0  0  0  0  0
  150.2125  142.4759  159.0106 H   0  0  0  0  0  0  0  0  0  0  0  0
  149.6543  143.0788  156.6200 H   0  0  0  0  0  0  0  0  0  0  0  0
  148.9373  142.2015  154.7846 H   0  0  0  0  0  0  0  0  0  0  0  0
  150.2137  141.2722  154.0138 H   0  0  0  0  0  0  0  0  0  0  0  0
  149.4956  138.9599  153.1658 H   0  0  0  0  0  0  0  0  0  0  0  0
  147.8418  136.7007  152.7039 H   0  0  0  0  0  0  0  0  0  0  0  0
  146.4156  136.5699  153.6470 H   0  0  0  0  0  0  0  0  0  0  0  0
  145.9394  138.7149  155.5819 H   0  0  0  0  0  0  0  0  0  0  0  0
  1  2  1  0  0  0  0
  1 15  1  0  0  0  0
  1 16  1  0  0  0  0
  1 17  1  0  0  0  0
  2  3  1  0  0  0  0
  3  4  1  0  0  0  0
  3 18  1  0  0  0  0
  3 19  1  0  0  0  0
  4  5  1  0  0  0  0
  4 20  1  0  0  0  0
  4 21  1  0  0  0  0
  5  6  1  0  0  0  0
  5 22  1  0  0  0  0
  6  7  2  0  0  0  0
  6  8  1  0  0  0  0
  8  9  1  0  0  0  0
  8 23  1  0  0  0  0
  8 24  1  0  0  0  0
  9 14  1  0  0  0  0
  9 10  1  0  0  0  0
 10 11  2  0  0  0  0
 10 25  1  0  0  0  0
 11 12  1  0  0  0  0
 11 13  1  0  0  0  0
 12 26  1  0  0  0  0
 12 27  1  0  0  0  0
 13 14  2  0  0  0  0
 13 28  1  0  0  0  0
M  END
> <s_m_source_file>
AV-unprocessed.smi

> <i_m_source_file_index>
988

> <i_lp_mmshare_version>
43012

> <i_f3d_flags>
0

> <s_epik_input>
W0NIM11PW0NIMl1bQ0gyXVtOSF1DKD1PKVtDSDJdbjFbY0hdYyhbTkgyXSlbY0hdbjE=

> <s_epik_cmdline>
J2VwaWtfcHl0aG9uJywgJy1waCcsICc3LjAnLCAnLXRuJywgJzgnLCAnLW1hJywgJzIwMCcsICctbWV0YWxfYmluZGluZycsICctaW1hZScsICc8aW5maWxlLm1hZT4nLCAnLW9tYWUnLCAnPG91dGZpbGUubWFlPic=

> <r_lp_tautomer_probability>
1

> <r_epik_Ionization_Penalty>
0.00010261

> <r_epik_Ionization_Penalty_Charging>
0

> <r_epik_Ionization_Penalty_Neutral>
0.00010261

> <r_epik_State_Penalty>
-0

> <r_epik_Charging_Adjusted_Penalty>
0

> <i_epik_Tot_Q>
0

> <i_epik_Tot_abs_Q>
0

> <r_epik_Metal_State_Penalty>
-0

> <b_epik_Metal_Only>
0

> <s_lp_Force_Field>
OPLS_2005

> <r_lp_Energy>
5.59493

> <b_lp_Chiralities_Consistent>
1

> <s_lp_Variant>
AV-unprocessed.smi:988-1

> <Gold.Version>
5.8.1

> <Gold.Id.Protein>
6NUR|6NUR_protein|mol2

> <Gold.PLP.Fitness>
34.5925

> <Gold.PLP.PLP>
-26.1375

> <Gold.PLP.part.hbond>
-2.0000

> <Gold.PLP.part.metal>
0.0000

> <Gold.PLP.part.buried>
-3.7303

> <Gold.PLP.part.nonpolar>
-19.6972

> <Gold.PLP.part.repulsive>
0.0903

> <Gold.PLP.ligand.clash>
0.0000

> <Gold.PLP.ligand.torsion>
0.2786

> <Gold.PLP.Chemscore.Hbond>
2.0000

> <Gold.PLP.Chemscore.CHOScore>
1.0000

> <Gold.PLP.Chemscore.Metal>
0.0000

> <Gold.Chemscore.Hbonds>
donor molecule, donor type, donor heavy atom, donor atom, acceptor molecule, acceptor atom, score
      L1  H     5    22       P1  8028  0.96
      L1  H    12    26       P1  7948  0.84
      L1  C    10    25       P1  7957  0.88

> <Gold.PLP.Chemscore.Internal.Correction>
0.0122

> <Gold.Rescore>
     Score         DG    S(hbond)    S(metal)    S(lipo)     H(rot)  DE(clash)    DE(int)     intcor
     12.05     -12.40       1.99        0.00      52.82       2.31       0.06       0.30       ----

> <Gold.Chemscore.Fitness>
12.0456

> <Gold.Chemscore.DG>
-12.3971

> <Gold.Chemscore.ZeroCoef>
-5.4800

> <Gold.Chemscore.Hbond>
1.9936

> <Gold.Chemscore.Metal>
0.0000

> <Gold.Chemscore.Lipo>
52.8176

> <Gold.Chemscore.Internal_Hbond>
0.0000

> <Gold.Chemscore.DEClash>
0.0553

> <Gold.Chemscore.DEInternal>
0.2961

> <Gold.Chemscore.Rot>
2.3129

> <Gold.Chemscore.Internal.Correction>
   9.000000E+99

> <Gold.Chemscore.Hbonds>
donor molecule, donor type, donor heavy atom, donor atom, acceptor molecule, acceptor atom, score
      L1  H     5    22       P1  8028  0.90
      L1  H    12    26       P1  7948  0.82

> <Gold.Chemscore.Hbond.Weighted>
-6.6585

> <Gold.Chemscore.Metal.Weighted>
-0.0000

> <Gold.Chemscore.Lipo.Weighted>
-6.1797

> <Gold.Chemscore.Internal_Hbond.Weighted>
0.0000

> <Gold.Chemscore.DEClash.Weighted>
0.0553

> <Gold.Chemscore.DEInternal.Weighted>
0.2961

> <Gold.Chemscore.Rot.Weighted>
5.9211

> <Gold.Chemscore.Internal.Correction.Weighted>
   9.000000E+99

> <Gold.Protein.RotatedTorsions>
[ 6907 6896 6895 6894 ] final   19.85 input  -60.11 | X-H torsion
[ 7974 7965 7964 7962 ] final  -63.47 input  175.53 | X-H torsion
[ 8008 7997 7996 7995 ] final -150.51 input   59.86 | X-H torsion
[ 10167 10162 10161 10158 ] final  152.90 input  -65.29 | X-H torsion
[ 10718 10713 10712 10709 ] final  169.17 input   66.30 | X-H torsion
[ 10763 10752 10751 10750 ] final  -29.29 input  -60.55 | X-H torsion
[ 11005 11000 10999 10996 ] final   16.53 input  -57.11 | X-H torsion

> <Gold.Protein.ActiveResidues>
 VAL166  LYS551  ARG553  GLY616  TRP617  ASP618  TYR619  PRO620  LYS621  CYS622 
 ASP623  PHE694  ASN695  SER759  ASP760  ASP761  ALA762  ILE779  LEU786  VAL792 
 PHE793  MET794  SER795  GLU796  ALA797  LYS798  CYS799  TRP800  GLU811  SER814 

> <Gold.Protein.RotatedAtoms>
  151.8873  135.0430  160.0494 H   0  0  0  0  0  0  0  0  0  0  0  0  # atno 6907 bound_to 6896
  152.2464  133.5174  159.5308 H   0  0  0  0  0  0  0  0  0  0  0  0  # atno 6908 bound_to 6896
  150.7069  134.0936  159.3983 H   0  0  0  0  0  0  0  0  0  0  0  0  # atno 6909 bound_to 6896
  145.7786  140.8774  143.0342 H   0  0  0  0  0  0  0  0  0  0  0  0  # atno 7974 bound_to 7965
  155.6247  140.0685  157.2667 H   0  0  0  0  0  0  0  0  0  0  0  0  # atno 8008 bound_to 7997
  154.4220  140.1778  156.1458 H   0  0  0  0  0  0  0  0  0  0  0  0  # atno 8009 bound_to 7997
  155.9981  140.3339  155.6822 H   0  0  0  0  0  0  0  0  0  0  0  0  # atno 8010 bound_to 7997
  139.4830  144.5319  151.7709 H   0  0  0  0  0  0  0  0  0  0  0  0  # atno 10167 bound_to 10162
  157.0266  131.0247  151.2758 H   0  0  0  0  0  0  0  0  0  0  0  0  # atno 10718 bound_to 10713
  153.7622  135.6918  153.4923 H   0  0  0  0  0  0  0  0  0  0  0  0  # atno 10763 bound_to 10752
  153.1931  135.4464  155.0173 H   0  0  0  0  0  0  0  0  0  0  0  0  # atno 10764 bound_to 10752
  154.8149  135.3394  154.7136 H   0  0  0  0  0  0  0  0  0  0  0  0  # atno 10765 bound_to 10752
  140.4461  134.1272  155.7696 H   0  0  0  0  0  0  0  0  0  0  0  0  # atno 11005 bound_to 11000
  144.6800  139.9957  143.7484 LP  0  0  0  0  0  0  0  0  0  0  0  0  # atno 17320 bound_to 7965
  146.0097  139.3159  143.0878 LP  0  0  0  0  0  0  0  0  0  0  0  0  # atno 17321 bound_to 7965
  140.4846  144.1400  150.5938 LP  0  0  0  0  0  0  0  0  0  0  0  0  # atno 17342 bound_to 10162
  140.4240  143.2598  151.9680 LP  0  0  0  0  0  0  0  0  0  0  0  0  # atno 17343 bound_to 10162
  157.5210  130.7998  149.7809 LP  0  0  0  0  0  0  0  0  0  0  0  0  # atno 17370 bound_to 10713
  156.0084  130.3844  150.2350 LP  0  0  0  0  0  0  0  0  0  0  0  0  # atno 17371 bound_to 10713
  141.1684  133.8657  157.1644 LP  0  0  0  0  0  0  0  0  0  0  0  0  # atno 17394 bound_to 11000
  140.0037  135.0017  157.0247 LP  0  0  0  0  0  0  0  0  0  0  0  0  # atno 17395 bound_to 11000

$$$$
