AV-unprocessed.smi:1830|AV-procd|sdf|7448|dock9
  -GOLD-   22720 9133D 1   1.00000     0.00000
 Structure written by MMmdl.
 54 57  0  0  0  0  0  0  0  0  3 V2000
  146.7556  137.3697  154.2906 O   0  0  0  0  0  0  0  0  0  0  0  0
  145.9882  138.2283  153.8574 C   0  0  0  0  0  0  0  0  0  0  0  0
  144.7279  137.9690  153.4877 N   0  0  0  0  0  0  0  0  0  0  0  0
  144.1120  136.6482  153.5448 C   0  0  0  0  0  0  0  0  0  0  0  0
  144.1512  135.9342  152.1828 C   0  0  2  0  0  0  0  0  0  0  0  0
  143.7746  134.4428  152.2560 C   0  0  0  0  0  0  0  0  0  0  0  0
  143.8401  133.8029  150.9178 N   0  3  2  0  0  0  0  0  0  0  0  0
  143.7790  132.3269  150.9984 C   0  0  0  0  0  0  0  0  0  0  0  0
  145.2333  131.8228  150.9479 C   0  0  0  0  0  0  0  0  0  0  0  0
  146.0962  133.0657  150.6995 C   0  0  0  0  0  0  0  0  0  0  0  0
  145.0944  134.1036  150.1929 C   0  0  2  0  0  0  0  0  0  0  0  0
  145.5310  135.5785  150.3088 C   0  0  0  0  0  0  0  0  0  0  0  0
  145.4671  136.0334  151.6533 O   0  0  0  0  0  0  0  0  0  0  0  0
  146.2825  139.5305  153.7065 N   0  0  0  0  0  0  0  0  0  0  0  0
  147.4975  140.2067  154.0175 C   0  0  0  0  0  0  0  0  0  0  0  0
  148.7742  139.6047  153.8713 C   0  0  0  0  0  0  0  0  0  0  0  0
  149.9342  140.3403  154.1857 C   0  0  0  0  0  0  0  0  0  0  0  0
  149.8038  141.6682  154.6314 C   0  0  0  0  0  0  0  0  0  0  0  0
  148.5767  142.2182  154.7433 N   0  3  0  0  0  0  0  0  0  0  0  0
  147.4303  141.5544  154.4546 C   0  0  0  0  0  0  0  0  0  0  0  0
  146.2025  142.2240  154.5965 N   0  0  0  0  0  0  0  0  0  0  0  0
  145.9055  142.7201  155.9300 C   0  0  0  0  0  0  0  0  0  0  0  0
  144.7530  143.7102  155.7462 C   0  0  0  0  0  0  0  0  0  0  0  0
  144.8363  144.1433  154.2772 C   0  0  0  0  0  0  0  0  0  0  0  0
  146.0086  143.3481  153.6958 C   0  0  0  0  0  0  0  0  0  0  0  0
  144.1539  138.7303  153.1556 H   0  0  0  0  0  0  0  0  0  0  0  0
  144.6298  136.0412  154.2892 H   0  0  0  0  0  0  0  0  0  0  0  0
  143.0789  136.7485  153.8807 H   0  0  0  0  0  0  0  0  0  0  0  0
  143.4570  136.4516  151.5180 H   0  0  0  0  0  0  0  0  0  0  0  0
  144.4492  133.9226  152.9377 H   0  0  0  0  0  0  0  0  0  0  0  0
  142.7679  134.3253  152.6588 H   0  0  0  0  0  0  0  0  0  0  0  0
  143.2441  131.9766  151.8826 H   0  0  0  0  0  0  0  0  0  0  0  0
  143.2355  131.9603  150.1269 H   0  0  0  0  0  0  0  0  0  0  0  0
  145.5208  131.3302  151.8774 H   0  0  0  0  0  0  0  0  0  0  0  0
  145.3536  131.0983  150.1414 H   0  0  0  0  0  0  0  0  0  0  0  0
  146.5447  133.3987  151.6366 H   0  0  0  0  0  0  0  0  0  0  0  0
  146.9044  132.8822  149.9907 H   0  0  0  0  0  0  0  0  0  0  0  0
  144.9120  133.8887  149.1384 H   0  0  0  0  0  0  0  0  0  0  0  0
  146.5480  135.7020  149.9361 H   0  0  0  0  0  0  0  0  0  0  0  0
  144.8948  136.2092  149.6858 H   0  0  0  0  0  0  0  0  0  0  0  0
  145.5202  140.1250  153.4152 H   0  0  0  0  0  0  0  0  0  0  0  0
  148.8899  138.5948  153.5100 H   0  0  0  0  0  0  0  0  0  0  0  0
  150.9114  139.8917  154.0811 H   0  0  0  0  0  0  0  0  0  0  0  0
  150.6369  142.3047  154.8925 H   0  0  0  0  0  0  0  0  0  0  0  0
  145.6311  141.9051  156.6005 H   0  0  0  0  0  0  0  0  0  0  0  0
  146.7719  143.2291  156.3546 H   0  0  0  0  0  0  0  0  0  0  0  0
  143.7977  143.2180  155.9336 H   0  0  0  0  0  0  0  0  0  0  0  0
  144.8325  144.5528  156.4337 H   0  0  0  0  0  0  0  0  0  0  0  0
  143.9096  143.8895  153.7613 H   0  0  0  0  0  0  0  0  0  0  0  0
  144.9919  145.2172  154.1707 H   0  0  0  0  0  0  0  0  0  0  0  0
  146.9037  143.9708  153.6627 H   0  0  0  0  0  0  0  0  0  0  0  0
  145.7984  143.0064  152.6818 H   0  0  0  0  0  0  0  0  0  0  0  0
  143.0581  134.1463  150.3780 H   0  0  0  0  0  0  0  0  0  0  0  0
  148.5094  143.1853  155.0610 H   0  0  0  0  0  0  0  0  0  0  0  0
  1  2  2  0  0  0  0
  2  3  1  0  0  0  0
  2 14  1  0  0  0  0
  3  4  1  0  0  0  0
  3 26  1  0  0  0  0
  4  5  1  0  0  0  0
  4 27  1  0  0  0  0
  4 28  1  0  0  0  0
  5 13  1  0  0  0  0
  5  6  1  0  0  0  0
  5 29  1  0  0  0  0
  6  7  1  0  0  0  0
  6 30  1  0  0  0  0
  6 31  1  0  0  0  0
  7 11  1  0  0  0  0
  7  8  1  0  0  0  0
  7 53  1  0  0  0  0
  8  9  1  0  0  0  0
  8 32  1  0  0  0  0
  8 33  1  0  0  0  0
  9 10  1  0  0  0  0
  9 34  1  0  0  0  0
  9 35  1  0  0  0  0
 10 11  1  0  0  0  0
 10 36  1  0  0  0  0
 10 37  1  0  0  0  0
 11 12  1  0  0  0  0
 11 38  1  0  0  0  0
 12 13  1  0  0  0  0
 12 39  1  0  0  0  0
 12 40  1  0  0  0  0
 14 15  1  0  0  0  0
 14 41  1  0  0  0  0
 15 20  1  0  0  0  0
 15 16  2  0  0  0  0
 16 17  1  0  0  0  0
 16 42  1  0  0  0  0
 17 18  2  0  0  0  0
 17 43  1  0  0  0  0
 18 19  1  0  0  0  0
 18 44  1  0  0  0  0
 19 20  2  0  0  0  0
 19 54  1  0  0  0  0
 20 21  1  0  0  0  0
 21 25  1  0  0  0  0
 21 22  1  0  0  0  0
 22 23  1  0  0  0  0
 22 45  1  0  0  0  0
 22 46  1  0  0  0  0
 23 24  1  0  0  0  0
 23 47  1  0  0  0  0
 23 48  1  0  0  0  0
 24 25  1  0  0  0  0
 24 49  1  0  0  0  0
 24 50  1  0  0  0  0
 25 51  1  0  0  0  0
 25 52  1  0  0  0  0
M  CHG  1   7   1
M  CHG  1  19   1
M  END
> <s_m_source_file>
AV-unprocessed.smi

> <i_m_source_file_index>
1830

> <i_lp_mmshare_version>
43012

> <i_f3d_flags>
0

> <s_epik_input>
W0NIMl0xW0NIMl1bQ0gyXVtDQEhdKE4xMilbQ0gyXU9bQ0BASF0oW0NIMl0yKVtDSDJdW05IXUMoPU8pW05IXWMzW2NIXVtjSF1bY0hdbmMzTjRbQ0gyXVtDSDJdW0NIMl1bQ0gyXTQ=

> <s_epik_cmdline>
J2VwaWtfcHl0aG9uJywgJy1waCcsICc3LjAnLCAnLXRuJywgJzgnLCAnLW1hJywgJzIwMCcsICctbWV0YWxfYmluZGluZycsICctaW1hZScsICc8aW5maWxlLm1hZT4nLCAnLW9tYWUnLCAnPG91dGZpbGUubWFlPic=

> <r_lp_tautomer_probability>
0.999994

> <r_epik_Ionization_Penalty>
1.29113

> <r_epik_Ionization_Penalty_Charging>
1.29111

> <r_epik_Ionization_Penalty_Neutral>
1.88144e-05

> <r_epik_State_Penalty>
1.32676

> <r_epik_Charging_Adjusted_Penalty>
2.61787

> <i_epik_Tot_Q>
2

> <i_epik_Tot_abs_Q>
2

> <r_epik_Metal_State_Penalty>
1.40425

> <b_epik_Metal_Only>
0

> <s_lp_Force_Field>
OPLS_2005

> <r_lp_Energy>
77.5794

> <b_lp_Chiralities_Consistent>
1

> <s_lp_Variant>
AV-unprocessed.smi:1830-17

> <Gold.Version>
5.8.1

> <Gold.Id.Protein>
6NUR|6NUR_protein|mol2

> <Gold.PLP.Fitness>
60.5411

> <Gold.PLP.PLP>
-43.4743

> <Gold.PLP.part.hbond>
-4.0000

> <Gold.PLP.part.metal>
0.0000

> <Gold.PLP.part.buried>
-5.7829

> <Gold.PLP.part.nonpolar>
-35.0164

> <Gold.PLP.part.repulsive>
0.6114

> <Gold.PLP.ligand.clash>
0.0000

> <Gold.PLP.ligand.torsion>
0.4826

> <Gold.PLP.Chemscore.Hbond>
6.0000

> <Gold.PLP.Chemscore.CHOScore>
0.0000

> <Gold.PLP.Chemscore.Metal>
0.0000

> <Gold.Chemscore.Hbonds>
donor molecule, donor type, donor heavy atom, donor atom, acceptor molecule, acceptor atom, score
      L1  H     3    26       P1 10175  1.00
      L1  H     7    53       P1 10186  1.04
      L1  H    14    41       P1 10175  0.84
      L1  H    19    54       P1  8028  2.00

> <Gold.PLP.Chemscore.Internal.Correction>
0.0320

> <Gold.Rescore>
     Score         DG    S(hbond)    S(metal)    S(lipo)     H(rot)  DE(clash)    DE(int)     intcor
     24.36     -26.25       3.83        0.00      99.35       1.43       0.45       1.43       ----

> <Gold.Chemscore.Fitness>
24.3646

> <Gold.Chemscore.DG>
-26.2457

> <Gold.Chemscore.ZeroCoef>
-5.4800

> <Gold.Chemscore.Hbond>
3.8312

> <Gold.Chemscore.Metal>
0.0000

> <Gold.Chemscore.Lipo>
99.3535

> <Gold.Chemscore.Internal_Hbond>
0.0000

> <Gold.Chemscore.DEClash>
0.4504

> <Gold.Chemscore.DEInternal>
1.4307

> <Gold.Chemscore.Rot>
1.4278

> <Gold.Chemscore.Internal.Correction>
   9.000000E+99

> <Gold.Chemscore.Hbonds>
donor molecule, donor type, donor heavy atom, donor atom, acceptor molecule, acceptor atom, score
      L1  H     3    26       P1 10175  0.99
      L1  H     7    53       P1 10186  0.47
      L1  H    14    41       P1 10175  0.80
      L1  H    19    54       P1  8028  1.00

> <Gold.Chemscore.Hbond.Weighted>
-12.7964

> <Gold.Chemscore.Metal.Weighted>
-0.0000

> <Gold.Chemscore.Lipo.Weighted>
-11.6244

> <Gold.Chemscore.Internal_Hbond.Weighted>
0.0000

> <Gold.Chemscore.DEClash.Weighted>
0.4504

> <Gold.Chemscore.DEInternal.Weighted>
1.4307

> <Gold.Chemscore.Rot.Weighted>
3.6551

> <Gold.Chemscore.Internal.Correction.Weighted>
   9.000000E+99

> <Gold.Protein.RotatedTorsions>
[ 6907 6896 6895 6894 ] final   62.95 input  -60.11 | X-H torsion
[ 7974 7965 7964 7962 ] final  149.51 input  175.53 | X-H torsion
[ 8008 7997 7996 7995 ] final  -77.01 input   59.86 | X-H torsion
[ 10167 10162 10161 10158 ] final -106.66 input  -65.29 | X-H torsion
[ 10718 10713 10712 10709 ] final  -22.09 input   66.30 | X-H torsion
[ 10763 10752 10751 10750 ] final  -39.18 input  -60.55 | X-H torsion
[ 11005 11000 10999 10996 ] final  -52.43 input  -57.11 | X-H torsion

> <Gold.Protein.ActiveResidues>
 VAL166  LYS551  ARG553  GLY616  TRP617  ASP618  TYR619  PRO620  LYS621  CYS622 
 ASP623  PHE694  ASN695  SER759  ASP760  ASP761  ALA762  ILE779  LEU786  VAL792 
 PHE793  MET794  SER795  GLU796  ALA797  LYS798  CYS799  TRP800  GLU811  SER814 

> <Gold.Protein.RotatedAtoms>
  152.4214  134.5949  159.9983 H   0  0  0  0  0  0  0  0  0  0  0  0  # atno 6907 bound_to 6896
  151.6097  133.3342  159.3073 H   0  0  0  0  0  0  0  0  0  0  0  0  # atno 6908 bound_to 6896
  150.8102  134.7290  159.6746 H   0  0  0  0  0  0  0  0  0  0  0  0  # atno 6909 bound_to 6896
  144.8432  139.6290  143.6007 H   0  0  0  0  0  0  0  0  0  0  0  0  # atno 7974 bound_to 7965
  154.5557  140.0717  156.8739 H   0  0  0  0  0  0  0  0  0  0  0  0  # atno 8008 bound_to 7997
  155.2908  140.3378  155.4234 H   0  0  0  0  0  0  0  0  0  0  0  0  # atno 8009 bound_to 7997
  156.2000  140.1718  156.7906 H   0  0  0  0  0  0  0  0  0  0  0  0  # atno 8010 bound_to 7997
  140.1853  143.3934  152.1249 H   0  0  0  0  0  0  0  0  0  0  0  0  # atno 10167 bound_to 10162
  156.5093  130.4606  149.6657 H   0  0  0  0  0  0  0  0  0  0  0  0  # atno 10718 bound_to 10713
  153.9251  135.6778  153.4747 H   0  0  0  0  0  0  0  0  0  0  0  0  # atno 10763 bound_to 10752
  153.1008  135.4829  154.8861 H   0  0  0  0  0  0  0  0  0  0  0  0  # atno 10764 bound_to 10752
  154.7457  135.3172  154.8605 H   0  0  0  0  0  0  0  0  0  0  0  0  # atno 10765 bound_to 10752
  141.0924  133.6630  156.4023 H   0  0  0  0  0  0  0  0  0  0  0  0  # atno 11005 bound_to 11000
  146.2721  139.6662  142.9288 LP  0  0  0  0  0  0  0  0  0  0  0  0  # atno 17320 bound_to 7965
  145.4650  141.0434  143.2730 LP  0  0  0  0  0  0  0  0  0  0  0  0  # atno 17321 bound_to 7965
  139.5278  144.7124  151.5164 LP  0  0  0  0  0  0  0  0  0  0  0  0  # atno 17342 bound_to 10162
  140.6492  143.8732  150.6768 LP  0  0  0  0  0  0  0  0  0  0  0  0  # atno 17343 bound_to 10162
  156.3256  130.7304  151.2224 LP  0  0  0  0  0  0  0  0  0  0  0  0  # atno 17370 bound_to 10713
  157.7452  131.0444  150.4790 LP  0  0  0  0  0  0  0  0  0  0  0  0  # atno 17371 bound_to 10713
  140.5221  134.6294  157.5322 LP  0  0  0  0  0  0  0  0  0  0  0  0  # atno 17394 bound_to 11000
  139.9752  134.7227  155.9963 LP  0  0  0  0  0  0  0  0  0  0  0  0  # atno 17395 bound_to 11000

$$$$
