AV-unprocessed.smi:2327|AV-procd|sdf|9299|dock5
  -GOLD-   2272012523D 1   1.00000     0.00000
 Structure written by MMmdl.
 40 41  0  0  0  0  0  0  0  0  1 V2000
  145.4143  132.0626  149.2796 C   0  0  0  0  0  0  0  0  0  0  0  0
  145.7011  132.7887  150.5558 C   0  0  0  0  0  0  0  0  0  0  0  0
  146.5769  132.4126  151.5433 C   0  0  0  0  0  0  0  0  0  0  0  0
  146.5959  133.5507  152.8621 S   0  0  0  0  0  0  0  0  0  0  0  0
  145.3943  134.5138  152.0089 C   0  0  0  0  0  0  0  0  0  0  0  0
  144.8064  135.7741  152.5666 C   0  0  1  0  0  0  0  0  0  0  0  0
  143.2720  135.7275  152.6024 C   0  0  0  0  0  0  0  0  0  0  0  0
  145.4261  136.1859  153.9182 C   0  0  0  0  0  0  0  0  0  0  0  0
  146.8378  136.5388  153.7863 N   0  0  0  0  0  0  0  0  0  0  0  0
  147.5465  137.2884  154.6482 C   0  0  0  0  0  0  0  0  0  0  0  0
  147.0651  137.8131  155.6503 O   0  0  0  0  0  0  0  0  0  0  0  0
  148.8453  137.4321  154.3299 N   0  0  0  0  0  0  0  0  0  0  0  0
  149.8792  138.1776  155.0504 C   0  0  0  0  0  0  0  0  0  0  0  0
  149.5904  139.6832  154.9505 C   0  0  0  0  0  0  0  0  0  0  0  0
  150.7366  140.5027  155.5658 C   0  0  0  0  0  0  0  0  0  0  0  0
  151.9681  140.1695  154.9347 O   0  0  0  0  0  0  0  0  0  0  0  0
  152.3310  138.8050  155.1144 C   0  0  0  0  0  0  0  0  0  0  0  0
  151.2761  137.8912  154.4704 C   0  0  0  0  0  0  0  0  0  0  0  0
  145.0374  133.9862  150.8339 N   0  0  0  0  0  0  0  0  0  0  0  0
  146.0144  131.1567  149.1916 H   0  0  0  0  0  0  0  0  0  0  0  0
  145.6329  132.6879  148.4138 H   0  0  0  0  0  0  0  0  0  0  0  0
  144.3655  131.7705  149.2210 H   0  0  0  0  0  0  0  0  0  0  0  0
  147.2083  131.5372  151.5765 H   0  0  0  0  0  0  0  0  0  0  0  0
  145.0654  136.5637  151.8597 H   0  0  0  0  0  0  0  0  0  0  0  0
  142.8618  135.5279  151.6119 H   0  0  0  0  0  0  0  0  0  0  0  0
  142.8585  136.6757  152.9465 H   0  0  0  0  0  0  0  0  0  0  0  0
  142.9149  134.9468  153.2749 H   0  0  0  0  0  0  0  0  0  0  0  0
  144.8984  137.0515  154.3188 H   0  0  0  0  0  0  0  0  0  0  0  0
  145.2928  135.3856  154.6484 H   0  0  0  0  0  0  0  0  0  0  0  0
  147.3244  136.1596  152.9872 H   0  0  0  0  0  0  0  0  0  0  0  0
  149.1408  137.0063  153.4630 H   0  0  0  0  0  0  0  0  0  0  0  0
  149.8619  137.9029  156.1070 H   0  0  0  0  0  0  0  0  0  0  0  0
  149.4694  139.9699  153.9047 H   0  0  0  0  0  0  0  0  0  0  0  0
  148.6511  139.9221  155.4504 H   0  0  0  0  0  0  0  0  0  0  0  0
  150.5496  141.5679  155.4294 H   0  0  0  0  0  0  0  0  0  0  0  0
  150.8074  140.3273  156.6404 H   0  0  0  0  0  0  0  0  0  0  0  0
  153.3039  138.6359  154.6529 H   0  0  0  0  0  0  0  0  0  0  0  0
  152.4402  138.5836  156.1772 H   0  0  0  0  0  0  0  0  0  0  0  0
  151.5506  136.8471  154.6227 H   0  0  0  0  0  0  0  0  0  0  0  0
  151.2701  138.0571  153.3922 H   0  0  0  0  0  0  0  0  0  0  0  0
  1  2  1  0  0  0  0
  1 20  1  0  0  0  0
  1 21  1  0  0  0  0
  1 22  1  0  0  0  0
  2 19  1  0  0  0  0
  2  3  2  0  0  0  0
  3  4  1  0  0  0  0
  3 23  1  0  0  0  0
  4  5  1  0  0  0  0
  5  6  1  0  0  0  0
  5 19  2  0  0  0  0
  6  7  1  0  0  0  0
  6  8  1  0  0  0  0
  6 24  1  0  0  0  0
  7 25  1  0  0  0  0
  7 26  1  0  0  0  0
  7 27  1  0  0  0  0
  8  9  1  0  0  0  0
  8 28  1  0  0  0  0
  8 29  1  0  0  0  0
  9 10  1  0  0  0  0
  9 30  1  0  0  0  0
 10 11  2  0  0  0  0
 10 12  1  0  0  0  0
 12 13  1  0  0  0  0
 12 31  1  0  0  0  0
 13 18  1  0  0  0  0
 13 14  1  0  0  0  0
 13 32  1  0  0  0  0
 14 15  1  0  0  0  0
 14 33  1  0  0  0  0
 14 34  1  0  0  0  0
 15 16  1  0  0  0  0
 15 35  1  0  0  0  0
 15 36  1  0  0  0  0
 16 17  1  0  0  0  0
 17 18  1  0  0  0  0
 17 37  1  0  0  0  0
 17 38  1  0  0  0  0
 18 39  1  0  0  0  0
 18 40  1  0  0  0  0
M  END
> <s_m_source_file>
AV-unprocessed.smi

> <i_m_source_file_index>
2327

> <i_lp_mmshare_version>
43012

> <i_f3d_flags>
0

> <s_epik_input>
W0NIM11jMVtjSF1zYyhuMSlbQ0BIXShbQ0gzXSlbQ0gyXVtOSF1DKD1PKVtOSF1bQ0hdMltDSDJdW0NIMl1PW0NIMl1bQ0gyXTI=

> <s_epik_cmdline>
J2VwaWtfcHl0aG9uJywgJy1waCcsICc3LjAnLCAnLXRuJywgJzgnLCAnLW1hJywgJzIwMCcsICctbWV0YWxfYmluZGluZycsICctaW1hZScsICc8aW5maWxlLm1hZT4nLCAnLW9tYWUnLCAnPG91dGZpbGUubWFlPic=

> <r_epik_Ionization_Penalty>
0.0015425

> <r_epik_Ionization_Penalty_Charging>
0

> <r_epik_Ionization_Penalty_Neutral>
0.0015425

> <r_epik_State_Penalty>
0.000998134

> <r_epik_Charging_Adjusted_Penalty>
0.000998134

> <i_epik_Tot_Q>
0

> <i_epik_Tot_abs_Q>
0

> <r_epik_Metal_State_Penalty>
-0

> <b_epik_Metal_Only>
0

> <s_lp_Force_Field>
OPLS_2005

> <r_lp_Energy>
7.91954

> <b_lp_Chiralities_Consistent>
1

> <s_lp_Variant>
AV-unprocessed.smi:2327-2

> <Gold.Version>
5.8.1

> <Gold.Id.Protein>
6NUR|6NUR_protein|mol2

> <Gold.PLP.Fitness>
41.6804

> <Gold.PLP.PLP>
-30.8520

> <Gold.PLP.part.hbond>
-2.8818

> <Gold.PLP.part.metal>
0.0000

> <Gold.PLP.part.buried>
-3.8836

> <Gold.PLP.part.nonpolar>
-24.2267

> <Gold.PLP.part.repulsive>
0.2146

> <Gold.PLP.ligand.clash>
0.0000

> <Gold.PLP.ligand.torsion>
0.3267

> <Gold.PLP.Chemscore.Hbond>
2.7920

> <Gold.PLP.Chemscore.CHOScore>
1.0000

> <Gold.PLP.Chemscore.Metal>
0.0000

> <Gold.Chemscore.Hbonds>
donor molecule, donor type, donor heavy atom, donor atom, acceptor molecule, acceptor atom, score
      L1  H     9    30       P1  7948  0.94
      L1  H    12    31       P1  7948  1.00
      P1  H  7989  7998       L1    16  0.73
      L1  C     3    23       P1 10747  1.00

> <Gold.PLP.Chemscore.Internal.Correction>
0.1058

> <Gold.Rescore>
     Score         DG    S(hbond)    S(metal)    S(lipo)     H(rot)  DE(clash)    DE(int)     intcor
     18.49     -18.91       2.46        0.00      78.04       1.53       0.08       0.34       ----

> <Gold.Chemscore.Fitness>
18.4914

> <Gold.Chemscore.DG>
-18.9107

> <Gold.Chemscore.ZeroCoef>
-5.4800

> <Gold.Chemscore.Hbond>
2.4620

> <Gold.Chemscore.Metal>
0.0000

> <Gold.Chemscore.Lipo>
78.0418

> <Gold.Chemscore.Internal_Hbond>
0.0000

> <Gold.Chemscore.DEClash>
0.0815

> <Gold.Chemscore.DEInternal>
0.3378

> <Gold.Chemscore.Rot>
1.5325

> <Gold.Chemscore.Internal.Correction>
   9.000000E+99

> <Gold.Chemscore.Hbonds>
donor molecule, donor type, donor heavy atom, donor atom, acceptor molecule, acceptor atom, score
      L1  H     9    30       P1  7948  0.89
      L1  H    12    31       P1  7948  0.99
      P1  H  7989  7998       L1    16  0.14

> <Gold.Chemscore.Hbond.Weighted>
-8.2232

> <Gold.Chemscore.Metal.Weighted>
-0.0000

> <Gold.Chemscore.Lipo.Weighted>
-9.1309

> <Gold.Chemscore.Internal_Hbond.Weighted>
0.0000

> <Gold.Chemscore.DEClash.Weighted>
0.0815

> <Gold.Chemscore.DEInternal.Weighted>
0.3378

> <Gold.Chemscore.Rot.Weighted>
3.9233

> <Gold.Chemscore.Internal.Correction.Weighted>
   9.000000E+99

> <Gold.Protein.RotatedTorsions>
[ 6907 6896 6895 6894 ] final   23.93 input  -60.11 | X-H torsion
[ 7974 7965 7964 7962 ] final  -51.12 input  175.53 | X-H torsion
[ 8008 7997 7996 7995 ] final  -19.60 input   59.86 | X-H torsion
[ 10167 10162 10161 10158 ] final  139.91 input  -65.29 | X-H torsion
[ 10718 10713 10712 10709 ] final  -41.57 input   66.30 | X-H torsion
[ 10763 10752 10751 10750 ] final  -79.03 input  -60.55 | X-H torsion
[ 11005 11000 10999 10996 ] final   -7.23 input  -57.11 | X-H torsion

> <Gold.Protein.ActiveResidues>
 VAL166  LYS551  ARG553  GLY616  TRP617  ASP618  TYR619  PRO620  LYS621  CYS622 
 ASP623  PHE694  ASN695  SER759  ASP760  ASP761  ALA762  ILE779  LEU786  VAL792 
 PHE793  MET794  SER795  GLU796  ALA797  LYS798  CYS799  TRP800  GLU811  SER814 

> <Gold.Protein.RotatedAtoms>
  151.9498  135.0174  160.0540 H   0  0  0  0  0  0  0  0  0  0  0  0  # atno 6907 bound_to 6896
  152.1963  133.4804  159.5043 H   0  0  0  0  0  0  0  0  0  0  0  0  # atno 6908 bound_to 6896
  150.6945  134.1565  159.4203 H   0  0  0  0  0  0  0  0  0  0  0  0  # atno 6909 bound_to 6896
  145.9224  140.7822  142.9641 H   0  0  0  0  0  0  0  0  0  0  0  0  # atno 7974 bound_to 7965
  154.4825  140.2084  155.9730 H   0  0  0  0  0  0  0  0  0  0  0  0  # atno 8008 bound_to 7997
  156.1187  140.3217  155.8146 H   0  0  0  0  0  0  0  0  0  0  0  0  # atno 8009 bound_to 7997
  155.4507  140.0517  157.2992 H   0  0  0  0  0  0  0  0  0  0  0  0  # atno 8010 bound_to 7997
  139.5064  144.6266  151.5922 H   0  0  0  0  0  0  0  0  0  0  0  0  # atno 10167 bound_to 10162
  156.2689  130.4204  149.8459 H   0  0  0  0  0  0  0  0  0  0  0  0  # atno 10718 bound_to 10713
  154.5334  135.5709  153.6778 H   0  0  0  0  0  0  0  0  0  0  0  0  # atno 10763 bound_to 10752
  152.9945  135.6210  154.2598 H   0  0  0  0  0  0  0  0  0  0  0  0  # atno 10764 bound_to 10752
  154.2525  135.2858  155.2790 H   0  0  0  0  0  0  0  0  0  0  0  0  # atno 10765 bound_to 10752
  140.7106  133.8912  155.8748 H   0  0  0  0  0  0  0  0  0  0  0  0  # atno 11005 bound_to 11000
  144.6754  140.1996  143.7388 LP  0  0  0  0  0  0  0  0  0  0  0  0  # atno 17320 bound_to 7965
  145.8533  139.2186  143.1759 LP  0  0  0  0  0  0  0  0  0  0  0  0  # atno 17321 bound_to 7965
  140.5985  143.9652  150.6370 LP  0  0  0  0  0  0  0  0  0  0  0  0  # atno 17342 bound_to 10162
  140.2856  143.3359  152.1110 LP  0  0  0  0  0  0  0  0  0  0  0  0  # atno 17343 bound_to 10162
  156.5948  130.8521  151.3417 LP  0  0  0  0  0  0  0  0  0  0  0  0  # atno 17370 bound_to 10713
  157.7277  130.9646  150.1710 LP  0  0  0  0  0  0  0  0  0  0  0  0  # atno 17371 bound_to 10713
  141.0088  134.1049  157.4243 LP  0  0  0  0  0  0  0  0  0  0  0  0  # atno 17394 bound_to 11000
  139.8873  135.0088  156.6550 LP  0  0  0  0  0  0  0  0  0  0  0  0  # atno 17395 bound_to 11000

$$$$
