AV-unprocessed.smi:1774|AV-procd|sdf|7170|dock4
  -GOLD-   22720 8413D 1   1.00000     0.00000
 Structure written by MMmdl.
 46 47  0  0  0  0  0  0  0  0  2 V2000
  151.5549  137.3361  154.7323 C   0  0  0  0  0  0  0  0  0  0  0  0
  150.9913  138.6657  155.2073 C   0  0  0  0  0  0  0  0  0  0  0  0
  151.7986  139.5175  155.9911 C   0  0  0  0  0  0  0  0  0  0  0  0
  151.2761  140.7466  156.4285 C   0  0  0  0  0  0  0  0  0  0  0  0
  149.9597  141.0739  156.0614 C   0  0  0  0  0  0  0  0  0  0  0  0
  149.1809  140.2658  155.3134 N   0  0  0  0  0  0  0  0  0  0  0  0
  149.6706  139.0763  154.8818 C   0  0  0  0  0  0  0  0  0  0  0  0
  148.9045  138.1721  154.0932 N   0  0  0  0  0  0  0  0  0  0  0  0
  147.6031  137.8549  154.2125 C   0  0  0  0  0  0  0  0  0  0  0  0
  146.8232  138.3323  155.0375 O   0  0  0  0  0  0  0  0  0  0  0  0
  147.2399  136.9371  153.3047 N   0  0  0  0  0  0  0  0  0  0  0  0
  145.8917  136.4001  153.1597 C   0  0  0  0  0  0  0  0  0  0  0  0
  145.8836  134.8597  153.2185 C   0  0  0  0  0  0  0  0  0  0  0  0
  146.6054  134.2433  152.0739 N   0  3  1  0  0  0  0  0  0  0  0  0
  147.0476  132.8515  152.3341 C   0  0  0  0  0  0  0  0  0  0  0  0
  145.8739  131.8579  152.2133 C   0  0  2  0  0  0  0  0  0  0  0  0
  146.3289  130.4057  152.3922 C   0  0  0  0  0  0  0  0  0  0  0  0
  145.2961  131.9831  150.9184 O   0  0  0  0  0  0  0  0  0  0  0  0
  144.7607  133.2795  150.6743 C   0  0  2  0  0  0  0  0  0  0  0  0
  144.1074  133.2701  149.2881 C   0  0  0  0  0  0  0  0  0  0  0  0
  145.8946  134.3229  150.7716 C   0  0  0  0  0  0  0  0  0  0  0  0
  152.5859  137.2012  155.0608 H   0  0  0  0  0  0  0  0  0  0  0  0
  151.5409  137.2825  153.6432 H   0  0  0  0  0  0  0  0  0  0  0  0
  150.9655  136.5088  155.1286 H   0  0  0  0  0  0  0  0  0  0  0  0
  152.8071  139.2354  156.2557 H   0  0  0  0  0  0  0  0  0  0  0  0
  151.8686  141.4207  157.0293 H   0  0  0  0  0  0  0  0  0  0  0  0
  149.5190  142.0082  156.3764 H   0  0  0  0  0  0  0  0  0  0  0  0
  149.4117  137.7123  153.3516 H   0  0  0  0  0  0  0  0  0  0  0  0
  147.9401  136.5974  152.6611 H   0  0  0  0  0  0  0  0  0  0  0  0
  145.2561  136.8358  153.9308 H   0  0  0  0  0  0  0  0  0  0  0  0
  145.4932  136.7374  152.2026 H   0  0  0  0  0  0  0  0  0  0  0  0
  146.3699  134.5589  154.1477 H   0  0  0  0  0  0  0  0  0  0  0  0
  144.8651  134.4764  153.2735 H   0  0  0  0  0  0  0  0  0  0  0  0
  147.8160  132.5963  151.6026 H   0  0  0  0  0  0  0  0  0  0  0  0
  147.5230  132.7772  153.3128 H   0  0  0  0  0  0  0  0  0  0  0  0
  145.1172  132.0757  152.9689 H   0  0  0  0  0  0  0  0  0  0  0  0
  146.7719  130.2509  153.3763 H   0  0  0  0  0  0  0  0  0  0  0  0
  147.0714  130.1290  151.6431 H   0  0  0  0  0  0  0  0  0  0  0  0
  145.4872  129.7193  152.2956 H   0  0  0  0  0  0  0  0  0  0  0  0
  143.9852  133.4919  151.4117 H   0  0  0  0  0  0  0  0  0  0  0  0
  143.6715  134.2416  149.0533 H   0  0  0  0  0  0  0  0  0  0  0  0
  143.3100  132.5280  149.2380 H   0  0  0  0  0  0  0  0  0  0  0  0
  144.8330  133.0318  148.5097 H   0  0  0  0  0  0  0  0  0  0  0  0
  145.5101  135.3257  150.5911 H   0  0  0  0  0  0  0  0  0  0  0  0
  146.6242  134.1354  149.9825 H   0  0  0  0  0  0  0  0  0  0  0  0
  147.4510  134.7865  151.9739 H   0  0  0  0  0  0  0  0  0  0  0  0
  1  2  1  0  0  0  0
  1 22  1  0  0  0  0
  1 23  1  0  0  0  0
  1 24  1  0  0  0  0
  2  7  1  0  0  0  0
  2  3  2  0  0  0  0
  3  4  1  0  0  0  0
  3 25  1  0  0  0  0
  4  5  2  0  0  0  0
  4 26  1  0  0  0  0
  5  6  1  0  0  0  0
  5 27  1  0  0  0  0
  6  7  2  0  0  0  0
  7  8  1  0  0  0  0
  8  9  1  0  0  0  0
  8 28  1  0  0  0  0
  9 10  2  0  0  0  0
  9 11  1  0  0  0  0
 11 12  1  0  0  0  0
 11 29  1  0  0  0  0
 12 13  1  0  0  0  0
 12 30  1  0  0  0  0
 12 31  1  0  0  0  0
 13 14  1  0  0  0  0
 13 32  1  0  0  0  0
 13 33  1  0  0  0  0
 14 21  1  0  0  0  0
 14 15  1  0  0  0  0
 14 46  1  0  0  0  0
 15 16  1  0  0  0  0
 15 34  1  0  0  0  0
 15 35  1  0  0  0  0
 16 17  1  0  0  0  0
 16 18  1  0  0  0  0
 16 36  1  0  0  0  0
 17 37  1  0  0  0  0
 17 38  1  0  0  0  0
 17 39  1  0  0  0  0
 18 19  1  0  0  0  0
 19 20  1  0  0  0  0
 19 21  1  0  0  0  0
 19 40  1  0  0  0  0
 20 41  1  0  0  0  0
 20 42  1  0  0  0  0
 20 43  1  0  0  0  0
 21 44  1  0  0  0  0
 21 45  1  0  0  0  0
M  CHG  1  14   1
M  END
> <s_m_source_file>
AV-unprocessed.smi

> <i_m_source_file_index>
1774

> <i_lp_mmshare_version>
43012

> <i_f3d_flags>
0

> <s_epik_input>
W0NIM11jMVtjSF1bY0hdW2NIXW5jMVtOSF1DKD1PKVtOSF1bQ0gyXVtDSDJdTjJbQ0gyXVtDQEBIXShbQ0gzXSlPW0NAQEhdKFtDSDNdKVtDSDJdMg==

> <s_epik_cmdline>
J2VwaWtfcHl0aG9uJywgJy1waCcsICc3LjAnLCAnLXRuJywgJzgnLCAnLW1hJywgJzIwMCcsICctbWV0YWxfYmluZGluZycsICctaW1hZScsICc8aW5maWxlLm1hZT4nLCAnLW9tYWUnLCAnPG91dGZpbGUubWFlPic=

> <r_epik_Ionization_Penalty>
0.602573

> <r_epik_Ionization_Penalty_Charging>
0.602531

> <r_epik_Ionization_Penalty_Neutral>
4.21996e-05

> <r_epik_State_Penalty>
0.617039

> <r_epik_Charging_Adjusted_Penalty>
1.21957

> <i_epik_Tot_Q>
1

> <i_epik_Tot_abs_Q>
1

> <r_epik_Metal_State_Penalty>
0.617042

> <b_epik_Metal_Only>
0

> <s_lp_Force_Field>
OPLS_2005

> <r_lp_Energy>
17.7689

> <b_lp_Chiralities_Consistent>
1

> <s_lp_Variant>
AV-unprocessed.smi:1774-7

> <Gold.Version>
5.8.1

> <Gold.Id.Protein>
6NUR|6NUR_protein|mol2

> <Gold.PLP.Fitness>
48.1494

> <Gold.PLP.PLP>
-36.1202

> <Gold.PLP.part.hbond>
-2.8190

> <Gold.PLP.part.metal>
0.0000

> <Gold.PLP.part.buried>
-3.9659

> <Gold.PLP.part.nonpolar>
-29.9923

> <Gold.PLP.part.repulsive>
0.3449

> <Gold.PLP.ligand.clash>
0.0000

> <Gold.PLP.ligand.torsion>
0.4832

> <Gold.PLP.Chemscore.Hbond>
3.3190

> <Gold.PLP.Chemscore.CHOScore>
1.0000

> <Gold.PLP.Chemscore.Metal>
0.0000

> <Gold.Chemscore.Hbonds>
donor molecule, donor type, donor heavy atom, donor atom, acceptor molecule, acceptor atom, score
      L1  H     8    28       P1  7948  0.59
      L1  H    11    29       P1  7948  0.52
      L1  H    14    46       P1  7948  1.95
      L1  C     5    27       P1  8028  0.14

> <Gold.PLP.Chemscore.Internal.Correction>
0.0387

> <Gold.Rescore>
     Score         DG    S(hbond)    S(metal)    S(lipo)     H(rot)  DE(clash)    DE(int)     intcor
     19.02     -19.63       2.33        0.00      87.06       1.49       0.06       0.54       ----

> <Gold.Chemscore.Fitness>
19.0208

> <Gold.Chemscore.DG>
-19.6271

> <Gold.Chemscore.ZeroCoef>
-5.4800

> <Gold.Chemscore.Hbond>
2.3315

> <Gold.Chemscore.Metal>
0.0000

> <Gold.Chemscore.Lipo>
87.0600

> <Gold.Chemscore.Internal_Hbond>
0.0000

> <Gold.Chemscore.DEClash>
0.0631

> <Gold.Chemscore.DEInternal>
0.5432

> <Gold.Chemscore.Rot>
1.4946

> <Gold.Chemscore.Internal.Correction>
   9.000000E+99

> <Gold.Chemscore.Hbonds>
donor molecule, donor type, donor heavy atom, donor atom, acceptor molecule, acceptor atom, score
      L1  H     8    28       P1  7948  0.54
      L1  H    11    29       P1  7948  0.52
      L1  H    14    46       P1  7948  0.72

> <Gold.Chemscore.Hbond.Weighted>
-7.7871

> <Gold.Chemscore.Metal.Weighted>
-0.0000

> <Gold.Chemscore.Lipo.Weighted>
-10.1860

> <Gold.Chemscore.Internal_Hbond.Weighted>
0.0000

> <Gold.Chemscore.DEClash.Weighted>
0.0631

> <Gold.Chemscore.DEInternal.Weighted>
0.5432

> <Gold.Chemscore.Rot.Weighted>
3.8261

> <Gold.Chemscore.Internal.Correction.Weighted>
   9.000000E+99

> <Gold.Protein.RotatedTorsions>
[ 6907 6896 6895 6894 ] final   42.77 input  -60.11 | X-H torsion
[ 7974 7965 7964 7962 ] final  -30.48 input  175.53 | X-H torsion
[ 8008 7997 7996 7995 ] final -169.72 input   59.86 | X-H torsion
[ 10167 10162 10161 10158 ] final   74.54 input  -65.29 | X-H torsion
[ 10718 10713 10712 10709 ] final  -84.87 input   66.30 | X-H torsion
[ 10763 10752 10751 10750 ] final  -86.38 input  -60.55 | X-H torsion
[ 11005 11000 10999 10996 ] final   84.87 input  -57.11 | X-H torsion

> <Gold.Protein.ActiveResidues>
 VAL166  LYS551  ARG553  GLY616  TRP617  ASP618  TYR619  PRO620  LYS621  CYS622 
 ASP623  PHE694  ASN695  SER759  ASP760  ASP761  ALA762  ILE779  LEU786  VAL792 
 PHE793  MET794  SER795  GLU796  ALA797  LYS798  CYS799  TRP800  GLU811  SER814 

> <Gold.Protein.RotatedAtoms>
  152.2120  134.8492  160.0495 H   0  0  0  0  0  0  0  0  0  0  0  0  # atno 6907 bound_to 6896
  151.9307  133.3605  159.3938 H   0  0  0  0  0  0  0  0  0  0  0  0  # atno 6908 bound_to 6896
  150.6978  134.4465  159.5360 H   0  0  0  0  0  0  0  0  0  0  0  0  # atno 6909 bound_to 6896
  146.1140  140.5545  142.8765 H   0  0  0  0  0  0  0  0  0  0  0  0  # atno 7974 bound_to 7965
  155.9087  140.1053  157.1296 H   0  0  0  0  0  0  0  0  0  0  0  0  # atno 8008 bound_to 7997
  154.4036  140.1278  156.4594 H   0  0  0  0  0  0  0  0  0  0  0  0  # atno 8009 bound_to 7997
  155.7336  140.3468  155.5073 H   0  0  0  0  0  0  0  0  0  0  0  0  # atno 8010 bound_to 7997
  140.0127  144.5602  150.7646 H   0  0  0  0  0  0  0  0  0  0  0  0  # atno 10167 bound_to 10162
  156.0002  130.4712  150.4476 H   0  0  0  0  0  0  0  0  0  0  0  0  # atno 10718 bound_to 10713
  154.6218  135.5451  153.7584 H   0  0  0  0  0  0  0  0  0  0  0  0  # atno 10763 bound_to 10752
  153.0242  135.6414  154.1429 H   0  0  0  0  0  0  0  0  0  0  0  0  # atno 10764 bound_to 10752
  154.1363  135.2911  155.3152 H   0  0  0  0  0  0  0  0  0  0  0  0  # atno 10765 bound_to 10752
  139.8987  134.8247  156.2504 H   0  0  0  0  0  0  0  0  0  0  0  0  # atno 11005 bound_to 11000
  144.7536  140.5253  143.6784 LP  0  0  0  0  0  0  0  0  0  0  0  0  # atno 17320 bound_to 7965
  145.5605  139.1479  143.3344 LP  0  0  0  0  0  0  0  0  0  0  0  0  # atno 17321 bound_to 7965
  140.7375  143.2766  151.3723 LP  0  0  0  0  0  0  0  0  0  0  0  0  # atno 17342 bound_to 10162
  139.6194  144.0937  152.2377 LP  0  0  0  0  0  0  0  0  0  0  0  0  # atno 17343 bound_to 10162
  157.2511  131.0546  151.2378 LP  0  0  0  0  0  0  0  0  0  0  0  0  # atno 17370 bound_to 10713
  157.3527  130.7090  149.6451 LP  0  0  0  0  0  0  0  0  0  0  0  0  # atno 17371 bound_to 10713
  141.0227  133.7032  156.1296 LP  0  0  0  0  0  0  0  0  0  0  0  0  # atno 17394 bound_to 11000
  140.7210  134.4358  157.5575 LP  0  0  0  0  0  0  0  0  0  0  0  0  # atno 17395 bound_to 11000

$$$$
