AV-unprocessed.smi:21|AV-procd|sdf|142|dock9
  -GOLD-   2262015353D 1   1.00000     0.00000
 Structure written by MMmdl.
 62 65  0  0  0  0  0  0  0  0  2 V2000
  143.7187  137.0501  152.7275 C   0  0  0  0  0  0  0  0  0  0  0  0
  144.8971  136.2965  152.4884 O   0  0  0  0  0  0  0  0  0  0  0  0
  144.8234  134.9533  152.9489 C   0  0  2  0  0  0  0  0  0  0  0  0
  145.1486  134.9251  154.4362 C   0  0  0  0  0  0  0  0  0  0  0  0
  146.6811  134.9613  154.4794 C   0  0  1  0  0  0  0  0  0  0  0  0
  147.2911  134.4310  155.8003 C   0  0  0  0  0  0  0  0  0  0  0  0
  148.6324  134.9621  156.0511 N   0  0  0  0  0  0  0  0  0  0  0  0
  149.7782  134.1944  155.5801 C   0  0  0  0  0  0  0  0  0  0  0  0
  148.7880  136.2746  156.3809 C   0  0  0  0  0  0  0  0  0  0  0  0
  147.7342  136.9202  156.9473 N   0  0  0  0  0  0  0  0  0  0  0  0
  147.8262  138.2064  157.2940 C   0  0  0  0  0  0  0  0  0  0  0  0
  148.8641  139.0317  157.1616 N   0  0  0  0  0  0  0  0  0  0  0  0
  149.9272  138.4003  156.5885 C   0  0  0  0  0  0  0  0  0  0  0  0
  149.9778  137.0378  156.1714 C   0  0  0  0  0  0  0  0  0  0  0  0
  151.2266  136.7714  155.6181 N   0  0  0  0  0  0  0  0  0  0  0  0
  151.8745  137.8993  155.7123 C   0  0  0  0  0  0  0  0  0  0  0  0
  151.1712  138.9289  156.2910 N   0  0  0  0  0  0  0  0  0  0  0  0
  151.6514  140.2814  156.5178 C   0  0  0  0  0  0  0  0  0  0  0  0
  151.6169  140.6986  158.0086 C   0  0  1  0  0  0  0  0  0  0  0  0
  152.1769  139.5658  158.9003 C   0  0  0  0  0  0  0  0  0  0  0  0
  153.5049  139.2555  158.5321 O   0  0  0  0  0  0  0  0  0  0  0  0
  152.2911  142.0774  158.2569 C   0  0  2  0  0  0  0  0  0  0  0  0
  152.4162  142.5107  159.7124 C   0  0  0  0  0  0  0  0  0  0  0  0
  152.4772  144.0259  159.5873 C   0  0  0  0  0  0  0  0  0  0  0  0
  151.5168  144.2943  158.5788 O   0  0  0  0  0  0  0  0  0  0  0  0
  151.6125  143.2824  157.5813 C   0  0  0  0  0  0  0  0  0  0  0  0
  147.1311  134.2767  153.2327 N   0  3  1  0  0  0  0  0  0  0  0  0
  147.9297  133.0368  153.3820 C   0  0  0  0  0  0  0  0  0  0  0  0
  145.9498  134.1009  152.3536 C   0  0  0  0  0  0  0  0  0  0  0  0
  143.8343  134.5332  152.7581 H   0  0  0  0  0  0  0  0  0  0  0  0
  146.9893  136.0005  154.3555 H   0  0  0  0  0  0  0  0  0  0  0  0
  143.8550  138.0651  152.3548 H   0  0  0  0  0  0  0  0  0  0  0  0
  143.5019  137.1137  153.7945 H   0  0  0  0  0  0  0  0  0  0  0  0
  142.8533  136.6230  152.2211 H   0  0  0  0  0  0  0  0  0  0  0  0
  144.6863  135.7456  154.9862 H   0  0  0  0  0  0  0  0  0  0  0  0
  144.7866  133.9905  154.8674 H   0  0  0  0  0  0  0  0  0  0  0  0
  146.6221  134.6262  156.6381 H   0  0  0  0  0  0  0  0  0  0  0  0
  147.3859  133.3462  155.7476 H   0  0  0  0  0  0  0  0  0  0  0  0
  150.6544  134.3781  156.2028 H   0  0  0  0  0  0  0  0  0  0  0  0
  150.0175  134.4524  154.5482 H   0  0  0  0  0  0  0  0  0  0  0  0
  149.5669  133.1257  155.6181 H   0  0  0  0  0  0  0  0  0  0  0  0
  146.9422  138.6354  157.7424 H   0  0  0  0  0  0  0  0  0  0  0  0
  152.8908  138.0122  155.3631 H   0  0  0  0  0  0  0  0  0  0  0  0
  152.6689  140.3367  156.1293 H   0  0  0  0  0  0  0  0  0  0  0  0
  151.0580  140.9726  155.9187 H   0  0  0  0  0  0  0  0  0  0  0  0
  150.5681  140.8285  158.2817 H   0  0  0  0  0  0  0  0  0  0  0  0
  152.1634  139.8495  159.9527 H   0  0  0  0  0  0  0  0  0  0  0  0
  151.5890  138.6535  158.8099 H   0  0  0  0  0  0  0  0  0  0  0  0
  153.6291  138.3220  158.6124 H   0  0  0  0  0  0  0  0  0  0  0  0
  153.3013  142.0501  157.8471 H   0  0  0  0  0  0  0  0  0  0  0  0
  151.5358  142.2361  160.2921 H   0  0  0  0  0  0  0  0  0  0  0  0
  153.2919  142.0934  160.2092 H   0  0  0  0  0  0  0  0  0  0  0  0
  152.2381  144.5380  160.5195 H   0  0  0  0  0  0  0  0  0  0  0  0
  153.4637  144.3523  159.2534 H   0  0  0  0  0  0  0  0  0  0  0  0
  152.2200  143.6460  156.7516 H   0  0  0  0  0  0  0  0  0  0  0  0
  150.6224  143.0609  157.1843 H   0  0  0  0  0  0  0  0  0  0  0  0
  147.3738  132.2672  153.9190 H   0  0  0  0  0  0  0  0  0  0  0  0
  148.8647  133.2284  153.9080 H   0  0  0  0  0  0  0  0  0  0  0  0
  148.1896  132.6395  152.4001 H   0  0  0  0  0  0  0  0  0  0  0  0
  145.6368  133.0555  152.3702 H   0  0  0  0  0  0  0  0  0  0  0  0
  146.1867  134.3500  151.3197 H   0  0  0  0  0  0  0  0  0  0  0  0
  147.7337  134.9408  152.7677 H   0  0  0  0  0  0  0  0  0  0  0  0
  1  2  1  0  0  0  0
  1 32  1  0  0  0  0
  1 33  1  0  0  0  0
  1 34  1  0  0  0  0
  2  3  1  0  0  0  0
  3 30  1  0  0  0  0
  3 29  1  0  0  0  0
  3  4  1  0  0  0  0
  4  5  1  0  0  0  0
  4 35  1  0  0  0  0
  4 36  1  0  0  0  0
  5 31  1  0  0  0  0
  5  6  1  0  0  0  0
  5 27  1  0  0  0  0
  6  7  1  0  0  0  0
  6 37  1  0  0  0  0
  6 38  1  0  0  0  0
  7  8  1  0  0  0  0
  7  9  1  0  0  0  0
  8 39  1  0  0  0  0
  8 40  1  0  0  0  0
  8 41  1  0  0  0  0
  9 14  1  0  0  0  0
  9 10  2  0  0  0  0
 10 11  1  0  0  0  0
 11 12  2  0  0  0  0
 11 42  1  0  0  0  0
 12 13  1  0  0  0  0
 13 17  1  0  0  0  0
 13 14  2  0  0  0  0
 14 15  1  0  0  0  0
 15 16  2  0  0  0  0
 16 17  1  0  0  0  0
 16 43  1  0  0  0  0
 17 18  1  0  0  0  0
 18 19  1  0  0  0  0
 18 44  1  0  0  0  0
 18 45  1  0  0  0  0
 19 20  1  0  0  0  0
 19 22  1  0  0  0  0
 19 46  1  0  0  0  0
 20 21  1  0  0  0  0
 20 47  1  0  0  0  0
 20 48  1  0  0  0  0
 21 49  1  0  0  0  0
 22 26  1  0  0  0  0
 22 23  1  0  0  0  0
 22 50  1  0  0  0  0
 23 24  1  0  0  0  0
 23 51  1  0  0  0  0
 23 52  1  0  0  0  0
 24 25  1  0  0  0  0
 24 53  1  0  0  0  0
 24 54  1  0  0  0  0
 25 26  1  0  0  0  0
 26 55  1  0  0  0  0
 26 56  1  0  0  0  0
 27 28  1  0  0  0  0
 27 29  1  0  0  0  0
 27 62  1  0  0  0  0
 28 57  1  0  0  0  0
 28 58  1  0  0  0  0
 28 59  1  0  0  0  0
 29 60  1  0  0  0  0
 29 61  1  0  0  0  0
M  CHG  1  27   1
M  END
> <s_m_source_file>
AV-unprocessed.smi

> <i_m_source_file_index>
21

> <i_lp_mmshare_version>
43012

> <i_f3d_flags>
0

> <s_epik_input>
W0NIM11PW0NASF0xW0NIMl1bQ0BIXShOKFtDSDNdKVtDSDJdMSlbQ0gyXU4oW0NIM10pYyhuW2NIXW4yKWMoYzIzKW5bY0hdbjNbQ0gyXVtDQEhdKFtDSDJdW09IXSlbQ0BASF00W0NIMl1bQ0gyXU9bQ0gyXTQ=

> <s_epik_cmdline>
J2VwaWtfcHl0aG9uJywgJy1waCcsICc3LjAnLCAnLXRuJywgJzgnLCAnLW1hJywgJzIwMCcsICctbWV0YWxfYmluZGluZycsICctaW1hZScsICc8aW5maWxlLm1hZT4nLCAnLW9tYWUnLCAnPG91dGZpbGUubWFlPic=

> <r_lp_tautomer_probability>
1

> <r_epik_Ionization_Penalty>
0.0157465

> <r_epik_Ionization_Penalty_Charging>
0.015354

> <r_epik_Ionization_Penalty_Neutral>
0.000392529

> <r_epik_State_Penalty>
0.0120612

> <r_epik_Charging_Adjusted_Penalty>
0.0274152

> <i_epik_Tot_Q>
1

> <i_epik_Tot_abs_Q>
1

> <r_epik_Metal_State_Penalty>
0.0121253

> <b_epik_Metal_Only>
0

> <s_lp_Force_Field>
OPLS_2005

> <r_lp_Energy>
62.7223

> <b_lp_Chiralities_Consistent>
1

> <s_lp_Variant>
AV-unprocessed.smi:21-22

> <Gold.Version>
5.8.1

> <Gold.Id.Protein>
6NUR|6NUR_protein|mol2

> <Gold.PLP.Fitness>
49.3463

> <Gold.PLP.PLP>
-38.7240

> <Gold.PLP.part.hbond>
-3.0000

> <Gold.PLP.part.metal>
0.0000

> <Gold.PLP.part.buried>
-6.1062

> <Gold.PLP.part.nonpolar>
-29.4142

> <Gold.PLP.part.repulsive>
0.3481

> <Gold.PLP.ligand.clash>
0.0000

> <Gold.PLP.ligand.torsion>
0.9354

> <Gold.PLP.Chemscore.Hbond>
4.0000

> <Gold.PLP.Chemscore.CHOScore>
0.0000

> <Gold.PLP.Chemscore.Metal>
0.0000

> <Gold.Chemscore.Hbonds>
donor molecule, donor type, donor heavy atom, donor atom, acceptor molecule, acceptor atom, score
      L1  H    27    62       P1  7948  2.00
      P1  H  7997  8010       L1    21  1.00
      P1  H 10752 10765       L1    15  0.21

> <Gold.PLP.Chemscore.Internal.Correction>
0.4930

> <Gold.Rescore>
     Score         DG    S(hbond)    S(metal)    S(lipo)     H(rot)  DE(clash)    DE(int)     intcor
     14.05     -16.56       2.53        0.00      89.68       3.08       0.00       2.51       ----

> <Gold.Chemscore.Fitness>
14.0477

> <Gold.Chemscore.DG>
-16.5563

> <Gold.Chemscore.ZeroCoef>
-5.4800

> <Gold.Chemscore.Hbond>
2.5322

> <Gold.Chemscore.Metal>
0.0000

> <Gold.Chemscore.Lipo>
89.6837

> <Gold.Chemscore.Internal_Hbond>
0.0000

> <Gold.Chemscore.DEClash>
0.0000

> <Gold.Chemscore.DEInternal>
2.5086

> <Gold.Chemscore.Rot>
3.0758

> <Gold.Chemscore.Internal.Correction>
   9.000000E+99

> <Gold.Chemscore.Hbonds>
donor molecule, donor type, donor heavy atom, donor atom, acceptor molecule, acceptor atom, score
      L1  H    27    62       P1  7948  0.96
      P1  H  7997  8010       L1    21  0.79
      P1  H 10752 10765       L1    15  0.03

> <Gold.Chemscore.Hbond.Weighted>
-8.4574

> <Gold.Chemscore.Metal.Weighted>
-0.0000

> <Gold.Chemscore.Lipo.Weighted>
-10.4930

> <Gold.Chemscore.Internal_Hbond.Weighted>
0.0000

> <Gold.Chemscore.DEClash.Weighted>
0.0000

> <Gold.Chemscore.DEInternal.Weighted>
2.5086

> <Gold.Chemscore.Rot.Weighted>
7.8741

> <Gold.Chemscore.Internal.Correction.Weighted>
   9.000000E+99

> <Gold.Protein.RotatedTorsions>
[ 6907 6896 6895 6894 ] final -127.74 input  -60.11 | X-H torsion
[ 7974 7965 7964 7962 ] final   91.68 input  175.53 | X-H torsion
[ 8008 7997 7996 7995 ] final   31.55 input   59.86 | X-H torsion
[ 10167 10162 10161 10158 ] final -145.28 input  -65.29 | X-H torsion
[ 10718 10713 10712 10709 ] final -173.11 input   66.30 | X-H torsion
[ 10763 10752 10751 10750 ] final  176.34 input  -60.55 | X-H torsion
[ 11005 11000 10999 10996 ] final  128.32 input  -57.11 | X-H torsion

> <Gold.Protein.ActiveResidues>
 VAL166  LYS551  ARG553  GLY616  TRP617  ASP618  TYR619  PRO620  LYS621  CYS622 
 ASP623  PHE694  ASN695  SER759  ASP760  ASP761  ALA762  ILE779  LEU786  VAL792 
 PHE793  MET794  SER795  GLU796  ALA797  LYS798  CYS799  TRP800  GLU811  SER814 

> <Gold.Protein.RotatedAtoms>
  150.9105  133.7004  159.2855 H   0  0  0  0  0  0  0  0  0  0  0  0  # atno 6907 bound_to 6896
  151.4492  135.1027  159.9702 H   0  0  0  0  0  0  0  0  0  0  0  0  # atno 6908 bound_to 6896
  152.4927  133.8494  159.7249 H   0  0  0  0  0  0  0  0  0  0  0  0  # atno 6909 bound_to 6896
  145.5024  139.2276  143.2770 H   0  0  0  0  0  0  0  0  0  0  0  0  # atno 7974 bound_to 7965
  155.1083  140.3236  155.4528 H   0  0  0  0  0  0  0  0  0  0  0  0  # atno 8008 bound_to 7997
  156.2698  140.2048  156.6155 H   0  0  0  0  0  0  0  0  0  0  0  0  # atno 8009 bound_to 7997
  154.6776  140.0529  157.0219 H   0  0  0  0  0  0  0  0  0  0  0  0  # atno 8010 bound_to 7997
  139.7820  143.8087  152.2640 H   0  0  0  0  0  0  0  0  0  0  0  0  # atno 10167 bound_to 10162
  156.7654  130.9429  151.3119 H   0  0  0  0  0  0  0  0  0  0  0  0  # atno 10718 bound_to 10713
  154.4798  135.2774  155.1579 H   0  0  0  0  0  0  0  0  0  0  0  0  # atno 10763 bound_to 10752
  154.3294  135.6193  153.5548 H   0  0  0  0  0  0  0  0  0  0  0  0  # atno 10764 bound_to 10752
  152.9874  135.5762  154.5196 H   0  0  0  0  0  0  0  0  0  0  0  0  # atno 10765 bound_to 10752
  139.9554  134.9614  156.8985 H   0  0  0  0  0  0  0  0  0  0  0  0  # atno 11005 bound_to 11000
  146.2218  140.5825  142.9014 LP  0  0  0  0  0  0  0  0  0  0  0  0  # atno 17320 bound_to 7965
  144.7773  140.5766  143.6629 LP  0  0  0  0  0  0  0  0  0  0  0  0  # atno 17321 bound_to 7965
  139.8153  144.7319  150.9644 LP  0  0  0  0  0  0  0  0  0  0  0  0  # atno 17342 bound_to 10162
  140.7818  143.4211  151.0840 LP  0  0  0  0  0  0  0  0  0  0  0  0  # atno 17343 bound_to 10162
  157.6715  130.9055  150.0052 LP  0  0  0  0  0  0  0  0  0  0  0  0  # atno 17370 bound_to 10713
  156.1312  130.3643  149.9729 LP  0  0  0  0  0  0  0  0  0  0  0  0  # atno 17371 bound_to 10713
  140.5620  134.0525  155.7402 LP  0  0  0  0  0  0  0  0  0  0  0  0  # atno 17394 bound_to 11000
  141.1225  133.9438  157.2701 LP  0  0  0  0  0  0  0  0  0  0  0  0  # atno 17395 bound_to 11000

$$$$
