AV-unprocessed.smi:1703|AV-procd|sdf|6854|dock6
  -GOLD-   22720 8 33D 1   1.00000     0.00000
 Structure written by MMmdl.
 48 50  0  0  0  0  0  0  0  0  1 V2000
  146.1815  138.1886  152.6010 C   0  0  0  0  0  0  0  0  0  0  0  0
  147.2804  139.1806  152.9967 C   0  0  2  0  0  0  0  0  0  0  0  0
  148.3144  138.5552  153.9520 C   0  0  0  0  0  0  0  0  0  0  0  0
  149.3165  139.5223  154.3857 N   0  0  0  0  0  0  0  0  0  0  0  0
  150.2925  138.8953  155.2794 C   0  0  0  0  0  0  0  0  0  0  0  0
  151.2080  139.8671  156.0498 C   0  0  2  0  0  0  0  0  0  0  0  0
  152.5533  139.5430  155.7597 O   0  0  0  0  0  0  0  0  0  0  0  0
  150.9779  139.7777  157.5710 C   0  0  0  0  0  0  0  0  0  0  0  0
  151.8524  140.6718  158.3192 N   0  0  0  0  0  0  0  0  0  0  0  0
  152.9081  140.3552  159.1112 C   0  0  0  0  0  0  0  0  0  0  0  0
  153.3268  138.9288  159.3288 C   0  0  0  0  0  0  0  0  0  0  0  0
  154.6120  138.6266  158.8251 O   0  0  0  0  0  0  0  0  0  0  0  0
  153.5354  141.3905  159.6755 N   0  0  0  0  0  0  0  0  0  0  0  0
  152.8183  142.4749  159.2100 C   0  0  0  0  0  0  0  0  0  0  0  0
  152.9843  143.8580  159.4488 C   0  0  0  0  0  0  0  0  0  0  0  0
  152.1132  144.7943  158.8540 C   0  0  0  0  0  0  0  0  0  0  0  0
  151.0669  144.3624  158.0132 C   0  0  0  0  0  0  0  0  0  0  0  0
  150.8844  142.9889  157.7622 C   0  0  0  0  0  0  0  0  0  0  0  0
  151.7564  142.0588  158.3589 C   0  0  0  0  0  0  0  0  0  0  0  0
  148.6369  140.6634  154.9958 C   0  0  0  0  0  0  0  0  0  0  0  0
  147.6009  141.2930  154.0446 C   0  0  2  0  0  0  0  0  0  0  0  0
  146.8270  142.4375  154.7070 C   0  0  0  0  0  0  0  0  0  0  0  0
  146.6682  140.2943  153.6410 O   0  0  0  0  0  0  0  0  0  0  0  0
  146.6015  137.3192  152.0948 H   0  0  0  0  0  0  0  0  0  0  0  0
  145.4634  138.6525  151.9245 H   0  0  0  0  0  0  0  0  0  0  0  0
  145.6347  137.8356  153.4759 H   0  0  0  0  0  0  0  0  0  0  0  0
  147.7822  139.5269  152.0915 H   0  0  0  0  0  0  0  0  0  0  0  0
  147.8017  138.1414  154.8220 H   0  0  0  0  0  0  0  0  0  0  0  0
  148.8038  137.7181  153.4525 H   0  0  0  0  0  0  0  0  0  0  0  0
  149.7642  138.2604  155.9926 H   0  0  0  0  0  0  0  0  0  0  0  0
  150.9281  138.2228  154.7011 H   0  0  0  0  0  0  0  0  0  0  0  0
  151.0271  140.8942  155.7364 H   0  0  0  0  0  0  0  0  0  0  0  0
  152.5608  138.9134  155.0545 H   0  0  0  0  0  0  0  0  0  0  0  0
  149.9472  140.0468  157.8051 H   0  0  0  0  0  0  0  0  0  0  0  0
  151.1077  138.7536  157.9209 H   0  0  0  0  0  0  0  0  0  0  0  0
  153.3152  138.7153  160.3979 H   0  0  0  0  0  0  0  0  0  0  0  0
  152.6071  138.2628  158.8532 H   0  0  0  0  0  0  0  0  0  0  0  0
  155.0996  138.1848  159.5036 H   0  0  0  0  0  0  0  0  0  0  0  0
  153.7827  144.1986  160.0913 H   0  0  0  0  0  0  0  0  0  0  0  0
  152.2487  145.8489  159.0439 H   0  0  0  0  0  0  0  0  0  0  0  0
  150.4043  145.0861  157.5612 H   0  0  0  0  0  0  0  0  0  0  0  0
  150.0846  142.6542  157.1186 H   0  0  0  0  0  0  0  0  0  0  0  0
  148.1431  140.3495  155.9169 H   0  0  0  0  0  0  0  0  0  0  0  0
  149.3577  141.4312  155.2735 H   0  0  0  0  0  0  0  0  0  0  0  0
  148.1077  141.6808  153.1591 H   0  0  0  0  0  0  0  0  0  0  0  0
  147.5004  143.2337  155.0257 H   0  0  0  0  0  0  0  0  0  0  0  0
  146.2806  142.0894  155.5840 H   0  0  0  0  0  0  0  0  0  0  0  0
  146.1049  142.8708  154.0146 H   0  0  0  0  0  0  0  0  0  0  0  0
  1  2  1  0  0  0  0
  1 24  1  0  0  0  0
  1 25  1  0  0  0  0
  1 26  1  0  0  0  0
  2 23  1  0  0  0  0
  2  3  1  0  0  0  0
  2 27  1  0  0  0  0
  3  4  1  0  0  0  0
  3 28  1  0  0  0  0
  3 29  1  0  0  0  0
  4  5  1  0  0  0  0
  4 20  1  0  0  0  0
  5  6  1  0  0  0  0
  5 30  1  0  0  0  0
  5 31  1  0  0  0  0
  6  7  1  0  0  0  0
  6  8  1  0  0  0  0
  6 32  1  0  0  0  0
  7 33  1  0  0  0  0
  8  9  1  0  0  0  0
  8 34  1  0  0  0  0
  8 35  1  0  0  0  0
  9 19  1  0  0  0  0
  9 10  1  0  0  0  0
 10 11  1  0  0  0  0
 10 13  2  0  0  0  0
 11 12  1  0  0  0  0
 11 36  1  0  0  0  0
 11 37  1  0  0  0  0
 12 38  1  0  0  0  0
 13 14  1  0  0  0  0
 14 19  2  0  0  0  0
 14 15  1  0  0  0  0
 15 16  2  0  0  0  0
 15 39  1  0  0  0  0
 16 17  1  0  0  0  0
 16 40  1  0  0  0  0
 17 18  2  0  0  0  0
 17 41  1  0  0  0  0
 18 19  1  0  0  0  0
 18 42  1  0  0  0  0
 20 21  1  0  0  0  0
 20 43  1  0  0  0  0
 20 44  1  0  0  0  0
 21 22  1  0  0  0  0
 21 23  1  0  0  0  0
 21 45  1  0  0  0  0
 22 46  1  0  0  0  0
 22 47  1  0  0  0  0
 22 48  1  0  0  0  0
M  END
> <s_m_source_file>
AV-unprocessed.smi

> <i_m_source_file_index>
1703

> <i_lp_mmshare_version>
43012

> <i_f3d_flags>
0

> <s_epik_input>
W0NIM11bQ0BASF0xW0NIMl1OKFtDSDJdW0NASF0oTzEpW0NIM10pW0NIMl1bQ0BIXShbT0hdKVtDSDJdbihjKG4yKVtDSDJdW09IXSljKGMyMylbY0hdW2NIXVtjSF1bY0hdMw==

> <s_epik_cmdline>
J2VwaWtfcHl0aG9uJywgJy1waCcsICc3LjAnLCAnLXRuJywgJzgnLCAnLW1hJywgJzIwMCcsICctbWV0YWxfYmluZGluZycsICctaW1hZScsICc8aW5maWxlLm1hZT4nLCAnLW9tYWUnLCAnPG91dGZpbGUubWFlPic=

> <r_epik_Ionization_Penalty>
0.307685

> <r_epik_Ionization_Penalty_Charging>
0

> <r_epik_Ionization_Penalty_Neutral>
0.307685

> <r_epik_State_Penalty>
0.277856

> <r_epik_Charging_Adjusted_Penalty>
0.277856

> <i_epik_Tot_Q>
0

> <i_epik_Tot_abs_Q>
0

> <r_epik_Metal_State_Penalty>
0.238959

> <b_epik_Metal_Only>
0

> <s_lp_Force_Field>
OPLS_2005

> <r_lp_Energy>
28.9256

> <b_lp_Chiralities_Consistent>
1

> <s_lp_Variant>
AV-unprocessed.smi:1703-2

> <Gold.Version>
5.8.1

> <Gold.Id.Protein>
6NUR|6NUR_protein|mol2

> <Gold.PLP.Fitness>
49.1147

> <Gold.PLP.PLP>
-45.0248

> <Gold.PLP.part.hbond>
-2.0000

> <Gold.PLP.part.metal>
0.0000

> <Gold.PLP.part.buried>
1.2671

> <Gold.PLP.part.nonpolar>
-45.0060

> <Gold.PLP.part.repulsive>
1.0620

> <Gold.PLP.ligand.clash>
0.0000

> <Gold.PLP.ligand.torsion>
0.9762

> <Gold.PLP.Chemscore.Hbond>
2.0000

> <Gold.PLP.Chemscore.CHOScore>
0.0000

> <Gold.PLP.Chemscore.Metal>
0.0000

> <Gold.Chemscore.Hbonds>
donor molecule, donor type, donor heavy atom, donor atom, acceptor molecule, acceptor atom, score
      P1  H  7997  8008       L1    12  0.71
      P1  H  7997  8009       L1     7  1.00

> <Gold.PLP.Chemscore.Internal.Correction>
0.0422

> <Gold.Rescore>
     Score         DG    S(hbond)    S(metal)    S(lipo)     H(rot)  DE(clash)    DE(int)     intcor
     17.86     -19.00       1.78        0.00     127.58       2.88       0.19       0.95       ----

> <Gold.Chemscore.Fitness>
17.8576

> <Gold.Chemscore.DG>
-18.9967

> <Gold.Chemscore.ZeroCoef>
-5.4800

> <Gold.Chemscore.Hbond>
1.7835

> <Gold.Chemscore.Metal>
0.0000

> <Gold.Chemscore.Lipo>
127.5804

> <Gold.Chemscore.Internal_Hbond>
0.0000

> <Gold.Chemscore.DEClash>
0.1941

> <Gold.Chemscore.DEInternal>
0.9451

> <Gold.Chemscore.Rot>
2.8778

> <Gold.Chemscore.Internal.Correction>
   9.000000E+99

> <Gold.Chemscore.Hbonds>
donor molecule, donor type, donor heavy atom, donor atom, acceptor molecule, acceptor atom, score
      P1  H  7997  8008       L1    12  0.63
      P1  H  7997  8009       L1     7  0.46

> <Gold.Chemscore.Hbond.Weighted>
-5.9569

> <Gold.Chemscore.Metal.Weighted>
-0.0000

> <Gold.Chemscore.Lipo.Weighted>
-14.9269

> <Gold.Chemscore.Internal_Hbond.Weighted>
0.0000

> <Gold.Chemscore.DEClash.Weighted>
0.1941

> <Gold.Chemscore.DEInternal.Weighted>
0.9451

> <Gold.Chemscore.Rot.Weighted>
7.3671

> <Gold.Chemscore.Internal.Correction.Weighted>
   9.000000E+99

> <Gold.Protein.RotatedTorsions>
[ 6907 6896 6895 6894 ] final  127.51 input  -60.11 | X-H torsion
[ 7974 7965 7964 7962 ] final -121.53 input  175.53 | X-H torsion
[ 8008 7997 7996 7995 ] final -134.39 input   59.86 | X-H torsion
[ 10167 10162 10161 10158 ] final -117.60 input  -65.29 | X-H torsion
[ 10718 10713 10712 10709 ] final -153.88 input   66.30 | X-H torsion
[ 10763 10752 10751 10750 ] final  -67.16 input  -60.55 | X-H torsion
[ 11005 11000 10999 10996 ] final   81.35 input  -57.11 | X-H torsion

> <Gold.Protein.ActiveResidues>
 VAL166  LYS551  ARG553  GLY616  TRP617  ASP618  TYR619  PRO620  LYS621  CYS622 
 ASP623  PHE694  ASN695  SER759  ASP760  ASP761  ALA762  ILE779  LEU786  VAL792 
 PHE793  MET794  SER795  GLU796  ALA797  LYS798  CYS799  TRP800  GLU811  SER814 

> <Gold.Protein.RotatedAtoms>
  152.3805  133.6540  159.6157 H   0  0  0  0  0  0  0  0  0  0  0  0  # atno 6907 bound_to 6896
  150.7737  133.9121  159.3381 H   0  0  0  0  0  0  0  0  0  0  0  0  # atno 6908 bound_to 6896
  151.6927  135.0945  160.0288 H   0  0  0  0  0  0  0  0  0  0  0  0  # atno 6909 bound_to 6896
  145.0393  140.8132  143.4276 H   0  0  0  0  0  0  0  0  0  0  0  0  # atno 7974 bound_to 7965
  155.3612  140.0483  157.3046 H   0  0  0  0  0  0  0  0  0  0  0  0  # atno 8008 bound_to 7997
  154.5177  140.2214  155.8998 H   0  0  0  0  0  0  0  0  0  0  0  0  # atno 8009 bound_to 7997
  156.1655  140.3107  155.8886 H   0  0  0  0  0  0  0  0  0  0  0  0  # atno 8010 bound_to 7997
  140.0666  143.4917  152.2003 H   0  0  0  0  0  0  0  0  0  0  0  0  # atno 10167 bound_to 10162
  156.4918  130.8351  151.2573 H   0  0  0  0  0  0  0  0  0  0  0  0  # atno 10718 bound_to 10713
  154.3705  135.6096  153.5737 H   0  0  0  0  0  0  0  0  0  0  0  0  # atno 10763 bound_to 10752
  152.9790  135.5837  154.4528 H   0  0  0  0  0  0  0  0  0  0  0  0  # atno 10764 bound_to 10752
  154.4281  135.2847  155.1909 H   0  0  0  0  0  0  0  0  0  0  0  0  # atno 10765 bound_to 10752
  139.9101  134.7989  156.2029 H   0  0  0  0  0  0  0  0  0  0  0  0  # atno 11005 bound_to 11000
  145.1668  139.2427  143.5363 LP  0  0  0  0  0  0  0  0  0  0  0  0  # atno 17320 bound_to 7965
  146.3507  140.1409  142.8594 LP  0  0  0  0  0  0  0  0  0  0  0  0  # atno 17321 bound_to 7965
  139.5861  144.7531  151.3516 LP  0  0  0  0  0  0  0  0  0  0  0  0  # atno 17342 bound_to 10162
  140.7146  143.7300  150.7631 LP  0  0  0  0  0  0  0  0  0  0  0  0  # atno 17343 bound_to 10162
  157.7473  131.0011  150.2950 LP  0  0  0  0  0  0  0  0  0  0  0  0  # atno 17370 bound_to 10713
  156.3419  130.3817  149.7402 LP  0  0  0  0  0  0  0  0  0  0  0  0  # atno 17371 bound_to 10713
  141.0513  133.6887  156.1778 LP  0  0  0  0  0  0  0  0  0  0  0  0  # atno 17394 bound_to 11000
  140.6805  134.4772  157.5589 LP  0  0  0  0  0  0  0  0  0  0  0  0  # atno 17395 bound_to 11000

$$$$
