AV-unprocessed.smi:1701|AV-procd|sdf|6828|dock7
  -GOLD-   22720 8 03D 1   1.00000     0.00000
 Structure written by MMmdl.
 55 57  0  0  0  0  0  0  0  0  3 V2000
  151.8852  145.6762  159.0542 C   0  0  0  0  0  0  0  0  0  0  0  0
  151.5622  144.6622  157.9463 C   0  0  0  0  0  0  0  0  0  0  0  0
  151.9810  143.2980  158.2690 N   0  0  0  0  0  0  0  0  0  0  0  0
  153.0323  143.0863  159.2671 C   0  0  0  0  0  0  0  0  0  0  0  0
  152.5316  142.3711  160.5310 C   0  0  0  0  0  0  0  0  0  0  0  0
  151.2519  142.1921  157.7670 C   0  0  0  0  0  0  0  0  0  0  0  0
  151.4970  140.8505  158.1533 C   0  0  0  0  0  0  0  0  0  0  0  0
  150.7269  139.8058  157.6028 C   0  0  0  0  0  0  0  0  0  0  0  0
  149.7063  140.0970  156.6748 C   0  0  0  0  0  0  0  0  0  0  0  0
  148.9704  139.0049  156.1393 N   0  0  0  0  0  0  0  0  0  0  0  0
  147.6882  138.9678  155.7243 C   0  0  0  0  0  0  0  0  0  0  0  0
  146.9058  139.9132  155.7786 O   0  0  0  0  0  0  0  0  0  0  0  0
  147.2972  137.7714  155.2501 N   0  0  0  0  0  0  0  0  0  0  0  0
  145.9836  137.3943  154.7255 C   0  0  1  0  0  0  0  0  0  0  0  0
  144.8031  137.8893  155.5776 C   0  0  0  0  0  0  0  0  0  0  0  0
  143.7210  138.3236  154.5686 C   0  0  0  0  0  0  0  0  0  0  0  0
  144.2387  137.9942  153.2207 N   0  3  2  0  0  0  0  0  0  0  0  0
  143.7034  136.6998  152.7161 C   0  0  0  0  0  0  0  0  0  0  0  0
  144.4120  136.2420  151.4348 C   0  0  0  0  0  0  0  0  0  0  0  0
  145.9169  136.1113  151.6815 C   0  0  0  0  0  0  0  0  0  0  0  0
  146.4764  137.4578  152.1537 C   0  0  0  0  0  0  0  0  0  0  0  0
  145.7139  138.0432  153.3637 C   0  0  2  0  0  0  0  0  0  0  0  0
  149.5010  141.4495  156.3146 C   0  0  0  0  0  0  0  0  0  0  0  0
  150.2640  142.4178  156.8660 N   0  3  0  0  0  0  0  0  0  0  0  0
  151.5145  146.6651  158.7845 H   0  0  0  0  0  0  0  0  0  0  0  0
  152.9582  145.7677  159.2160 H   0  0  0  0  0  0  0  0  0  0  0  0
  151.4252  145.3998  160.0030 H   0  0  0  0  0  0  0  0  0  0  0  0
  150.4990  144.6813  157.7088 H   0  0  0  0  0  0  0  0  0  0  0  0
  152.0625  144.9741  157.0290 H   0  0  0  0  0  0  0  0  0  0  0  0
  153.8617  142.5330  158.8257 H   0  0  0  0  0  0  0  0  0  0  0  0
  153.4502  144.0527  159.5499 H   0  0  0  0  0  0  0  0  0  0  0  0
  153.3520  142.2170  161.2322 H   0  0  0  0  0  0  0  0  0  0  0  0
  152.1103  141.3927  160.2996 H   0  0  0  0  0  0  0  0  0  0  0  0
  151.7683  142.9505  161.0479 H   0  0  0  0  0  0  0  0  0  0  0  0
  152.2707  140.5955  158.8611 H   0  0  0  0  0  0  0  0  0  0  0  0
  150.9223  138.7852  157.8975 H   0  0  0  0  0  0  0  0  0  0  0  0
  149.4705  138.1294  156.0949 H   0  0  0  0  0  0  0  0  0  0  0  0
  147.9878  137.0345  155.2760 H   0  0  0  0  0  0  0  0  0  0  0  0
  145.9249  136.3098  154.6198 H   0  0  0  0  0  0  0  0  0  0  0  0
  144.4432  137.1022  156.2410 H   0  0  0  0  0  0  0  0  0  0  0  0
  145.0885  138.7379  156.2013 H   0  0  0  0  0  0  0  0  0  0  0  0
  142.7533  137.8616  154.7704 H   0  0  0  0  0  0  0  0  0  0  0  0
  143.5803  139.4037  154.6263 H   0  0  0  0  0  0  0  0  0  0  0  0
  143.8097  135.9292  153.4813 H   0  0  0  0  0  0  0  0  0  0  0  0
  142.6341  136.8063  152.5295 H   0  0  0  0  0  0  0  0  0  0  0  0
  144.0049  135.2852  151.1064 H   0  0  0  0  0  0  0  0  0  0  0  0
  144.2247  136.9535  150.6293 H   0  0  0  0  0  0  0  0  0  0  0  0
  146.1097  135.3386  152.4265 H   0  0  0  0  0  0  0  0  0  0  0  0
  146.4217  135.7951  150.7682 H   0  0  0  0  0  0  0  0  0  0  0  0
  147.5378  137.3633  152.3851 H   0  0  0  0  0  0  0  0  0  0  0  0
  146.4126  138.1663  151.3266 H   0  0  0  0  0  0  0  0  0  0  0  0
  145.9828  139.0989  153.4392 H   0  0  0  0  0  0  0  0  0  0  0  0
  148.7712  141.8038  155.6029 H   0  0  0  0  0  0  0  0  0  0  0  0
  143.9526  138.7101  152.5678 H   0  0  0  0  0  0  0  0  0  0  0  0
  150.0878  143.3814  156.5815 H   0  0  0  0  0  0  0  0  0  0  0  0
  1  2  1  0  0  0  0
  1 25  1  0  0  0  0
  1 26  1  0  0  0  0
  1 27  1  0  0  0  0
  2  3  1  0  0  0  0
  2 28  1  0  0  0  0
  2 29  1  0  0  0  0
  3  4  1  0  0  0  0
  3  6  1  0  0  0  0
  4  5  1  0  0  0  0
  4 30  1  0  0  0  0
  4 31  1  0  0  0  0
  5 32  1  0  0  0  0
  5 33  1  0  0  0  0
  5 34  1  0  0  0  0
  6 24  1  0  0  0  0
  6  7  2  0  0  0  0
  7  8  1  0  0  0  0
  7 35  1  0  0  0  0
  8  9  2  0  0  0  0
  8 36  1  0  0  0  0
  9 10  1  0  0  0  0
  9 23  1  0  0  0  0
 10 11  1  0  0  0  0
 10 37  1  0  0  0  0
 11 12  2  0  0  0  0
 11 13  1  0  0  0  0
 13 14  1  0  0  0  0
 13 38  1  0  0  0  0
 14 22  1  0  0  0  0
 14 15  1  0  0  0  0
 14 39  1  0  0  0  0
 15 16  1  0  0  0  0
 15 40  1  0  0  0  0
 15 41  1  0  0  0  0
 16 17  1  0  0  0  0
 16 42  1  0  0  0  0
 16 43  1  0  0  0  0
 17 22  1  0  0  0  0
 17 18  1  0  0  0  0
 17 54  1  0  0  0  0
 18 19  1  0  0  0  0
 18 44  1  0  0  0  0
 18 45  1  0  0  0  0
 19 20  1  0  0  0  0
 19 46  1  0  0  0  0
 19 47  1  0  0  0  0
 20 21  1  0  0  0  0
 20 48  1  0  0  0  0
 20 49  1  0  0  0  0
 21 22  1  0  0  0  0
 21 50  1  0  0  0  0
 21 51  1  0  0  0  0
 22 52  1  0  0  0  0
 23 24  2  0  0  0  0
 23 53  1  0  0  0  0
 24 55  1  0  0  0  0
M  CHG  1  17   1
M  CHG  1  24   1
M  END
> <s_m_source_file>
AV-unprocessed.smi

> <i_m_source_file_index>
1701

> <i_lp_mmshare_version>
43012

> <i_f3d_flags>
0

> <s_epik_input>
W0NIM11bQ0gyXU4oW0NIMl1bQ0gzXSljMVtjSF1bY0hdYyhbY0hdbjEpW05IXUMoPU8pW05IXVtDQEhdKFtDSDJdW0NIMl0yKVtDQEBIXShOMjMpW0NIMl1bQ0gyXVtDSDJdW0NIMl0z

> <s_epik_cmdline>
J2VwaWtfcHl0aG9uJywgJy1waCcsICc3LjAnLCAnLXRuJywgJzgnLCAnLW1hJywgJzIwMCcsICctbWV0YWxfYmluZGluZycsICctaW1hZScsICc8aW5maWxlLm1hZT4nLCAnLW9tYWUnLCAnPG91dGZpbGUubWFlPic=

> <r_lp_tautomer_probability>
0.999994

> <r_epik_Ionization_Penalty>
0.302862

> <r_epik_Ionization_Penalty_Charging>
0.302842

> <r_epik_Ionization_Penalty_Neutral>
1.95166e-05

> <r_epik_State_Penalty>
0.019791

> <r_epik_Charging_Adjusted_Penalty>
0.322633

> <i_epik_Tot_Q>
2

> <i_epik_Tot_abs_Q>
2

> <r_epik_Metal_State_Penalty>
0.0536763

> <b_epik_Metal_Only>
0

> <s_lp_Force_Field>
OPLS_2005

> <r_lp_Energy>
65.6354

> <b_lp_Chiralities_Consistent>
1

> <s_lp_Variant>
AV-unprocessed.smi:1701-8

> <Gold.Version>
5.8.1

> <Gold.Id.Protein>
6NUR|6NUR_protein|mol2

> <Gold.PLP.Fitness>
47.1506

> <Gold.PLP.PLP>
-36.5431

> <Gold.PLP.part.hbond>
-2.0000

> <Gold.PLP.part.metal>
0.0000

> <Gold.PLP.part.buried>
-1.4493

> <Gold.PLP.part.nonpolar>
-33.1935

> <Gold.PLP.part.repulsive>
0.0245

> <Gold.PLP.ligand.clash>
0.0000

> <Gold.PLP.ligand.torsion>
0.7291

> <Gold.PLP.Chemscore.Hbond>
3.9840

> <Gold.PLP.Chemscore.CHOScore>
0.0000

> <Gold.PLP.Chemscore.Metal>
0.0000

> <Gold.Chemscore.Hbonds>
donor molecule, donor type, donor heavy atom, donor atom, acceptor molecule, acceptor atom, score
      L1  H    17    54       P1 10175  1.70
      L1  H    24    55       P1  8028  1.98

> <Gold.PLP.Chemscore.Internal.Correction>
0.1137

> <Gold.Rescore>
     Score         DG    S(hbond)    S(metal)    S(lipo)     H(rot)  DE(clash)    DE(int)     intcor
     15.73     -18.77       1.78        0.00      91.17       1.30       0.31       2.73       ----

> <Gold.Chemscore.Fitness>
15.7254

> <Gold.Chemscore.DG>
-18.7669

> <Gold.Chemscore.ZeroCoef>
-5.4800

> <Gold.Chemscore.Hbond>
1.7822

> <Gold.Chemscore.Metal>
0.0000

> <Gold.Chemscore.Lipo>
91.1736

> <Gold.Chemscore.Internal_Hbond>
0.0000

> <Gold.Chemscore.DEClash>
0.3079

> <Gold.Chemscore.DEInternal>
2.7337

> <Gold.Chemscore.Rot>
1.3020

> <Gold.Chemscore.Internal.Correction>
   9.000000E+99

> <Gold.Chemscore.Hbonds>
donor molecule, donor type, donor heavy atom, donor atom, acceptor molecule, acceptor atom, score
      L1  H    17    54       P1 10175  0.83
      L1  H    24    55       P1  8028  0.89

> <Gold.Chemscore.Hbond.Weighted>
-5.9527

> <Gold.Chemscore.Metal.Weighted>
-0.0000

> <Gold.Chemscore.Lipo.Weighted>
-10.6673

> <Gold.Chemscore.Internal_Hbond.Weighted>
0.0000

> <Gold.Chemscore.DEClash.Weighted>
0.3079

> <Gold.Chemscore.DEInternal.Weighted>
2.7337

> <Gold.Chemscore.Rot.Weighted>
3.3330

> <Gold.Chemscore.Internal.Correction.Weighted>
   9.000000E+99

> <Gold.Protein.RotatedTorsions>
[ 6907 6896 6895 6894 ] final -146.45 input  -60.11 | X-H torsion
[ 7974 7965 7964 7962 ] final -162.68 input  175.53 | X-H torsion
[ 8008 7997 7996 7995 ] final   -8.40 input   59.86 | X-H torsion
[ 10167 10162 10161 10158 ] final  163.50 input  -65.29 | X-H torsion
[ 10718 10713 10712 10709 ] final -139.25 input   66.30 | X-H torsion
[ 10763 10752 10751 10750 ] final -168.25 input  -60.55 | X-H torsion
[ 11005 11000 10999 10996 ] final   -1.59 input  -57.11 | X-H torsion

> <Gold.Protein.ActiveResidues>
 VAL166  LYS551  ARG553  GLY616  TRP617  ASP618  TYR619  PRO620  LYS621  CYS622 
 ASP623  PHE694  ASN695  SER759  ASP760  ASP761  ALA762  ILE779  LEU786  VAL792 
 PHE793  MET794  SER795  GLU796  ALA797  LYS798  CYS799  TRP800  GLU811  SER814 

> <Gold.Protein.RotatedAtoms>
  151.1418  133.4966  159.2596 H   0  0  0  0  0  0  0  0  0  0  0  0  # atno 6907 bound_to 6896
  151.1646  135.0289  159.8735 H   0  0  0  0  0  0  0  0  0  0  0  0  # atno 6908 bound_to 6896
  152.5462  134.1288  159.8483 H   0  0  0  0  0  0  0  0  0  0  0  0  # atno 6909 bound_to 6896
  144.7349  140.3217  143.6169 H   0  0  0  0  0  0  0  0  0  0  0  0  # atno 7974 bound_to 7965
  154.5745  140.2382  155.8143 H   0  0  0  0  0  0  0  0  0  0  0  0  # atno 8008 bound_to 7997
  156.2132  140.3020  155.9737 H   0  0  0  0  0  0  0  0  0  0  0  0  # atno 8009 bound_to 7997
  155.2652  140.0416  157.2992 H   0  0  0  0  0  0  0  0  0  0  0  0  # atno 8010 bound_to 7997
  139.4875  144.4330  151.9046 H   0  0  0  0  0  0  0  0  0  0  0  0  # atno 10167 bound_to 10162
  156.3086  130.7469  151.1539 H   0  0  0  0  0  0  0  0  0  0  0  0  # atno 10718 bound_to 10713
  154.6648  135.2930  154.9819 H   0  0  0  0  0  0  0  0  0  0  0  0  # atno 10763 bound_to 10752
  154.0866  135.6597  153.4850 H   0  0  0  0  0  0  0  0  0  0  0  0  # atno 10764 bound_to 10752
  153.0451  135.5210  154.7617 H   0  0  0  0  0  0  0  0  0  0  0  0  # atno 10765 bound_to 10752
  140.6490  133.9421  155.8369 H   0  0  0  0  0  0  0  0  0  0  0  0  # atno 11005 bound_to 11000
  145.7562  139.1809  143.2293 LP  0  0  0  0  0  0  0  0  0  0  0  0  # atno 17320 bound_to 7965
  146.1022  140.7529  142.9543 LP  0  0  0  0  0  0  0  0  0  0  0  0  # atno 17321 bound_to 7965
  140.3779  144.2773  150.5912 LP  0  0  0  0  0  0  0  0  0  0  0  0  # atno 17342 bound_to 10162
  140.5260  143.2254  151.8314 LP  0  0  0  0  0  0  0  0  0  0  0  0  # atno 17343 bound_to 10162
  157.7385  131.0539  150.5288 LP  0  0  0  0  0  0  0  0  0  0  0  0  # atno 17370 bound_to 10713
  156.5425  130.4211  149.6147 LP  0  0  0  0  0  0  0  0  0  0  0  0  # atno 17371 bound_to 10713
  141.0551  134.0429  157.3733 LP  0  0  0  0  0  0  0  0  0  0  0  0  # atno 17394 bound_to 11000
  139.9052  135.0177  156.7455 LP  0  0  0  0  0  0  0  0  0  0  0  0  # atno 17395 bound_to 11000

$$$$
