AV-unprocessed.smi:3047|AV-procd|sdf|11624|dock2
  -GOLD-   2272017 13D 1   1.00000     0.00000
 Structure written by MMmdl.
 37 38  0  0  0  0  0  0  0  0  1 V2000
  154.3408  140.5107  161.9083 C   0  0  0  0  0  0  0  0  0  0  0  0
  154.1473  140.6843  160.0861 S   0  0  0  0  0  0  0  0  0  0  0  0
  155.4781  140.9331  159.5113 O   0  0  0  0  0  0  0  0  0  0  0  0
  153.3286  139.5678  159.5891 O   0  0  0  0  0  0  0  0  0  0  0  0
  153.2284  142.1467  159.9162 N   0  0  0  0  0  0  0  0  0  0  0  0
  152.7591  142.9111  161.0690 C   0  0  0  0  0  0  0  0  0  0  0  0
  152.2236  144.2059  160.4650 C   0  0  0  0  0  0  0  0  0  0  0  0
  151.7042  143.7847  159.0925 C   0  0  0  0  0  0  0  0  0  0  0  0
  152.6181  142.6179  158.6595 C   0  0  2  0  0  0  0  0  0  0  0  0
  151.8573  141.5480  157.8606 C   0  0  0  0  0  0  0  0  0  0  0  0
  152.4446  140.5645  157.4081 O   0  0  0  0  0  0  0  0  0  0  0  0
  150.5493  141.7687  157.6683 N   0  0  0  0  0  0  0  0  0  0  0  0
  149.6773  140.9129  156.8778 C   0  0  0  0  0  0  0  0  0  0  0  0
  149.8485  141.2083  155.3822 C   0  0  0  0  0  0  0  0  0  0  0  0
  148.5725  141.2332  154.6968 N   0  0  0  0  0  0  0  0  0  0  0  0
  148.1404  140.3712  153.6975 C   0  0  0  0  0  0  0  0  0  0  0  0
  146.8729  140.7796  153.3479 C   0  0  0  0  0  0  0  0  0  0  0  0
  146.5084  141.8848  154.1138 N   0  0  0  0  0  0  0  0  0  0  0  0
  147.5646  142.0952  154.8888 C   0  0  0  0  0  0  0  0  0  0  0  0
  154.9891  139.6611  162.1209 H   0  0  0  0  0  0  0  0  0  0  0  0
  153.3723  140.3411  162.3752 H   0  0  0  0  0  0  0  0  0  0  0  0
  154.7888  141.4161  162.3166 H   0  0  0  0  0  0  0  0  0  0  0  0
  151.9680  142.3524  161.5702 H   0  0  0  0  0  0  0  0  0  0  0  0
  153.5659  143.0910  161.7798 H   0  0  0  0  0  0  0  0  0  0  0  0
  151.4572  144.6754  161.0823 H   0  0  0  0  0  0  0  0  0  0  0  0
  153.0401  144.9193  160.3452 H   0  0  0  0  0  0  0  0  0  0  0  0
  150.6615  143.4787  159.1891 H   0  0  0  0  0  0  0  0  0  0  0  0
  151.7329  144.6114  158.3819 H   0  0  0  0  0  0  0  0  0  0  0  0
  153.4247  143.0162  158.0417 H   0  0  0  0  0  0  0  0  0  0  0  0
  150.1425  142.6054  158.0612 H   0  0  0  0  0  0  0  0  0  0  0  0
  149.9164  139.8677  157.0814 H   0  0  0  0  0  0  0  0  0  0  0  0
  148.6409  141.0736  157.1793 H   0  0  0  0  0  0  0  0  0  0  0  0
  150.3403  142.1710  155.2356 H   0  0  0  0  0  0  0  0  0  0  0  0
  150.4802  140.4525  154.9128 H   0  0  0  0  0  0  0  0  0  0  0  0
  148.7535  139.5626  153.3275 H   0  0  0  0  0  0  0  0  0  0  0  0
  146.2010  140.3672  152.6096 H   0  0  0  0  0  0  0  0  0  0  0  0
  147.6066  142.8967  155.6120 H   0  0  0  0  0  0  0  0  0  0  0  0
  1  2  1  0  0  0  0
  1 20  1  0  0  0  0
  1 21  1  0  0  0  0
  1 22  1  0  0  0  0
  2  3  2  0  0  0  0
  2  4  2  0  0  0  0
  2  5  1  0  0  0  0
  5  9  1  0  0  0  0
  5  6  1  0  0  0  0
  6  7  1  0  0  0  0
  6 23  1  0  0  0  0
  6 24  1  0  0  0  0
  7  8  1  0  0  0  0
  7 25  1  0  0  0  0
  7 26  1  0  0  0  0
  8  9  1  0  0  0  0
  8 27  1  0  0  0  0
  8 28  1  0  0  0  0
  9 10  1  0  0  0  0
  9 29  1  0  0  0  0
 10 11  2  0  0  0  0
 10 12  1  0  0  0  0
 12 13  1  0  0  0  0
 12 30  1  0  0  0  0
 13 14  1  0  0  0  0
 13 31  1  0  0  0  0
 13 32  1  0  0  0  0
 14 15  1  0  0  0  0
 14 33  1  0  0  0  0
 14 34  1  0  0  0  0
 15 19  1  0  0  0  0
 15 16  1  0  0  0  0
 16 17  2  0  0  0  0
 16 35  1  0  0  0  0
 17 18  1  0  0  0  0
 17 36  1  0  0  0  0
 18 19  2  0  0  0  0
 19 37  1  0  0  0  0
M  END
> <s_m_source_file>
AV-unprocessed.smi

> <i_m_source_file_index>
3047

> <i_lp_mmshare_version>
43012

> <i_f3d_flags>
0

> <s_epik_input>
W0NIM11TKD1PKSg9TylOMVtDSDJdW0NIMl1bQ0gyXVtDQEhdMUMoPU8pW05IXVtDSDJdW0NIMl1uMltjSF1bY0hdbltjSF0y

> <s_epik_cmdline>
J2VwaWtfcHl0aG9uJywgJy1waCcsICc3LjAnLCAnLXRuJywgJzgnLCAnLW1hJywgJzIwMCcsICctbWV0YWxfYmluZGluZycsICctaW1hZScsICc8aW5maWxlLm1hZT4nLCAnLW9tYWUnLCAnPG91dGZpbGUubWFlPic=

> <r_lp_tautomer_probability>
1

> <r_epik_Ionization_Penalty>
0.575721

> <r_epik_Ionization_Penalty_Charging>
0.575721

> <r_epik_Ionization_Penalty_Neutral>
1.33078e-07

> <r_epik_State_Penalty>
0.588056

> <r_epik_Charging_Adjusted_Penalty>
1.16378

> <i_epik_Tot_Q>
0

> <i_epik_Tot_abs_Q>
0

> <r_epik_Metal_State_Penalty>
0.294357

> <b_epik_Metal_Only>
0

> <s_lp_Force_Field>
OPLS_2005

> <r_lp_Energy>
9.27481

> <b_lp_Chiralities_Consistent>
1

> <s_lp_Variant>
AV-unprocessed.smi:3047-4

> <Gold.Version>
5.8.1

> <Gold.Id.Protein>
6NUR|6NUR_protein|mol2

> <Gold.PLP.Fitness>
44.2120

> <Gold.PLP.PLP>
-36.7387

> <Gold.PLP.part.hbond>
-1.8423

> <Gold.PLP.part.metal>
0.0000

> <Gold.PLP.part.buried>
0.9542

> <Gold.PLP.part.nonpolar>
-35.2745

> <Gold.PLP.part.repulsive>
0.2219

> <Gold.PLP.ligand.clash>
0.8983

> <Gold.PLP.ligand.torsion>
1.6958

> <Gold.PLP.Chemscore.Hbond>
0.6339

> <Gold.PLP.Chemscore.CHOScore>
2.6073

> <Gold.PLP.Chemscore.Metal>
0.0000

> <Gold.Chemscore.Hbonds>
donor molecule, donor type, donor heavy atom, donor atom, acceptor molecule, acceptor atom, score
      P1  H  7997  8009       L1    11  0.64
      L1  C    16    35       P1  7957  0.63
      L1  C    17    36       P1 10175  1.00
      L1  C    19    37       P1  8028  1.00

> <Gold.PLP.Chemscore.Internal.Correction>
2.0395

> <Gold.Rescore>
     Score         DG    S(hbond)    S(metal)    S(lipo)     H(rot)  DE(clash)    DE(int)     intcor
      8.02     -12.41       0.90        0.00      77.91       2.03       0.21       4.18       ----

> <Gold.Chemscore.Fitness>
8.0197

> <Gold.Chemscore.DG>
-12.4140

> <Gold.Chemscore.ZeroCoef>
-5.4800

> <Gold.Chemscore.Hbond>
0.8996

> <Gold.Chemscore.Metal>
0.0000

> <Gold.Chemscore.Lipo>
77.9114

> <Gold.Chemscore.Internal_Hbond>
0.0000

> <Gold.Chemscore.DEClash>
0.2096

> <Gold.Chemscore.DEInternal>
4.1847

> <Gold.Chemscore.Rot>
2.0259

> <Gold.Chemscore.Internal.Correction>
   9.000000E+99

> <Gold.Chemscore.Hbonds>
donor molecule, donor type, donor heavy atom, donor atom, acceptor molecule, acceptor atom, score
      P1  H  7997  8009       L1    11  0.64

> <Gold.Chemscore.Hbond.Weighted>
-3.0046

> <Gold.Chemscore.Metal.Weighted>
-0.0000

> <Gold.Chemscore.Lipo.Weighted>
-9.1156

> <Gold.Chemscore.Internal_Hbond.Weighted>
0.0000

> <Gold.Chemscore.DEClash.Weighted>
0.2096

> <Gold.Chemscore.DEInternal.Weighted>
4.1847

> <Gold.Chemscore.Rot.Weighted>
5.1863

> <Gold.Chemscore.Internal.Correction.Weighted>
   9.000000E+99

> <Gold.Protein.RotatedTorsions>
[ 6907 6896 6895 6894 ] final  117.05 input  -60.11 | X-H torsion
[ 7974 7965 7964 7962 ] final -139.81 input  175.53 | X-H torsion
[ 8008 7997 7996 7995 ] final -177.65 input   59.86 | X-H torsion
[ 10167 10162 10161 10158 ] final   56.72 input  -65.29 | X-H torsion
[ 10718 10713 10712 10709 ] final -168.88 input   66.30 | X-H torsion
[ 10763 10752 10751 10750 ] final -175.86 input  -60.55 | X-H torsion
[ 11005 11000 10999 10996 ] final   84.79 input  -57.11 | X-H torsion

> <Gold.Protein.ActiveResidues>
 VAL166  LYS551  ARG553  GLY616  TRP617  ASP618  TYR619  PRO620  LYS621  CYS622 
 ASP623  PHE694  ASN695  SER759  ASP760  ASP761  ALA762  ILE779  LEU786  VAL792 
 PHE793  MET794  SER795  GLU796  ALA797  LYS798  CYS799  TRP800  GLU811  SER814 

> <Gold.Protein.RotatedAtoms>
  152.4637  133.7877  159.6884 H   0  0  0  0  0  0  0  0  0  0  0  0  # atno 6907 bound_to 6896
  150.8592  133.7659  159.3004 H   0  0  0  0  0  0  0  0  0  0  0  0  # atno 6908 bound_to 6896
  151.5229  135.1070  159.9935 H   0  0  0  0  0  0  0  0  0  0  0  0  # atno 6909 bound_to 6896
  144.8647  140.6274  143.5306 H   0  0  0  0  0  0  0  0  0  0  0  0  # atno 7974 bound_to 7965
  156.0095  140.1237  157.0468 H   0  0  0  0  0  0  0  0  0  0  0  0  # atno 8008 bound_to 7997
  154.4271  140.1090  156.5879 H   0  0  0  0  0  0  0  0  0  0  0  0  # atno 8009 bound_to 7997
  155.6099  140.3471  155.4621 H   0  0  0  0  0  0  0  0  0  0  0  0  # atno 8010 bound_to 7997
  140.2057  144.3941  150.6510 H   0  0  0  0  0  0  0  0  0  0  0  0  # atno 10167 bound_to 10162
  156.7034  130.9205  151.3082 H   0  0  0  0  0  0  0  0  0  0  0  0  # atno 10718 bound_to 10713
  154.5793  135.2835  155.0749 H   0  0  0  0  0  0  0  0  0  0  0  0  # atno 10763 bound_to 10752
  154.2091  135.6411  153.5114 H   0  0  0  0  0  0  0  0  0  0  0  0  # atno 10764 bound_to 10752
  153.0083  135.5487  154.6442 H   0  0  0  0  0  0  0  0  0  0  0  0  # atno 10765 bound_to 10752
  139.8990  134.8241  156.2493 H   0  0  0  0  0  0  0  0  0  0  0  0  # atno 11005 bound_to 11000
  145.4245  139.1558  143.4056 LP  0  0  0  0  0  0  0  0  0  0  0  0  # atno 17320 bound_to 7965
  146.2886  140.4357  142.8748 LP  0  0  0  0  0  0  0  0  0  0  0  0  # atno 17321 bound_to 7965
  140.6359  143.2195  151.6396 LP  0  0  0  0  0  0  0  0  0  0  0  0  # atno 17342 bound_to 10162
  139.5199  144.3238  152.0887 LP  0  0  0  0  0  0  0  0  0  0  0  0  # atno 17343 bound_to 10162
  157.6964  130.9286  150.0657 LP  0  0  0  0  0  0  0  0  0  0  0  0  # atno 17370 bound_to 10713
  156.1712  130.3646  149.9162 LP  0  0  0  0  0  0  0  0  0  0  0  0  # atno 17371 bound_to 10713
  141.0234  133.7028  156.1307 LP  0  0  0  0  0  0  0  0  0  0  0  0  # atno 17394 bound_to 11000
  140.7201  134.4368  157.5575 LP  0  0  0  0  0  0  0  0  0  0  0  0  # atno 17395 bound_to 11000

$$$$
