AV-unprocessed.smi:349|AV-procd|sdf|2396|dock2
  -GOLD-   2262022323D 1   1.00000     0.00000
 Structure written by MMmdl.
 43 44  0  0  0  0  0  0  0  0  1 V2000
  151.8869  143.6083  161.4504 C   0  0  0  0  0  0  0  0  0  0  0  0
  151.6681  144.6585  160.3499 C   0  0  0  0  0  0  0  0  0  0  0  0
  150.6873  144.2228  159.2384 C   0  0  2  0  0  0  0  0  0  0  0  0
  149.3061  143.8854  159.8252 C   0  0  0  0  0  0  0  0  0  0  0  0
  151.2266  143.0296  158.4353 C   0  0  0  0  0  0  0  0  0  0  0  0
  152.2339  142.4313  158.8147 O   0  0  0  0  0  0  0  0  0  0  0  0
  150.5527  142.7031  157.3215 N   0  0  0  0  0  0  0  0  0  0  0  0
  150.9289  141.6336  156.4028 C   0  0  0  0  0  0  0  0  0  0  0  0
  149.8134  141.2171  155.4418 C   0  0  0  0  0  0  0  0  0  0  0  0
  148.9086  142.1865  154.9515 C   0  0  0  0  0  0  0  0  0  0  0  0
  147.8723  141.7928  154.0868 C   0  0  0  0  0  0  0  0  0  0  0  0
  147.7703  140.4326  153.7476 C   0  0  0  0  0  0  0  0  0  0  0  0
  148.6165  139.4915  154.2130 N   0  0  0  0  0  0  0  0  0  0  0  0
  149.6196  139.8657  155.0449 C   0  0  0  0  0  0  0  0  0  0  0  0
  150.4927  138.8568  155.4884 N   0  0  0  0  0  0  0  0  0  0  0  0
  151.8727  139.0799  155.0760 C   0  0  0  0  0  0  0  0  0  0  0  0
  152.7990  138.0725  155.7782 C   0  0  0  0  0  0  0  0  0  0  0  0
  152.3560  136.7445  155.5098 O   0  0  0  0  0  0  0  0  0  0  0  0
  151.0302  136.5152  155.9800 C   0  0  0  0  0  0  0  0  0  0  0  0
  150.0604  137.4796  155.2760 C   0  0  0  0  0  0  0  0  0  0  0  0
  152.6468  143.9427  162.1568 H   0  0  0  0  0  0  0  0  0  0  0  0
  152.2203  142.6595  161.0292 H   0  0  0  0  0  0  0  0  0  0  0  0
  150.9749  143.4229  162.0181 H   0  0  0  0  0  0  0  0  0  0  0  0
  151.3292  145.5907  160.8041 H   0  0  0  0  0  0  0  0  0  0  0  0
  152.6344  144.8840  159.8973 H   0  0  0  0  0  0  0  0  0  0  0  0
  150.5557  145.0643  158.5559 H   0  0  0  0  0  0  0  0  0  0  0  0
  148.6123  143.5599  159.0489 H   0  0  0  0  0  0  0  0  0  0  0  0
  148.8655  144.7570  160.3100 H   0  0  0  0  0  0  0  0  0  0  0  0
  149.3691  143.0911  160.5703 H   0  0  0  0  0  0  0  0  0  0  0  0
  149.7334  143.2436  157.0843 H   0  0  0  0  0  0  0  0  0  0  0  0
  151.8359  141.9313  155.8769 H   0  0  0  0  0  0  0  0  0  0  0  0
  151.1998  140.7611  156.9973 H   0  0  0  0  0  0  0  0  0  0  0  0
  149.0001  143.2248  155.2344 H   0  0  0  0  0  0  0  0  0  0  0  0
  147.1714  142.5154  153.6962 H   0  0  0  0  0  0  0  0  0  0  0  0
  146.9878  140.0900  153.0866 H   0  0  0  0  0  0  0  0  0  0  0  0
  151.9481  138.9658  153.9938 H   0  0  0  0  0  0  0  0  0  0  0  0
  152.1819  140.0983  155.3118 H   0  0  0  0  0  0  0  0  0  0  0  0
  153.8210  138.1863  155.4170 H   0  0  0  0  0  0  0  0  0  0  0  0
  152.8194  138.2497  156.8548 H   0  0  0  0  0  0  0  0  0  0  0  0
  150.7519  135.4822  155.7711 H   0  0  0  0  0  0  0  0  0  0  0  0
  150.9900  136.6441  157.0629 H   0  0  0  0  0  0  0  0  0  0  0  0
  149.0492  137.3458  155.6619 H   0  0  0  0  0  0  0  0  0  0  0  0
  150.0345  137.2579  154.2082 H   0  0  0  0  0  0  0  0  0  0  0  0
  1  2  1  0  0  0  0
  1 21  1  0  0  0  0
  1 22  1  0  0  0  0
  1 23  1  0  0  0  0
  2  3  1  0  0  0  0
  2 24  1  0  0  0  0
  2 25  1  0  0  0  0
  3  4  1  0  0  0  0
  3  5  1  0  0  0  0
  3 26  1  0  0  0  0
  4 27  1  0  0  0  0
  4 28  1  0  0  0  0
  4 29  1  0  0  0  0
  5  6  2  0  0  0  0
  5  7  1  0  0  0  0
  7  8  1  0  0  0  0
  7 30  1  0  0  0  0
  8  9  1  0  0  0  0
  8 31  1  0  0  0  0
  8 32  1  0  0  0  0
  9 14  1  0  0  0  0
  9 10  2  0  0  0  0
 10 11  1  0  0  0  0
 10 33  1  0  0  0  0
 11 12  2  0  0  0  0
 11 34  1  0  0  0  0
 12 13  1  0  0  0  0
 12 35  1  0  0  0  0
 13 14  2  0  0  0  0
 14 15  1  0  0  0  0
 15 20  1  0  0  0  0
 15 16  1  0  0  0  0
 16 17  1  0  0  0  0
 16 36  1  0  0  0  0
 16 37  1  0  0  0  0
 17 18  1  0  0  0  0
 17 38  1  0  0  0  0
 17 39  1  0  0  0  0
 18 19  1  0  0  0  0
 19 20  1  0  0  0  0
 19 40  1  0  0  0  0
 19 41  1  0  0  0  0
 20 42  1  0  0  0  0
 20 43  1  0  0  0  0
M  END
> <s_m_source_file>
AV-unprocessed.smi

> <i_m_source_file_index>
349

> <i_lp_mmshare_version>
43012

> <i_f3d_flags>
0

> <s_epik_input>
W0NIM11bQ0gyXVtDQEhdKFtDSDNdKUMoPU8pW05IXVtDSDJdYzFbY0hdW2NIXVtjSF1uYzFOMltDSDJdW0NIMl1PW0NIMl1bQ0gyXTI=

> <s_epik_cmdline>
J2VwaWtfcHl0aG9uJywgJy1waCcsICc3LjAnLCAnLXRuJywgJzgnLCAnLW1hJywgJzIwMCcsICctbWV0YWxfYmluZGluZycsICctaW1hZScsICc8aW5maWxlLm1hZT4nLCAnLW9tYWUnLCAnPG91dGZpbGUubWFlPic=

> <r_lp_tautomer_probability>
1

> <r_epik_Ionization_Penalty>
0.00513869

> <r_epik_Ionization_Penalty_Charging>
0

> <r_epik_Ionization_Penalty_Neutral>
0.00513869

> <r_epik_State_Penalty>
0.00374265

> <r_epik_Charging_Adjusted_Penalty>
0.00374265

> <i_epik_Tot_Q>
0

> <i_epik_Tot_abs_Q>
0

> <r_epik_Metal_State_Penalty>
-0

> <b_epik_Metal_Only>
0

> <s_lp_Force_Field>
OPLS_2005

> <r_lp_Energy>
18.1158

> <b_lp_Chiralities_Consistent>
1

> <s_lp_Variant>
AV-unprocessed.smi:349-1

> <Gold.Version>
5.8.1

> <Gold.Id.Protein>
6NUR|6NUR_protein|mol2

> <Gold.PLP.Fitness>
42.3727

> <Gold.PLP.PLP>
-37.9337

> <Gold.PLP.part.hbond>
-2.0000

> <Gold.PLP.part.metal>
0.0000

> <Gold.PLP.part.buried>
-1.1916

> <Gold.PLP.part.nonpolar>
-34.7035

> <Gold.PLP.part.repulsive>
0.2173

> <Gold.PLP.ligand.clash>
0.0000

> <Gold.PLP.ligand.torsion>
0.7315

> <Gold.PLP.Chemscore.Hbond>
1.8960

> <Gold.PLP.Chemscore.CHOScore>
0.0000

> <Gold.PLP.Chemscore.Metal>
0.0000

> <Gold.Chemscore.Hbonds>
donor molecule, donor type, donor heavy atom, donor atom, acceptor molecule, acceptor atom, score
      L1  H     7    30       P1  8028  0.50
      P1  H 10752 10764       L1    18  0.90

> <Gold.PLP.Chemscore.Internal.Correction>
0.2140

> <Gold.Rescore>
     Score         DG    S(hbond)    S(metal)    S(lipo)     H(rot)  DE(clash)    DE(int)     intcor
     16.80     -19.29       1.89        0.00      99.98       1.64       1.72       0.77       ----

> <Gold.Chemscore.Fitness>
16.7979

> <Gold.Chemscore.DG>
-19.2901

> <Gold.Chemscore.ZeroCoef>
-5.4800

> <Gold.Chemscore.Hbond>
1.8900

> <Gold.Chemscore.Metal>
0.0000

> <Gold.Chemscore.Lipo>
99.9804

> <Gold.Chemscore.Internal_Hbond>
0.0000

> <Gold.Chemscore.DEClash>
1.7234

> <Gold.Chemscore.DEInternal>
0.7688

> <Gold.Chemscore.Rot>
1.6407

> <Gold.Chemscore.Internal.Correction>
   9.000000E+99

> <Gold.Chemscore.Hbonds>
donor molecule, donor type, donor heavy atom, donor atom, acceptor molecule, acceptor atom, score
      L1  H     7    30       P1  8028  0.47
      P1  H 10752 10764       L1    18  0.75

> <Gold.Chemscore.Hbond.Weighted>
-6.3125

> <Gold.Chemscore.Metal.Weighted>
-0.0000

> <Gold.Chemscore.Lipo.Weighted>
-11.6977

> <Gold.Chemscore.Internal_Hbond.Weighted>
0.0000

> <Gold.Chemscore.DEClash.Weighted>
1.7234

> <Gold.Chemscore.DEInternal.Weighted>
0.7688

> <Gold.Chemscore.Rot.Weighted>
4.2001

> <Gold.Chemscore.Internal.Correction.Weighted>
   9.000000E+99

> <Gold.Protein.RotatedTorsions>
[ 6907 6896 6895 6894 ] final -149.81 input  -60.11 | X-H torsion
[ 7974 7965 7964 7962 ] final  164.72 input  175.53 | X-H torsion
[ 8008 7997 7996 7995 ] final  108.50 input   59.86 | X-H torsion
[ 10167 10162 10161 10158 ] final  118.40 input  -65.29 | X-H torsion
[ 10718 10713 10712 10709 ] final  141.12 input   66.30 | X-H torsion
[ 10763 10752 10751 10750 ] final  -37.80 input  -60.55 | X-H torsion
[ 11005 11000 10999 10996 ] final  116.76 input  -57.11 | X-H torsion

> <Gold.Protein.ActiveResidues>
 VAL166  LYS551  ARG553  GLY616  TRP617  ASP618  TYR619  PRO620  LYS621  CYS622 
 ASP623  PHE694  ASN695  SER759  ASP760  ASP761  ALA762  ILE779  LEU786  VAL792 
 PHE793  MET794  SER795  GLU796  ALA797  LYS798  CYS799  TRP800  GLU811  SER814 

> <Gold.Protein.RotatedAtoms>
  151.1896  133.4675  159.2594 H   0  0  0  0  0  0  0  0  0  0  0  0  # atno 6907 bound_to 6896
  151.1177  135.0062  159.8534 H   0  0  0  0  0  0  0  0  0  0  0  0  # atno 6908 bound_to 6896
  152.5454  134.1809  159.8688 H   0  0  0  0  0  0  0  0  0  0  0  0  # atno 6909 bound_to 6896
  144.7533  139.8367  143.6359 H   0  0  0  0  0  0  0  0  0  0  0  0  # atno 7974 bound_to 7965
  156.1907  140.3075  155.9327 H   0  0  0  0  0  0  0  0  0  0  0  0  # atno 8008 bound_to 7997
  155.3179  140.0454  157.3055 H   0  0  0  0  0  0  0  0  0  0  0  0  # atno 8009 bound_to 7997
  154.5449  140.2273  155.8589 H   0  0  0  0  0  0  0  0  0  0  0  0  # atno 8010 bound_to 7997
  139.6114  144.7082  151.2836 H   0  0  0  0  0  0  0  0  0  0  0  0  # atno 10167 bound_to 10162
  157.3956  131.1010  151.0603 H   0  0  0  0  0  0  0  0  0  0  0  0  # atno 10718 bound_to 10713
  153.9022  135.6801  153.4755 H   0  0  0  0  0  0  0  0  0  0  0  0  # atno 10763 bound_to 10752
  153.1123  135.4777  154.9054 H   0  0  0  0  0  0  0  0  0  0  0  0  # atno 10764 bound_to 10752
  154.7569  135.3200  154.8407 H   0  0  0  0  0  0  0  0  0  0  0  0  # atno 10765 bound_to 10752
  139.9052  134.9602  156.7247 H   0  0  0  0  0  0  0  0  0  0  0  0  # atno 11005 bound_to 11000
  146.1511  139.4595  143.0048 LP  0  0  0  0  0  0  0  0  0  0  0  0  # atno 17320 bound_to 7965
  145.6868  141.0176  143.1577 LP  0  0  0  0  0  0  0  0  0  0  0  0  # atno 17321 bound_to 7965
  140.7321  143.6831  150.7984 LP  0  0  0  0  0  0  0  0  0  0  0  0  # atno 17342 bound_to 10162
  140.0427  143.5330  152.2710 LP  0  0  0  0  0  0  0  0  0  0  0  0  # atno 17343 bound_to 10162
  157.1621  130.6230  149.5614 LP  0  0  0  0  0  0  0  0  0  0  0  0  # atno 17370 bound_to 10713
  155.9809  130.4813  150.6800 LP  0  0  0  0  0  0  0  0  0  0  0  0  # atno 17371 bound_to 10713
  140.6973  133.9337  155.8002 LP  0  0  0  0  0  0  0  0  0  0  0  0  # atno 17394 bound_to 11000
  141.0398  134.0638  157.3916 LP  0  0  0  0  0  0  0  0  0  0  0  0  # atno 17395 bound_to 11000

$$$$
