AV-unprocessed.smi:3125|AV-procd|sdf|11908|dock9
  -GOLD-   2272017293D 1   1.00000     0.00000
 Structure written by MMmdl.
 28 29  0  0  0  0  0  0  0  0  2 V2000
  152.4808  144.6608  158.2135 C   0  0  0  0  0  0  0  0  0  0  0  0
  152.3930  143.4483  159.0048 N   0  0  0  0  0  0  0  0  0  0  0  0
  153.2406  143.1034  160.0496 C   0  0  0  0  0  0  0  0  0  0  0  0
  152.8081  141.8902  160.5258 C   0  0  0  0  0  0  0  0  0  0  0  0
  151.7028  141.4766  159.7917 N   0  0  0  0  0  0  0  0  0  0  0  0
  151.5033  142.4402  158.8959 C   0  0  0  0  0  0  0  0  0  0  0  0
  150.3907  142.4119  157.8847 C   0  0  2  0  0  0  0  0  0  0  0  0
  149.3934  141.2701  158.1605 C   0  0  0  0  0  0  0  0  0  0  0  0
  148.2852  141.2517  157.0965 C   0  0  0  0  0  0  0  0  0  0  0  0
  148.8839  141.1851  155.6819 C   0  0  0  0  0  0  0  0  0  0  0  0
  149.8239  142.3054  155.4601 N   0  3  0  0  0  0  0  0  0  0  0  0
  150.9308  142.3328  156.4416 C   0  0  0  0  0  0  0  0  0  0  0  0
  153.2961  145.2884  158.5747 H   0  0  0  0  0  0  0  0  0  0  0  0
  151.5481  145.2203  158.2891 H   0  0  0  0  0  0  0  0  0  0  0  0
  152.6683  144.4078  157.1697 H   0  0  0  0  0  0  0  0  0  0  0  0
  154.0600  143.7344  160.3620 H   0  0  0  0  0  0  0  0  0  0  0  0
  153.2027  141.2896  161.3321 H   0  0  0  0  0  0  0  0  0  0  0  0
  149.8342  143.3460  157.9602 H   0  0  0  0  0  0  0  0  0  0  0  0
  149.9133  140.3109  158.1576 H   0  0  0  0  0  0  0  0  0  0  0  0
  148.9548  141.3838  159.1526 H   0  0  0  0  0  0  0  0  0  0  0  0
  147.6234  140.4010  157.2620 H   0  0  0  0  0  0  0  0  0  0  0  0
  147.6685  142.1464  157.1927 H   0  0  0  0  0  0  0  0  0  0  0  0
  149.4095  140.2402  155.5355 H   0  0  0  0  0  0  0  0  0  0  0  0
  148.0927  141.2293  154.9333 H   0  0  0  0  0  0  0  0  0  0  0  0
  150.2119  142.2289  154.5306 H   0  0  0  0  0  0  0  0  0  0  0  0
  151.5692  143.1906  156.2283 H   0  0  0  0  0  0  0  0  0  0  0  0
  151.5425  141.4393  156.3069 H   0  0  0  0  0  0  0  0  0  0  0  0
  149.3115  143.1731  155.5287 H   0  0  0  0  0  0  0  0  0  0  0  0
  1  2  1  0  0  0  0
  1 13  1  0  0  0  0
  1 14  1  0  0  0  0
  1 15  1  0  0  0  0
  2  6  1  0  0  0  0
  2  3  1  0  0  0  0
  3  4  2  0  0  0  0
  3 16  1  0  0  0  0
  4  5  1  0  0  0  0
  4 17  1  0  0  0  0
  5  6  2  0  0  0  0
  6  7  1  0  0  0  0
  7 12  1  0  0  0  0
  7  8  1  0  0  0  0
  7 18  1  0  0  0  0
  8  9  1  0  0  0  0
  8 19  1  0  0  0  0
  8 20  1  0  0  0  0
  9 10  1  0  0  0  0
  9 21  1  0  0  0  0
  9 22  1  0  0  0  0
 10 11  1  0  0  0  0
 10 23  1  0  0  0  0
 10 24  1  0  0  0  0
 11 12  1  0  0  0  0
 11 25  1  0  0  0  0
 11 28  1  0  0  0  0
 12 26  1  0  0  0  0
 12 27  1  0  0  0  0
M  CHG  1  11   1
M  END
> <s_m_source_file>
AV-unprocessed.smi

> <i_m_source_file_index>
3125

> <i_lp_mmshare_version>
43012

> <i_f3d_flags>
0

> <s_epik_input>
W0NIM11uMVtjSF1bY0hdbmMxW0NAQEhdMltDSDJdW0NIMl1bQ0gyXVtOSF1bQ0gyXTI=

> <s_epik_cmdline>
J2VwaWtfcHl0aG9uJywgJy1waCcsICc3LjAnLCAnLXRuJywgJzgnLCAnLW1hJywgJzIwMCcsICctbWV0YWxfYmluZGluZycsICctaW1hZScsICc8aW5maWxlLm1hZT4nLCAnLW9tYWUnLCAnPG91dGZpbGUubWFlPic=

> <r_lp_tautomer_probability>
1

> <r_epik_Ionization_Penalty>
0.177191

> <r_epik_Ionization_Penalty_Charging>
0.177191

> <r_epik_Ionization_Penalty_Neutral>
7.05152e-14

> <r_epik_State_Penalty>
0.46716

> <r_epik_Charging_Adjusted_Penalty>
0.644351

> <i_epik_Tot_Q>
1

> <i_epik_Tot_abs_Q>
1

> <r_epik_Metal_State_Penalty>
0.000708398

> <b_epik_Metal_Only>
0

> <s_lp_Force_Field>
OPLS_2005

> <r_lp_Energy>
12.4076

> <b_lp_Chiralities_Consistent>
1

> <s_lp_Variant>
AV-unprocessed.smi:3125-3

> <Gold.Version>
5.8.1

> <Gold.Id.Protein>
6NUR|6NUR_protein|mol2

> <Gold.PLP.Fitness>
34.2901

> <Gold.PLP.PLP>
-28.4904

> <Gold.PLP.part.hbond>
-1.4265

> <Gold.PLP.part.metal>
0.0000

> <Gold.PLP.part.buried>
-3.4233

> <Gold.PLP.part.nonpolar>
-23.7058

> <Gold.PLP.part.repulsive>
0.1927

> <Gold.PLP.ligand.clash>
0.0000

> <Gold.PLP.ligand.torsion>
0.1133

> <Gold.PLP.Chemscore.Hbond>
2.0000

> <Gold.PLP.Chemscore.CHOScore>
0.0000

> <Gold.PLP.Chemscore.Metal>
0.0000

> <Gold.Chemscore.Hbonds>
donor molecule, donor type, donor heavy atom, donor atom, acceptor molecule, acceptor atom, score
      L1  H    11    28       P1  8028  2.00

> <Gold.PLP.Chemscore.Internal.Correction>
0.0262

> <Gold.Rescore>
     Score         DG    S(hbond)    S(metal)    S(lipo)     H(rot)  DE(clash)    DE(int)     intcor
     13.79     -13.87       1.00        0.00      65.12       1.00       0.04       0.05       ----

> <Gold.Chemscore.Fitness>
13.7881

> <Gold.Chemscore.DG>
-13.8744

> <Gold.Chemscore.ZeroCoef>
-5.4800

> <Gold.Chemscore.Hbond>
0.9987

> <Gold.Chemscore.Metal>
0.0000

> <Gold.Chemscore.Lipo>
65.1181

> <Gold.Chemscore.Internal_Hbond>
0.0000

> <Gold.Chemscore.DEClash>
0.0375

> <Gold.Chemscore.DEInternal>
0.0488

> <Gold.Chemscore.Rot>
1.0000

> <Gold.Chemscore.Internal.Correction>
   9.000000E+99

> <Gold.Chemscore.Hbonds>
donor molecule, donor type, donor heavy atom, donor atom, acceptor molecule, acceptor atom, score
      L1  H    11    28       P1  8028  0.99

> <Gold.Chemscore.Hbond.Weighted>
-3.3356

> <Gold.Chemscore.Metal.Weighted>
-0.0000

> <Gold.Chemscore.Lipo.Weighted>
-7.6188

> <Gold.Chemscore.Internal_Hbond.Weighted>
0.0000

> <Gold.Chemscore.DEClash.Weighted>
0.0375

> <Gold.Chemscore.DEInternal.Weighted>
0.0488

> <Gold.Chemscore.Rot.Weighted>
2.5600

> <Gold.Chemscore.Internal.Correction.Weighted>
   9.000000E+99

> <Gold.Protein.RotatedTorsions>
[ 6907 6896 6895 6894 ] final  106.00 input  -60.11 | X-H torsion
[ 7974 7965 7964 7962 ] final   77.33 input  175.53 | X-H torsion
[ 8008 7997 7996 7995 ] final   81.67 input   59.86 | X-H torsion
[ 10167 10162 10161 10158 ] final  -94.73 input  -65.29 | X-H torsion
[ 10718 10713 10712 10709 ] final -172.93 input   66.30 | X-H torsion
[ 10763 10752 10751 10750 ] final  147.43 input  -60.55 | X-H torsion
[ 11005 11000 10999 10996 ] final -162.70 input  -57.11 | X-H torsion

> <Gold.Protein.ActiveResidues>
 VAL166  LYS551  ARG553  GLY616  TRP617  ASP618  TYR619  PRO620  LYS621  CYS622 
 ASP623  PHE694  ASN695  SER759  ASP760  ASP761  ALA762  ILE779  LEU786  VAL792 
 PHE793  MET794  SER795  GLU796  ALA797  LYS798  CYS799  TRP800  GLU811  SER814 

> <Gold.Protein.RotatedAtoms>
  152.5210  133.9445  159.7642 H   0  0  0  0  0  0  0  0  0  0  0  0  # atno 6907 bound_to 6896
  150.9768  133.6278  159.2736 H   0  0  0  0  0  0  0  0  0  0  0  0  # atno 6908 bound_to 6896
  151.3470  135.0882  159.9443 H   0  0  0  0  0  0  0  0  0  0  0  0  # atno 6909 bound_to 6896
  145.6914  139.2553  143.1758 H   0  0  0  0  0  0  0  0  0  0  0  0  # atno 7974 bound_to 7965
  155.9003  140.3433  155.6022 H   0  0  0  0  0  0  0  0  0  0  0  0  # atno 8008 bound_to 7997
  155.7507  140.0819  157.2221 H   0  0  0  0  0  0  0  0  0  0  0  0  # atno 8009 bound_to 7997
  154.4043  140.1554  156.2708 H   0  0  0  0  0  0  0  0  0  0  0  0  # atno 8010 bound_to 7997
  140.3115  143.3102  152.0144 H   0  0  0  0  0  0  0  0  0  0  0  0  # atno 10167 bound_to 10162
  156.7628  130.9419  151.3118 H   0  0  0  0  0  0  0  0  0  0  0  0  # atno 10718 bound_to 10713
  154.0382  135.2892  155.3359 H   0  0  0  0  0  0  0  0  0  0  0  0  # atno 10763 bound_to 10752
  154.6946  135.5213  153.8443 H   0  0  0  0  0  0  0  0  0  0  0  0  # atno 10764 bound_to 10752
  153.0611  135.6614  154.0589 H   0  0  0  0  0  0  0  0  0  0  0  0  # atno 10765 bound_to 10752
  140.6063  134.4895  157.5211 H   0  0  0  0  0  0  0  0  0  0  0  0  # atno 11005 bound_to 11000
  146.0878  140.7690  142.9610 LP  0  0  0  0  0  0  0  0  0  0  0  0  # atno 17320 bound_to 7965
  144.6995  140.3590  143.7167 LP  0  0  0  0  0  0  0  0  0  0  0  0  # atno 17321 bound_to 7965
  139.4893  144.6381  151.6934 LP  0  0  0  0  0  0  0  0  0  0  0  0  # atno 17342 bound_to 10162
  140.5564  144.0341  150.6149 LP  0  0  0  0  0  0  0  0  0  0  0  0  # atno 17343 bound_to 10162
  157.6727  130.9066  150.0077 LP  0  0  0  0  0  0  0  0  0  0  0  0  # atno 17370 bound_to 10713
  156.1328  130.3643  149.9704 LP  0  0  0  0  0  0  0  0  0  0  0  0  # atno 17371 bound_to 10713
  139.9211  134.8147  156.1210 LP  0  0  0  0  0  0  0  0  0  0  0  0  # atno 17394 bound_to 11000
  141.0838  133.6743  156.2393 LP  0  0  0  0  0  0  0  0  0  0  0  0  # atno 17395 bound_to 11000

$$$$
