AV-unprocessed.smi:422|AV-procd|sdf|2537|dock6
  -GOLD-   2262022493D 1   1.00000     0.00000
 Structure written by MMmdl.
 43 45  0  0  0  0  0  0  0  0  1 V2000
  154.3587  140.8572  161.0284 C   0  0  0  0  0  0  0  0  0  0  0  0
  153.2887  140.8543  160.0381 N   0  0  0  0  0  0  0  0  0  0  0  0
  152.7160  139.7694  159.4662 C   0  0  0  0  0  0  0  0  0  0  0  0
  153.0091  138.5944  159.6871 O   0  0  0  0  0  0  0  0  0  0  0  0
  151.7764  140.2027  158.5933 N   0  0  0  0  0  0  0  0  0  0  0  0
  150.9281  139.3691  157.7446 C   0  0  0  0  0  0  0  0  0  0  0  0
  150.1413  138.3321  158.5719 C   0  0  1  0  0  0  0  0  0  0  0  0
  148.8563  138.8283  158.8886 O   0  0  0  0  0  0  0  0  0  0  0  0
  149.9582  136.9905  157.8424 C   0  0  0  0  0  0  0  0  0  0  0  0
  149.7018  135.9553  158.7788 O   0  0  0  0  0  0  0  0  0  0  0  0
  148.3279  135.8315  159.1019 C   0  0  0  0  0  0  0  0  0  0  0  0
  148.1408  135.4250  160.5499 C   0  0  0  0  0  0  0  0  0  0  0  0
  148.1810  136.4019  161.5671 C   0  0  0  0  0  0  0  0  0  0  0  0
  148.0033  136.0299  162.9140 C   0  0  0  0  0  0  0  0  0  0  0  0
  147.7827  134.6800  163.2488 C   0  0  0  0  0  0  0  0  0  0  0  0
  147.7392  133.7025  162.2359 C   0  0  0  0  0  0  0  0  0  0  0  0
  147.9164  134.0727  160.8883 C   0  0  0  0  0  0  0  0  0  0  0  0
  147.8693  133.1242  159.9221 F   0  0  0  0  0  0  0  0  0  0  0  0
  151.7661  141.6051  158.5881 C   0  0  0  0  0  0  0  0  0  0  0  0
  151.0008  142.5232  157.8479 C   0  0  0  0  0  0  0  0  0  0  0  0
  151.2415  143.8982  158.0774 C   0  0  0  0  0  0  0  0  0  0  0  0
  152.2195  144.3187  159.0162 C   0  0  0  0  0  0  0  0  0  0  0  0
  152.9784  143.3731  159.7450 C   0  0  0  0  0  0  0  0  0  0  0  0
  152.7175  142.0142  159.4987 C   0  0  0  0  0  0  0  0  0  0  0  0
  154.4487  139.8929  161.5299 H   0  0  0  0  0  0  0  0  0  0  0  0
  154.1723  141.6114  161.7933 H   0  0  0  0  0  0  0  0  0  0  0  0
  155.3119  141.0828  160.5496 H   0  0  0  0  0  0  0  0  0  0  0  0
  150.2564  139.9823  157.1410 H   0  0  0  0  0  0  0  0  0  0  0  0
  151.5745  138.8568  157.0311 H   0  0  0  0  0  0  0  0  0  0  0  0
  150.6574  138.1341  159.5125 H   0  0  0  0  0  0  0  0  0  0  0  0
  148.4749  138.2749  159.5532 H   0  0  0  0  0  0  0  0  0  0  0  0
  149.1056  137.0680  157.1658 H   0  0  0  0  0  0  0  0  0  0  0  0
  150.8319  136.7587  157.2307 H   0  0  0  0  0  0  0  0  0  0  0  0
  147.8126  136.7774  158.9260 H   0  0  0  0  0  0  0  0  0  0  0  0
  147.8593  135.0896  158.4530 H   0  0  0  0  0  0  0  0  0  0  0  0
  148.3462  137.4397  161.3170 H   0  0  0  0  0  0  0  0  0  0  0  0
  148.0350  136.7806  163.6899 H   0  0  0  0  0  0  0  0  0  0  0  0
  147.6461  134.3943  164.2813 H   0  0  0  0  0  0  0  0  0  0  0  0
  147.5688  132.6673  162.4928 H   0  0  0  0  0  0  0  0  0  0  0  0
  150.2608  142.1979  157.1315 H   0  0  0  0  0  0  0  0  0  0  0  0
  150.6748  144.6371  157.5300 H   0  0  0  0  0  0  0  0  0  0  0  0
  152.3884  145.3735  159.1750 H   0  0  0  0  0  0  0  0  0  0  0  0
  153.7269  143.6861  160.4578 H   0  0  0  0  0  0  0  0  0  0  0  0
  1  2  1  0  0  0  0
  1 25  1  0  0  0  0
  1 26  1  0  0  0  0
  1 27  1  0  0  0  0
  2 24  1  0  0  0  0
  2  3  1  0  0  0  0
  3  4  2  0  0  0  0
  3  5  1  0  0  0  0
  5  6  1  0  0  0  0
  5 19  1  0  0  0  0
  6  7  1  0  0  0  0
  6 28  1  0  0  0  0
  6 29  1  0  0  0  0
  7  8  1  0  0  0  0
  7  9  1  0  0  0  0
  7 30  1  0  0  0  0
  8 31  1  0  0  0  0
  9 10  1  0  0  0  0
  9 32  1  0  0  0  0
  9 33  1  0  0  0  0
 10 11  1  0  0  0  0
 11 12  1  0  0  0  0
 11 34  1  0  0  0  0
 11 35  1  0  0  0  0
 12 17  1  0  0  0  0
 12 13  2  0  0  0  0
 13 14  1  0  0  0  0
 13 36  1  0  0  0  0
 14 15  2  0  0  0  0
 14 37  1  0  0  0  0
 15 16  1  0  0  0  0
 15 38  1  0  0  0  0
 16 17  2  0  0  0  0
 16 39  1  0  0  0  0
 17 18  1  0  0  0  0
 19 24  2  0  0  0  0
 19 20  1  0  0  0  0
 20 21  2  0  0  0  0
 20 40  1  0  0  0  0
 21 22  1  0  0  0  0
 21 41  1  0  0  0  0
 22 23  2  0  0  0  0
 22 42  1  0  0  0  0
 23 24  1  0  0  0  0
 23 43  1  0  0  0  0
M  END
> <s_m_source_file>
AV-unprocessed.smi

> <i_m_source_file_index>
422

> <i_lp_mmshare_version>
43012

> <i_f3d_flags>
0

> <s_epik_input>
W2NIXTFbY0hdW2NIXVtjSF1jKGMxMiluKFtDSDNdKWMoPU8pbjJbQ0gyXVtDQEhdKFtPSF0pW0NIMl1PW0NIMl1jM1tjSF1bY0hdW2NIXVtjSF1jM0Y=

> <s_epik_cmdline>
J2VwaWtfcHl0aG9uJywgJy1waCcsICc3LjAnLCAnLXRuJywgJzgnLCAnLW1hJywgJzIwMCcsICctbWV0YWxfYmluZGluZycsICctaW1hZScsICc8aW5maWxlLm1hZT4nLCAnLW9tYWUnLCAnPG91dGZpbGUubWFlPic=

> <r_lp_tautomer_probability>
1

> <r_epik_Ionization_Penalty>
1.0795e-06

> <r_epik_Ionization_Penalty_Charging>
2.82452e-09

> <r_epik_Ionization_Penalty_Neutral>
1.07667e-06

> <r_epik_State_Penalty>
-0

> <r_epik_Charging_Adjusted_Penalty>
2.82452e-09

> <i_epik_Tot_Q>
0

> <i_epik_Tot_abs_Q>
0

> <r_epik_Metal_State_Penalty>
-0

> <b_epik_Metal_Only>
0

> <s_lp_Force_Field>
OPLS_2005

> <r_lp_Energy>
48.6782

> <b_lp_Chiralities_Consistent>
1

> <s_lp_Variant>
AV-unprocessed.smi:422-2

> <Gold.Version>
5.8.1

> <Gold.Id.Protein>
6NUR|6NUR_protein|mol2

> <Gold.PLP.Fitness>
55.5859

> <Gold.PLP.PLP>
-55.2531

> <Gold.PLP.part.hbond>
-2.0000

> <Gold.PLP.part.metal>
0.0000

> <Gold.PLP.part.buried>
-4.2716

> <Gold.PLP.part.nonpolar>
-49.9047

> <Gold.PLP.part.repulsive>
0.0000

> <Gold.PLP.ligand.clash>
0.0000

> <Gold.PLP.ligand.torsion>
1.4111

> <Gold.PLP.Chemscore.Hbond>
1.0000

> <Gold.PLP.Chemscore.CHOScore>
0.0000

> <Gold.PLP.Chemscore.Metal>
0.0000

> <Gold.Chemscore.Hbonds>
donor molecule, donor type, donor heavy atom, donor atom, acceptor molecule, acceptor atom, score
      P1  H  6896  6907       L1    10  1.00

> <Gold.PLP.Chemscore.Internal.Correction>
0.1549

> <Gold.Rescore>
     Score         DG    S(hbond)    S(metal)    S(lipo)     H(rot)  DE(clash)    DE(int)     intcor
     17.46     -18.96       0.95        0.00     140.11       2.38       0.03       1.47       ----

> <Gold.Chemscore.Fitness>
17.4571

> <Gold.Chemscore.DG>
-18.9621

> <Gold.Chemscore.ZeroCoef>
-5.4800

> <Gold.Chemscore.Hbond>
0.9532

> <Gold.Chemscore.Metal>
0.0000

> <Gold.Chemscore.Lipo>
140.1142

> <Gold.Chemscore.Internal_Hbond>
0.0000

> <Gold.Chemscore.DEClash>
0.0303

> <Gold.Chemscore.DEInternal>
1.4746

> <Gold.Chemscore.Rot>
2.3809

> <Gold.Chemscore.Internal.Correction>
   9.000000E+99

> <Gold.Chemscore.Hbonds>
donor molecule, donor type, donor heavy atom, donor atom, acceptor molecule, acceptor atom, score
      P1  H  6896  6907       L1    10  0.78

> <Gold.Chemscore.Hbond.Weighted>
-3.1838

> <Gold.Chemscore.Metal.Weighted>
-0.0000

> <Gold.Chemscore.Lipo.Weighted>
-16.3934

> <Gold.Chemscore.Internal_Hbond.Weighted>
0.0000

> <Gold.Chemscore.DEClash.Weighted>
0.0303

> <Gold.Chemscore.DEInternal.Weighted>
1.4746

> <Gold.Chemscore.Rot.Weighted>
6.0951

> <Gold.Chemscore.Internal.Correction.Weighted>
   9.000000E+99

> <Gold.Protein.RotatedTorsions>
[ 6907 6896 6895 6894 ] final  -70.52 input  -60.11 | X-H torsion
[ 7974 7965 7964 7962 ] final   25.63 input  175.53 | X-H torsion
[ 8008 7997 7996 7995 ] final  125.97 input   59.86 | X-H torsion
[ 10167 10162 10161 10158 ] final  164.00 input  -65.29 | X-H torsion
[ 10718 10713 10712 10709 ] final  155.05 input   66.30 | X-H torsion
[ 10763 10752 10751 10750 ] final  -39.91 input  -60.55 | X-H torsion
[ 11005 11000 10999 10996 ] final  124.93 input  -57.11 | X-H torsion

> <Gold.Protein.ActiveResidues>
 VAL166  LYS551  ARG553  GLY616  TRP617  ASP618  TYR619  PRO620  LYS621  CYS622 
 ASP623  PHE694  ASN695  SER759  ASP760  ASP761  ALA762  ILE779  LEU786  VAL792 
 PHE793  MET794  SER795  GLU796  ALA797  LYS798  CYS799  TRP800  GLU811  SER814 

> <Gold.Protein.RotatedAtoms>
  150.7254  134.5441  159.5761 H   0  0  0  0  0  0  0  0  0  0  0  0  # atno 6907 bound_to 6896
  152.2944  134.7681  160.0380 H   0  0  0  0  0  0  0  0  0  0  0  0  # atno 6908 bound_to 6896
  151.8283  133.3369  159.3642 H   0  0  0  0  0  0  0  0  0  0  0  0  # atno 6909 bound_to 6896
  146.1879  139.7439  142.8853 H   0  0  0  0  0  0  0  0  0  0  0  0  # atno 7974 bound_to 7965
  156.2850  140.2704  156.2035 H   0  0  0  0  0  0  0  0  0  0  0  0  # atno 8008 bound_to 7997
  155.0337  140.0386  157.2502 H   0  0  0  0  0  0  0  0  0  0  0  0  # atno 8009 bound_to 7997
  154.7332  140.2710  155.6442 H   0  0  0  0  0  0  0  0  0  0  0  0  # atno 8010 bound_to 7997
  139.4882  144.4280  151.9106 H   0  0  0  0  0  0  0  0  0  0  0  0  # atno 10167 bound_to 10162
  157.2235  131.0723  151.1897 H   0  0  0  0  0  0  0  0  0  0  0  0  # atno 10718 bound_to 10713
  153.9372  135.6765  153.4744 H   0  0  0  0  0  0  0  0  0  0  0  0  # atno 10763 bound_to 10752
  153.0950  135.4856  154.8758 H   0  0  0  0  0  0  0  0  0  0  0  0  # atno 10764 bound_to 10752
  154.7396  135.3157  154.8708 H   0  0  0  0  0  0  0  0  0  0  0  0  # atno 10765 bound_to 10752
  139.9382  134.9638  156.8482 H   0  0  0  0  0  0  0  0  0  0  0  0  # atno 11005 bound_to 11000
  145.3884  141.0369  143.3138 LP  0  0  0  0  0  0  0  0  0  0  0  0  # atno 17320 bound_to 7965
  144.8430  139.5441  143.6891 LP  0  0  0  0  0  0  0  0  0  0  0  0  # atno 17321 bound_to 7965
  140.3726  144.2836  150.5918 LP  0  0  0  0  0  0  0  0  0  0  0  0  # atno 17342 bound_to 10162
  140.5305  143.2244  151.8246 LP  0  0  0  0  0  0  0  0  0  0  0  0  # atno 17343 bound_to 10162
  157.3552  130.7102  149.6466 LP  0  0  0  0  0  0  0  0  0  0  0  0  # atno 17370 bound_to 10713
  155.9680  130.4241  150.4594 LP  0  0  0  0  0  0  0  0  0  0  0  0  # atno 17371 bound_to 10713
  140.6021  134.0162  155.7541 LP  0  0  0  0  0  0  0  0  0  0  0  0  # atno 17394 bound_to 11000
  141.1005  133.9776  157.3087 LP  0  0  0  0  0  0  0  0  0  0  0  0  # atno 17395 bound_to 11000

$$$$
