#       Name:                AV-unprocessed.smi:2965
#       Creating user name   scv26
#       Creation time:       Fri Mar 27 16:22:53 2020


#       File generated by GOLD software.
#

@<TRIPOS>MOLECULE
AV-unprocessed.smi:2965
    42    43     1
SMALL
NO_CHARGES


@<TRIPOS>ATOM
      1 ****        -0.6318   0.5913   0.7008 O.2            1 S1                 0.0000
      2 ****         0.1851  -0.3305   0.7303 C.2            1 S1                 0.0000
      3 ****         1.6941  -0.0481   0.7633 C.3            1 S1                 0.0000
      4 ****         2.0246   1.3252   1.1798 N.am           1 S1                 0.0000
      5 ****         2.2748   2.2625   0.1581 C.2            1 S1                 0.0000
      6 ****         2.5975   3.5468   0.4045 C.2            1 S1                 0.0000
      7 ****         2.8029   4.5526  -0.7177 C.3            1 S1                 0.0000
      8 ****         2.4330   5.7754  -0.3367 F              1 S1                 0.0000
      9 ****         4.0907   4.5960  -1.0562 F              1 S1                 0.0000
     10 ****         2.0994   4.2206  -1.8011 F              1 S1                 0.0000
     11 ****         2.6463   3.9435   1.7980 C.2            1 S1                 0.0000
     12 ****         2.3969   3.0630   2.7869 C.2            1 S1                 0.0000
     13 ****         2.0658   1.6649   2.5030 C.2            1 S1                 0.0000
     14 ****         1.8389   0.8505   3.3981 O.2            1 S1                 0.0000
     15 ****        -0.1683  -1.6243   0.7169 N.am           1 S1                 0.0000
     16 ****        -1.5391  -2.1197   0.6709 C.3            1 S1                 0.0000
     17 ****        -2.1072  -2.0856  -0.7575 C.3            1 S1                 0.0000
     18 ****        -3.5576  -2.5543  -0.8527 C.3            1 S1                 0.0000
     19 ****        -3.6407  -2.9867  -2.2985 C.3            1 S1                 0.0000
     20 ****        -2.2710  -3.6246  -2.5137 C.3            1 S1                 0.0000
     21 ****        -1.3837  -2.9710  -1.6091 O.3            1 S1                 0.0000
     22 ****         2.1811  -0.7677   1.4244 H              1 S1                 0.0000
     23 ****         2.0993  -0.2542  -0.2284 H              1 S1                 0.0000
     24 ****         2.1772   1.8704  -0.8439 H              1 S1                 0.0000
     25 ****         2.8902   4.9641   2.0540 H              1 S1                 0.0000
     26 ****         2.4438   3.3937   3.8143 H              1 S1                 0.0000
     27 ****         0.5654  -2.3179   0.7325 H              1 S1                 0.0000
     28 ****        -1.5479  -3.1407   1.0532 H              1 S1                 0.0000
     29 ****        -2.1677  -1.5319   1.3419 H              1 S1                 0.0000
     30 ****        -2.0343  -1.0804  -1.1762 H              1 S1                 0.0000
     31 ****        -3.7316  -3.4091  -0.1976 H              1 S1                 0.0000
     32 ****        -4.2747  -1.7737  -0.5968 H              1 S1                 0.0000
     33 ****        -4.4664  -3.6706  -2.4970 H              1 S1                 0.0000
     34 ****        -3.7551  -2.1143  -2.9434 H              1 S1                 0.0000
     35 ****        -2.3000  -4.6852  -2.2612 H              1 S1                 0.0000
     36 ****        -1.9286  -3.5316  -3.5444 H              1 S1                 0.0000
     37 ****        -0.3154   1.5400   0.6981 LP             1 S1                 0.0000
     38 ****        -1.6113   0.3909   0.6796 LP             1 S1                 0.0000
     39 ****         1.6151  -0.0964   3.1676 LP             1 S1                 0.0000
     40 ****         1.8784   1.1361   4.3557 LP             1 S1                 0.0000
     41 ****        -0.9172  -3.6573  -1.0511 LP             1 S1                 0.0000
     42 ****        -0.7079  -2.4490  -2.1295 LP             1 S1                 0.0000
@<TRIPOS>BOND
    1    1    2 2     
    2    2    3 1     
    3    2   15 am    
    4    3    4 1     
    5    3   22 1     
    6    3   23 1     
    7    4   13 am    
    8    4    5 1     
    9    5    6 2     
   10    5   24 1     
   11    6    7 1     
   12    6   11 1     
   13    7    8 1     
   14    7    9 1     
   15    7   10 1     
   16   11   12 2     
   17   11   25 1     
   18   12   13 1     
   19   12   26 1     
   20   13   14 2     
   21   15   16 1     
   22   15   27 1     
   23   16   17 1     
   24   16   28 1     
   25   16   29 1     
   26   17   21 1     
   27   17   18 1     
   28   17   30 1     
   29   18   19 1     
   30   18   31 1     
   31   18   32 1     
   32   19   20 1     
   33   19   33 1     
   34   19   34 1     
   35   20   21 1     
   36   20   35 1     
   37   20   36 1     
   38    1   37 1     
   39    1   38 1     
   40   14   39 1     
   41   14   40 1     
   42   21   41 1     
   43   21   42 1     
@<TRIPOS>SUBSTRUCTURE
      1 S1             1
@<TRIPOS>SET
LONE_PAIRS      STATIC     ATOMS    <user>   **** ""
6 37 38 39 40 41 42
DONOR_HYDROGENS      STATIC     ATOMS    <user>   **** ""
1 27
ATOM$BLUE        STATIC     ATOMS    COLORGROUP SYSTEM
6 37 38 39 40 41 42
ATOM$RED        STATIC     ATOMS    COLORGROUP SYSTEM
1 27
