#       Name:                AV-unprocessed.smi:678
#       Creating user name   scv26
#       Creation time:       Fri Mar 27 00:27:57 2020


#       File generated by GOLD software.
#

@<TRIPOS>MOLECULE
AV-unprocessed.smi:678
    57    58     1
SMALL
NO_CHARGES


@<TRIPOS>ATOM
      1 ****        -0.7795   3.5429   1.5439 C.3            1 S1                 0.0000
      2 ****        -2.0459   2.7198   1.3842 C.2            1 S1                 0.0000
      3 ****        -3.0694   2.8252   2.2594 C.2            1 S1                 0.0000
      4 ****        -4.2628   2.0281   2.1109 C.2            1 S1                 0.0000
      5 ****        -4.3295   1.1722   1.0813 C.2            1 S1                 0.0000
      6 ****        -3.2780   1.0427   0.1552 N.am           1 S1                 0.0000
      7 ****        -3.4581   0.0661  -0.9326 C.3            1 S1                 0.0000
      8 ****        -2.6474  -1.2159  -0.7039 C.2            1 S1                 0.0000
      9 ****        -2.6237  -1.7489   0.4058 O.2            1 S1                 0.0000
     10 ****        -1.9777  -1.6904  -1.7647 N.am           1 S1                 0.0000
     11 ****        -1.0637  -2.8278  -1.7507 C.3            1 S1                 0.0000
     12 ****         0.3956  -2.3832  -1.5339 C.3            1 S1                 0.0000
     13 ****         0.6760  -1.8530  -0.1056 C.3            1 S1                 0.0000
     14 ****         2.1139  -1.5432   0.0988 N.4            1 S1                 1.0000
     15 ****         2.5559  -0.2495  -0.4890 C.3            1 S1                 0.0000
     16 ****         2.1633   0.9634   0.3820 C.3            1 S1                 0.0000
     17 ****         2.3987   2.2766  -0.3785 C.3            1 S1                 0.0000
     18 ****         2.9149   0.9735   1.7229 C.3            1 S1                 0.0000
     19 ****         2.9559  -2.6998  -0.2905 C.3            1 S1                 0.0000
     20 ****         2.6159  -3.1823  -1.7110 C.3            1 S1                 0.0000
     21 ****         1.2329  -3.5080  -1.7790 O.3            1 S1                 0.0000
     22 ****        -2.1286   1.7829   0.2481 C.2            1 S1                 0.0000
     23 ****        -1.2188   1.6631  -0.5756 O.2            1 S1                 0.0000
     24 ****        -0.8721   4.2601   2.3601 H              1 S1                 0.0000
     25 ****        -0.5624   4.0995   0.6314 H              1 S1                 0.0000
     26 ****         0.0684   2.8936   1.7624 H              1 S1                 0.0000
     27 ****        -2.9982   3.5103   3.0916 H              1 S1                 0.0000
     28 ****        -5.0783   2.1146   2.8140 H              1 S1                 0.0000
     29 ****        -5.1835   0.5345   0.9049 H              1 S1                 0.0000
     30 ****        -4.5070  -0.2118  -1.0433 H              1 S1                 0.0000
     31 ****        -3.1798   0.5221  -1.8851 H              1 S1                 0.0000
     32 ****        -2.0716  -1.1955  -2.6401 H              1 S1                 0.0000
     33 ****        -1.3597  -3.5674  -1.0047 H              1 S1                 0.0000
     34 ****        -1.1508  -3.3213  -2.7190 H              1 S1                 0.0000
     35 ****         0.6253  -1.6149  -2.2736 H              1 S1                 0.0000
     36 ****         0.0696  -0.9761   0.1125 H              1 S1                 0.0000
     37 ****         0.3861  -2.6105   0.6236 H              1 S1                 0.0000
     38 ****         3.6407  -0.2486  -0.6042 H              1 S1                 0.0000
     39 ****         2.1514  -0.1417  -1.4953 H              1 S1                 0.0000
     40 ****         1.0985   0.9163   0.6036 H              1 S1                 0.0000
     41 ****         3.4487   2.3982  -0.6470 H              1 S1                 0.0000
     42 ****         2.1076   3.1384   0.2227 H              1 S1                 0.0000
     43 ****         1.8127   2.3082  -1.2977 H              1 S1                 0.0000
     44 ****         3.9937   1.0302   1.5741 H              1 S1                 0.0000
     45 ****         2.7053   0.0757   2.3045 H              1 S1                 0.0000
     46 ****         2.6188   1.8292   2.3305 H              1 S1                 0.0000
     47 ****         4.0151  -2.4549  -0.2041 H              1 S1                 0.0000
     48 ****         2.7719  -3.5098   0.4163 H              1 S1                 0.0000
     49 ****         2.8669  -2.4275  -2.4579 H              1 S1                 0.0000
     50 ****         3.1978  -4.0719  -1.9523 H              1 S1                 0.0000
     51 ****         2.2468  -1.4332   1.0941 H              1 S1                 0.0000
     52 ****        -3.1351  -1.3461   1.1650 LP             1 S1                 0.0000
     53 ****        -2.0931  -2.5845   0.5479 LP             1 S1                 0.0000
     54 ****         1.0318  -3.8648  -2.6913 LP             1 S1                 0.0000
     55 ****         1.0348  -4.2104  -1.0953 LP             1 S1                 0.0000
     56 ****        -0.3880   2.2123  -0.4863 LP             1 S1                 0.0000
     57 ****        -1.3119   1.0167  -1.3329 LP             1 S1                 0.0000
@<TRIPOS>BOND
    1    1    2 1     
    2    1   24 1     
    3    1   25 1     
    4    1   26 1     
    5    2   22 1     
    6    2    3 2     
    7    3    4 1     
    8    3   27 1     
    9    4    5 2     
   10    4   28 1     
   11    5    6 1     
   12    5   29 1     
   13    6    7 1     
   14    6   22 am    
   15    7    8 1     
   16    7   30 1     
   17    7   31 1     
   18    8    9 2     
   19    8   10 am    
   20   10   11 1     
   21   10   32 1     
   22   11   12 1     
   23   11   33 1     
   24   11   34 1     
   25   12   21 1     
   26   12   13 1     
   27   12   35 1     
   28   13   14 1     
   29   13   36 1     
   30   13   37 1     
   31   14   15 1     
   32   14   19 1     
   33   14   51 1     
   34   15   16 1     
   35   15   38 1     
   36   15   39 1     
   37   16   17 1     
   38   16   18 1     
   39   16   40 1     
   40   17   41 1     
   41   17   42 1     
   42   17   43 1     
   43   18   44 1     
   44   18   45 1     
   45   18   46 1     
   46   19   20 1     
   47   19   47 1     
   48   19   48 1     
   49   20   21 1     
   50   20   49 1     
   51   20   50 1     
   52   22   23 2     
   53    9   52 1     
   54    9   53 1     
   55   21   54 1     
   56   21   55 1     
   57   23   56 1     
   58   23   57 1     
@<TRIPOS>SUBSTRUCTURE
      1 S1             1
@<TRIPOS>SET
LONE_PAIRS      STATIC     ATOMS    <user>   **** ""
6 52 53 54 55 56 57
DONOR_HYDROGENS      STATIC     ATOMS    <user>   **** ""
2 32 51
ATOM$BLUE        STATIC     ATOMS    COLORGROUP SYSTEM
6 52 53 54 55 56 57
ATOM$RED        STATIC     ATOMS    COLORGROUP SYSTEM
2 32 51
