AV-unprocessed.smi:703|AV-procd|sdf|3427|dock10
  -GOLD-   22720 0413D 1   1.00000     0.00000
 Structure written by MMmdl.
 38 39  0  0  0  0  0  0  0  0  2 V2000
  144.3877  132.3508  150.6929 C   0  0  0  0  0  0  0  0  0  0  0  0
  145.7782  131.9487  150.1832 C   0  0  0  0  0  0  0  0  0  0  0  0
  146.8034  132.0022  151.2516 N   0  3  2  0  0  0  0  0  0  0  0  0
  146.5065  131.1951  152.4515 C   0  0  0  0  0  0  0  0  0  0  0  0
  147.4321  131.7450  153.5392 C   0  0  1  0  0  0  0  0  0  0  0  0
  148.8063  131.0446  153.4882 C   0  0  0  0  0  0  0  0  0  0  0  0
  147.4505  133.2556  153.2236 C   0  0  1  0  0  0  0  0  0  0  0  0
  148.7305  133.8886  153.5648 N   0  0  0  0  0  0  0  0  0  0  0  0
  149.1180  134.1344  155.2289 S   0  0  0  0  0  0  0  0  0  0  0  0
  147.9514  133.7149  156.0203 O   0  0  0  0  0  0  0  0  0  0  0  0
  150.4326  133.5235  155.4781 O   0  0  0  0  0  0  0  0  0  0  0  0
  149.2916  135.9656  155.3328 C   0  0  0  0  0  0  0  0  0  0  0  0
  149.5852  136.3633  156.7511 C   0  0  0  0  0  0  0  0  0  0  0  0
  149.6499  137.6711  157.3068 C   0  0  0  0  0  0  0  0  0  0  0  0
  149.9495  137.4452  158.6193 C   0  0  0  0  0  0  0  0  0  0  0  0
  150.0645  136.1143  158.8577 O   0  0  0  0  0  0  0  0  0  0  0  0
  149.8317  135.4317  157.6585 N   0  0  0  0  0  0  0  0  0  0  0  0
  147.1194  133.3676  151.7228 C   0  0  0  0  0  0  0  0  0  0  0  0
  143.6426  132.2417  149.9047 H   0  0  0  0  0  0  0  0  0  0  0  0
  144.3638  133.3897  151.0222 H   0  0  0  0  0  0  0  0  0  0  0  0
  144.0776  131.7244  151.5297 H   0  0  0  0  0  0  0  0  0  0  0  0
  145.7273  130.9280  149.8018 H   0  0  0  0  0  0  0  0  0  0  0  0
  146.0753  132.5824  149.3465 H   0  0  0  0  0  0  0  0  0  0  0  0
  145.4665  131.3493  152.7447 H   0  0  0  0  0  0  0  0  0  0  0  0
  146.6473  130.1285  152.2732 H   0  0  0  0  0  0  0  0  0  0  0  0
  146.9992  131.5692  154.5251 H   0  0  0  0  0  0  0  0  0  0  0  0
  149.3096  131.2114  152.5350 H   0  0  0  0  0  0  0  0  0  0  0  0
  148.6993  129.9679  153.6213 H   0  0  0  0  0  0  0  0  0  0  0  0
  149.4644  131.3990  154.2821 H   0  0  0  0  0  0  0  0  0  0  0  0
  146.6549  133.7352  153.7960 H   0  0  0  0  0  0  0  0  0  0  0  0
  148.8755  134.7425  153.0264 H   0  0  0  0  0  0  0  0  0  0  0  0
  150.0888  136.2754  154.6560 H   0  0  0  0  0  0  0  0  0  0  0  0
  148.3643  136.4208  154.9860 H   0  0  0  0  0  0  0  0  0  0  0  0
  149.4970  138.6233  156.8206 H   0  0  0  0  0  0  0  0  0  0  0  0
  150.1064  138.0954  159.4674 H   0  0  0  0  0  0  0  0  0  0  0  0
  147.9487  133.7586  151.1324 H   0  0  0  0  0  0  0  0  0  0  0  0
  146.2708  134.0391  151.5823 H   0  0  0  0  0  0  0  0  0  0  0  0
  147.6623  131.6355  150.8670 H   0  0  0  0  0  0  0  0  0  0  0  0
  1  2  1  0  0  0  0
  1 19  1  0  0  0  0
  1 20  1  0  0  0  0
  1 21  1  0  0  0  0
  2  3  1  0  0  0  0
  2 22  1  0  0  0  0
  2 23  1  0  0  0  0
  3 18  1  0  0  0  0
  3  4  1  0  0  0  0
  3 38  1  0  0  0  0
  4  5  1  0  0  0  0
  4 24  1  0  0  0  0
  4 25  1  0  0  0  0
  5  6  1  0  0  0  0
  5  7  1  0  0  0  0
  5 26  1  0  0  0  0
  6 27  1  0  0  0  0
  6 28  1  0  0  0  0
  6 29  1  0  0  0  0
  7  8  1  0  0  0  0
  7 18  1  0  0  0  0
  7 30  1  0  0  0  0
  8  9  1  0  0  0  0
  8 31  1  0  0  0  0
  9 10  2  0  0  0  0
  9 11  2  0  0  0  0
  9 12  1  0  0  0  0
 12 13  1  0  0  0  0
 12 32  1  0  0  0  0
 12 33  1  0  0  0  0
 13 17  2  0  0  0  0
 13 14  1  0  0  0  0
 14 15  2  0  0  0  0
 14 34  1  0  0  0  0
 15 16  1  0  0  0  0
 15 35  1  0  0  0  0
 16 17  1  0  0  0  0
 18 36  1  0  0  0  0
 18 37  1  0  0  0  0
M  CHG  1   3   1
M  END
> <s_m_source_file>
AV-unprocessed.smi

> <i_m_source_file_index>
703

> <i_lp_mmshare_version>
43012

> <i_f3d_flags>
0

> <s_epik_input>
W0NIM11bQ0gyXU4xW0NIMl1bQ0BASF0oW0NIM10pW0NASF0oW0NIMl0xKVtOSF1TKD1PKSg9TylbQ0gyXWMyW2NIXVtjSF1vbjI=

> <s_epik_cmdline>
J2VwaWtfcHl0aG9uJywgJy1waCcsICc3LjAnLCAnLXRuJywgJzgnLCAnLW1hJywgJzIwMCcsICctbWV0YWxfYmluZGluZycsICctaW1hZScsICc8aW5maWxlLm1hZT4nLCAnLW9tYWUnLCAnPG91dGZpbGUubWFlPic=

> <r_epik_Ionization_Penalty>
0.00324529

> <r_epik_Ionization_Penalty_Charging>
0.0019384

> <r_epik_Ionization_Penalty_Neutral>
0.00130689

> <r_epik_State_Penalty>
0.00218682

> <r_epik_Charging_Adjusted_Penalty>
0.00412522

> <i_epik_Tot_Q>
1

> <i_epik_Tot_abs_Q>
1

> <r_epik_Metal_State_Penalty>
0.310831

> <b_epik_Metal_Only>
0

> <s_lp_Force_Field>
OPLS_2005

> <r_lp_Energy>
22.9594

> <b_lp_Chiralities_Consistent>
1

> <s_lp_Variant>
AV-unprocessed.smi:703-2

> <Gold.Version>
5.8.1

> <Gold.Id.Protein>
6NUR|6NUR_protein|mol2

> <Gold.PLP.Fitness>
34.3764

> <Gold.PLP.PLP>
-26.1296

> <Gold.PLP.part.hbond>
-3.8062

> <Gold.PLP.part.metal>
0.0000

> <Gold.PLP.part.buried>
-4.3136

> <Gold.PLP.part.nonpolar>
-17.8804

> <Gold.PLP.part.repulsive>
0.0546

> <Gold.PLP.ligand.clash>
0.0000

> <Gold.PLP.ligand.torsion>
0.2265

> <Gold.PLP.Chemscore.Hbond>
2.8500

> <Gold.PLP.Chemscore.CHOScore>
0.0000

> <Gold.PLP.Chemscore.Metal>
0.0000

> <Gold.Chemscore.Hbonds>
donor molecule, donor type, donor heavy atom, donor atom, acceptor molecule, acceptor atom, score
      L1  H     3    38       P1 10747  1.00
      L1  H     8    31       P1  7948  0.80
      P1  H  6896  6909       L1    16  1.00

> <Gold.PLP.Chemscore.Internal.Correction>
0.1499

> <Gold.Rescore>
     Score         DG    S(hbond)    S(metal)    S(lipo)     H(rot)  DE(clash)    DE(int)     intcor
     12.95     -14.50       2.15        0.00      58.21       1.94       0.03       1.51       ----

> <Gold.Chemscore.Fitness>
12.9510

> <Gold.Chemscore.DG>
-14.4959

> <Gold.Chemscore.ZeroCoef>
-5.4800

> <Gold.Chemscore.Hbond>
2.1472

> <Gold.Chemscore.Metal>
0.0000

> <Gold.Chemscore.Lipo>
58.2106

> <Gold.Chemscore.Internal_Hbond>
0.0000

> <Gold.Chemscore.DEClash>
0.0310

> <Gold.Chemscore.DEInternal>
1.5140

> <Gold.Chemscore.Rot>
1.9400

> <Gold.Chemscore.Internal.Correction>
   9.000000E+99

> <Gold.Chemscore.Hbonds>
donor molecule, donor type, donor heavy atom, donor atom, acceptor molecule, acceptor atom, score
      L1  H     3    38       P1 10747  1.00
      L1  H     8    31       P1  7948  0.12
      P1  H  6896  6909       L1    16  0.39

> <Gold.Chemscore.Hbond.Weighted>
-7.1718

> <Gold.Chemscore.Metal.Weighted>
-0.0000

> <Gold.Chemscore.Lipo.Weighted>
-6.8106

> <Gold.Chemscore.Internal_Hbond.Weighted>
0.0000

> <Gold.Chemscore.DEClash.Weighted>
0.0310

> <Gold.Chemscore.DEInternal.Weighted>
1.5140

> <Gold.Chemscore.Rot.Weighted>
4.9665

> <Gold.Chemscore.Internal.Correction.Weighted>
   9.000000E+99

> <Gold.Protein.RotatedTorsions>
[ 6907 6896 6895 6894 ] final   81.87 input  -60.11 | X-H torsion
[ 7974 7965 7964 7962 ] final    8.55 input  175.53 | X-H torsion
[ 8008 7997 7996 7995 ] final   50.02 input   59.86 | X-H torsion
[ 10167 10162 10161 10158 ] final   10.01 input  -65.29 | X-H torsion
[ 10718 10713 10712 10709 ] final  -70.23 input   66.30 | X-H torsion
[ 10763 10752 10751 10750 ] final  -39.64 input  -60.55 | X-H torsion
[ 11005 11000 10999 10996 ] final   32.75 input  -57.11 | X-H torsion

> <Gold.Protein.ActiveResidues>
 VAL166  LYS551  ARG553  GLY616  TRP617  ASP618  TYR619  PRO620  LYS621  CYS622 
 ASP623  PHE694  ASN695  SER759  ASP760  ASP761  ALA762  ILE779  LEU786  VAL792 
 PHE793  MET794  SER795  GLU796  ALA797  LYS798  CYS799  TRP800  GLU811  SER814 

> <Gold.Protein.RotatedAtoms>
  152.5282  134.3137  159.9122 H   0  0  0  0  0  0  0  0  0  0  0  0  # atno 6907 bound_to 6896
  151.3086  133.4084  159.2653 H   0  0  0  0  0  0  0  0  0  0  0  0  # atno 6908 bound_to 6896
  151.0057  134.9374  159.8036 H   0  0  0  0  0  0  0  0  0  0  0  0  # atno 6909 bound_to 6896
  146.2415  139.9917  142.8425 H   0  0  0  0  0  0  0  0  0  0  0  0  # atno 7974 bound_to 7965
  155.4119  140.3442  155.4264 H   0  0  0  0  0  0  0  0  0  0  0  0  # atno 8008 bound_to 7997
  156.1444  140.1552  156.8902 H   0  0  0  0  0  0  0  0  0  0  0  0  # atno 8009 bound_to 7997
  154.4998  140.0818  156.7754 H   0  0  0  0  0  0  0  0  0  0  0  0  # atno 8010 bound_to 7997
  140.6220  143.8183  150.7187 H   0  0  0  0  0  0  0  0  0  0  0  0  # atno 10167 bound_to 10162
  156.0418  130.4327  150.2264 H   0  0  0  0  0  0  0  0  0  0  0  0  # atno 10718 bound_to 10713
  153.9327  135.6770  153.4745 H   0  0  0  0  0  0  0  0  0  0  0  0  # atno 10763 bound_to 10752
  153.0971  135.4846  154.8796 H   0  0  0  0  0  0  0  0  0  0  0  0  # atno 10764 bound_to 10752
  154.7419  135.3163  154.8670 H   0  0  0  0  0  0  0  0  0  0  0  0  # atno 10765 bound_to 10752
  140.2703  134.3090  155.7830 H   0  0  0  0  0  0  0  0  0  0  0  0  # atno 11005 bound_to 11000
  145.1497  140.9616  143.4440 LP  0  0  0  0  0  0  0  0  0  0  0  0  # atno 17320 bound_to 7965
  145.0217  139.3418  143.6069 LP  0  0  0  0  0  0  0  0  0  0  0  0  # atno 17321 bound_to 7965
  140.1775  143.4142  152.1956 LP  0  0  0  0  0  0  0  0  0  0  0  0  # atno 17342 bound_to 10162
  139.5447  144.7288  151.4621 LP  0  0  0  0  0  0  0  0  0  0  0  0  # atno 17343 bound_to 10162
  157.0359  131.0021  151.3298 LP  0  0  0  0  0  0  0  0  0  0  0  0  # atno 17370 bound_to 10713
  157.5244  130.8019  149.7846 LP  0  0  0  0  0  0  0  0  0  0  0  0  # atno 17371 bound_to 10713
  141.2178  133.7462  156.9323 LP  0  0  0  0  0  0  0  0  0  0  0  0  # atno 17394 bound_to 11000
  140.1380  134.9312  157.2428 LP  0  0  0  0  0  0  0  0  0  0  0  0  # atno 17395 bound_to 11000

$$$$
