AV-unprocessed.smi:1554|AV-procd|sdf|6249|dock7
  -GOLD-   22720 6433D 1   1.00000     0.00000
 Structure written by MMmdl.
 48 50  0  0  0  0  0  0  0  0  2 V2000
  151.4943  145.1623  159.6086 C   0  0  0  0  0  0  0  0  0  0  0  0
  152.0846  143.7727  159.7709 C   0  0  0  0  0  0  0  0  0  0  0  0
  152.8721  143.4894  160.9097 C   0  0  0  0  0  0  0  0  0  0  0  0
  153.4428  142.2115  161.0961 C   0  0  0  0  0  0  0  0  0  0  0  0
  154.2369  141.7203  162.1183 N   0  0  0  0  0  0  0  0  0  0  0  0
  154.4467  140.4695  161.7189 C   0  0  0  0  0  0  0  0  0  0  0  0
  153.8860  140.0932  160.5531 N   0  0  0  0  0  0  0  0  0  0  0  0
  153.9764  138.7945  159.9112 C   0  0  0  0  0  0  0  0  0  0  0  0
  152.9096  137.8123  160.4309 C   0  0  1  0  0  0  0  0  0  0  0  0
  152.9488  136.6306  159.6541 O   0  0  0  0  0  0  0  0  0  0  0  0
  153.1403  137.4449  161.9101 C   0  0  0  0  0  0  0  0  0  0  0  0
  154.5523  137.0707  162.1946 N   0  3  1  0  0  0  0  0  0  0  0  0
  154.9500  137.2854  163.6074 C   0  0  0  0  0  0  0  0  0  0  0  0
  154.4182  136.1587  164.5113 C   0  0  0  0  0  0  0  0  0  0  0  0
  154.8902  134.9056  164.0315 O   0  0  0  0  0  0  0  0  0  0  0  0
  154.4325  134.6180  162.7145 C   0  0  2  0  0  0  0  0  0  0  0  0
  154.9393  133.2247  162.3260 C   0  0  0  0  0  0  0  0  0  0  0  0
  154.9444  135.7085  161.7475 C   0  0  0  0  0  0  0  0  0  0  0  0
  153.2023  141.2172  160.1035 C   0  0  0  0  0  0  0  0  0  0  0  0
  152.4183  141.4855  158.9675 C   0  0  0  0  0  0  0  0  0  0  0  0
  151.8553  142.7675  158.7971 C   0  0  0  0  0  0  0  0  0  0  0  0
  151.0123  143.0485  157.5658 C   0  0  0  0  0  0  0  0  0  0  0  0
  151.7761  145.8142  160.4359 H   0  0  0  0  0  0  0  0  0  0  0  0
  150.4056  145.1142  159.5772 H   0  0  0  0  0  0  0  0  0  0  0  0
  151.8483  145.6215  158.6854 H   0  0  0  0  0  0  0  0  0  0  0  0
  153.0458  144.2548  161.6518 H   0  0  0  0  0  0  0  0  0  0  0  0
  155.0478  139.7890  162.3044 H   0  0  0  0  0  0  0  0  0  0  0  0
  153.8860  138.9269  158.8319 H   0  0  0  0  0  0  0  0  0  0  0  0
  154.9759  138.3978  160.0948 H   0  0  0  0  0  0  0  0  0  0  0  0
  151.9296  138.2695  160.3022 H   0  0  0  0  0  0  0  0  0  0  0  0
  153.8170  136.5388  159.2905 H   0  0  0  0  0  0  0  0  0  0  0  0
  152.8600  138.3031  162.5231 H   0  0  0  0  0  0  0  0  0  0  0  0
  152.4733  136.6355  162.2060 H   0  0  0  0  0  0  0  0  0  0  0  0
  156.0396  137.3030  163.6584 H   0  0  0  0  0  0  0  0  0  0  0  0
  154.6133  138.2607  163.9607 H   0  0  0  0  0  0  0  0  0  0  0  0
  154.7726  136.2995  165.5326 H   0  0  0  0  0  0  0  0  0  0  0  0
  153.3279  136.1630  164.5517 H   0  0  0  0  0  0  0  0  0  0  0  0
  153.3421  134.5929  162.7135 H   0  0  0  0  0  0  0  0  0  0  0  0
  154.5995  132.9484  161.3277 H   0  0  0  0  0  0  0  0  0  0  0  0
  154.5741  132.4685  163.0214 H   0  0  0  0  0  0  0  0  0  0  0  0
  156.0288  133.1831  162.3320 H   0  0  0  0  0  0  0  0  0  0  0  0
  154.6029  135.5105  160.7326 H   0  0  0  0  0  0  0  0  0  0  0  0
  156.0339  135.6726  161.7090 H   0  0  0  0  0  0  0  0  0  0  0  0
  152.2525  140.7114  158.2331 H   0  0  0  0  0  0  0  0  0  0  0  0
  150.8874  142.1529  156.9563 H   0  0  0  0  0  0  0  0  0  0  0  0
  151.4843  143.8123  156.9476 H   0  0  0  0  0  0  0  0  0  0  0  0
  150.0198  143.3978  157.8509 H   0  0  0  0  0  0  0  0  0  0  0  0
  155.1023  137.7222  161.6522 H   0  0  0  0  0  0  0  0  0  0  0  0
  1  2  1  0  0  0  0
  1 23  1  0  0  0  0
  1 24  1  0  0  0  0
  1 25  1  0  0  0  0
  2 21  1  0  0  0  0
  2  3  2  0  0  0  0
  3  4  1  0  0  0  0
  3 26  1  0  0  0  0
  4 19  2  0  0  0  0
  4  5  1  0  0  0  0
  5  6  2  0  0  0  0
  6  7  1  0  0  0  0
  6 27  1  0  0  0  0
  7  8  1  0  0  0  0
  7 19  1  0  0  0  0
  8  9  1  0  0  0  0
  8 28  1  0  0  0  0
  8 29  1  0  0  0  0
  9 10  1  0  0  0  0
  9 11  1  0  0  0  0
  9 30  1  0  0  0  0
 10 31  1  0  0  0  0
 11 12  1  0  0  0  0
 11 32  1  0  0  0  0
 11 33  1  0  0  0  0
 12 18  1  0  0  0  0
 12 13  1  0  0  0  0
 12 48  1  0  0  0  0
 13 14  1  0  0  0  0
 13 34  1  0  0  0  0
 13 35  1  0  0  0  0
 14 15  1  0  0  0  0
 14 36  1  0  0  0  0
 14 37  1  0  0  0  0
 15 16  1  0  0  0  0
 16 17  1  0  0  0  0
 16 18  1  0  0  0  0
 16 38  1  0  0  0  0
 17 39  1  0  0  0  0
 17 40  1  0  0  0  0
 17 41  1  0  0  0  0
 18 42  1  0  0  0  0
 18 43  1  0  0  0  0
 19 20  1  0  0  0  0
 20 21  2  0  0  0  0
 20 44  1  0  0  0  0
 21 22  1  0  0  0  0
 22 45  1  0  0  0  0
 22 46  1  0  0  0  0
 22 47  1  0  0  0  0
M  CHG  1  12   1
M  END
> <s_m_source_file>
AV-unprocessed.smi

> <i_m_source_file_index>
1554

> <i_lp_mmshare_version>
43012

> <i_f3d_flags>
0

> <s_epik_input>
W0NIM11jKFtjSF0xKWMoW0NIM10pW2NIXWMoYzEyKW4oW2NIXW4yKVtDSDJdW0NASF0oW09IXSlbQ0gyXU4zW0NIMl1bQ0gyXU9bQ0BASF0oW0NIM10pW0NIMl0z

> <s_epik_cmdline>
J2VwaWtfcHl0aG9uJywgJy1waCcsICc3LjAnLCAnLXRuJywgJzgnLCAnLW1hJywgJzIwMCcsICctbWV0YWxfYmluZGluZycsICctaW1hZScsICc8aW5maWxlLm1hZT4nLCAnLW9tYWUnLCAnPG91dGZpbGUubWFlPic=

> <r_epik_Ionization_Penalty>
0.695251

> <r_epik_Ionization_Penalty_Charging>
0.608065

> <r_epik_Ionization_Penalty_Neutral>
0.0871863

> <r_epik_State_Penalty>
0.731955

> <r_epik_Charging_Adjusted_Penalty>
1.34002

> <i_epik_Tot_Q>
1

> <i_epik_Tot_abs_Q>
1

> <r_epik_Metal_State_Penalty>
0.652186

> <b_epik_Metal_Only>
0

> <s_lp_Force_Field>
OPLS_2005

> <r_lp_Energy>
22.2934

> <b_lp_Chiralities_Consistent>
1

> <s_lp_Variant>
AV-unprocessed.smi:1554-10

> <Gold.Version>
5.8.1

> <Gold.Id.Protein>
6NUR|6NUR_protein|mol2

> <Gold.PLP.Fitness>
48.7285

> <Gold.PLP.PLP>
-47.0072

> <Gold.PLP.part.hbond>
-2.0000

> <Gold.PLP.part.metal>
0.0000

> <Gold.PLP.part.buried>
-5.7179

> <Gold.PLP.part.nonpolar>
-39.9976

> <Gold.PLP.part.repulsive>
0.0746

> <Gold.PLP.ligand.clash>
0.0000

> <Gold.PLP.ligand.torsion>
0.6666

> <Gold.PLP.Chemscore.Hbond>
0.9913

> <Gold.PLP.Chemscore.CHOScore>
0.0000

> <Gold.PLP.Chemscore.Metal>
0.0000

> <Gold.Chemscore.Hbonds>
donor molecule, donor type, donor heavy atom, donor atom, acceptor molecule, acceptor atom, score
      P1  H  6896  6907       L1    10  1.00

> <Gold.PLP.Chemscore.Internal.Correction>
0.0808

> <Gold.Rescore>
     Score         DG    S(hbond)    S(metal)    S(lipo)     H(rot)  DE(clash)    DE(int)     intcor
     17.72     -19.16       0.98        0.00     133.93       2.05       0.11       1.33       ----

> <Gold.Chemscore.Fitness>
17.7220

> <Gold.Chemscore.DG>
-19.1574

> <Gold.Chemscore.ZeroCoef>
-5.4800

> <Gold.Chemscore.Hbond>
0.9781

> <Gold.Chemscore.Metal>
0.0000

> <Gold.Chemscore.Lipo>
133.9326

> <Gold.Chemscore.Internal_Hbond>
0.0000

> <Gold.Chemscore.DEClash>
0.1082

> <Gold.Chemscore.DEInternal>
1.3271

> <Gold.Chemscore.Rot>
2.0546

> <Gold.Chemscore.Internal.Correction>
   9.000000E+99

> <Gold.Chemscore.Hbonds>
donor molecule, donor type, donor heavy atom, donor atom, acceptor molecule, acceptor atom, score
      P1  H  6896  6907       L1    10  0.85

> <Gold.Chemscore.Hbond.Weighted>
-3.2669

> <Gold.Chemscore.Metal.Weighted>
-0.0000

> <Gold.Chemscore.Lipo.Weighted>
-15.6701

> <Gold.Chemscore.Internal_Hbond.Weighted>
0.0000

> <Gold.Chemscore.DEClash.Weighted>
0.1082

> <Gold.Chemscore.DEInternal.Weighted>
1.3271

> <Gold.Chemscore.Rot.Weighted>
5.2597

> <Gold.Chemscore.Internal.Correction.Weighted>
   9.000000E+99

> <Gold.Protein.RotatedTorsions>
[ 6907 6896 6895 6894 ] final   36.10 input  -60.11 | X-H torsion
[ 7974 7965 7964 7962 ] final   30.15 input  175.53 | X-H torsion
[ 8008 7997 7996 7995 ] final   13.02 input   59.86 | X-H torsion
[ 10167 10162 10161 10158 ] final -123.81 input  -65.29 | X-H torsion
[ 10718 10713 10712 10709 ] final -134.50 input   66.30 | X-H torsion
[ 10763 10752 10751 10750 ] final   89.78 input  -60.55 | X-H torsion
[ 11005 11000 10999 10996 ] final -149.68 input  -57.11 | X-H torsion

> <Gold.Protein.ActiveResidues>
 VAL166  LYS551  ARG553  GLY616  TRP617  ASP618  TYR619  PRO620  LYS621  CYS622 
 ASP623  PHE694  ASN695  SER759  ASP760  ASP761  ALA762  ILE779  LEU786  VAL792 
 PHE793  MET794  SER795  GLU796  ALA797  LYS798  CYS799  TRP800  GLU811  SER814 

> <Gold.Protein.RotatedAtoms>
  152.1252  134.9176  160.0561 H   0  0  0  0  0  0  0  0  0  0  0  0  # atno 6907 bound_to 6896
  152.0302  133.3929  159.4302 H   0  0  0  0  0  0  0  0  0  0  0  0  # atno 6908 bound_to 6896
  150.6852  134.3451  159.4928 H   0  0  0  0  0  0  0  0  0  0  0  0  # atno 6909 bound_to 6896
  146.1629  139.6826  142.9021 H   0  0  0  0  0  0  0  0  0  0  0  0  # atno 7974 bound_to 7965
  154.8286  140.2896  155.5737 H   0  0  0  0  0  0  0  0  0  0  0  0  # atno 8008 bound_to 7997
  156.3003  140.2536  156.3138 H   0  0  0  0  0  0  0  0  0  0  0  0  # atno 8009 bound_to 7997
  154.9256  140.0385  157.2010 H   0  0  0  0  0  0  0  0  0  0  0  0  # atno 8010 bound_to 7997
  139.9995  143.5555  152.2309 H   0  0  0  0  0  0  0  0  0  0  0  0  # atno 10167 bound_to 10162
  156.2561  130.7182  151.1099 H   0  0  0  0  0  0  0  0  0  0  0  0  # atno 10718 bound_to 10713
  153.1906  135.4458  155.0144 H   0  0  0  0  0  0  0  0  0  0  0  0  # atno 10763 bound_to 10752
  154.8088  135.3285  154.7363 H   0  0  0  0  0  0  0  0  0  0  0  0  # atno 10764 bound_to 10752
  153.7818  135.6977  153.4942 H   0  0  0  0  0  0  0  0  0  0  0  0  # atno 10765 bound_to 10752
  140.7482  134.3437  157.5132 H   0  0  0  0  0  0  0  0  0  0  0  0  # atno 11005 bound_to 11000
  145.4543  141.0430  143.2787 LP  0  0  0  0  0  0  0  0  0  0  0  0  # atno 17320 bound_to 7965
  144.8051  139.6066  143.7054 LP  0  0  0  0  0  0  0  0  0  0  0  0  # atno 17321 bound_to 7965
  139.6282  144.7640  151.2593 LP  0  0  0  0  0  0  0  0  0  0  0  0  # atno 17342 bound_to 10162
  140.7424  143.6526  150.8234 LP  0  0  0  0  0  0  0  0  0  0  0  0  # atno 17343 bound_to 10162
  157.7233  131.0667  150.6042 LP  0  0  0  0  0  0  0  0  0  0  0  0  # atno 17370 bound_to 10713
  156.6126  130.4384  149.5853 LP  0  0  0  0  0  0  0  0  0  0  0  0  # atno 17371 bound_to 10713
  139.8792  134.9125  156.3061 LP  0  0  0  0  0  0  0  0  0  0  0  0  # atno 17394 bound_to 11000
  140.9775  133.7288  156.0623 LP  0  0  0  0  0  0  0  0  0  0  0  0  # atno 17395 bound_to 11000

$$$$
