#       Name:                AV-unprocessed.smi:1965
#       Creating user name   scv26
#       Creation time:       Fri Mar 27 10:10:42 2020


#       File generated by GOLD software.
#

@<TRIPOS>MOLECULE
AV-unprocessed.smi:1965
    40    42     1
SMALL
NO_CHARGES


@<TRIPOS>ATOM
      1 ****        -2.7791  -2.0053  -0.2222 O.2            1 S1                 0.0000
      2 ****        -1.6130  -2.0923  -0.6021 C.2            1 S1                 0.0000
      3 ****        -0.9864  -3.2859  -0.6665 N.am           1 S1                 0.0000
      4 ****        -1.4392  -4.6009  -0.3561 C.2            1 S1                 0.0000
      5 ****        -2.6994  -4.9264  -0.0392 N.2            1 S1                 0.0000
      6 ****        -2.8487  -6.2968   0.1894 C.2            1 S1                 0.0000
      7 ****        -1.6859  -7.0087   0.0324 C.2            1 S1                 0.0000
      8 ****        -0.3507  -5.9803  -0.4129 S.3            1 S1                 0.0000
      9 ****        -0.8877  -1.0240  -0.9734 N.am           1 S1                 0.0000
     10 ****        -1.3336   0.3669  -0.9372 C.3            1 S1                 0.0000
     11 ****        -0.7157   1.2228  -2.0601 C.3            1 S1                 0.0000
     12 ****        -0.3483   2.5471  -1.3829 C.3            1 S1                 0.0000
     13 ****         0.0053   2.1321  -0.0207 N.4            1 S1                 1.0000
     14 ****         0.1831   3.1736   1.0112 C.3            1 S1                 0.0000
     15 ****         0.7246   2.5039   2.2926 C.3            1 S1                 0.0000
     16 ****        -0.1427   1.3047   2.7383 C.3            1 S1                 0.0000
     17 ****        -0.3979   0.3189   1.5778 C.3            1 S1                 0.0000
     18 ****        -0.9639   1.0963   0.3756 C.3            1 S1                 0.0000
     19 ****        -0.0612  -3.2513  -1.0699 H              1 S1                 0.0000
     20 ****        -3.8212  -6.6819   0.4585 H              1 S1                 0.0000
     21 ****        -1.5355  -8.0719   0.1484 H              1 S1                 0.0000
     22 ****         0.0614  -1.1907  -1.2770 H              1 S1                 0.0000
     23 ****        -2.4188   0.3983  -1.0523 H              1 S1                 0.0000
     24 ****         0.1914   0.7512  -2.4416 H              1 S1                 0.0000
     25 ****        -1.3925   1.3612  -2.9037 H              1 S1                 0.0000
     26 ****         0.4745   3.0618  -1.8800 H              1 S1                 0.0000
     27 ****        -1.2100   3.2156  -1.3532 H              1 S1                 0.0000
     28 ****         0.8853   3.9284   0.6558 H              1 S1                 0.0000
     29 ****        -0.7651   3.6772   1.2051 H              1 S1                 0.0000
     30 ****         1.7421   2.1556   2.1095 H              1 S1                 0.0000
     31 ****         0.7928   3.2364   3.0977 H              1 S1                 0.0000
     32 ****         0.3339   0.7873   3.5714 H              1 S1                 0.0000
     33 ****        -1.0983   1.6736   3.1127 H              1 S1                 0.0000
     34 ****         0.5307  -0.1838   1.3035 H              1 S1                 0.0000
     35 ****        -1.0965  -0.4548   1.8974 H              1 S1                 0.0000
     36 ****        -1.8712   1.6071   0.7060 H              1 S1                 0.0000
     37 ****         0.8947   1.6613  -0.1077 H              1 S1                 0.0000
     38 ****        -3.2803  -2.8280   0.0459 LP             1 S1                 0.0000
     39 ****        -3.2263  -1.1118  -0.1813 LP             1 S1                 0.0000
     40 ****        -3.4468  -4.2652   0.0262 LP             1 S1                 0.0000
@<TRIPOS>BOND
    1    1    2 2     
    2    2    3 am    
    3    2    9 am    
    4    3    4 1     
    5    3   19 1     
    6    4    8 1     
    7    4    5 2     
    8    5    6 1     
    9    6    7 2     
   10    6   20 1     
   11    7    8 1     
   12    7   21 1     
   13    9   10 1     
   14    9   22 1     
   15   10   18 1     
   16   10   11 1     
   17   10   23 1     
   18   11   12 1     
   19   11   24 1     
   20   11   25 1     
   21   12   13 1     
   22   12   26 1     
   23   12   27 1     
   24   13   18 1     
   25   13   14 1     
   26   13   37 1     
   27   14   15 1     
   28   14   28 1     
   29   14   29 1     
   30   15   16 1     
   31   15   30 1     
   32   15   31 1     
   33   16   17 1     
   34   16   32 1     
   35   16   33 1     
   36   17   18 1     
   37   17   34 1     
   38   17   35 1     
   39   18   36 1     
   40    1   38 1     
   41    1   39 1     
   42    5   40 1     
@<TRIPOS>SUBSTRUCTURE
      1 S1             1
@<TRIPOS>SET
LONE_PAIRS      STATIC     ATOMS    <user>   **** ""
3 38 39 40
DONOR_HYDROGENS      STATIC     ATOMS    <user>   **** ""
3 19 22 37
ATOM$BLUE        STATIC     ATOMS    COLORGROUP SYSTEM
3 38 39 40
ATOM$RED        STATIC     ATOMS    COLORGROUP SYSTEM
3 19 22 37
