AV-unprocessed.smi:668|AV-procd|sdf|3262|dock9
  -GOLD-   22720 0213D 1   1.00000     0.00000
 Structure written by MMmdl.
 38 39  0  0  0  0  0  0  0  0  1 V2000
  150.4284  142.4341  157.4289 C   0  0  0  0  0  0  0  0  0  0  0  0
  151.0307  141.8227  156.2933 O   0  0  0  0  0  0  0  0  0  0  0  0
  150.2715  140.9529  155.5377 C   0  0  0  0  0  0  0  0  0  0  0  0
  148.8784  141.1546  155.4740 C   0  0  0  0  0  0  0  0  0  0  0  0
  148.0957  140.2703  154.7072 C   0  0  0  0  0  0  0  0  0  0  0  0
  148.7334  139.2025  154.0312 C   0  0  0  0  0  0  0  0  0  0  0  0
  148.0622  138.2522  153.2144 N   0  0  0  0  0  0  0  0  0  0  0  0
  146.7438  138.1186  152.9899 C   0  0  0  0  0  0  0  0  0  0  0  0
  145.8607  138.8148  153.4898 O   0  0  0  0  0  0  0  0  0  0  0  0
  146.4971  137.0998  152.1543 N   0  0  0  0  0  0  0  0  0  0  0  0
  145.1718  136.6762  151.7046 C   0  0  1  0  0  0  0  0  0  0  0  0
  145.2885  135.5747  150.6374 C   0  0  0  0  0  0  0  0  0  0  0  0
  144.8942  134.2762  151.3368 C   0  0  0  0  0  0  0  0  0  0  0  0
  143.8454  134.7073  152.3572 C   0  0  0  0  0  0  0  0  0  0  0  0
  144.3299  136.0769  152.8644 C   0  0  2  0  0  0  0  0  0  0  0  0
  143.1741  136.9925  153.2973 C   0  0  0  0  0  0  0  0  0  0  0  0
  142.9803  138.1049  152.5845 N   0  0  0  0  0  0  0  0  0  0  0  0
  142.4643  136.7010  154.2583 O   0  0  0  0  0  0  0  0  0  0  0  0
  150.1349  139.0974  154.1477 C   0  0  0  0  0  0  0  0  0  0  0  0
  150.8909  139.9407  154.8816 N   0  0  0  0  0  0  0  0  0  0  0  0
  151.1528  143.0893  157.9122 H   0  0  0  0  0  0  0  0  0  0  0  0
  150.1136  141.6909  158.1632 H   0  0  0  0  0  0  0  0  0  0  0  0
  149.5693  143.0438  157.1448 H   0  0  0  0  0  0  0  0  0  0  0  0
  148.4176  141.9766  156.0017 H   0  0  0  0  0  0  0  0  0  0  0  0
  147.0321  140.4387  154.6455 H   0  0  0  0  0  0  0  0  0  0  0  0
  148.6560  137.5560  152.7880 H   0  0  0  0  0  0  0  0  0  0  0  0
  147.2841  136.5784  151.7964 H   0  0  0  0  0  0  0  0  0  0  0  0
  144.6786  137.5375  151.2483 H   0  0  0  0  0  0  0  0  0  0  0  0
  144.5769  135.7769  149.8356 H   0  0  0  0  0  0  0  0  0  0  0  0
  146.2772  135.5147  150.1799 H   0  0  0  0  0  0  0  0  0  0  0  0
  144.5212  133.5216  150.6435 H   0  0  0  0  0  0  0  0  0  0  0  0
  145.7596  133.8583  151.8529 H   0  0  0  0  0  0  0  0  0  0  0  0
  142.8748  134.7842  151.8643 H   0  0  0  0  0  0  0  0  0  0  0  0
  143.7450  133.9815  153.1648 H   0  0  0  0  0  0  0  0  0  0  0  0
  144.9793  135.8945  153.7232 H   0  0  0  0  0  0  0  0  0  0  0  0
  142.2425  138.7455  152.8384 H   0  0  0  0  0  0  0  0  0  0  0  0
  143.5836  138.3080  151.8009 H   0  0  0  0  0  0  0  0  0  0  0  0
  150.6694  138.3083  153.6391 H   0  0  0  0  0  0  0  0  0  0  0  0
  1  2  1  0  0  0  0
  1 21  1  0  0  0  0
  1 22  1  0  0  0  0
  1 23  1  0  0  0  0
  2  3  1  0  0  0  0
  3 20  1  0  0  0  0
  3  4  2  0  0  0  0
  4  5  1  0  0  0  0
  4 24  1  0  0  0  0
  5  6  2  0  0  0  0
  5 25  1  0  0  0  0
  6  7  1  0  0  0  0
  6 19  1  0  0  0  0
  7  8  1  0  0  0  0
  7 26  1  0  0  0  0
  8  9  2  0  0  0  0
  8 10  1  0  0  0  0
 10 11  1  0  0  0  0
 10 27  1  0  0  0  0
 11 15  1  0  0  0  0
 11 12  1  0  0  0  0
 11 28  1  0  0  0  0
 12 13  1  0  0  0  0
 12 29  1  0  0  0  0
 12 30  1  0  0  0  0
 13 14  1  0  0  0  0
 13 31  1  0  0  0  0
 13 32  1  0  0  0  0
 14 15  1  0  0  0  0
 14 33  1  0  0  0  0
 14 34  1  0  0  0  0
 15 16  1  0  0  0  0
 15 35  1  0  0  0  0
 16 17  1  0  0  0  0
 16 18  2  0  0  0  0
 17 36  1  0  0  0  0
 17 37  1  0  0  0  0
 19 20  2  0  0  0  0
 19 38  1  0  0  0  0
M  END
> <s_m_source_file>
AV-unprocessed.smi

> <i_m_source_file_index>
668

> <i_lp_mmshare_version>
43012

> <i_f3d_flags>
0

> <s_epik_input>
W0NIM11PYzFbY0hdW2NIXWMoW2NIXW4xKVtOSF1DKD1PKVtOSF1bQ0BASF0yW0NIMl1bQ0gyXVtDSDJdW0NASF0yQyg9TylbTkgyXQ==

> <s_epik_cmdline>
J2VwaWtfcHl0aG9uJywgJy1waCcsICc3LjAnLCAnLXRuJywgJzgnLCAnLW1hJywgJzIwMCcsICctbWV0YWxfYmluZGluZycsICctaW1hZScsICc8aW5maWxlLm1hZT4nLCAnLW9tYWUnLCAnPG91dGZpbGUubWFlPic=

> <r_lp_tautomer_probability>
1

> <r_epik_Ionization_Penalty>
9.0916e-05

> <r_epik_Ionization_Penalty_Charging>
0

> <r_epik_Ionization_Penalty_Neutral>
9.0916e-05

> <r_epik_State_Penalty>
-0

> <r_epik_Charging_Adjusted_Penalty>
0

> <i_epik_Tot_Q>
0

> <i_epik_Tot_abs_Q>
0

> <r_epik_Metal_State_Penalty>
-0

> <b_epik_Metal_Only>
0

> <s_lp_Force_Field>
OPLS_2005

> <r_lp_Energy>
17.404

> <b_lp_Chiralities_Consistent>
1

> <s_lp_Variant>
AV-unprocessed.smi:668-4

> <Gold.Version>
5.8.1

> <Gold.Id.Protein>
6NUR|6NUR_protein|mol2

> <Gold.PLP.Fitness>
40.3506

> <Gold.PLP.PLP>
-29.5900

> <Gold.PLP.part.hbond>
-5.3611

> <Gold.PLP.part.metal>
0.0000

> <Gold.PLP.part.buried>
-1.4292

> <Gold.PLP.part.nonpolar>
-24.5725

> <Gold.PLP.part.repulsive>
1.7691

> <Gold.PLP.ligand.clash>
0.0000

> <Gold.PLP.ligand.torsion>
0.4712

> <Gold.PLP.Chemscore.Hbond>
3.9000

> <Gold.PLP.Chemscore.CHOScore>
0.0000

> <Gold.PLP.Chemscore.Metal>
0.0000

> <Gold.Chemscore.Hbonds>
donor molecule, donor type, donor heavy atom, donor atom, acceptor molecule, acceptor atom, score
      L1  H     7    26       P1  7948  1.00
      L1  H    10    27       P1  7948  1.00
      L1  H    17    37       P1 10171  0.99
      P1  H  7989  7998       L1    20  0.90

> <Gold.PLP.Chemscore.Internal.Correction>
0.0031

> <Gold.Rescore>
     Score         DG    S(hbond)    S(metal)    S(lipo)     H(rot)  DE(clash)    DE(int)     intcor
     13.63     -16.68       2.83        0.00      55.85       1.86       1.37       1.68       ----

> <Gold.Chemscore.Fitness>
13.6321

> <Gold.Chemscore.DG>
-16.6839

> <Gold.Chemscore.ZeroCoef>
-5.4800

> <Gold.Chemscore.Hbond>
2.8274

> <Gold.Chemscore.Metal>
0.0000

> <Gold.Chemscore.Lipo>
55.8497

> <Gold.Chemscore.Internal_Hbond>
0.0000

> <Gold.Chemscore.DEClash>
1.3720

> <Gold.Chemscore.DEInternal>
1.6798

> <Gold.Chemscore.Rot>
1.8648

> <Gold.Chemscore.Internal.Correction>
   9.000000E+99

> <Gold.Chemscore.Hbonds>
donor molecule, donor type, donor heavy atom, donor atom, acceptor molecule, acceptor atom, score
      L1  H     7    26       P1  7948  0.97
      L1  H    10    27       P1  7948  0.94
      L1  H    17    37       P1 10171  0.77
      P1  H  7989  7998       L1    20  0.05

> <Gold.Chemscore.Hbond.Weighted>
-9.4434

> <Gold.Chemscore.Metal.Weighted>
-0.0000

> <Gold.Chemscore.Lipo.Weighted>
-6.5344

> <Gold.Chemscore.Internal_Hbond.Weighted>
0.0000

> <Gold.Chemscore.DEClash.Weighted>
1.3720

> <Gold.Chemscore.DEInternal.Weighted>
1.6798

> <Gold.Chemscore.Rot.Weighted>
4.7739

> <Gold.Chemscore.Internal.Correction.Weighted>
   9.000000E+99

> <Gold.Protein.RotatedTorsions>
[ 6907 6896 6895 6894 ] final   76.64 input  -60.11 | X-H torsion
[ 7974 7965 7964 7962 ] final   42.35 input  175.53 | X-H torsion
[ 8008 7997 7996 7995 ] final -177.67 input   59.86 | X-H torsion
[ 10167 10162 10161 10158 ] final   81.55 input  -65.29 | X-H torsion
[ 10718 10713 10712 10709 ] final  -24.66 input   66.30 | X-H torsion
[ 10763 10752 10751 10750 ] final  -35.83 input  -60.55 | X-H torsion
[ 11005 11000 10999 10996 ] final -110.79 input  -57.11 | X-H torsion

> <Gold.Protein.ActiveResidues>
 VAL166  LYS551  ARG553  GLY616  TRP617  ASP618  TYR619  PRO620  LYS621  CYS622 
 ASP623  PHE694  ASN695  SER759  ASP760  ASP761  ALA762  ILE779  LEU786  VAL792 
 PHE793  MET794  SER795  GLU796  ALA797  LYS798  CYS799  TRP800  GLU811  SER814 

> <Gold.Protein.RotatedAtoms>
  152.5082  134.3938  159.9392 H   0  0  0  0  0  0  0  0  0  0  0  0  # atno 6907 bound_to 6896
  151.3899  133.3786  159.2727 H   0  0  0  0  0  0  0  0  0  0  0  0  # atno 6908 bound_to 6896
  150.9441  134.8868  159.7689 H   0  0  0  0  0  0  0  0  0  0  0  0  # atno 6909 bound_to 6896
  146.0748  139.5311  142.9575 H   0  0  0  0  0  0  0  0  0  0  0  0  # atno 7974 bound_to 7965
  156.0098  140.1238  157.0465 H   0  0  0  0  0  0  0  0  0  0  0  0  # atno 8008 bound_to 7997
  154.4271  140.1090  156.5882 H   0  0  0  0  0  0  0  0  0  0  0  0  # atno 8009 bound_to 7997
  155.6096  140.3471  155.4620 H   0  0  0  0  0  0  0  0  0  0  0  0  # atno 8010 bound_to 7997
  139.9380  144.6108  150.8279 H   0  0  0  0  0  0  0  0  0  0  0  0  # atno 10167 bound_to 10162
  156.4746  130.4532  149.6848 H   0  0  0  0  0  0  0  0  0  0  0  0  # atno 10718 bound_to 10713
  153.8697  135.6832  153.4775 H   0  0  0  0  0  0  0  0  0  0  0  0  # atno 10763 bound_to 10752
  153.1294  135.4704  154.9323 H   0  0  0  0  0  0  0  0  0  0  0  0  # atno 10764 bound_to 10752
  154.7720  135.3241  154.8120 H   0  0  0  0  0  0  0  0  0  0  0  0  # atno 10765 bound_to 10752
  141.0771  133.9282  157.2366 H   0  0  0  0  0  0  0  0  0  0  0  0  # atno 11005 bound_to 11000
  145.6326  141.0301  143.1855 LP  0  0  0  0  0  0  0  0  0  0  0  0  # atno 17320 bound_to 7965
  144.7254  139.7892  143.7367 LP  0  0  0  0  0  0  0  0  0  0  0  0  # atno 17321 bound_to 7965
  140.7619  143.3185  151.2677 LP  0  0  0  0  0  0  0  0  0  0  0  0  # atno 17342 bound_to 10162
  139.6727  143.9991  152.2763 LP  0  0  0  0  0  0  0  0  0  0  0  0  # atno 17343 bound_to 10162
  156.3583  130.7468  151.2437 LP  0  0  0  0  0  0  0  0  0  0  0  0  # atno 17370 bound_to 10713
  157.7488  131.0357  150.4377 LP  0  0  0  0  0  0  0  0  0  0  0  0  # atno 17371 bound_to 10713
  139.9584  135.0160  156.9193 LP  0  0  0  0  0  0  0  0  0  0  0  0  # atno 17394 bound_to 11000
  140.5548  134.0591  155.7380 LP  0  0  0  0  0  0  0  0  0  0  0  0  # atno 17395 bound_to 11000

$$$$
