#       Name:                AV-unprocessed.smi:1941
#       Creating user name   scv26
#       Creation time:       Fri Mar 27 09:59:01 2020


#       File generated by GOLD software.
#

@<TRIPOS>MOLECULE
AV-unprocessed.smi:1941
    45    46     1
SMALL
NO_CHARGES


@<TRIPOS>ATOM
      1 ****        -2.9689   1.4931   3.0877 C.3            1 S1                 0.0000
      2 ****        -2.5991   1.6906   1.6581 C.2            1 S1                 0.0000
      3 ****        -3.2602   1.1322   0.6415 N.2            1 S1                 0.0000
      4 ****        -2.7056   1.4525  -0.6013 C.2            1 S1                 0.0000
      5 ****        -3.2984   0.8776  -1.8549 C.3            1 S1                 0.0000
      6 ****        -2.9667  -0.6123  -2.0705 C.3            1 S1                 0.0000
      7 ****        -1.5277  -0.8601  -2.1306 N.am           1 S1                 0.0000
      8 ****        -0.7663  -1.2707  -1.1059 C.2            1 S1                 0.0000
      9 ****        -1.1982  -1.5211   0.0195 O.2            1 S1                 0.0000
     10 ****         0.5261  -1.3535  -1.4522 N.am           1 S1                 0.0000
     11 ****         1.6238  -1.6980  -0.5515 C.3            1 S1                 0.0000
     12 ****         2.5950  -2.6283  -1.2948 C.3            1 S1                 0.0000
     13 ****         2.3112  -0.4103  -0.0510 C.3            1 S1                 0.0000
     14 ****         3.4443  -0.6407   0.9505 C.3            1 S1                 0.0000
     15 ****         3.4882   0.6846   1.6749 C.3            1 S1                 0.0000
     16 ****         2.0069   1.0318   1.7740 C.3            1 S1                 0.0000
     17 ****         1.3849   0.4214   0.6468 O.3            1 S1                 0.0000
     18 ****        -1.6197   2.2878  -0.5105 C.2            1 S1                 0.0000
     19 ****        -1.2455   2.6884   1.1425 S.3            1 S1                 0.0000
     20 ****        -3.6147   0.6216   3.1985 H              1 S1                 0.0000
     21 ****        -3.4966   2.3711   3.4603 H              1 S1                 0.0000
     22 ****        -2.0716   1.3399   3.6877 H              1 S1                 0.0000
     23 ****        -4.3820   1.0008  -1.8395 H              1 S1                 0.0000
     24 ****        -2.9523   1.4459  -2.7190 H              1 S1                 0.0000
     25 ****        -3.4287  -1.2158  -1.2872 H              1 S1                 0.0000
     26 ****        -3.4053  -0.9499  -3.0096 H              1 S1                 0.0000
     27 ****        -1.0739  -0.6789  -3.0139 H              1 S1                 0.0000
     28 ****         0.7770  -1.1218  -2.4018 H              1 S1                 0.0000
     29 ****         1.2358  -2.2459   0.3093 H              1 S1                 0.0000
     30 ****         3.4016  -2.9642  -0.6431 H              1 S1                 0.0000
     31 ****         3.0463  -2.1288  -2.1528 H              1 S1                 0.0000
     32 ****         2.0823  -3.5192  -1.6588 H              1 S1                 0.0000
     33 ****         2.6957   0.1641  -0.8957 H              1 S1                 0.0000
     34 ****         3.1862  -1.4382   1.6489 H              1 S1                 0.0000
     35 ****         4.3908  -0.8951   0.4732 H              1 S1                 0.0000
     36 ****         3.9803   0.6300   2.6464 H              1 S1                 0.0000
     37 ****         4.0088   1.4259   1.0671 H              1 S1                 0.0000
     38 ****         1.5726   0.6059   2.6790 H              1 S1                 0.0000
     39 ****         1.8343   2.1080   1.7897 H              1 S1                 0.0000
     40 ****        -1.0116   2.6797  -1.3122 H              1 S1                 0.0000
     41 ****        -4.0641   0.5487   0.7564 LP             1 S1                 0.0000
     42 ****        -2.1740  -1.4219   0.2141 LP             1 S1                 0.0000
     43 ****        -0.5731  -1.8237   0.7391 LP             1 S1                 0.0000
     44 ****         0.6143  -0.1347   0.9582 LP             1 S1                 0.0000
     45 ****         1.0534   1.1342   0.0287 LP             1 S1                 0.0000
@<TRIPOS>BOND
    1    1    2 1     
    2    1   20 1     
    3    1   21 1     
    4    1   22 1     
    5    2   19 1     
    6    2    3 2     
    7    3    4 1     
    8    4    5 1     
    9    4   18 2     
   10    5    6 1     
   11    5   23 1     
   12    5   24 1     
   13    6    7 1     
   14    6   25 1     
   15    6   26 1     
   16    7    8 am    
   17    7   27 1     
   18    8    9 2     
   19    8   10 am    
   20   10   11 1     
   21   10   28 1     
   22   11   12 1     
   23   11   13 1     
   24   11   29 1     
   25   12   30 1     
   26   12   31 1     
   27   12   32 1     
   28   13   17 1     
   29   13   14 1     
   30   13   33 1     
   31   14   15 1     
   32   14   34 1     
   33   14   35 1     
   34   15   16 1     
   35   15   36 1     
   36   15   37 1     
   37   16   17 1     
   38   16   38 1     
   39   16   39 1     
   40   18   19 1     
   41   18   40 1     
   42    3   41 1     
   43    9   42 1     
   44    9   43 1     
   45   17   44 1     
   46   17   45 1     
@<TRIPOS>SUBSTRUCTURE
      1 S1             1
@<TRIPOS>SET
LONE_PAIRS      STATIC     ATOMS    <user>   **** ""
5 41 42 43 44 45
DONOR_HYDROGENS      STATIC     ATOMS    <user>   **** ""
2 27 28
ATOM$BLUE        STATIC     ATOMS    COLORGROUP SYSTEM
5 41 42 43 44 45
ATOM$RED        STATIC     ATOMS    COLORGROUP SYSTEM
2 27 28
