AV-unprocessed.smi:2665|AV-procd|sdf|10331|dock4
  -GOLD-   2272014353D 1   1.00000     0.00000
 Structure written by MMmdl.
 29 30  0  0  0  0  0  0  0  0  2 V2000
  153.0209  142.0596  161.2952 C   0  0  0  0  0  0  0  0  0  0  0  0
  152.6377  142.6770  159.9461 C   0  0  1  0  0  0  0  0  0  0  0  0
  152.0289  141.6375  158.9851 C   0  0  0  0  0  0  0  0  0  0  0  0
  151.5994  142.2864  157.7528 N   0  0  0  0  0  0  0  0  0  0  0  0
  151.1452  141.3889  156.7761 C   0  0  0  0  0  0  0  0  0  0  0  0
  152.0160  140.3774  156.3208 C   0  0  0  0  0  0  0  0  0  0  0  0
  151.5618  139.4696  155.3368 C   0  0  0  0  0  0  0  0  0  0  0  0
  152.4544  138.3747  154.8207 C   0  0  0  0  0  0  0  0  0  0  0  0
  153.6913  138.4794  154.9799 O   0  0  0  0  0  0  0  0  0  0  0  0
  151.9344  137.3916  154.2472 O   0  5  0  0  0  0  0  0  0  0  0  0
  150.2430  139.6228  154.8532 C   0  0  0  0  0  0  0  0  0  0  0  0
  149.4497  140.6647  155.3700 C   0  0  0  0  0  0  0  0  0  0  0  0
  149.8822  141.5317  156.3091 N   0  0  0  0  0  0  0  0  0  0  0  0
  150.6839  143.3937  157.9957 C   0  0  0  0  0  0  0  0  0  0  0  0
  151.3163  144.3903  158.9816 C   0  0  0  0  0  0  0  0  0  0  0  0
  151.6830  143.7108  160.1796 O   0  0  0  0  0  0  0  0  0  0  0  0
  153.7601  141.2683  161.1682 H   0  0  0  0  0  0  0  0  0  0  0  0
  152.1517  141.6291  161.7932 H   0  0  0  0  0  0  0  0  0  0  0  0
  153.4484  142.8105  161.9600 H   0  0  0  0  0  0  0  0  0  0  0  0
  153.5321  143.1125  159.4967 H   0  0  0  0  0  0  0  0  0  0  0  0
  152.7623  140.8637  158.7542 H   0  0  0  0  0  0  0  0  0  0  0  0
  151.1778  141.1454  159.4582 H   0  0  0  0  0  0  0  0  0  0  0  0
  153.0157  140.3038  156.7245 H   0  0  0  0  0  0  0  0  0  0  0  0
  149.8394  138.9606  154.1011 H   0  0  0  0  0  0  0  0  0  0  0  0
  148.4386  140.8065  155.0185 H   0  0  0  0  0  0  0  0  0  0  0  0
  150.4507  143.8935  157.0546 H   0  0  0  0  0  0  0  0  0  0  0  0
  149.7452  143.0152  158.4030 H   0  0  0  0  0  0  0  0  0  0  0  0
  152.1915  144.8711  158.5416 H   0  0  0  0  0  0  0  0  0  0  0  0
  150.6065  145.1810  159.2244 H   0  0  0  0  0  0  0  0  0  0  0  0
  1  2  1  0  0  0  0
  1 17  1  0  0  0  0
  1 18  1  0  0  0  0
  1 19  1  0  0  0  0
  2 16  1  0  0  0  0
  2  3  1  0  0  0  0
  2 20  1  0  0  0  0
  3  4  1  0  0  0  0
  3 21  1  0  0  0  0
  3 22  1  0  0  0  0
  4  5  1  0  0  0  0
  4 14  1  0  0  0  0
  5 13  1  0  0  0  0
  5  6  2  0  0  0  0
  6  7  1  0  0  0  0
  6 23  1  0  0  0  0
  7  8  1  0  0  0  0
  7 11  2  0  0  0  0
  8  9  2  0  0  0  0
  8 10  1  0  0  0  0
 11 12  1  0  0  0  0
 11 24  1  0  0  0  0
 12 13  2  0  0  0  0
 12 25  1  0  0  0  0
 14 15  1  0  0  0  0
 14 26  1  0  0  0  0
 14 27  1  0  0  0  0
 15 16  1  0  0  0  0
 15 28  1  0  0  0  0
 15 29  1  0  0  0  0
M  CHG  1  10  -1
M  END
> <s_m_source_file>
AV-unprocessed.smi

> <i_m_source_file_index>
2665

> <i_lp_mmshare_version>
43012

> <i_f3d_flags>
0

> <s_epik_input>
W0NIM11bQ0BASF0xW0NIMl1OKFtDSDJdW0NIMl1PMSljMltjSF1jKEMoPU8pW09IXSlbY0hdW2NIXW4y

> <s_epik_cmdline>
J2VwaWtfcHl0aG9uJywgJy1waCcsICc3LjAnLCAnLXRuJywgJzgnLCAnLW1hJywgJzIwMCcsICctbWV0YWxfYmluZGluZycsICctaW1hZScsICc8aW5maWxlLm1hZT4nLCAnLW9tYWUnLCAnPG91dGZpbGUubWFlPic=

> <r_epik_Ionization_Penalty>
0.00511367

> <r_epik_Ionization_Penalty_Charging>
0.00135522

> <r_epik_Ionization_Penalty_Neutral>
0.00375844

> <r_epik_State_Penalty>
0.00357724

> <r_epik_Charging_Adjusted_Penalty>
0.00493246

> <i_epik_Tot_Q>
-1

> <i_epik_Tot_abs_Q>
1

> <r_epik_Metal_State_Penalty>
-0

> <b_epik_Metal_Only>
0

> <s_lp_Force_Field>
OPLS_2005

> <r_lp_Energy>
17.7567

> <b_lp_Chiralities_Consistent>
1

> <s_lp_Variant>
AV-unprocessed.smi:2665-2

> <Gold.Version>
5.8.1

> <Gold.Id.Protein>
6NUR|6NUR_protein|mol2

> <Gold.PLP.Fitness>
43.4364

> <Gold.PLP.PLP>
-33.8629

> <Gold.PLP.part.hbond>
-2.0000

> <Gold.PLP.part.metal>
0.0000

> <Gold.PLP.part.buried>
-3.2578

> <Gold.PLP.part.nonpolar>
-28.0583

> <Gold.PLP.part.repulsive>
0.3592

> <Gold.PLP.ligand.clash>
0.0000

> <Gold.PLP.ligand.torsion>
0.2368

> <Gold.PLP.Chemscore.Hbond>
3.3146

> <Gold.PLP.Chemscore.CHOScore>
0.0000

> <Gold.PLP.Chemscore.Metal>
0.0000

> <Gold.Chemscore.Hbonds>
donor molecule, donor type, donor heavy atom, donor atom, acceptor molecule, acceptor atom, score
      P1  H  7997  8010       L1     9  1.35
      P1  H 10752 10764       L1    10  1.82

> <Gold.PLP.Chemscore.Internal.Correction>
0.1036

> <Gold.Rescore>
     Score         DG    S(hbond)    S(metal)    S(lipo)     H(rot)  DE(clash)    DE(int)     intcor
     16.82     -17.09       1.49        0.00      78.70       1.00       0.09       0.18       ----

> <Gold.Chemscore.Fitness>
16.8241

> <Gold.Chemscore.DG>
-17.0945

> <Gold.Chemscore.ZeroCoef>
-5.4800

> <Gold.Chemscore.Hbond>
1.4871

> <Gold.Chemscore.Metal>
0.0000

> <Gold.Chemscore.Lipo>
78.6967

> <Gold.Chemscore.Internal_Hbond>
0.0000

> <Gold.Chemscore.DEClash>
0.0926

> <Gold.Chemscore.DEInternal>
0.1778

> <Gold.Chemscore.Rot>
1.0000

> <Gold.Chemscore.Internal.Correction>
   9.000000E+99

> <Gold.Chemscore.Hbonds>
donor molecule, donor type, donor heavy atom, donor atom, acceptor molecule, acceptor atom, score
      P1  H  7997  8010       L1     9  0.63
      P1  H 10752 10764       L1    10  0.80

> <Gold.Chemscore.Hbond.Weighted>
-4.9670

> <Gold.Chemscore.Metal.Weighted>
-0.0000

> <Gold.Chemscore.Lipo.Weighted>
-9.2075

> <Gold.Chemscore.Internal_Hbond.Weighted>
0.0000

> <Gold.Chemscore.DEClash.Weighted>
0.0926

> <Gold.Chemscore.DEInternal.Weighted>
0.1778

> <Gold.Chemscore.Rot.Weighted>
2.5600

> <Gold.Chemscore.Internal.Correction.Weighted>
   9.000000E+99

> <Gold.Protein.RotatedTorsions>
[ 6907 6896 6895 6894 ] final  169.27 input  -60.11 | X-H torsion
[ 7974 7965 7964 7962 ] final   90.82 input  175.53 | X-H torsion
[ 8008 7997 7996 7995 ] final   96.94 input   59.86 | X-H torsion
[ 10167 10162 10161 10158 ] final  -49.29 input  -65.29 | X-H torsion
[ 10718 10713 10712 10709 ] final   49.09 input   66.30 | X-H torsion
[ 10763 10752 10751 10750 ] final  -93.24 input  -60.55 | X-H torsion
[ 11005 11000 10999 10996 ] final  -31.19 input  -57.11 | X-H torsion

> <Gold.Protein.ActiveResidues>
 VAL166  LYS551  ARG553  GLY616  TRP617  ASP618  TYR619  PRO620  LYS621  CYS622 
 ASP623  PHE694  ASN695  SER759  ASP760  ASP761  ALA762  ILE779  LEU786  VAL792 
 PHE793  MET794  SER795  GLU796  ALA797  LYS798  CYS799  TRP800  GLU811  SER814 

> <Gold.Protein.RotatedAtoms>
  151.8346  133.3414  159.3623 H   0  0  0  0  0  0  0  0  0  0  0  0  # atno 6907 bound_to 6896
  150.7253  134.5450  159.5775 H   0  0  0  0  0  0  0  0  0  0  0  0  # atno 6908 bound_to 6896
  152.2910  134.7722  160.0429 H   0  0  0  0  0  0  0  0  0  0  0  0  # atno 6909 bound_to 6896
  145.5138  139.2277  143.2709 H   0  0  0  0  0  0  0  0  0  0  0  0  # atno 7974 bound_to 7965
  156.0849  140.3265  155.7741 H   0  0  0  0  0  0  0  0  0  0  0  0  # atno 8008 bound_to 7997
  155.5092  140.0575  157.2943 H   0  0  0  0  0  0  0  0  0  0  0  0  # atno 8009 bound_to 7997
  154.4603  140.1963  156.0279 H   0  0  0  0  0  0  0  0  0  0  0  0  # atno 8010 bound_to 7997
  140.6692  143.2704  151.4194 H   0  0  0  0  0  0  0  0  0  0  0  0  # atno 10167 bound_to 10162
  157.4752  130.8280  149.8031 H   0  0  0  0  0  0  0  0  0  0  0  0  # atno 10718 bound_to 10713
  154.6939  135.5202  153.8431 H   0  0  0  0  0  0  0  0  0  0  0  0  # atno 10763 bound_to 10752
  153.0653  135.6582  154.0379 H   0  0  0  0  0  0  0  0  0  0  0  0  # atno 10764 bound_to 10752
  154.0248  135.2990  155.3356 H   0  0  0  0  0  0  0  0  0  0  0  0  # atno 10765 bound_to 10752
  140.9447  133.7257  156.1128 H   0  0  0  0  0  0  0  0  0  0  0  0  # atno 11005 bound_to 11000
  146.2149  140.5947  142.9043 LP  0  0  0  0  0  0  0  0  0  0  0  0  # atno 17320 bound_to 7965
  144.7713  140.5643  143.6668 LP  0  0  0  0  0  0  0  0  0  0  0  0  # atno 17321 bound_to 7965
  139.5953  144.1411  152.2136 LP  0  0  0  0  0  0  0  0  0  0  0  0  # atno 17342 bound_to 10162
  140.0779  144.5725  150.7144 LP  0  0  0  0  0  0  0  0  0  0  0  0  # atno 17343 bound_to 10162
  156.0093  130.3840  150.2320 LP  0  0  0  0  0  0  0  0  0  0  0  0  # atno 17370 bound_to 10713
  157.0504  131.0061  151.3255 LP  0  0  0  0  0  0  0  0  0  0  0  0  # atno 17371 bound_to 10713
  140.7686  134.3858  157.5512 LP  0  0  0  0  0  0  0  0  0  0  0  0  # atno 17394 bound_to 11000
  139.8830  134.9007  156.2795 LP  0  0  0  0  0  0  0  0  0  0  0  0  # atno 17395 bound_to 11000

$$$$
