AV-unprocessed.smi:1225|AV-procd|sdf|5136|dock8
  -GOLD-   22720 4203D 1   1.00000     0.00000
 Structure written by MMmdl.
 48 50  0  0  0  0  0  0  0  0  1 V2000
  155.2085  131.1074  166.7941 C   0  0  0  0  0  0  0  0  0  0  0  0
  154.9398  132.2917  165.9301 C   0  0  0  0  0  0  0  0  0  0  0  0
  153.7138  132.6865  165.5789 N   0  0  0  0  0  0  0  0  0  0  0  0
  153.7326  133.8240  164.7686 C   0  0  0  0  0  0  0  0  0  0  0  0
  154.9946  134.2966  164.5044 C   0  0  0  0  0  0  0  0  0  0  0  0
  155.3663  135.4843  163.6764 C   0  0  0  0  0  0  0  0  0  0  0  0
  154.2099  136.1665  163.0872 N   0  0  0  0  0  0  0  0  0  0  0  0
  153.4053  136.7904  164.1344 C   0  0  0  0  0  0  0  0  0  0  0  0
  154.6074  137.1600  162.0831 C   0  0  0  0  0  0  0  0  0  0  0  0
  153.5511  137.4948  161.0041 C   0  0  2  0  0  0  0  0  0  0  0  0
  153.3074  136.3380  160.2273 O   0  0  0  0  0  0  0  0  0  0  0  0
  153.8618  138.6992  160.0932 C   0  0  0  0  0  0  0  0  0  0  0  0
  153.8911  139.9530  160.8239 N   0  0  0  0  0  0  0  0  0  0  0  0
  154.5158  140.1996  161.9916 C   0  0  0  0  0  0  0  0  0  0  0  0
  154.4106  141.4280  162.4904 N   0  0  0  0  0  0  0  0  0  0  0  0
  153.6213  142.0491  161.5375 C   0  0  0  0  0  0  0  0  0  0  0  0
  153.1353  143.3732  161.4710 C   0  0  0  0  0  0  0  0  0  0  0  0
  152.3302  143.7962  160.3893 C   0  0  0  0  0  0  0  0  0  0  0  0
  151.8251  145.2280  160.3610 C   0  0  0  0  0  0  0  0  0  0  0  0
  152.0017  142.8885  159.3502 C   0  0  0  0  0  0  0  0  0  0  0  0
  151.1372  143.3203  158.1791 C   0  0  0  0  0  0  0  0  0  0  0  0
  152.4808  141.5627  159.4002 C   0  0  0  0  0  0  0  0  0  0  0  0
  153.2789  141.1535  160.4826 C   0  0  0  0  0  0  0  0  0  0  0  0
  156.2128  133.3140  165.2748 S   0  0  0  0  0  0  0  0  0  0  0  0
  154.3391  130.4500  166.8253 H   0  0  0  0  0  0  0  0  0  0  0  0
  155.4389  131.4325  167.8087 H   0  0  0  0  0  0  0  0  0  0  0  0
  156.0568  130.5446  166.4042 H   0  0  0  0  0  0  0  0  0  0  0  0
  152.7963  134.2365  164.4226 H   0  0  0  0  0  0  0  0  0  0  0  0
  155.9408  136.1894  164.2789 H   0  0  0  0  0  0  0  0  0  0  0  0
  156.0518  135.1485  162.9027 H   0  0  0  0  0  0  0  0  0  0  0  0
  152.5186  137.2628  163.7102 H   0  0  0  0  0  0  0  0  0  0  0  0
  153.9742  137.5532  164.6676 H   0  0  0  0  0  0  0  0  0  0  0  0
  153.0599  136.0539  164.8603 H   0  0  0  0  0  0  0  0  0  0  0  0
  154.8561  138.1009  162.5772 H   0  0  0  0  0  0  0  0  0  0  0  0
  155.5349  136.8436  161.6033 H   0  0  0  0  0  0  0  0  0  0  0  0
  152.6190  137.7051  161.5298 H   0  0  0  0  0  0  0  0  0  0  0  0
  153.4795  136.5443  159.3212 H   0  0  0  0  0  0  0  0  0  0  0  0
  154.8304  138.5683  159.6097 H   0  0  0  0  0  0  0  0  0  0  0  0
  153.1148  138.7863  159.3030 H   0  0  0  0  0  0  0  0  0  0  0  0
  155.0822  139.4345  162.5026 H   0  0  0  0  0  0  0  0  0  0  0  0
  153.3859  144.0640  162.2627 H   0  0  0  0  0  0  0  0  0  0  0  0
  150.7351  145.2480  160.3777 H   0  0  0  0  0  0  0  0  0  0  0  0
  152.1676  145.7377  159.4601 H   0  0  0  0  0  0  0  0  0  0  0  0
  152.1831  145.7938  161.2217 H   0  0  0  0  0  0  0  0  0  0  0  0
  150.9790  142.5006  157.4775 H   0  0  0  0  0  0  0  0  0  0  0  0
  151.6104  144.1387  157.6363 H   0  0  0  0  0  0  0  0  0  0  0  0
  150.1602  143.6545  158.5288 H   0  0  0  0  0  0  0  0  0  0  0  0
  152.2392  140.8607  158.6158 H   0  0  0  0  0  0  0  0  0  0  0  0
  1  2  1  0  0  0  0
  1 25  1  0  0  0  0
  1 26  1  0  0  0  0
  1 27  1  0  0  0  0
  2 24  1  0  0  0  0
  2  3  2  0  0  0  0
  3  4  1  0  0  0  0
  4  5  2  0  0  0  0
  4 28  1  0  0  0  0
  5  6  1  0  0  0  0
  5 24  1  0  0  0  0
  6  7  1  0  0  0  0
  6 29  1  0  0  0  0
  6 30  1  0  0  0  0
  7  8  1  0  0  0  0
  7  9  1  0  0  0  0
  8 31  1  0  0  0  0
  8 32  1  0  0  0  0
  8 33  1  0  0  0  0
  9 10  1  0  0  0  0
  9 34  1  0  0  0  0
  9 35  1  0  0  0  0
 10 11  1  0  0  0  0
 10 12  1  0  0  0  0
 10 36  1  0  0  0  0
 11 37  1  0  0  0  0
 12 13  1  0  0  0  0
 12 38  1  0  0  0  0
 12 39  1  0  0  0  0
 13 23  1  0  0  0  0
 13 14  1  0  0  0  0
 14 15  2  0  0  0  0
 14 40  1  0  0  0  0
 15 16  1  0  0  0  0
 16 23  2  0  0  0  0
 16 17  1  0  0  0  0
 17 18  2  0  0  0  0
 17 41  1  0  0  0  0
 18 19  1  0  0  0  0
 18 20  1  0  0  0  0
 19 42  1  0  0  0  0
 19 43  1  0  0  0  0
 19 44  1  0  0  0  0
 20 21  1  0  0  0  0
 20 22  2  0  0  0  0
 21 45  1  0  0  0  0
 21 46  1  0  0  0  0
 21 47  1  0  0  0  0
 22 23  1  0  0  0  0
 22 48  1  0  0  0  0
M  END
> <s_m_source_file>
AV-unprocessed.smi

> <i_m_source_file_index>
1225

> <i_lp_mmshare_version>
43012

> <i_f3d_flags>
0

> <s_epik_input>
W0NIM11jMW5bY0hdYyhzMSlbQ0gyXU4oW0NIM10pW0NIMl1bQ0BIXShbT0hdKVtDSDJdbihbY0hdbjIpYyhjMjMpW2NIXWMoW0NIM10pYyhbY0hdMylbQ0gzXQ==

> <s_epik_cmdline>
J2VwaWtfcHl0aG9uJywgJy1waCcsICc3LjAnLCAnLXRuJywgJzgnLCAnLW1hJywgJzIwMCcsICctbWV0YWxfYmluZGluZycsICctaW1hZScsICc8aW5maWxlLm1hZT4nLCAnLW9tYWUnLCAnPG91dGZpbGUubWFlPic=

> <r_epik_Ionization_Penalty>
0.12717

> <r_epik_Ionization_Penalty_Charging>
0

> <r_epik_Ionization_Penalty_Neutral>
0.12717

> <r_epik_State_Penalty>
0.11216

> <r_epik_Charging_Adjusted_Penalty>
0.11216

> <i_epik_Tot_Q>
0

> <i_epik_Tot_abs_Q>
0

> <r_epik_Metal_State_Penalty>
0.099641

> <b_epik_Metal_Only>
0

> <s_lp_Force_Field>
OPLS_2005

> <r_lp_Energy>
23.0021

> <b_lp_Chiralities_Consistent>
1

> <s_lp_Variant>
AV-unprocessed.smi:1225-1

> <Gold.Version>
5.8.1

> <Gold.Id.Protein>
6NUR|6NUR_protein|mol2

> <Gold.PLP.Fitness>
52.5574

> <Gold.PLP.PLP>
-50.3670

> <Gold.PLP.part.hbond>
-2.0000

> <Gold.PLP.part.metal>
0.0000

> <Gold.PLP.part.buried>
-7.0126

> <Gold.PLP.part.nonpolar>
-40.5368

> <Gold.PLP.part.repulsive>
0.0816

> <Gold.PLP.ligand.clash>
0.0000

> <Gold.PLP.ligand.torsion>
0.5057

> <Gold.PLP.Chemscore.Hbond>
1.0000

> <Gold.PLP.Chemscore.CHOScore>
0.0000

> <Gold.PLP.Chemscore.Metal>
0.0000

> <Gold.Chemscore.Hbonds>
donor molecule, donor type, donor heavy atom, donor atom, acceptor molecule, acceptor atom, score
      P1  H  6896  6908       L1    11  1.00

> <Gold.PLP.Chemscore.Internal.Correction>
0.2017

> <Gold.Rescore>
     Score         DG    S(hbond)    S(metal)    S(lipo)     H(rot)  DE(clash)    DE(int)     intcor
     18.83     -20.09       0.98        0.00     146.82       2.28       0.08       1.19       ----

> <Gold.Chemscore.Fitness>
18.8266

> <Gold.Chemscore.DG>
-20.0930

> <Gold.Chemscore.ZeroCoef>
-5.4800

> <Gold.Chemscore.Hbond>
0.9830

> <Gold.Chemscore.Metal>
0.0000

> <Gold.Chemscore.Lipo>
146.8179

> <Gold.Chemscore.Internal_Hbond>
0.0000

> <Gold.Chemscore.DEClash>
0.0779

> <Gold.Chemscore.DEInternal>
1.1885

> <Gold.Chemscore.Rot>
2.2844

> <Gold.Chemscore.Internal.Correction>
   9.000000E+99

> <Gold.Chemscore.Hbonds>
donor molecule, donor type, donor heavy atom, donor atom, acceptor molecule, acceptor atom, score
      P1  H  6896  6908       L1    11  0.30

> <Gold.Chemscore.Hbond.Weighted>
-3.2833

> <Gold.Chemscore.Metal.Weighted>
-0.0000

> <Gold.Chemscore.Lipo.Weighted>
-17.1777

> <Gold.Chemscore.Internal_Hbond.Weighted>
0.0000

> <Gold.Chemscore.DEClash.Weighted>
0.0779

> <Gold.Chemscore.DEInternal.Weighted>
1.1885

> <Gold.Chemscore.Rot.Weighted>
5.8480

> <Gold.Chemscore.Internal.Correction.Weighted>
   9.000000E+99

> <Gold.Protein.RotatedTorsions>
[ 6907 6896 6895 6894 ] final  -86.59 input  -60.11 | X-H torsion
[ 7974 7965 7964 7962 ] final  -21.37 input  175.53 | X-H torsion
[ 8008 7997 7996 7995 ] final  147.49 input   59.86 | X-H torsion
[ 10167 10162 10161 10158 ] final  152.34 input  -65.29 | X-H torsion
[ 10718 10713 10712 10709 ] final   20.43 input   66.30 | X-H torsion
[ 10763 10752 10751 10750 ] final   14.10 input  -60.55 | X-H torsion
[ 11005 11000 10999 10996 ] final  -35.77 input  -57.11 | X-H torsion

> <Gold.Protein.ActiveResidues>
 VAL166  LYS551  ARG553  GLY616  TRP617  ASP618  TYR619  PRO620  LYS621  CYS622 
 ASP623  PHE694  ASN695  SER759  ASP760  ASP761  ALA762  ILE779  LEU786  VAL792 
 PHE793  MET794  SER795  GLU796  ALA797  LYS798  CYS799  TRP800  GLU811  SER814 

> <Gold.Protein.RotatedAtoms>
  150.6867  134.3027  159.4713 H   0  0  0  0  0  0  0  0  0  0  0  0  # atno 6907 bound_to 6896
  152.0921  134.9397  160.0581 H   0  0  0  0  0  0  0  0  0  0  0  0  # atno 6908 bound_to 6896
  152.0709  133.4071  159.4495 H   0  0  0  0  0  0  0  0  0  0  0  0  # atno 6909 bound_to 6896
  146.1737  140.4331  142.8522 H   0  0  0  0  0  0  0  0  0  0  0  0  # atno 7974 bound_to 7965
  156.2823  140.2154  156.5546 H   0  0  0  0  0  0  0  0  0  0  0  0  # atno 8008 bound_to 7997
  154.7263  140.0499  157.0708 H   0  0  0  0  0  0  0  0  0  0  0  0  # atno 8009 bound_to 7997
  155.0412  140.3146  155.4727 H   0  0  0  0  0  0  0  0  0  0  0  0  # atno 8010 bound_to 7997
  139.4833  144.5366  151.7635 H   0  0  0  0  0  0  0  0  0  0  0  0  # atno 10167 bound_to 10162
  157.1244  130.6563  149.5933 H   0  0  0  0  0  0  0  0  0  0  0  0  # atno 10718 bound_to 10713
  153.1655  135.6803  153.8681 H   0  0  0  0  0  0  0  0  0  0  0  0  # atno 10763 bound_to 10752
  153.8062  135.3149  155.3397 H   0  0  0  0  0  0  0  0  0  0  0  0  # atno 10764 bound_to 10752
  154.7962  135.4805  154.0258 H   0  0  0  0  0  0  0  0  0  0  0  0  # atno 10765 bound_to 10752
  140.9822  133.7050  156.1704 H   0  0  0  0  0  0  0  0  0  0  0  0  # atno 11005 bound_to 11000
  144.8202  140.6537  143.6358 LP  0  0  0  0  0  0  0  0  0  0  0  0  # atno 17320 bound_to 7965
  145.4271  139.1555  143.4042 LP  0  0  0  0  0  0  0  0  0  0  0  0  # atno 17321 bound_to 7965
  140.4899  144.1325  150.5948 LP  0  0  0  0  0  0  0  0  0  0  0  0  # atno 17342 bound_to 10162
  140.4182  143.2624  151.9748 LP  0  0  0  0  0  0  0  0  0  0  0  0  # atno 17343 bound_to 10162
  155.9821  130.4833  150.6865 LP  0  0  0  0  0  0  0  0  0  0  0  0  # atno 17370 bound_to 10713
  157.4448  131.0865  151.0907 LP  0  0  0  0  0  0  0  0  0  0  0  0  # atno 17371 bound_to 10713
  140.7168  134.4401  157.5578 LP  0  0  0  0  0  0  0  0  0  0  0  0  # atno 17394 bound_to 11000
  139.8955  134.8681  156.2128 LP  0  0  0  0  0  0  0  0  0  0  0  0  # atno 17395 bound_to 11000

$$$$
