AV-unprocessed.smi:909|AV-procd|sdf|4115|dock3
  -GOLD-   22720 2 13D 1   1.00000     0.00000
 Structure written by MMmdl.
 39 40  0  0  0  0  0  0  0  0  2 V2000
  147.7406  137.0485  162.7880 C   0  0  0  0  0  0  0  0  0  0  0  0
  147.5284  136.0692  161.6697 C   0  0  0  0  0  0  0  0  0  0  0  0
  147.0527  134.8651  161.9396 N   0  0  0  0  0  0  0  0  0  0  0  0
  146.9610  134.2055  160.7103 O   0  0  0  0  0  0  0  0  0  0  0  0
  147.3950  135.0471  159.7375 C   0  0  0  0  0  0  0  0  0  0  0  0
  147.3639  134.5281  158.3396 C   0  0  0  0  0  0  0  0  0  0  0  0
  147.7773  136.2442  160.2783 C   0  0  0  0  0  0  0  0  0  0  0  0
  148.3202  137.4647  159.5802 C   0  0  0  0  0  0  0  0  0  0  0  0
  149.5357  137.0744  158.7406 C   0  0  0  0  0  0  0  0  0  0  0  0
  149.7722  135.8842  158.5428 O   0  0  0  0  0  0  0  0  0  0  0  0
  150.2803  138.1030  158.2944 N   0  0  0  0  0  0  0  0  0  0  0  0
  151.5065  138.1685  157.4814 C   0  0  0  0  0  0  0  0  0  0  0  0
  152.4012  137.0234  158.0185 C   0  0  0  0  0  0  0  0  0  0  0  0
  152.8073  136.1636  157.2049 O   0  0  0  0  0  0  0  0  0  0  0  0
  152.6339  136.9915  159.2485 O   0  5  0  0  0  0  0  0  0  0  0  0
  151.3234  138.0197  155.9345 C   0  0  0  0  0  0  0  0  0  0  0  0
  150.6874  139.2471  155.2509 C   0  0  0  0  0  0  0  0  0  0  0  0
  151.4432  140.5360  155.5892 C   0  0  0  0  0  0  0  0  0  0  0  0
  151.5233  140.7279  157.1072 C   0  0  0  0  0  0  0  0  0  0  0  0
  152.2051  139.5265  157.7826 C   0  0  0  0  0  0  0  0  0  0  0  0
  148.7645  137.0006  163.1582 H   0  0  0  0  0  0  0  0  0  0  0  0
  147.0723  136.8498  163.6265 H   0  0  0  0  0  0  0  0  0  0  0  0
  147.5536  138.0700  162.4563 H   0  0  0  0  0  0  0  0  0  0  0  0
  146.5000  134.9211  157.8035 H   0  0  0  0  0  0  0  0  0  0  0  0
  147.3029  133.4395  158.3257 H   0  0  0  0  0  0  0  0  0  0  0  0
  148.2616  134.8225  157.7959 H   0  0  0  0  0  0  0  0  0  0  0  0
  147.5703  137.9184  158.9311 H   0  0  0  0  0  0  0  0  0  0  0  0
  148.6073  138.2384  160.2934 H   0  0  0  0  0  0  0  0  0  0  0  0
  149.9493  139.0124  158.5810 H   0  0  0  0  0  0  0  0  0  0  0  0
  152.3048  137.8744  155.4797 H   0  0  0  0  0  0  0  0  0  0  0  0
  150.7640  137.1193  155.6800 H   0  0  0  0  0  0  0  0  0  0  0  0
  150.6766  139.0995  154.1707 H   0  0  0  0  0  0  0  0  0  0  0  0
  149.6463  139.3566  155.5508 H   0  0  0  0  0  0  0  0  0  0  0  0
  152.4485  140.4966  155.1682 H   0  0  0  0  0  0  0  0  0  0  0  0
  150.9462  141.3909  155.1302 H   0  0  0  0  0  0  0  0  0  0  0  0
  152.0752  141.6403  157.3345 H   0  0  0  0  0  0  0  0  0  0  0  0
  150.5213  140.8635  157.5158 H   0  0  0  0  0  0  0  0  0  0  0  0
  152.2487  139.7082  158.8579 H   0  0  0  0  0  0  0  0  0  0  0  0
  153.2422  139.4895  157.4439 H   0  0  0  0  0  0  0  0  0  0  0  0
  1  2  1  0  0  0  0
  1 21  1  0  0  0  0
  1 22  1  0  0  0  0
  1 23  1  0  0  0  0
  2  7  1  0  0  0  0
  2  3  2  0  0  0  0
  3  4  1  0  0  0  0
  4  5  1  0  0  0  0
  5  6  1  0  0  0  0
  5  7  2  0  0  0  0
  6 24  1  0  0  0  0
  6 25  1  0  0  0  0
  6 26  1  0  0  0  0
  7  8  1  0  0  0  0
  8  9  1  0  0  0  0
  8 27  1  0  0  0  0
  8 28  1  0  0  0  0
  9 10  2  0  0  0  0
  9 11  1  0  0  0  0
 11 12  1  0  0  0  0
 11 29  1  0  0  0  0
 12 20  1  0  0  0  0
 12 13  1  0  0  0  0
 12 16  1  0  0  0  0
 13 14  2  0  0  0  0
 13 15  1  0  0  0  0
 16 17  1  0  0  0  0
 16 30  1  0  0  0  0
 16 31  1  0  0  0  0
 17 18  1  0  0  0  0
 17 32  1  0  0  0  0
 17 33  1  0  0  0  0
 18 19  1  0  0  0  0
 18 34  1  0  0  0  0
 18 35  1  0  0  0  0
 19 20  1  0  0  0  0
 19 36  1  0  0  0  0
 19 37  1  0  0  0  0
 20 38  1  0  0  0  0
 20 39  1  0  0  0  0
M  CHG  1  15  -1
M  END
> <s_m_source_file>
AV-unprocessed.smi

> <i_m_source_file_index>
909

> <i_lp_mmshare_version>
43012

> <i_f3d_flags>
0

> <s_epik_input>
W0NIM11jMW5vYyhbQ0gzXSljMVtDSDJdQyg9TylbTkhdQzIoQyg9TylbT0hdKVtDSDJdW0NIMl1bQ0gyXVtDSDJdW0NIMl0y

> <s_epik_cmdline>
J2VwaWtfcHl0aG9uJywgJy1waCcsICc3LjAnLCAnLXRuJywgJzgnLCAnLW1hJywgJzIwMCcsICctbWV0YWxfYmluZGluZycsICctaW1hZScsICc8aW5maWxlLm1hZT4nLCAnLW9tYWUnLCAnPG91dGZpbGUubWFlPic=

> <r_epik_Ionization_Penalty>
0.000391234

> <r_epik_Ionization_Penalty_Charging>
0.000391215

> <r_epik_Ionization_Penalty_Neutral>
1.90707e-08

> <r_epik_State_Penalty>
0.000239413

> <r_epik_Charging_Adjusted_Penalty>
0.000630628

> <i_epik_Tot_Q>
-1

> <i_epik_Tot_abs_Q>
1

> <r_epik_Metal_State_Penalty>
-0

> <b_epik_Metal_Only>
0

> <s_lp_Force_Field>
OPLS_2005

> <r_lp_Energy>
2.68806

> <b_lp_Chiralities_Consistent>
1

> <s_lp_Variant>
AV-unprocessed.smi:909-1

> <Gold.Version>
5.8.1

> <Gold.Id.Protein>
6NUR|6NUR_protein|mol2

> <Gold.PLP.Fitness>
40.6181

> <Gold.PLP.PLP>
-27.5486

> <Gold.PLP.part.hbond>
-3.0000

> <Gold.PLP.part.metal>
0.0000

> <Gold.PLP.part.buried>
-5.1682

> <Gold.PLP.part.nonpolar>
-20.2707

> <Gold.PLP.part.repulsive>
0.1262

> <Gold.PLP.ligand.clash>
0.0000

> <Gold.PLP.ligand.torsion>
0.6502

> <Gold.PLP.Chemscore.Hbond>
4.7680

> <Gold.PLP.Chemscore.CHOScore>
0.0000

> <Gold.PLP.Chemscore.Metal>
0.0000

> <Gold.Chemscore.Hbonds>
donor molecule, donor type, donor heavy atom, donor atom, acceptor molecule, acceptor atom, score
      P1  H  6896  6907       L1    10  0.74
      P1  H  6896  6908       L1    15  1.19
      P1  H 10752 10765       L1    14  1.40

> <Gold.PLP.Chemscore.Internal.Correction>
0.0659

> <Gold.Rescore>
     Score         DG    S(hbond)    S(metal)    S(lipo)     H(rot)  DE(clash)    DE(int)     intcor
     14.13     -17.12       2.75        0.00      63.28       1.93       0.02       2.97       ----

> <Gold.Chemscore.Fitness>
14.1329

> <Gold.Chemscore.DG>
-17.1203

> <Gold.Chemscore.ZeroCoef>
-5.4800

> <Gold.Chemscore.Hbond>
2.7468

> <Gold.Chemscore.Metal>
0.0000

> <Gold.Chemscore.Lipo>
63.2823

> <Gold.Chemscore.Internal_Hbond>
0.0000

> <Gold.Chemscore.DEClash>
0.0212

> <Gold.Chemscore.DEInternal>
2.9663

> <Gold.Chemscore.Rot>
1.9289

> <Gold.Chemscore.Internal.Correction>
   9.000000E+99

> <Gold.Chemscore.Hbonds>
donor molecule, donor type, donor heavy atom, donor atom, acceptor molecule, acceptor atom, score
      P1  H  6896  6907       L1    10  0.71
      P1  H  6896  6908       L1    15  0.40
      P1  H 10752 10765       L1    14  0.69

> <Gold.Chemscore.Hbond.Weighted>
-9.1742

> <Gold.Chemscore.Metal.Weighted>
-0.0000

> <Gold.Chemscore.Lipo.Weighted>
-7.4040

> <Gold.Chemscore.Internal_Hbond.Weighted>
0.0000

> <Gold.Chemscore.DEClash.Weighted>
0.0212

> <Gold.Chemscore.DEInternal.Weighted>
2.9663

> <Gold.Chemscore.Rot.Weighted>
4.9379

> <Gold.Chemscore.Internal.Correction.Weighted>
   9.000000E+99

> <Gold.Protein.RotatedTorsions>
[ 6907 6896 6895 6894 ] final  -88.76 input  -60.11 | X-H torsion
[ 7974 7965 7964 7962 ] final  112.47 input  175.53 | X-H torsion
[ 8008 7997 7996 7995 ] final -176.25 input   59.86 | X-H torsion
[ 10167 10162 10161 10158 ] final -129.80 input  -65.29 | X-H torsion
[ 10718 10713 10712 10709 ] final  -34.30 input   66.30 | X-H torsion
[ 10763 10752 10751 10750 ] final -127.16 input  -60.55 | X-H torsion
[ 11005 11000 10999 10996 ] final  -20.96 input  -57.11 | X-H torsion

> <Gold.Protein.ActiveResidues>
 VAL166  LYS551  ARG553  GLY616  TRP617  ASP618  TYR619  PRO620  LYS621  CYS622 
 ASP623  PHE694  ASN695  SER759  ASP760  ASP761  ALA762  ILE779  LEU786  VAL792 
 PHE793  MET794  SER795  GLU796  ALA797  LYS798  CYS799  TRP800  GLU811  SER814 

> <Gold.Protein.RotatedAtoms>
  150.6870  134.2692  159.4580 H   0  0  0  0  0  0  0  0  0  0  0  0  # atno 6907 bound_to 6896
  152.0616  134.9588  160.0584 H   0  0  0  0  0  0  0  0  0  0  0  0  # atno 6908 bound_to 6896
  152.1013  133.4216  159.4625 H   0  0  0  0  0  0  0  0  0  0  0  0  # atno 6909 bound_to 6896
  145.2292  139.2827  143.4177 H   0  0  0  0  0  0  0  0  0  0  0  0  # atno 7974 bound_to 7965
  155.9926  140.1204  157.0624 H   0  0  0  0  0  0  0  0  0  0  0  0  # atno 8008 bound_to 7997
  154.4216  140.1122  156.5655 H   0  0  0  0  0  0  0  0  0  0  0  0  # atno 8009 bound_to 7997
  155.6322  140.3473  155.4689 H   0  0  0  0  0  0  0  0  0  0  0  0  # atno 8010 bound_to 7997
  139.9360  143.6217  152.2517 H   0  0  0  0  0  0  0  0  0  0  0  0  # atno 10167 bound_to 10162
  156.3522  130.4310  149.7695 H   0  0  0  0  0  0  0  0  0  0  0  0  # atno 10718 bound_to 10713
  154.8750  135.3971  154.3549 H   0  0  0  0  0  0  0  0  0  0  0  0  # atno 10763 bound_to 10752
  153.4330  135.7025  153.6224 H   0  0  0  0  0  0  0  0  0  0  0  0  # atno 10764 bound_to 10752
  153.4837  135.3763  155.2425 H   0  0  0  0  0  0  0  0  0  0  0  0  # atno 10765 bound_to 10752
  140.8515  133.7853  155.9972 H   0  0  0  0  0  0  0  0  0  0  0  0  # atno 11005 bound_to 11000
  146.3357  140.2621  142.8602 LP  0  0  0  0  0  0  0  0  0  0  0  0  # atno 17320 bound_to 7965
  144.9693  140.8352  143.5465 LP  0  0  0  0  0  0  0  0  0  0  0  0  # atno 17321 bound_to 7965
  139.6743  144.7659  151.1725 LP  0  0  0  0  0  0  0  0  0  0  0  0  # atno 17342 bound_to 10162
  140.7624  143.5818  150.8887 LP  0  0  0  0  0  0  0  0  0  0  0  0  # atno 17343 bound_to 10162
  156.4891  130.8076  151.3087 LP  0  0  0  0  0  0  0  0  0  0  0  0  # atno 17370 bound_to 10713
  157.7462  130.9981  150.2841 LP  0  0  0  0  0  0  0  0  0  0  0  0  # atno 17371 bound_to 10713
  140.8784  134.2641  157.5156 LP  0  0  0  0  0  0  0  0  0  0  0  0  # atno 17394 bound_to 11000
  139.8704  134.9603  156.4359 LP  0  0  0  0  0  0  0  0  0  0  0  0  # atno 17395 bound_to 11000

$$$$
