AV-unprocessed.smi:2445|AV-procd|sdf|9636|dock10
  -GOLD-   2272013273D 1   1.00000     0.00000
 Structure written by MMmdl.
 40 41  0  0  0  0  0  0  0  0  1 V2000
  152.2314  141.5290  158.5508 C   0  0  0  0  0  0  0  0  0  0  0  0
  151.4541  141.1761  157.3288 C   0  0  0  0  0  0  0  0  0  0  0  0
  150.6827  142.0066  156.5545 C   0  0  0  0  0  0  0  0  0  0  0  0
  150.0850  141.3687  155.4658 N   0  0  0  0  0  0  0  0  0  0  0  0
  150.3914  140.0698  155.4025 C   0  0  0  0  0  0  0  0  0  0  0  0
  149.9304  139.1574  154.3060 C   0  0  1  0  0  0  0  0  0  0  0  0
  150.5617  137.7619  154.4175 C   0  0  0  0  0  0  0  0  0  0  0  0
  148.3939  139.1145  154.1545 C   0  0  0  0  0  0  0  0  0  0  0  0
  147.9406  137.9076  153.4645 N   0  0  0  0  0  0  0  0  0  0  0  0
  146.6789  137.4545  153.4339 C   0  0  0  0  0  0  0  0  0  0  0  0
  145.7424  137.9718  154.0425 O   0  0  0  0  0  0  0  0  0  0  0  0
  146.5578  136.3808  152.6412 N   0  0  0  0  0  0  0  0  0  0  0  0
  145.3028  135.6922  152.3383 C   0  0  1  0  0  0  0  0  0  0  0  0
  145.0592  135.6611  150.8302 C   0  0  0  0  0  0  0  0  0  0  0  0
  144.7253  134.2023  150.5367 C   0  0  0  0  0  0  0  0  0  0  0  0
  145.4581  133.4964  151.5223 O   0  0  0  0  0  0  0  0  0  0  0  0
  145.2977  134.2006  152.7452 C   0  0  1  0  0  0  0  0  0  0  0  0
  146.3510  133.7372  153.7642 C   0  0  0  0  0  0  0  0  0  0  0  0
  151.4475  139.5460  156.7097 S   0  0  0  0  0  0  0  0  0  0  0  0
  152.1771  142.5986  158.7555 H   0  0  0  0  0  0  0  0  0  0  0  0
  153.2818  141.2627  158.4307 H   0  0  0  0  0  0  0  0  0  0  0  0
  151.8446  140.9989  159.4213 H   0  0  0  0  0  0  0  0  0  0  0  0
  150.5074  143.0621  156.7019 H   0  0  0  0  0  0  0  0  0  0  0  0
  150.3159  139.5851  153.3795 H   0  0  0  0  0  0  0  0  0  0  0  0
  151.6504  137.8235  154.4273 H   0  0  0  0  0  0  0  0  0  0  0  0
  150.2741  137.1319  153.5755 H   0  0  0  0  0  0  0  0  0  0  0  0
  150.2481  137.2573  155.3318 H   0  0  0  0  0  0  0  0  0  0  0  0
  147.9256  139.1323  155.1388 H   0  0  0  0  0  0  0  0  0  0  0  0
  148.0423  140.0086  153.6367 H   0  0  0  0  0  0  0  0  0  0  0  0
  148.6360  137.4028  152.9349 H   0  0  0  0  0  0  0  0  0  0  0  0
  147.3885  136.0267  152.1900 H   0  0  0  0  0  0  0  0  0  0  0  0
  144.4676  136.1974  152.8268 H   0  0  0  0  0  0  0  0  0  0  0  0
  144.2627  136.3376  150.5187 H   0  0  0  0  0  0  0  0  0  0  0  0
  145.9609  135.9397  150.2823 H   0  0  0  0  0  0  0  0  0  0  0  0
  143.6588  134.0121  150.6681 H   0  0  0  0  0  0  0  0  0  0  0  0
  145.0078  133.8994  149.5285 H   0  0  0  0  0  0  0  0  0  0  0  0
  144.3077  133.9536  153.1331 H   0  0  0  0  0  0  0  0  0  0  0  0
  146.2513  134.2778  154.7055 H   0  0  0  0  0  0  0  0  0  0  0  0
  147.3648  133.8863  153.3918 H   0  0  0  0  0  0  0  0  0  0  0  0
  146.2349  132.6751  153.9807 H   0  0  0  0  0  0  0  0  0  0  0  0
  1  2  1  0  0  0  0
  1 20  1  0  0  0  0
  1 21  1  0  0  0  0
  1 22  1  0  0  0  0
  2 19  1  0  0  0  0
  2  3  2  0  0  0  0
  3  4  1  0  0  0  0
  3 23  1  0  0  0  0
  4  5  2  0  0  0  0
  5  6  1  0  0  0  0
  5 19  1  0  0  0  0
  6  7  1  0  0  0  0
  6  8  1  0  0  0  0
  6 24  1  0  0  0  0
  7 25  1  0  0  0  0
  7 26  1  0  0  0  0
  7 27  1  0  0  0  0
  8  9  1  0  0  0  0
  8 28  1  0  0  0  0
  8 29  1  0  0  0  0
  9 10  1  0  0  0  0
  9 30  1  0  0  0  0
 10 11  2  0  0  0  0
 10 12  1  0  0  0  0
 12 13  1  0  0  0  0
 12 31  1  0  0  0  0
 13 17  1  0  0  0  0
 13 14  1  0  0  0  0
 13 32  1  0  0  0  0
 14 15  1  0  0  0  0
 14 33  1  0  0  0  0
 14 34  1  0  0  0  0
 15 16  1  0  0  0  0
 15 35  1  0  0  0  0
 15 36  1  0  0  0  0
 16 17  1  0  0  0  0
 17 18  1  0  0  0  0
 17 37  1  0  0  0  0
 18 38  1  0  0  0  0
 18 39  1  0  0  0  0
 18 40  1  0  0  0  0
M  END
> <s_m_source_file>
AV-unprocessed.smi

> <i_m_source_file_index>
2445

> <i_lp_mmshare_version>
43012

> <i_f3d_flags>
0

> <s_epik_input>
W0NIM11jMVtjSF1uYyhzMSlbQ0BIXShbQ0gzXSlbQ0gyXVtOSF1DKD1PKVtOSF1bQ0BASF0yW0NIMl1bQ0gyXU9bQ0BIXTJbQ0gzXQ==

> <s_epik_cmdline>
J2VwaWtfcHl0aG9uJywgJy1waCcsICc3LjAnLCAnLXRuJywgJzgnLCAnLW1hJywgJzIwMCcsICctbWV0YWxfYmluZGluZycsICctaW1hZScsICc8aW5maWxlLm1hZT4nLCAnLW9tYWUnLCAnPG91dGZpbGUubWFlPic=

> <r_epik_Ionization_Penalty>
0.000649483

> <r_epik_Ionization_Penalty_Charging>
0

> <r_epik_Ionization_Penalty_Neutral>
0.000649483

> <r_epik_State_Penalty>
0.000379895

> <r_epik_Charging_Adjusted_Penalty>
0.000379895

> <i_epik_Tot_Q>
0

> <i_epik_Tot_abs_Q>
0

> <r_epik_Metal_State_Penalty>
-0

> <b_epik_Metal_Only>
0

> <s_lp_Force_Field>
OPLS_2005

> <r_lp_Energy>
6.66007

> <b_lp_Chiralities_Consistent>
1

> <s_lp_Variant>
AV-unprocessed.smi:2445-4

> <Gold.Version>
5.8.1

> <Gold.Id.Protein>
6NUR|6NUR_protein|mol2

> <Gold.PLP.Fitness>
36.6811

> <Gold.PLP.PLP>
-28.4686

> <Gold.PLP.part.hbond>
-2.3989

> <Gold.PLP.part.metal>
0.0000

> <Gold.PLP.part.buried>
-2.8640

> <Gold.PLP.part.nonpolar>
-24.5733

> <Gold.PLP.part.repulsive>
0.3994

> <Gold.PLP.ligand.clash>
0.0000

> <Gold.PLP.ligand.torsion>
0.4307

> <Gold.PLP.Chemscore.Hbond>
1.9840

> <Gold.PLP.Chemscore.CHOScore>
1.0000

> <Gold.PLP.Chemscore.Metal>
0.0000

> <Gold.Chemscore.Hbonds>
donor molecule, donor type, donor heavy atom, donor atom, acceptor molecule, acceptor atom, score
      L1  H     9    30       P1  7948  0.98
      L1  H    12    31       P1  7948  0.98
      L1  C     3    23       P1  8028  0.99

> <Gold.PLP.Chemscore.Internal.Correction>
0.1220

> <Gold.Rescore>
     Score         DG    S(hbond)    S(metal)    S(lipo)     H(rot)  DE(clash)    DE(int)     intcor
     16.32     -16.81       1.93        0.00      75.27       1.53       0.08       0.41       ----

> <Gold.Chemscore.Fitness>
16.3204

> <Gold.Chemscore.DG>
-16.8143

> <Gold.Chemscore.ZeroCoef>
-5.4800

> <Gold.Chemscore.Hbond>
1.9313

> <Gold.Chemscore.Metal>
0.0000

> <Gold.Chemscore.Lipo>
75.2740

> <Gold.Chemscore.Internal_Hbond>
0.0000

> <Gold.Chemscore.DEClash>
0.0810

> <Gold.Chemscore.DEInternal>
0.4129

> <Gold.Chemscore.Rot>
1.5325

> <Gold.Chemscore.Internal.Correction>
   9.000000E+99

> <Gold.Chemscore.Hbonds>
donor molecule, donor type, donor heavy atom, donor atom, acceptor molecule, acceptor atom, score
      L1  H     9    30       P1  7948  0.92
      L1  H    12    31       P1  7948  0.92

> <Gold.Chemscore.Hbond.Weighted>
-6.4506

> <Gold.Chemscore.Metal.Weighted>
-0.0000

> <Gold.Chemscore.Lipo.Weighted>
-8.8071

> <Gold.Chemscore.Internal_Hbond.Weighted>
0.0000

> <Gold.Chemscore.DEClash.Weighted>
0.0810

> <Gold.Chemscore.DEInternal.Weighted>
0.4129

> <Gold.Chemscore.Rot.Weighted>
3.9233

> <Gold.Chemscore.Internal.Correction.Weighted>
   9.000000E+99

> <Gold.Protein.RotatedTorsions>
[ 6907 6896 6895 6894 ] final  135.14 input  -60.11 | X-H torsion
[ 7974 7965 7964 7962 ] final -138.66 input  175.53 | X-H torsion
[ 8008 7997 7996 7995 ] final  -57.86 input   59.86 | X-H torsion
[ 10167 10162 10161 10158 ] final  -13.14 input  -65.29 | X-H torsion
[ 10718 10713 10712 10709 ] final -159.36 input   66.30 | X-H torsion
[ 10763 10752 10751 10750 ] final  -16.91 input  -60.55 | X-H torsion
[ 11005 11000 10999 10996 ] final   96.40 input  -57.11 | X-H torsion

> <Gold.Protein.ActiveResidues>
 VAL166  LYS551  ARG553  GLY616  TRP617  ASP618  TYR619  PRO620  LYS621  CYS622 
 ASP623  PHE694  ASN695  SER759  ASP760  ASP761  ALA762  ILE779  LEU786  VAL792 
 PHE793  MET794  SER795  GLU796  ALA797  LYS798  CYS799  TRP800  GLU811  SER814 

> <Gold.Protein.RotatedAtoms>
  152.3036  133.5681  159.5634 H   0  0  0  0  0  0  0  0  0  0  0  0  # atno 6907 bound_to 6896
  150.7289  134.0255  159.3724 H   0  0  0  0  0  0  0  0  0  0  0  0  # atno 6908 bound_to 6896
  151.8153  135.0669  160.0469 H   0  0  0  0  0  0  0  0  0  0  0  0  # atno 6909 bound_to 6896
  144.8740  140.6409  143.5249 H   0  0  0  0  0  0  0  0  0  0  0  0  # atno 7974 bound_to 7965
  154.4285  140.1097  156.5865 H   0  0  0  0  0  0  0  0  0  0  0  0  # atno 8008 bound_to 7997
  155.6057  140.3494  155.4588 H   0  0  0  0  0  0  0  0  0  0  0  0  # atno 8009 bound_to 7997
  156.0138  140.1225  157.0416 H   0  0  0  0  0  0  0  0  0  0  0  0  # atno 8010 bound_to 7997
  140.7176  143.5457  150.9358 H   0  0  0  0  0  0  0  0  0  0  0  0  # atno 10167 bound_to 10162
  156.5670  130.8672  151.2826 H   0  0  0  0  0  0  0  0  0  0  0  0  # atno 10718 bound_to 10713
  153.5658  135.7008  153.5527 H   0  0  0  0  0  0  0  0  0  0  0  0  # atno 10763 bound_to 10752
  153.3388  135.4026  155.1555 H   0  0  0  0  0  0  0  0  0  0  0  0  # atno 10764 bound_to 10752
  154.8641  135.3737  154.5178 H   0  0  0  0  0  0  0  0  0  0  0  0  # atno 10765 bound_to 10752
  139.8782  134.8949  156.4154 H   0  0  0  0  0  0  0  0  0  0  0  0  # atno 11005 bound_to 11000
  145.4077  139.1586  143.4143 LP  0  0  0  0  0  0  0  0  0  0  0  0  # atno 17320 bound_to 7965
  146.2950  140.4179  142.8725 LP  0  0  0  0  0  0  0  0  0  0  0  0  # atno 17321 bound_to 7965
  139.9181  143.6639  152.3102 LP  0  0  0  0  0  0  0  0  0  0  0  0  # atno 17342 bound_to 10162
  139.7046  144.7630  151.1215 LP  0  0  0  0  0  0  0  0  0  0  0  0  # atno 17343 bound_to 10162
  157.7356  130.9765  150.2093 LP  0  0  0  0  0  0  0  0  0  0  0  0  # atno 17370 bound_to 10713
  156.2748  130.3726  149.7994 LP  0  0  0  0  0  0  0  0  0  0  0  0  # atno 17371 bound_to 10713
  140.9171  133.7671  155.9862 LP  0  0  0  0  0  0  0  0  0  0  0  0  # atno 17394 bound_to 11000
  140.8481  134.2987  157.5286 LP  0  0  0  0  0  0  0  0  0  0  0  0  # atno 17395 bound_to 11000

$$$$
