AV-unprocessed.smi:1866|AV-procd|sdf|7559|dock1
  -GOLD-   22720 9273D 1   1.00000     0.00000
 Structure written by MMmdl.
 29 30  0  0  0  0  0  0  0  0  2 V2000
  152.7202  143.0080  162.5374 C   0  0  0  0  0  0  0  0  0  0  0  0
  152.2446  143.3477  161.1665 C   0  0  0  0  0  0  0  0  0  0  0  0
  151.9570  144.5962  160.7910 N   0  0  0  0  0  0  0  0  0  0  0  0
  151.5358  144.6609  159.4706 N   0  0  0  0  0  0  0  0  0  0  0  0
  151.5196  143.4653  158.8645 C   0  0  0  0  0  0  0  0  0  0  0  0
  151.1382  143.3111  157.5858 N   0  5  0  0  0  0  0  0  0  0  0  0
  150.7672  142.0916  157.1333 C   0  0  0  0  0  0  0  0  0  0  0  0
  151.4333  141.0558  157.1957 O   0  0  0  0  0  0  0  0  0  0  0  0
  149.5449  142.0727  156.5805 N   0  0  0  0  0  0  0  0  0  0  0  0
  148.8670  140.9176  155.9889 C   0  0  1  0  0  0  0  0  0  0  0  0
  147.3566  141.2296  155.9062 C   0  0  0  0  0  0  0  0  0  0  0  0
  147.0244  142.2006  154.7689 C   0  0  0  0  0  0  0  0  0  0  0  0
  147.4607  141.5993  153.4277 C   0  0  0  0  0  0  0  0  0  0  0  0
  148.7901  140.9958  153.4844 N   0  0  0  0  0  0  0  0  0  0  0  0
  149.4622  140.6277  154.5907 C   0  0  0  0  0  0  0  0  0  0  0  0
  150.5488  140.0591  154.5038 O   0  0  0  0  0  0  0  0  0  0  0  0
  152.0162  142.1384  159.9147 S   0  0  0  0  0  0  0  0  0  0  0  0
  153.7733  143.2695  162.6414 H   0  0  0  0  0  0  0  0  0  0  0  0
  152.6036  141.9405  162.7253 H   0  0  0  0  0  0  0  0  0  0  0  0
  152.1455  143.5576  163.2833 H   0  0  0  0  0  0  0  0  0  0  0  0
  149.0438  142.9483  156.5547 H   0  0  0  0  0  0  0  0  0  0  0  0
  149.0105  140.0434  156.6264 H   0  0  0  0  0  0  0  0  0  0  0  0
  146.8061  140.3005  155.7523 H   0  0  0  0  0  0  0  0  0  0  0  0
  147.0026  141.6317  156.8565 H   0  0  0  0  0  0  0  0  0  0  0  0
  145.9566  142.4200  154.7525 H   0  0  0  0  0  0  0  0  0  0  0  0
  147.5341  143.1508  154.9331 H   0  0  0  0  0  0  0  0  0  0  0  0
  146.7570  140.8227  153.1265 H   0  0  0  0  0  0  0  0  0  0  0  0
  147.4431  142.3599  152.6470 H   0  0  0  0  0  0  0  0  0  0  0  0
  149.2304  140.8020  152.5967 H   0  0  0  0  0  0  0  0  0  0  0  0
  1  2  1  0  0  0  0
  1 18  1  0  0  0  0
  1 19  1  0  0  0  0
  1 20  1  0  0  0  0
  2 17  1  0  0  0  0
  2  3  2  0  0  0  0
  3  4  1  0  0  0  0
  4  5  2  0  0  0  0
  5  6  1  0  0  0  0
  5 17  1  0  0  0  0
  6  7  1  0  0  0  0
  7  8  2  0  0  0  0
  7  9  1  0  0  0  0
  9 10  1  0  0  0  0
  9 21  1  0  0  0  0
 10 15  1  0  0  0  0
 10 11  1  0  0  0  0
 10 22  1  0  0  0  0
 11 12  1  0  0  0  0
 11 23  1  0  0  0  0
 11 24  1  0  0  0  0
 12 13  1  0  0  0  0
 12 25  1  0  0  0  0
 12 26  1  0  0  0  0
 13 14  1  0  0  0  0
 13 27  1  0  0  0  0
 13 28  1  0  0  0  0
 14 15  1  0  0  0  0
 14 29  1  0  0  0  0
 15 16  2  0  0  0  0
M  CHG  1   6  -1
M  END
> <s_m_source_file>
AV-unprocessed.smi

> <i_m_source_file_index>
1866

> <i_lp_mmshare_version>
43012

> <i_f3d_flags>
0

> <s_epik_input>
W0NIM11jMW5uYyhzMSlbTkhdQyg9TylbTkhdW0NAQEhdMltDSDJdW0NIMl1bQ0gyXVtOSF1DMj1P

> <s_epik_cmdline>
J2VwaWtfcHl0aG9uJywgJy1waCcsICc3LjAnLCAnLXRuJywgJzgnLCAnLW1hJywgJzIwMCcsICctbWV0YWxfYmluZGluZycsICctaW1hZScsICc8aW5maWxlLm1hZT4nLCAnLW9tYWUnLCAnPG91dGZpbGUubWFlPic=

> <r_lp_tautomer_probability>
1

> <r_epik_Ionization_Penalty>
3.97471

> <r_epik_Ionization_Penalty_Charging>
3.84029

> <r_epik_Ionization_Penalty_Neutral>
0.134427

> <r_epik_State_Penalty>
3.83938

> <r_epik_Charging_Adjusted_Penalty>
7.67966

> <i_epik_Tot_Q>
-1

> <i_epik_Tot_abs_Q>
1

> <r_epik_Metal_State_Penalty>
0.577306

> <b_epik_Metal_Only>
1

> <s_lp_Force_Field>
OPLS_2005

> <r_lp_Energy>
8.91558

> <b_lp_Chiralities_Consistent>
1

> <s_lp_Variant>
AV-unprocessed.smi:1866-4

> <Gold.Version>
5.8.1

> <Gold.Id.Protein>
6NUR|6NUR_protein|mol2

> <Gold.PLP.Fitness>
39.6124

> <Gold.PLP.PLP>
-32.8362

> <Gold.PLP.part.hbond>
-3.0000

> <Gold.PLP.part.metal>
0.0000

> <Gold.PLP.part.buried>
-7.1301

> <Gold.PLP.part.nonpolar>
-22.7104

> <Gold.PLP.part.repulsive>
1.4136

> <Gold.PLP.ligand.clash>
0.0000

> <Gold.PLP.ligand.torsion>
0.8155

> <Gold.PLP.Chemscore.Hbond>
2.8000

> <Gold.PLP.Chemscore.CHOScore>
0.0000

> <Gold.PLP.Chemscore.Metal>
0.0000

> <Gold.Chemscore.Hbonds>
donor molecule, donor type, donor heavy atom, donor atom, acceptor molecule, acceptor atom, score
      L1  H     9    21       P1  8028  0.91
      L1  H    14    29       P1  7957  1.00
      P1  H  7989  7998       L1    16  1.00

> <Gold.PLP.Chemscore.Internal.Correction>
0.0071

> <Gold.Rescore>
     Score         DG    S(hbond)    S(metal)    S(lipo)     H(rot)  DE(clash)    DE(int)     intcor
     14.23     -16.22       2.25        0.00      49.51       1.00       0.03       1.96       ----

> <Gold.Chemscore.Fitness>
14.2310

> <Gold.Chemscore.DG>
-16.2235

> <Gold.Chemscore.ZeroCoef>
-5.4800

> <Gold.Chemscore.Hbond>
2.2487

> <Gold.Chemscore.Metal>
0.0000

> <Gold.Chemscore.Lipo>
49.5117

> <Gold.Chemscore.Internal_Hbond>
0.0000

> <Gold.Chemscore.DEClash>
0.0310

> <Gold.Chemscore.DEInternal>
1.9615

> <Gold.Chemscore.Rot>
1.0000

> <Gold.Chemscore.Internal.Correction>
   9.000000E+99

> <Gold.Chemscore.Hbonds>
donor molecule, donor type, donor heavy atom, donor atom, acceptor molecule, acceptor atom, score
      L1  H     9    21       P1  8028  0.87
      L1  H    14    29       P1  7957  1.00
      P1  H  7989  7998       L1    16  0.82

> <Gold.Chemscore.Hbond.Weighted>
-7.5106

> <Gold.Chemscore.Metal.Weighted>
-0.0000

> <Gold.Chemscore.Lipo.Weighted>
-5.7929

> <Gold.Chemscore.Internal_Hbond.Weighted>
0.0000

> <Gold.Chemscore.DEClash.Weighted>
0.0310

> <Gold.Chemscore.DEInternal.Weighted>
1.9615

> <Gold.Chemscore.Rot.Weighted>
2.5600

> <Gold.Chemscore.Internal.Correction.Weighted>
   9.000000E+99

> <Gold.Protein.RotatedTorsions>
[ 6907 6896 6895 6894 ] final  105.68 input  -60.11 | X-H torsion
[ 7974 7965 7964 7962 ] final   74.42 input  175.53 | X-H torsion
[ 8008 7997 7996 7995 ] final -175.28 input   59.86 | X-H torsion
[ 10167 10162 10161 10158 ] final   32.01 input  -65.29 | X-H torsion
[ 10718 10713 10712 10709 ] final  124.31 input   66.30 | X-H torsion
[ 10763 10752 10751 10750 ] final  -66.06 input  -60.55 | X-H torsion
[ 11005 11000 10999 10996 ] final  -32.92 input  -57.11 | X-H torsion

> <Gold.Protein.ActiveResidues>
 VAL166  LYS551  ARG553  GLY616  TRP617  ASP618  TYR619  PRO620  LYS621  CYS622 
 ASP623  PHE694  ASN695  SER759  ASP760  ASP761  ALA762  ILE779  LEU786  VAL792 
 PHE793  MET794  SER795  GLU796  ALA797  LYS798  CYS799  TRP800  GLU811  SER814 

> <Gold.Protein.RotatedAtoms>
  152.5222  133.9493  159.7664 H   0  0  0  0  0  0  0  0  0  0  0  0  # atno 6907 bound_to 6896
  150.9807  133.6240  159.2730 H   0  0  0  0  0  0  0  0  0  0  0  0  # atno 6908 bound_to 6896
  151.3419  135.0871  159.9427 H   0  0  0  0  0  0  0  0  0  0  0  0  # atno 6909 bound_to 6896
  145.7285  139.2674  143.1555 H   0  0  0  0  0  0  0  0  0  0  0  0  # atno 7974 bound_to 7965
  155.9806  140.1181  157.0730 H   0  0  0  0  0  0  0  0  0  0  0  0  # atno 8008 bound_to 7997
  154.4182  140.1145  156.5498 H   0  0  0  0  0  0  0  0  0  0  0  0  # atno 8009 bound_to 7997
  155.6476  140.3473  155.4739 H   0  0  0  0  0  0  0  0  0  0  0  0  # atno 8010 bound_to 7997
  140.4537  144.1010  150.6197 H   0  0  0  0  0  0  0  0  0  0  0  0  # atno 10167 bound_to 10162
  157.5595  131.1090  150.8563 H   0  0  0  0  0  0  0  0  0  0  0  0  # atno 10718 bound_to 10713
  154.3542  135.6130  153.5658 H   0  0  0  0  0  0  0  0  0  0  0  0  # atno 10763 bound_to 10752
  152.9796  135.5799  154.4708 H   0  0  0  0  0  0  0  0  0  0  0  0  # atno 10764 bound_to 10752
  154.4434  135.2851  155.1809 H   0  0  0  0  0  0  0  0  0  0  0  0  # atno 10765 bound_to 10752
  140.9592  133.7174  156.1342 H   0  0  0  0  0  0  0  0  0  0  0  0  # atno 11005 bound_to 11000
  146.0560  140.8020  142.9758 LP  0  0  0  0  0  0  0  0  0  0  0  0  # atno 17320 bound_to 7965
  144.6899  140.3124  143.7246 LP  0  0  0  0  0  0  0  0  0  0  0  0  # atno 17321 bound_to 7965
  140.4177  143.2626  151.9754 LP  0  0  0  0  0  0  0  0  0  0  0  0  # atno 17342 bound_to 10162
  139.4799  144.5859  151.7854 LP  0  0  0  0  0  0  0  0  0  0  0  0  # atno 17343 bound_to 10162
  156.9065  130.5265  149.5281 LP  0  0  0  0  0  0  0  0  0  0  0  0  # atno 17370 bound_to 10713
  156.0649  130.5694  150.9268 LP  0  0  0  0  0  0  0  0  0  0  0  0  # atno 17371 bound_to 10713
  140.7492  134.4064  157.5544 LP  0  0  0  0  0  0  0  0  0  0  0  0  # atno 17394 bound_to 11000
  139.8872  134.8888  156.2540 LP  0  0  0  0  0  0  0  0  0  0  0  0  # atno 17395 bound_to 11000

$$$$
