AV-unprocessed.smi:408|AV-procd|sdf|2504|dock2
  -GOLD-   2262022453D 1   1.00000     0.00000
 Structure written by MMmdl.
 40 41  0  0  0  0  0  0  0  0  2 V2000
  152.4020  144.7545  158.0210 C   0  0  0  0  0  0  0  0  0  0  0  0
  151.6315  143.9841  159.1059 C   0  0  0  0  0  0  0  0  0  0  0  0
  151.6607  144.7563  160.4331 C   0  0  0  0  0  0  0  0  0  0  0  0
  152.1735  142.5493  159.2938 C   0  0  0  0  0  0  0  0  0  0  0  0
  152.0588  141.6309  158.0610 C   0  0  0  0  0  0  0  0  0  0  0  0
  152.1765  140.2262  158.4342 N   0  0  0  0  0  0  0  0  0  0  0  0
  152.4927  139.2153  157.6091 C   0  0  0  0  0  0  0  0  0  0  0  0
  152.8253  139.3717  156.4346 O   0  0  0  0  0  0  0  0  0  0  0  0
  152.3885  137.8072  158.1983 C   0  0  0  0  0  0  0  0  0  0  0  0
  150.9427  137.4612  158.4068 C   0  0  0  0  0  0  0  0  0  0  0  0
  149.9879  137.2822  157.4386 C   0  0  0  0  0  0  0  0  0  0  0  0
  148.4631  136.7973  158.1207 S   0  0  0  0  0  0  0  0  0  0  0  0
  149.1744  136.8662  159.7329 C   0  0  0  0  0  0  0  0  0  0  0  0
  148.5172  136.5696  160.8686 N   0  5  0  0  0  0  0  0  0  0  0  0
  147.1721  136.3592  160.9186 C   0  0  0  0  0  0  0  0  0  0  0  0
  146.3141  137.1969  160.6452 O   0  0  0  0  0  0  0  0  0  0  0  0
  146.7606  134.9812  161.3580 C   0  0  0  0  0  0  0  0  0  0  0  0
  145.8922  134.8424  162.5942 C   0  0  0  0  0  0  0  0  0  0  0  0
  147.3528  134.4785  162.6595 C   0  0  0  0  0  0  0  0  0  0  0  0
  150.4530  137.2596  159.6993 N   0  0  0  0  0  0  0  0  0  0  0  0
  153.4680  144.7980  158.2462 H   0  0  0  0  0  0  0  0  0  0  0  0
  152.0415  145.7798  157.9369 H   0  0  0  0  0  0  0  0  0  0  0  0
  152.2842  144.2921  157.0413 H   0  0  0  0  0  0  0  0  0  0  0  0
  150.5860  143.9288  158.8017 H   0  0  0  0  0  0  0  0  0  0  0  0
  152.6761  144.8423  160.8205 H   0  0  0  0  0  0  0  0  0  0  0  0
  151.0544  144.2585  161.1902 H   0  0  0  0  0  0  0  0  0  0  0  0
  151.2643  145.7647  160.3101 H   0  0  0  0  0  0  0  0  0  0  0  0
  153.2185  142.5992  159.6026 H   0  0  0  0  0  0  0  0  0  0  0  0
  151.6453  142.0740  160.1218 H   0  0  0  0  0  0  0  0  0  0  0  0
  151.1392  141.8291  157.5092 H   0  0  0  0  0  0  0  0  0  0  0  0
  152.8731  141.8547  157.3718 H   0  0  0  0  0  0  0  0  0  0  0  0
  151.9218  139.9905  159.3823 H   0  0  0  0  0  0  0  0  0  0  0  0
  152.8676  137.0944  157.5260 H   0  0  0  0  0  0  0  0  0  0  0  0
  152.9378  137.7653  159.1395 H   0  0  0  0  0  0  0  0  0  0  0  0
  150.0944  137.3796  156.3687 H   0  0  0  0  0  0  0  0  0  0  0  0
  146.5831  134.2534  160.5680 H   0  0  0  0  0  0  0  0  0  0  0  0
  145.5825  135.7412  163.1243 H   0  0  0  0  0  0  0  0  0  0  0  0
  145.1642  134.0339  162.5960 H   0  0  0  0  0  0  0  0  0  0  0  0
  147.6301  133.4283  162.6982 H   0  0  0  0  0  0  0  0  0  0  0  0
  148.0120  135.1465  163.2113 H   0  0  0  0  0  0  0  0  0  0  0  0
  1  2  1  0  0  0  0
  1 21  1  0  0  0  0
  1 22  1  0  0  0  0
  1 23  1  0  0  0  0
  2  3  1  0  0  0  0
  2  4  1  0  0  0  0
  2 24  1  0  0  0  0
  3 25  1  0  0  0  0
  3 26  1  0  0  0  0
  3 27  1  0  0  0  0
  4  5  1  0  0  0  0
  4 28  1  0  0  0  0
  4 29  1  0  0  0  0
  5  6  1  0  0  0  0
  5 30  1  0  0  0  0
  5 31  1  0  0  0  0
  6  7  1  0  0  0  0
  6 32  1  0  0  0  0
  7  8  2  0  0  0  0
  7  9  1  0  0  0  0
  9 10  1  0  0  0  0
  9 33  1  0  0  0  0
  9 34  1  0  0  0  0
 10 20  1  0  0  0  0
 10 11  2  0  0  0  0
 11 12  1  0  0  0  0
 11 35  1  0  0  0  0
 12 13  1  0  0  0  0
 13 14  1  0  0  0  0
 13 20  2  0  0  0  0
 14 15  1  0  0  0  0
 15 16  2  0  0  0  0
 15 17  1  0  0  0  0
 17 19  1  0  0  0  0
 17 18  1  0  0  0  0
 17 36  1  0  0  0  0
 18 19  1  0  0  0  0
 18 37  1  0  0  0  0
 18 38  1  0  0  0  0
 19 39  1  0  0  0  0
 19 40  1  0  0  0  0
M  CHG  1  14  -1
M  END
> <s_m_source_file>
AV-unprocessed.smi

> <i_m_source_file_index>
408

> <i_lp_mmshare_version>
43012

> <i_f3d_flags>
0

> <s_epik_input>
W0NIM11bQ0hdKFtDSDNdKVtDSDJdW0NIMl1bTkhdQyg9TylbQ0gyXWMxW2NIXXNjKG4xKVtOSF1DKD1PKVtDSF0yW0NIMl1bQ0gyXTI=

> <s_epik_cmdline>
J2VwaWtfcHl0aG9uJywgJy1waCcsICc3LjAnLCAnLXRuJywgJzgnLCAnLW1hJywgJzIwMCcsICctbWV0YWxfYmluZGluZycsICctaW1hZScsICc8aW5maWxlLm1hZT4nLCAnLW9tYWUnLCAnPG91dGZpbGUubWFlPic=

> <r_lp_tautomer_probability>
1

> <r_epik_Ionization_Penalty>
5.55111

> <r_epik_Ionization_Penalty_Charging>
5.01898

> <r_epik_Ionization_Penalty_Neutral>
0.532133

> <r_epik_State_Penalty>
5.01885

> <r_epik_Charging_Adjusted_Penalty>
10.0378

> <i_epik_Tot_Q>
-1

> <i_epik_Tot_abs_Q>
1

> <r_epik_Metal_State_Penalty>
1.13336

> <b_epik_Metal_Only>
1

> <s_lp_Force_Field>
OPLS_2005

> <r_lp_Energy>
8.36317

> <b_lp_Chiralities_Consistent>
1

> <s_lp_Variant>
AV-unprocessed.smi:408-2

> <Gold.Version>
5.8.1

> <Gold.Id.Protein>
6NUR|6NUR_protein|mol2

> <Gold.PLP.Fitness>
50.8667

> <Gold.PLP.PLP>
-40.3990

> <Gold.PLP.part.hbond>
-3.8897

> <Gold.PLP.part.metal>
0.0000

> <Gold.PLP.part.buried>
-4.9379

> <Gold.PLP.part.nonpolar>
-30.2698

> <Gold.PLP.part.repulsive>
0.1020

> <Gold.PLP.ligand.clash>
0.0000

> <Gold.PLP.ligand.torsion>
1.0402

> <Gold.PLP.Chemscore.Hbond>
4.0377

> <Gold.PLP.Chemscore.CHOScore>
0.0000

> <Gold.PLP.Chemscore.Metal>
0.0000

> <Gold.Chemscore.Hbonds>
donor molecule, donor type, donor heavy atom, donor atom, acceptor molecule, acceptor atom, score
      P1  H  6896  6908       L1    20  0.19
      P1  H  6931  6943       L1    14  1.69
      P1  H  6934  6947       L1    16  0.99
      P1  H  7997  8010       L1     8  1.00

> <Gold.PLP.Chemscore.Internal.Correction>
0.4351

> <Gold.Rescore>
     Score         DG    S(hbond)    S(metal)    S(lipo)     H(rot)  DE(clash)    DE(int)     intcor
     17.48     -18.58       1.94        0.00      98.70       1.92       0.14       0.96       ----

> <Gold.Chemscore.Fitness>
17.4782

> <Gold.Chemscore.DG>
-18.5815

> <Gold.Chemscore.ZeroCoef>
-5.4800

> <Gold.Chemscore.Hbond>
1.9365

> <Gold.Chemscore.Metal>
0.0000

> <Gold.Chemscore.Lipo>
98.7044

> <Gold.Chemscore.Internal_Hbond>
0.0000

> <Gold.Chemscore.DEClash>
0.1386

> <Gold.Chemscore.DEInternal>
0.9648

> <Gold.Chemscore.Rot>
1.9198

> <Gold.Chemscore.Internal.Correction>
   9.000000E+99

> <Gold.Chemscore.Hbonds>
donor molecule, donor type, donor heavy atom, donor atom, acceptor molecule, acceptor atom, score
      P1  H  6931  6943       L1    14  0.11
      P1  H  6934  6947       L1    16  0.56
      P1  H  7997  8010       L1     8  0.40

> <Gold.Chemscore.Hbond.Weighted>
-6.4679

> <Gold.Chemscore.Metal.Weighted>
-0.0000

> <Gold.Chemscore.Lipo.Weighted>
-11.5484

> <Gold.Chemscore.Internal_Hbond.Weighted>
0.0000

> <Gold.Chemscore.DEClash.Weighted>
0.1386

> <Gold.Chemscore.DEInternal.Weighted>
0.9648

> <Gold.Chemscore.Rot.Weighted>
4.9148

> <Gold.Chemscore.Internal.Correction.Weighted>
   9.000000E+99

> <Gold.Protein.RotatedTorsions>
[ 6907 6896 6895 6894 ] final -133.71 input  -60.11 | X-H torsion
[ 7974 7965 7964 7962 ] final   98.48 input  175.53 | X-H torsion
[ 8008 7997 7996 7995 ] final   62.94 input   59.86 | X-H torsion
[ 10167 10162 10161 10158 ] final   36.66 input  -65.29 | X-H torsion
[ 10718 10713 10712 10709 ] final   77.97 input   66.30 | X-H torsion
[ 10763 10752 10751 10750 ] final  164.32 input  -60.55 | X-H torsion
[ 11005 11000 10999 10996 ] final  112.09 input  -57.11 | X-H torsion

> <Gold.Protein.ActiveResidues>
 VAL166  LYS551  ARG553  GLY616  TRP617  ASP618  TYR619  PRO620  LYS621  CYS622 
 ASP623  PHE694  ASN695  SER759  ASP760  ASP761  ALA762  ILE779  LEU786  VAL792 
 PHE793  MET794  SER795  GLU796  ALA797  LYS798  CYS799  TRP800  GLU811  SER814 

> <Gold.Protein.RotatedAtoms>
  150.9772  133.6282  159.2728 H   0  0  0  0  0  0  0  0  0  0  0  0  # atno 6907 bound_to 6896
  151.3550  135.0891  159.9425 H   0  0  0  0  0  0  0  0  0  0  0  0  # atno 6908 bound_to 6896
  152.5203  133.9357  159.7657 H   0  0  0  0  0  0  0  0  0  0  0  0  # atno 6909 bound_to 6896
  145.4117  139.2333  143.3245 H   0  0  0  0  0  0  0  0  0  0  0  0  # atno 7974 bound_to 7965
  155.6223  140.3496  155.4656 H   0  0  0  0  0  0  0  0  0  0  0  0  # atno 8008 bound_to 7997
  156.0069  140.1225  157.0516 H   0  0  0  0  0  0  0  0  0  0  0  0  # atno 8009 bound_to 7997
  154.4267  140.1089  156.5761 H   0  0  0  0  0  0  0  0  0  0  0  0  # atno 8010 bound_to 7997
  140.4107  144.1597  150.6139 H   0  0  0  0  0  0  0  0  0  0  0  0  # atno 10167 bound_to 10162
  157.6729  130.9846  150.1719 H   0  0  0  0  0  0  0  0  0  0  0  0  # atno 10718 bound_to 10713
  154.3071  135.2758  155.2583 H   0  0  0  0  0  0  0  0  0  0  0  0  # atno 10763 bound_to 10752
  154.4995  135.5812  153.6523 H   0  0  0  0  0  0  0  0  0  0  0  0  # atno 10764 bound_to 10752
  152.9893  135.6154  154.3246 H   0  0  0  0  0  0  0  0  0  0  0  0  # atno 10765 bound_to 10752
  139.8919  134.9522  156.6532 H   0  0  0  0  0  0  0  0  0  0  0  0  # atno 11005 bound_to 11000
  146.2701  140.4829  142.8818 LP  0  0  0  0  0  0  0  0  0  0  0  0  # atno 17320 bound_to 7965
  144.8305  140.6698  143.6294 LP  0  0  0  0  0  0  0  0  0  0  0  0  # atno 17321 bound_to 7965
  140.4641  143.2437  151.9179 LP  0  0  0  0  0  0  0  0  0  0  0  0  # atno 17342 bound_to 10162
  139.4782  144.5437  151.8490 LP  0  0  0  0  0  0  0  0  0  0  0  0  # atno 17343 bound_to 10162
  156.2471  130.3696  149.8273 LP  0  0  0  0  0  0  0  0  0  0  0  0  # atno 17370 bound_to 10713
  156.6056  130.8565  151.3442 LP  0  0  0  0  0  0  0  0  0  0  0  0  # atno 17371 bound_to 10713
  140.7504  133.8902  155.8343 LP  0  0  0  0  0  0  0  0  0  0  0  0  # atno 17394 bound_to 11000
  141.0005  134.1157  157.4322 LP  0  0  0  0  0  0  0  0  0  0  0  0  # atno 17395 bound_to 11000

$$$$
