AV-unprocessed.smi:38|AV-procd|sdf|340|dock3
  -GOLD-   2262016173D 1   1.00000     0.00000
 Structure written by MMmdl.
 28 29  0  0  0  0  0  0  0  0  1 V2000
  153.3365  140.6684  150.8036 O   0  0  0  0  0  0  0  0  0  0  0  0
  152.2156  140.9438  151.2269 C   0  0  0  0  0  0  0  0  0  0  0  0
  152.0335  142.0432  152.0701 N   0  0  0  0  0  0  0  0  0  0  0  0
  150.8164  142.4527  152.6166 C   0  0  0  0  0  0  0  0  0  0  0  0
  150.7699  143.4518  153.3329 O   0  0  0  0  0  0  0  0  0  0  0  0
  149.6736  141.6809  152.3081 N   0  0  0  0  0  0  0  0  0  0  0  0
  148.3379  142.1157  152.8777 C   0  0  2  0  0  0  0  0  0  0  0  0
  148.2603  141.8496  154.3887 C   0  0  0  0  0  0  0  0  0  0  0  0
  146.8327  141.3726  154.5402 C   0  0  2  0  0  0  0  0  0  0  0  0
  146.6399  140.6314  155.7284 O   0  0  0  0  0  0  0  0  0  0  0  0
  146.6075  140.5809  153.2465 C   0  0  2  0  0  0  0  0  0  0  0  0
  147.1948  139.1517  153.2436 C   0  0  0  0  0  0  0  0  0  0  0  0
  146.7504  138.4542  152.0998 O   0  0  0  0  0  0  0  0  0  0  0  0
  147.3025  141.3784  152.2856 O   0  0  0  0  0  0  0  0  0  0  0  0
  149.8044  140.5944  151.4491 C   0  0  0  0  0  0  0  0  0  0  0  0
  150.9910  140.2104  150.9216 C   0  0  0  0  0  0  0  0  0  0  0  0
  151.0394  139.1466  150.1020 F   0  0  0  0  0  0  0  0  0  0  0  0
  152.8508  142.5899  152.2992 H   0  0  0  0  0  0  0  0  0  0  0  0
  148.2319  143.1682  152.6085 H   0  0  0  0  0  0  0  0  0  0  0  0
  146.1664  142.2364  154.5544 H   0  0  0  0  0  0  0  0  0  0  0  0
  145.5427  140.5437  153.0125 H   0  0  0  0  0  0  0  0  0  0  0  0
  148.9649  141.0627  154.6641 H   0  0  0  0  0  0  0  0  0  0  0  0
  148.4843  142.7479  154.9647 H   0  0  0  0  0  0  0  0  0  0  0  0
  145.8327  140.1456  155.6528 H   0  0  0  0  0  0  0  0  0  0  0  0
  148.2835  139.1526  153.2866 H   0  0  0  0  0  0  0  0  0  0  0  0
  146.8435  138.5882  154.1077 H   0  0  0  0  0  0  0  0  0  0  0  0
  147.3416  137.7353  151.9374 H   0  0  0  0  0  0  0  0  0  0  0  0
  148.9389  140.0122  151.1706 H   0  0  0  0  0  0  0  0  0  0  0  0
  1  2  2  0  0  0  0
  2 16  1  0  0  0  0
  2  3  1  0  0  0  0
  3 18  1  0  0  0  0
  3  4  1  0  0  0  0
  4  5  2  0  0  0  0
  4  6  1  0  0  0  0
  6  7  1  0  0  0  0
  6 15  1  0  0  0  0
  7 19  1  0  0  0  0
  7 14  1  0  0  0  0
  7  8  1  0  0  0  0
  8  9  1  0  0  0  0
  8 22  1  0  0  0  0
  8 23  1  0  0  0  0
  9 20  1  0  0  0  0
  9 10  1  0  0  0  0
  9 11  1  0  0  0  0
 10 24  1  0  0  0  0
 11 21  1  0  0  0  0
 11 12  1  0  0  0  0
 11 14  1  0  0  0  0
 12 13  1  0  0  0  0
 12 25  1  0  0  0  0
 12 26  1  0  0  0  0
 13 27  1  0  0  0  0
 15 16  2  0  0  0  0
 15 28  1  0  0  0  0
 16 17  1  0  0  0  0
M  END
> <s_m_source_file>
AV-unprocessed.smi

> <i_m_source_file_index>
38

> <i_lp_mmshare_version>
43012

> <i_f3d_flags>
0

> <s_epik_input>
Tz1jMVtuSF1jKD1PKW4oW2NIXWMxRilbQ0BIXTJbQ0gyXVtDQEhdKFtPSF0pW0NASF0oTzIpW0NIMl1bT0hd

> <s_epik_cmdline>
J2VwaWtfcHl0aG9uJywgJy1waCcsICc3LjAnLCAnLXRuJywgJzgnLCAnLW1hJywgJzIwMCcsICctbWV0YWxfYmluZGluZycsICctaW1hZScsICc8aW5maWxlLm1hZT4nLCAnLW9tYWUnLCAnPG91dGZpbGUubWFlPic=

> <r_lp_tautomer_probability>
0.999537

> <r_epik_Ionization_Penalty>
0.0357432

> <r_epik_Ionization_Penalty_Charging>
0.0357431

> <r_epik_Ionization_Penalty_Neutral>
1.19946e-07

> <r_epik_State_Penalty>
0.0298169

> <r_epik_Charging_Adjusted_Penalty>
0.06556

> <i_epik_Tot_Q>
0

> <i_epik_Tot_abs_Q>
0

> <r_epik_Metal_State_Penalty>
2.348

> <b_epik_Metal_Only>
0

> <s_epik_Chemistry_Notes>
This compound contains an acetal/aminal-like group ( X-CH(R)-Y where X, Y are N, S, or O) that may be acid/base labile, releasing an aldehyde.

> <s_lp_Force_Field>
OPLS_2005

> <r_lp_Energy>
30.3129

> <b_lp_Chiralities_Consistent>
1

> <s_lp_Variant>
AV-unprocessed.smi:38-6

> <Gold.Version>
5.8.1

> <Gold.Id.Protein>
6NUR|6NUR_protein|mol2

> <Gold.PLP.Fitness>
44.4588

> <Gold.PLP.PLP>
-30.3990

> <Gold.PLP.part.hbond>
-5.0000

> <Gold.PLP.part.metal>
0.0000

> <Gold.PLP.part.buried>
-1.3254

> <Gold.PLP.part.nonpolar>
-26.6817

> <Gold.PLP.part.repulsive>
2.5419

> <Gold.PLP.ligand.clash>
0.0000

> <Gold.PLP.ligand.torsion>
0.2536

> <Gold.PLP.Chemscore.Hbond>
3.8480

> <Gold.PLP.Chemscore.CHOScore>
1.0000

> <Gold.PLP.Chemscore.Metal>
0.0000

> <Gold.Chemscore.Hbonds>
donor molecule, donor type, donor heavy atom, donor atom, acceptor molecule, acceptor atom, score
      L1  H    13    27       P1  7948  0.62

> <Gold.PLP.Chemscore.Internal.Correction>
0.0229

> <Gold.Rescore>
     Score         DG    S(hbond)    S(metal)    S(lipo)     H(rot)  DE(clash)    DE(int)     intcor
      9.14     -13.72       3.27        0.00      40.83       2.91       3.79       0.80       ----

> <Gold.Chemscore.Fitness>
9.1392

> <Gold.Chemscore.DG>
-13.7248

> <Gold.Chemscore.ZeroCoef>
-5.4800

> <Gold.Chemscore.Hbond>
3.2717

> <Gold.Chemscore.Metal>
0.0000

> <Gold.Chemscore.Lipo>
40.8340

> <Gold.Chemscore.Internal_Hbond>
0.0000

> <Gold.Chemscore.DEClash>
3.7878

> <Gold.Chemscore.DEInternal>
0.7978

> <Gold.Chemscore.Rot>
2.9141

> <Gold.Chemscore.Internal.Correction>
   9.000000E+99

> <Gold.Chemscore.Hbonds>
donor molecule, donor type, donor heavy atom, donor atom, acceptor molecule, acceptor atom, score
      L1  H    13    27       P1  7948  0.63

> <Gold.Chemscore.Hbond.Weighted>
-10.9273

> <Gold.Chemscore.Metal.Weighted>
-0.0000

> <Gold.Chemscore.Lipo.Weighted>
-4.7776

> <Gold.Chemscore.Internal_Hbond.Weighted>
0.0000

> <Gold.Chemscore.DEClash.Weighted>
3.7878

> <Gold.Chemscore.DEInternal.Weighted>
0.7978

> <Gold.Chemscore.Rot.Weighted>
7.4601

> <Gold.Chemscore.Internal.Correction.Weighted>
   9.000000E+99

> <Gold.Protein.RotatedTorsions>
[ 6907 6896 6895 6894 ] final  -41.13 input  -60.11 | X-H torsion
[ 7974 7965 7964 7962 ] final -128.29 input  175.53 | X-H torsion
[ 8008 7997 7996 7995 ] final  170.27 input   59.86 | X-H torsion
[ 10167 10162 10161 10158 ] final  -53.12 input  -65.29 | X-H torsion
[ 10718 10713 10712 10709 ] final  -78.33 input   66.30 | X-H torsion
[ 10763 10752 10751 10750 ] final   63.46 input  -60.55 | X-H torsion
[ 11005 11000 10999 10996 ] final   15.44 input  -57.11 | X-H torsion

> <Gold.Protein.ActiveResidues>
 VAL166  LYS551  ARG553  GLY616  TRP617  ASP618  TYR619  PRO620  LYS621  CYS622 
 ASP623  PHE694  ASN695  SER759  ASP760  ASP761  ALA762  ILE779  LEU786  VAL792 
 PHE793  MET794  SER795  GLU796  ALA797  LYS798  CYS799  TRP800  GLU811  SER814 

> <Gold.Protein.RotatedAtoms>
  150.9703  134.9077  159.7783 H   0  0  0  0  0  0  0  0  0  0  0  0  # atno 6907 bound_to 6896
  152.5188  134.3550  159.9274 H   0  0  0  0  0  0  0  0  0  0  0  0  # atno 6908 bound_to 6896
  151.3559  133.3867  159.2719 H   0  0  0  0  0  0  0  0  0  0  0  0  # atno 6909 bound_to 6896
  144.9685  140.7521  143.4685 H   0  0  0  0  0  0  0  0  0  0  0  0  # atno 7974 bound_to 7965
  156.1381  140.1542  156.8963 H   0  0  0  0  0  0  0  0  0  0  0  0  # atno 8008 bound_to 7997
  154.4964  140.0837  156.7744 H   0  0  0  0  0  0  0  0  0  0  0  0  # atno 8009 bound_to 7997
  155.4130  140.3419  155.4267 H   0  0  0  0  0  0  0  0  0  0  0  0  # atno 8010 bound_to 7997
  140.6502  143.2561  151.4746 H   0  0  0  0  0  0  0  0  0  0  0  0  # atno 10167 bound_to 10162
  156.0120  130.4515  150.3481 H   0  0  0  0  0  0  0  0  0  0  0  0  # atno 10718 bound_to 10713
  153.0019  135.5428  154.6356 H   0  0  0  0  0  0  0  0  0  0  0  0  # atno 10763 bound_to 10752
  154.5623  135.2835  155.0909 H   0  0  0  0  0  0  0  0  0  0  0  0  # atno 10764 bound_to 10752
  154.2107  135.6468  153.5167 H   0  0  0  0  0  0  0  0  0  0  0  0  # atno 10765 bound_to 10752
  140.4583  134.1153  155.7712 H   0  0  0  0  0  0  0  0  0  0  0  0  # atno 11005 bound_to 11000
  145.2593  139.1999  143.4900 LP  0  0  0  0  0  0  0  0  0  0  0  0  # atno 17320 bound_to 7965
  146.3375  140.2521  142.8599 LP  0  0  0  0  0  0  0  0  0  0  0  0  # atno 17321 bound_to 7965
  139.5716  144.1916  152.1844 LP  0  0  0  0  0  0  0  0  0  0  0  0  # atno 17342 bound_to 10162
  140.1213  144.5370  150.6861 LP  0  0  0  0  0  0  0  0  0  0  0  0  # atno 17343 bound_to 10162
  157.1574  131.0336  151.2857 LP  0  0  0  0  0  0  0  0  0  0  0  0  # atno 17370 bound_to 10713
  157.4340  130.7507  149.7014 LP  0  0  0  0  0  0  0  0  0  0  0  0  # atno 17371 bound_to 10713
  141.1633  133.8752  157.1787 LP  0  0  0  0  0  0  0  0  0  0  0  0  # atno 17394 bound_to 11000
  139.9962  135.0046  157.0087 LP  0  0  0  0  0  0  0  0  0  0  0  0  # atno 17395 bound_to 11000

$$$$
