AV-unprocessed.smi:445|AV-procd|sdf|2589|dock4
  -GOLD-   2262022583D 1   1.00000     0.00000
 Structure written by MMmdl.
 44 45  0  0  0  0  0  0  0  0  3 V2000
  151.2099  145.1136  160.0905 C   0  0  0  0  0  0  0  0  0  0  0  0
  151.6753  143.6627  160.3104 C   0  0  2  0  0  0  0  0  0  0  0  0
  152.3686  143.5193  161.6806 C   0  0  0  0  0  0  0  0  0  0  0  0
  152.8376  142.0794  161.9373 C   0  0  0  0  0  0  0  0  0  0  0  0
  153.7658  141.5946  160.8156 C   0  0  0  0  0  0  0  0  0  0  0  0
  153.0836  141.7165  159.4455 C   0  0  0  0  0  0  0  0  0  0  0  0
  152.6000  143.1571  159.1747 C   0  0  1  0  0  0  0  0  0  0  0  0
  151.9047  143.2113  157.8906 N   0  0  0  0  0  0  0  0  0  0  0  0
  151.0576  142.2814  157.4243 C   0  0  0  0  0  0  0  0  0  0  0  0
  150.7522  141.2684  158.0549 O   0  0  0  0  0  0  0  0  0  0  0  0
  150.4507  142.5591  156.0418 C   0  0  0  0  0  0  0  0  0  0  0  0
  150.0469  141.3329  155.3299 N   0  0  0  0  0  0  0  0  0  0  0  0
  151.0082  140.3098  155.2483 C   0  0  0  0  0  0  0  0  0  0  0  0
  150.7655  139.1461  154.6203 C   0  0  0  0  0  0  0  0  0  0  0  0
  151.7742  138.1110  154.5440 N   0  3  0  0  0  0  0  0  0  0  0  0
  151.4304  136.9743  154.2359 O   0  0  0  0  0  0  0  0  0  0  0  0
  152.9421  138.3977  154.7896 O   0  5  0  0  0  0  0  0  0  0  0  0
  149.4615  138.9614  154.0177 C   0  0  0  0  0  0  0  0  0  0  0  0
  148.5196  139.9373  154.0791 C   0  0  0  0  0  0  0  0  0  0  0  0
  147.1747  139.7914  153.4778 C   0  0  0  0  0  0  0  0  0  0  0  0
  146.2396  140.5820  154.0199 N   0  0  0  0  0  0  0  0  0  0  0  0
  146.8525  139.0378  152.5593 O   0  0  0  0  0  0  0  0  0  0  0  0
  148.8013  141.2253  154.7699 C   0  0  0  0  0  0  0  0  0  0  0  0
  148.0057  142.1643  154.8617 O   0  0  0  0  0  0  0  0  0  0  0  0
  152.0588  145.7955  160.0301 H   0  0  0  0  0  0  0  0  0  0  0  0
  150.5730  145.4489  160.9095 H   0  0  0  0  0  0  0  0  0  0  0  0
  150.6335  145.2187  159.1712 H   0  0  0  0  0  0  0  0  0  0  0  0
  150.7840  143.0331  160.3262 H   0  0  0  0  0  0  0  0  0  0  0  0
  153.2253  144.1929  161.7319 H   0  0  0  0  0  0  0  0  0  0  0  0
  151.6888  143.8258  162.4764 H   0  0  0  0  0  0  0  0  0  0  0  0
  153.3524  142.0215  162.8967 H   0  0  0  0  0  0  0  0  0  0  0  0
  151.9726  141.4187  162.0091 H   0  0  0  0  0  0  0  0  0  0  0  0
  154.6851  142.1816  160.8206 H   0  0  0  0  0  0  0  0  0  0  0  0
  154.0577  140.5595  160.9951 H   0  0  0  0  0  0  0  0  0  0  0  0
  153.7779  141.3993  158.6664 H   0  0  0  0  0  0  0  0  0  0  0  0
  152.2376  141.0288  159.4020 H   0  0  0  0  0  0  0  0  0  0  0  0
  153.4715  143.8138  159.1341 H   0  0  0  0  0  0  0  0  0  0  0  0
  152.0932  144.0136  157.3071 H   0  0  0  0  0  0  0  0  0  0  0  0
  149.5971  143.2249  156.1760 H   0  0  0  0  0  0  0  0  0  0  0  0
  151.1596  143.1313  155.4399 H   0  0  0  0  0  0  0  0  0  0  0  0
  151.9516  140.5423  155.7209 H   0  0  0  0  0  0  0  0  0  0  0  0
  149.2633  138.0246  153.5193 H   0  0  0  0  0  0  0  0  0  0  0  0
  145.2908  140.5547  153.6760 H   0  0  0  0  0  0  0  0  0  0  0  0
  146.4895  141.2058  154.7737 H   0  0  0  0  0  0  0  0  0  0  0  0
  1  2  1  0  0  0  0
  1 25  1  0  0  0  0
  1 26  1  0  0  0  0
  1 27  1  0  0  0  0
  2  7  1  0  0  0  0
  2  3  1  0  0  0  0
  2 28  1  0  0  0  0
  3  4  1  0  0  0  0
  3 29  1  0  0  0  0
  3 30  1  0  0  0  0
  4  5  1  0  0  0  0
  4 31  1  0  0  0  0
  4 32  1  0  0  0  0
  5  6  1  0  0  0  0
  5 33  1  0  0  0  0
  5 34  1  0  0  0  0
  6  7  1  0  0  0  0
  6 35  1  0  0  0  0
  6 36  1  0  0  0  0
  7  8  1  0  0  0  0
  7 37  1  0  0  0  0
  8  9  1  0  0  0  0
  8 38  1  0  0  0  0
  9 10  2  0  0  0  0
  9 11  1  0  0  0  0
 11 12  1  0  0  0  0
 11 39  1  0  0  0  0
 11 40  1  0  0  0  0
 12 23  1  0  0  0  0
 12 13  1  0  0  0  0
 13 14  2  0  0  0  0
 13 41  1  0  0  0  0
 14 15  1  0  0  0  0
 14 18  1  0  0  0  0
 15 16  2  0  0  0  0
 15 17  1  0  0  0  0
 18 19  2  0  0  0  0
 18 42  1  0  0  0  0
 19 20  1  0  0  0  0
 19 23  1  0  0  0  0
 20 21  1  0  0  0  0
 20 22  2  0  0  0  0
 21 43  1  0  0  0  0
 21 44  1  0  0  0  0
 23 24  2  0  0  0  0
M  CHG  1  15   1
M  CHG  1  17  -1
M  END
> <s_m_source_file>
AV-unprocessed.smi

> <i_m_source_file_index>
445

> <i_lp_mmshare_version>
43012

> <i_f3d_flags>
0

> <s_epik_input>
W0NIM11bQ0BASF0xW0NIMl1bQ0gyXVtDSDJdW0NIMl1bQ0BIXTFbTkhdQyg9TylbQ0gyXW4yW2NIXWMoW04rXSg9TylbTy1dKVtjSF1jKGMyPU8pQyg9TylbTkgyXQ==

> <s_epik_cmdline>
J2VwaWtfcHl0aG9uJywgJy1waCcsICc3LjAnLCAnLXRuJywgJzgnLCAnLW1hJywgJzIwMCcsICctbWV0YWxfYmluZGluZycsICctaW1hZScsICc8aW5maWxlLm1hZT4nLCAnLW9tYWUnLCAnPG91dGZpbGUubWFlPic=

> <r_lp_tautomer_probability>
1

> <r_epik_Ionization_Penalty>
2.81321e-06

> <r_epik_Ionization_Penalty_Charging>
2.43777e-12

> <r_epik_Ionization_Penalty_Neutral>
2.81321e-06

> <r_epik_State_Penalty>
-0

> <r_epik_Charging_Adjusted_Penalty>
2.43777e-12

> <i_epik_Tot_Q>
0

> <i_epik_Tot_abs_Q>
2

> <r_epik_Metal_State_Penalty>
-0

> <b_epik_Metal_Only>
0

> <s_lp_Force_Field>
OPLS_2005

> <r_lp_Energy>
28.5082

> <b_lp_Chiralities_Consistent>
1

> <s_lp_Variant>
AV-unprocessed.smi:445-1

> <Gold.Version>
5.8.1

> <Gold.Id.Protein>
6NUR|6NUR_protein|mol2

> <Gold.PLP.Fitness>
54.4600

> <Gold.PLP.PLP>
-50.8547

> <Gold.PLP.part.hbond>
-2.9312

> <Gold.PLP.part.metal>
0.0000

> <Gold.PLP.part.buried>
-3.3218

> <Gold.PLP.part.nonpolar>
-46.9286

> <Gold.PLP.part.repulsive>
1.8355

> <Gold.PLP.ligand.clash>
0.1590

> <Gold.PLP.ligand.torsion>
1.0992

> <Gold.PLP.Chemscore.Hbond>
1.9750

> <Gold.PLP.Chemscore.CHOScore>
0.0000

> <Gold.PLP.Chemscore.Metal>
0.0000

> <Gold.Chemscore.Hbonds>
donor molecule, donor type, donor heavy atom, donor atom, acceptor molecule, acceptor atom, score
      L1  H    21    43       P1 10175  1.00
      P1  H 10752 10764       L1    16  0.94

> <Gold.PLP.Chemscore.Internal.Correction>
0.0377

> <Gold.Rescore>
     Score         DG    S(hbond)    S(metal)    S(lipo)     H(rot)  DE(clash)    DE(int)     intcor
     13.61     -19.51       1.67        0.00     109.80       1.71       1.39       4.51       ----

> <Gold.Chemscore.Fitness>
13.6093

> <Gold.Chemscore.DG>
-19.5067

> <Gold.Chemscore.ZeroCoef>
-5.4800

> <Gold.Chemscore.Hbond>
1.6656

> <Gold.Chemscore.Metal>
0.0000

> <Gold.Chemscore.Lipo>
109.8044

> <Gold.Chemscore.Internal_Hbond>
0.0000

> <Gold.Chemscore.DEClash>
1.3915

> <Gold.Chemscore.DEInternal>
4.5059

> <Gold.Chemscore.Rot>
1.7123

> <Gold.Chemscore.Internal.Correction>
   9.000000E+99

> <Gold.Chemscore.Hbonds>
donor molecule, donor type, donor heavy atom, donor atom, acceptor molecule, acceptor atom, score
      L1  H    21    43       P1 10175  0.94
      P1  H 10752 10764       L1    16  0.72

> <Gold.Chemscore.Hbond.Weighted>
-5.5631

> <Gold.Chemscore.Metal.Weighted>
-0.0000

> <Gold.Chemscore.Lipo.Weighted>
-12.8471

> <Gold.Chemscore.Internal_Hbond.Weighted>
0.0000

> <Gold.Chemscore.DEClash.Weighted>
1.3915

> <Gold.Chemscore.DEInternal.Weighted>
4.5059

> <Gold.Chemscore.Rot.Weighted>
4.3835

> <Gold.Chemscore.Internal.Correction.Weighted>
   9.000000E+99

> <Gold.Protein.RotatedTorsions>
[ 6907 6896 6895 6894 ] final -159.62 input  -60.11 | X-H torsion
[ 7974 7965 7964 7962 ] final -121.60 input  175.53 | X-H torsion
[ 8008 7997 7996 7995 ] final  -83.56 input   59.86 | X-H torsion
[ 10167 10162 10161 10158 ] final   50.42 input  -65.29 | X-H torsion
[ 10718 10713 10712 10709 ] final   31.17 input   66.30 | X-H torsion
[ 10763 10752 10751 10750 ] final  -61.81 input  -60.55 | X-H torsion
[ 11005 11000 10999 10996 ] final  155.88 input  -57.11 | X-H torsion

> <Gold.Protein.ActiveResidues>
 VAL166  LYS551  ARG553  GLY616  TRP617  ASP618  TYR619  PRO620  LYS621  CYS622 
 ASP623  PHE694  ASN695  SER759  ASP760  ASP761  ALA762  ILE779  LEU786  VAL792 
 PHE793  MET794  SER795  GLU796  ALA797  LYS798  CYS799  TRP800  GLU811  SER814 

> <Gold.Protein.RotatedAtoms>
  151.3365  133.3979  159.2666 H   0  0  0  0  0  0  0  0  0  0  0  0  # atno 6907 bound_to 6896
  150.9913  134.9248  159.7911 H   0  0  0  0  0  0  0  0  0  0  0  0  # atno 6908 bound_to 6896
  152.5248  134.3329  159.9242 H   0  0  0  0  0  0  0  0  0  0  0  0  # atno 6909 bound_to 6896
  145.0386  140.8126  143.4280 H   0  0  0  0  0  0  0  0  0  0  0  0  # atno 7974 bound_to 7965
  154.6204  140.0617  156.9608 H   0  0  0  0  0  0  0  0  0  0  0  0  # atno 8008 bound_to 7997
  155.1827  140.3300  155.4354 H   0  0  0  0  0  0  0  0  0  0  0  0  # atno 8009 bound_to 7997
  156.2428  140.1895  156.6922 H   0  0  0  0  0  0  0  0  0  0  0  0  # atno 8010 bound_to 7997
  140.2726  144.3248  150.6286 H   0  0  0  0  0  0  0  0  0  0  0  0  # atno 10167 bound_to 10162
  157.2691  130.7199  149.6494 H   0  0  0  0  0  0  0  0  0  0  0  0  # atno 10718 bound_to 10713
  154.2902  135.6255  153.5382 H   0  0  0  0  0  0  0  0  0  0  0  0  # atno 10763 bound_to 10752
  152.9853  135.5654  154.5398 H   0  0  0  0  0  0  0  0  0  0  0  0  # atno 10764 bound_to 10752
  154.5007  135.2872  155.1399 H   0  0  0  0  0  0  0  0  0  0  0  0  # atno 10765 bound_to 10752
  140.1623  134.8601  157.2589 H   0  0  0  0  0  0  0  0  0  0  0  0  # atno 11005 bound_to 11000
  145.1677  139.2422  143.5358 LP  0  0  0  0  0  0  0  0  0  0  0  0  # atno 17320 bound_to 7965
  146.3507  140.1421  142.8594 LP  0  0  0  0  0  0  0  0  0  0  0  0  # atno 17321 bound_to 7965
  140.5877  143.2169  151.7311 LP  0  0  0  0  0  0  0  0  0  0  0  0  # atno 17342 bound_to 10162
  139.4984  144.3986  152.0205 LP  0  0  0  0  0  0  0  0  0  0  0  0  # atno 17343 bound_to 10162
  155.9663  130.4373  150.5171 LP  0  0  0  0  0  0  0  0  0  0  0  0  # atno 17370 bound_to 10713
  157.3091  131.0660  151.2013 LP  0  0  0  0  0  0  0  0  0  0  0  0  # atno 17371 bound_to 10713
  140.2475  134.3722  155.7455 LP  0  0  0  0  0  0  0  0  0  0  0  0  # atno 17394 bound_to 11000
  141.2210  133.7298  156.8884 LP  0  0  0  0  0  0  0  0  0  0  0  0  # atno 17395 bound_to 11000

$$$$
