AV-unprocessed.smi:2027|AV-procd|sdf|8210|dock3
  -GOLD-   2272010473D 1   1.00000     0.00000
 Structure written by MMmdl.
 49 51  0  0  0  0  0  0  0  0  1 V2000
  153.1959  142.7908  162.2535 C   0  0  0  0  0  0  0  0  0  0  0  0
  152.6799  142.4937  160.8565 C   0  0  0  0  0  0  0  0  0  0  0  0
  153.0118  141.2611  160.2486 C   0  0  0  0  0  0  0  0  0  0  0  0
  152.5537  140.9471  158.9499 C   0  0  0  0  0  0  0  0  0  0  0  0
  152.7517  139.8200  158.1696 N   0  0  0  0  0  0  0  0  0  0  0  0
  152.0736  140.1317  157.0679 C   0  0  0  0  0  0  0  0  0  0  0  0
  151.4625  141.3312  157.0429 N   0  0  0  0  0  0  0  0  0  0  0  0
  150.6706  141.9066  155.9740 C   0  0  0  0  0  0  0  0  0  0  0  0
  149.3323  141.1629  155.7894 C   0  0  1  0  0  0  0  0  0  0  0  0
  148.6361  141.1633  157.0185 O   0  0  0  0  0  0  0  0  0  0  0  0
  148.4359  141.8067  154.7112 C   0  0  0  0  0  0  0  0  0  0  0  0
  147.1736  141.1060  154.4583 N   0  0  0  0  0  0  0  0  0  0  0  0
  147.4210  139.8462  153.7642 C   0  0  0  0  0  0  0  0  0  0  0  0
  146.2053  141.9256  153.7229 C   0  0  0  0  0  0  0  0  0  0  0  0
  145.5483  142.9685  154.5876 C   0  0  0  0  0  0  0  0  0  0  0  0
  145.7939  143.2476  155.9622 C   0  0  0  0  0  0  0  0  0  0  0  0
  145.0250  144.2145  156.4367 N   0  0  0  0  0  0  0  0  0  0  0  0
  144.2629  144.5835  155.3866 N   0  0  0  0  0  0  0  0  0  0  0  0
  143.2798  145.6331  155.5491 C   0  0  0  0  0  0  0  0  0  0  0  0
  144.5552  143.8485  154.2589 C   0  0  0  0  0  0  0  0  0  0  0  0
  151.7500  141.9088  158.2730 C   0  0  0  0  0  0  0  0  0  0  0  0
  151.4121  143.1373  158.8664 C   0  0  0  0  0  0  0  0  0  0  0  0
  151.8752  143.4345  160.1643 C   0  0  0  0  0  0  0  0  0  0  0  0
  151.5017  144.7650  160.7942 C   0  0  0  0  0  0  0  0  0  0  0  0
  153.8606  142.0025  162.6083 H   0  0  0  0  0  0  0  0  0  0  0  0
  152.3661  142.8719  162.9560 H   0  0  0  0  0  0  0  0  0  0  0  0
  153.7539  143.7273  162.2653 H   0  0  0  0  0  0  0  0  0  0  0  0
  153.6234  140.5442  160.7764 H   0  0  0  0  0  0  0  0  0  0  0  0
  152.0203  139.4512  156.2305 H   0  0  0  0  0  0  0  0  0  0  0  0
  150.5094  142.9676  156.1696 H   0  0  0  0  0  0  0  0  0  0  0  0
  151.2698  141.8492  155.0648 H   0  0  0  0  0  0  0  0  0  0  0  0
  149.5203  140.1181  155.5472 H   0  0  0  0  0  0  0  0  0  0  0  0
  147.9881  141.8507  156.9943 H   0  0  0  0  0  0  0  0  0  0  0  0
  148.2257  142.8433  154.9794 H   0  0  0  0  0  0  0  0  0  0  0  0
  149.0130  141.8489  153.7862 H   0  0  0  0  0  0  0  0  0  0  0  0
  146.4981  139.2825  153.6263 H   0  0  0  0  0  0  0  0  0  0  0  0
  148.1023  139.2160  154.3368 H   0  0  0  0  0  0  0  0  0  0  0  0
  147.8641  140.0186  152.7823 H   0  0  0  0  0  0  0  0  0  0  0  0
  146.6932  142.4368  152.8964 H   0  0  0  0  0  0  0  0  0  0  0  0
  145.4611  141.2790  153.2555 H   0  0  0  0  0  0  0  0  0  0  0  0
  146.5026  142.7753  156.6265 H   0  0  0  0  0  0  0  0  0  0  0  0
  142.9366  145.9764  154.5728 H   0  0  0  0  0  0  0  0  0  0  0  0
  143.7180  146.4756  156.0857 H   0  0  0  0  0  0  0  0  0  0  0  0
  142.4270  145.2526  156.1116 H   0  0  0  0  0  0  0  0  0  0  0  0
  144.0358  144.0056  153.3249 H   0  0  0  0  0  0  0  0  0  0  0  0
  150.8025  143.8449  158.3249 H   0  0  0  0  0  0  0  0  0  0  0  0
  150.8073  145.3219  160.1641 H   0  0  0  0  0  0  0  0  0  0  0  0
  152.3905  145.3793  160.9401 H   0  0  0  0  0  0  0  0  0  0  0  0
  151.0230  144.6116  161.7615 H   0  0  0  0  0  0  0  0  0  0  0  0
  1  2  1  0  0  0  0
  1 25  1  0  0  0  0
  1 26  1  0  0  0  0
  1 27  1  0  0  0  0
  2 23  1  0  0  0  0
  2  3  2  0  0  0  0
  3  4  1  0  0  0  0
  3 28  1  0  0  0  0
  4 21  2  0  0  0  0
  4  5  1  0  0  0  0
  5  6  2  0  0  0  0
  6  7  1  0  0  0  0
  6 29  1  0  0  0  0
  7  8  1  0  0  0  0
  7 21  1  0  0  0  0
  8  9  1  0  0  0  0
  8 30  1  0  0  0  0
  8 31  1  0  0  0  0
  9 10  1  0  0  0  0
  9 11  1  0  0  0  0
  9 32  1  0  0  0  0
 10 33  1  0  0  0  0
 11 12  1  0  0  0  0
 11 34  1  0  0  0  0
 11 35  1  0  0  0  0
 12 13  1  0  0  0  0
 12 14  1  0  0  0  0
 13 36  1  0  0  0  0
 13 37  1  0  0  0  0
 13 38  1  0  0  0  0
 14 15  1  0  0  0  0
 14 39  1  0  0  0  0
 14 40  1  0  0  0  0
 15 20  2  0  0  0  0
 15 16  1  0  0  0  0
 16 17  2  0  0  0  0
 16 41  1  0  0  0  0
 17 18  1  0  0  0  0
 18 19  1  0  0  0  0
 18 20  1  0  0  0  0
 19 42  1  0  0  0  0
 19 43  1  0  0  0  0
 19 44  1  0  0  0  0
 20 45  1  0  0  0  0
 21 22  1  0  0  0  0
 22 23  2  0  0  0  0
 22 46  1  0  0  0  0
 23 24  1  0  0  0  0
 24 47  1  0  0  0  0
 24 48  1  0  0  0  0
 24 49  1  0  0  0  0
M  END
> <s_m_source_file>
AV-unprocessed.smi

> <i_m_source_file_index>
2027

> <i_lp_mmshare_version>
43012

> <i_f3d_flags>
0

> <s_epik_input>
W0NIM11jKFtjSF0xKWMoW0NIM10pW2NIXWMoYzEyKW4oW2NIXW4yKVtDSDJdW0NASF0oW09IXSlbQ0gyXU4oW0NIM10pW0NIMl1jM1tjSF1ubihbQ0gzXSlbY0hdMw==

> <s_epik_cmdline>
J2VwaWtfcHl0aG9uJywgJy1waCcsICc3LjAnLCAnLXRuJywgJzgnLCAnLW1hJywgJzIwMCcsICctbWV0YWxfYmluZGluZycsICctaW1hZScsICc8aW5maWxlLm1hZT4nLCAnLW9tYWUnLCAnPG91dGZpbGUubWFlPic=

> <r_lp_tautomer_probability>
1

> <r_epik_Ionization_Penalty>
0.374241

> <r_epik_Ionization_Penalty_Charging>
0

> <r_epik_Ionization_Penalty_Neutral>
0.374241

> <r_epik_State_Penalty>
0.350767

> <r_epik_Charging_Adjusted_Penalty>
0.350767

> <i_epik_Tot_Q>
0

> <i_epik_Tot_abs_Q>
0

> <r_epik_Metal_State_Penalty>
0.343203

> <b_epik_Metal_Only>
0

> <s_lp_Force_Field>
OPLS_2005

> <r_lp_Energy>
13.5697

> <b_lp_Chiralities_Consistent>
1

> <s_lp_Variant>
AV-unprocessed.smi:2027-2

> <Gold.Version>
5.8.1

> <Gold.Id.Protein>
6NUR|6NUR_protein|mol2

> <Gold.PLP.Fitness>
51.6818

> <Gold.PLP.PLP>
-46.8296

> <Gold.PLP.part.hbond>
-1.0000

> <Gold.PLP.part.metal>
0.0000

> <Gold.PLP.part.buried>
-4.4414

> <Gold.PLP.part.nonpolar>
-41.2700

> <Gold.PLP.part.repulsive>
0.2833

> <Gold.PLP.ligand.clash>
0.0000

> <Gold.PLP.ligand.torsion>
0.3531

> <Gold.PLP.Chemscore.Hbond>
0.7930

> <Gold.PLP.Chemscore.CHOScore>
0.9718

> <Gold.PLP.Chemscore.Metal>
0.0000

> <Gold.Chemscore.Hbonds>
donor molecule, donor type, donor heavy atom, donor atom, acceptor molecule, acceptor atom, score
      P1  H  7997  8009       L1     5  0.33
      L1  C    20    45       P1 10174  0.98

> <Gold.PLP.Chemscore.Internal.Correction>
0.2640

> <Gold.Rescore>
     Score         DG    S(hbond)    S(metal)    S(lipo)     H(rot)  DE(clash)    DE(int)     intcor
     15.16     -15.72       0.00        0.00     140.45       2.42       0.20       0.36       ----

> <Gold.Chemscore.Fitness>
15.1620

> <Gold.Chemscore.DG>
-15.7181

> <Gold.Chemscore.ZeroCoef>
-5.4800

> <Gold.Chemscore.Hbond>
0.0000

> <Gold.Chemscore.Metal>
0.0000

> <Gold.Chemscore.Lipo>
140.4515

> <Gold.Chemscore.Internal_Hbond>
0.0000

> <Gold.Chemscore.DEClash>
0.1975

> <Gold.Chemscore.DEInternal>
0.3586

> <Gold.Chemscore.Rot>
2.4198

> <Gold.Chemscore.Internal.Correction>
   9.000000E+99

> <Gold.Chemscore.Hbonds>
donor molecule, donor type, donor heavy atom, donor atom, acceptor molecule, acceptor atom, score
      P1  H  7997  8009       L1     5  0.01

> <Gold.Chemscore.Hbond.Weighted>
-0.0000

> <Gold.Chemscore.Metal.Weighted>
-0.0000

> <Gold.Chemscore.Lipo.Weighted>
-16.4328

> <Gold.Chemscore.Internal_Hbond.Weighted>
0.0000

> <Gold.Chemscore.DEClash.Weighted>
0.1975

> <Gold.Chemscore.DEInternal.Weighted>
0.3586

> <Gold.Chemscore.Rot.Weighted>
6.1948

> <Gold.Chemscore.Internal.Correction.Weighted>
   9.000000E+99

> <Gold.Protein.RotatedTorsions>
[ 6907 6896 6895 6894 ] final -135.54 input  -60.11 | X-H torsion
[ 7974 7965 7964 7962 ] final  127.60 input  175.53 | X-H torsion
[ 8008 7997 7996 7995 ] final  145.76 input   59.86 | X-H torsion
[ 10167 10162 10161 10158 ] final -158.92 input  -65.29 | X-H torsion
[ 10718 10713 10712 10709 ] final    7.50 input   66.30 | X-H torsion
[ 10763 10752 10751 10750 ] final  -24.24 input  -60.55 | X-H torsion
[ 11005 11000 10999 10996 ] final   -9.97 input  -57.11 | X-H torsion

> <Gold.Protein.ActiveResidues>
 VAL166  LYS551  ARG553  GLY616  TRP617  ASP618  TYR619  PRO620  LYS621  CYS622 
 ASP623  PHE694  ASN695  SER759  ASP760  ASP761  ALA762  ILE779  LEU786  VAL792 
 PHE793  MET794  SER795  GLU796  ALA797  LYS798  CYS799  TRP800  GLU811  SER814 

> <Gold.Protein.RotatedAtoms>
  150.9991  133.6073  159.2697 H   0  0  0  0  0  0  0  0  0  0  0  0  # atno 6907 bound_to 6896
  151.3266  135.0830  159.9334 H   0  0  0  0  0  0  0  0  0  0  0  0  # atno 6908 bound_to 6896
  152.5268  133.9629  159.7780 H   0  0  0  0  0  0  0  0  0  0  0  0  # atno 6909 bound_to 6896
  145.0488  139.3900  143.5064 H   0  0  0  0  0  0  0  0  0  0  0  0  # atno 7974 bound_to 7965
  156.2874  140.2200  156.5268 H   0  0  0  0  0  0  0  0  0  0  0  0  # atno 8008 bound_to 7997
  154.7482  140.0482  157.0893 H   0  0  0  0  0  0  0  0  0  0  0  0  # atno 8009 bound_to 7997
  155.0143  140.3116  155.4821 H   0  0  0  0  0  0  0  0  0  0  0  0  # atno 8010 bound_to 7997
  139.6655  143.9837  152.2252 H   0  0  0  0  0  0  0  0  0  0  0  0  # atno 10167 bound_to 10162
  156.9378  130.5850  149.5651 H   0  0  0  0  0  0  0  0  0  0  0  0  # atno 10718 bound_to 10713
  153.6806  135.6967  153.5119 H   0  0  0  0  0  0  0  0  0  0  0  0  # atno 10763 bound_to 10752
  153.2488  135.4282  155.0774 H   0  0  0  0  0  0  0  0  0  0  0  0  # atno 10764 bound_to 10752
  154.8401  135.3526  154.6350 H   0  0  0  0  0  0  0  0  0  0  0  0  # atno 10765 bound_to 10752
  140.7398  133.8680  155.8958 H   0  0  0  0  0  0  0  0  0  0  0  0  # atno 11005 bound_to 11000
  146.3516  140.0128  142.8665 LP  0  0  0  0  0  0  0  0  0  0  0  0  # atno 17320 bound_to 7965
  145.1553  140.9645  143.4409 LP  0  0  0  0  0  0  0  0  0  0  0  0  # atno 17321 bound_to 7965
  139.9587  144.6572  150.8100 LP  0  0  0  0  0  0  0  0  0  0  0  0  # atno 17342 bound_to 10162
  140.7597  143.3136  151.2787 LP  0  0  0  0  0  0  0  0  0  0  0  0  # atno 17343 bound_to 10162
  156.0418  130.5499  150.8788 LP  0  0  0  0  0  0  0  0  0  0  0  0  # atno 17370 bound_to 10713
  157.5805  131.0946  150.9279 LP  0  0  0  0  0  0  0  0  0  0  0  0  # atno 17371 bound_to 10713
  140.9847  134.1359  157.4463 LP  0  0  0  0  0  0  0  0  0  0  0  0  # atno 17394 bound_to 11000
  139.8808  135.0021  156.6110 LP  0  0  0  0  0  0  0  0  0  0  0  0  # atno 17395 bound_to 11000

$$$$
