AV-unprocessed.smi:2154|AV-procd|sdf|8774|dock3
  -GOLD-   2272011553D 1   1.00000     0.00000
 Structure written by MMmdl.
 31 32  0  0  0  0  0  0  0  0  2 V2000
  143.6753  132.6592  148.3955 C   0  0  0  0  0  0  0  0  0  0  0  0
  143.9235  132.5748  149.8857 C   0  0  2  0  0  0  0  0  0  0  0  0
  144.1943  133.8206  150.6991 C   0  0  0  0  0  0  0  0  0  0  0  0
  145.3037  132.8274  150.4477 C   0  0  1  0  0  0  0  0  0  0  0  0
  145.8519  131.9748  151.5714 C   0  0  0  0  0  0  0  0  0  0  0  0
  147.2455  132.2601  151.8813 N   0  0  0  0  0  0  0  0  0  0  0  0
  147.7129  132.8121  153.0131 C   0  0  0  0  0  0  0  0  0  0  0  0
  146.9870  133.1179  153.9587 O   0  0  0  0  0  0  0  0  0  0  0  0
  149.2276  133.0641  153.1215 C   0  0  0  0  0  0  0  0  0  0  0  0
  149.8317  132.6719  154.4087 N   0  0  0  0  0  0  0  0  0  0  0  0
  150.4214  133.6851  155.1849 C   0  0  0  0  0  0  0  0  0  0  0  0
  150.9850  133.4278  156.3804 C   0  0  0  0  0  0  0  0  0  0  0  0
  150.9738  132.0540  156.8675 C   0  0  0  0  0  0  0  0  0  0  0  0
  151.4824  131.8008  157.9577 O   0  0  0  0  0  0  0  0  0  0  0  0
  150.3894  131.1059  156.0781 N   0  5  0  0  0  0  0  0  0  0  0  0
  149.8191  131.3823  154.8645 C   0  0  0  0  0  0  0  0  0  0  0  0
  149.2880  130.5133  154.1728 O   0  0  0  0  0  0  0  0  0  0  0  0
  144.2788  133.4480  147.9458 H   0  0  0  0  0  0  0  0  0  0  0  0
  142.6242  132.8719  148.2017 H   0  0  0  0  0  0  0  0  0  0  0  0
  143.9333  131.7122  147.9210 H   0  0  0  0  0  0  0  0  0  0  0  0
  143.3376  131.8022  150.3804 H   0  0  0  0  0  0  0  0  0  0  0  0
  144.2458  134.7712  150.1721 H   0  0  0  0  0  0  0  0  0  0  0  0
  143.7709  133.8665  151.7005 H   0  0  0  0  0  0  0  0  0  0  0  0
  146.0636  133.1443  149.7352 H   0  0  0  0  0  0  0  0  0  0  0  0
  145.2168  132.1243  152.4457 H   0  0  0  0  0  0  0  0  0  0  0  0
  145.7683  130.9214  151.3017 H   0  0  0  0  0  0  0  0  0  0  0  0
  147.9194  132.0471  151.1594 H   0  0  0  0  0  0  0  0  0  0  0  0
  149.7236  132.5453  152.2996 H   0  0  0  0  0  0  0  0  0  0  0  0
  149.4070  134.1234  152.9332 H   0  0  0  0  0  0  0  0  0  0  0  0
  150.3819  134.6751  154.7549 H   0  0  0  0  0  0  0  0  0  0  0  0
  151.4312  134.2185  156.9654 H   0  0  0  0  0  0  0  0  0  0  0  0
  1  2  1  0  0  0  0
  1 18  1  0  0  0  0
  1 19  1  0  0  0  0
  1 20  1  0  0  0  0
  2  4  1  0  0  0  0
  2  3  1  0  0  0  0
  2 21  1  0  0  0  0
  3  4  1  0  0  0  0
  3 22  1  0  0  0  0
  3 23  1  0  0  0  0
  4  5  1  0  0  0  0
  4 24  1  0  0  0  0
  5  6  1  0  0  0  0
  5 25  1  0  0  0  0
  5 26  1  0  0  0  0
  6  7  1  0  0  0  0
  6 27  1  0  0  0  0
  7  8  2  0  0  0  0
  7  9  1  0  0  0  0
  9 10  1  0  0  0  0
  9 28  1  0  0  0  0
  9 29  1  0  0  0  0
 10 16  1  0  0  0  0
 10 11  1  0  0  0  0
 11 12  2  0  0  0  0
 11 30  1  0  0  0  0
 12 13  1  0  0  0  0
 12 31  1  0  0  0  0
 13 14  2  0  0  0  0
 13 15  1  0  0  0  0
 15 16  1  0  0  0  0
 16 17  2  0  0  0  0
M  CHG  1  15  -1
M  END
> <s_m_source_file>
AV-unprocessed.smi

> <i_m_source_file_index>
2154

> <i_lp_mmshare_version>
43012

> <i_f3d_flags>
0

> <s_epik_input>
W0NIM11bQ0BASF0xW0NIMl1bQ0BIXTFbQ0gyXVtOSF1DKD1PKVtDSDJdbjJbY0hdW2NIXWMoPU8pW25IXWMyPU8=

> <s_epik_cmdline>
J2VwaWtfcHl0aG9uJywgJy1waCcsICc3LjAnLCAnLXRuJywgJzgnLCAnLW1hJywgJzIwMCcsICctbWV0YWxfYmluZGluZycsICctaW1hZScsICc8aW5maWxlLm1hZT4nLCAnLW9tYWUnLCAnPG91dGZpbGUubWFlPic=

> <r_lp_tautomer_probability>
0.999537

> <r_epik_Ionization_Penalty>
3.12283

> <r_epik_Ionization_Penalty_Charging>
2.83566e-08

> <r_epik_Ionization_Penalty_Neutral>
3.12283

> <r_epik_State_Penalty>
3.12192

> <r_epik_Charging_Adjusted_Penalty>
3.12192

> <i_epik_Tot_Q>
-1

> <i_epik_Tot_abs_Q>
1

> <r_epik_Metal_State_Penalty>
0.463748

> <b_epik_Metal_Only>
1

> <s_lp_Force_Field>
OPLS_2005

> <r_lp_Energy>
23.7869

> <b_lp_Chiralities_Consistent>
1

> <s_lp_Variant>
AV-unprocessed.smi:2154-5

> <Gold.Version>
5.8.1

> <Gold.Id.Protein>
6NUR|6NUR_protein|mol2

> <Gold.PLP.Fitness>
38.8651

> <Gold.PLP.PLP>
-33.7568

> <Gold.PLP.part.hbond>
-2.0000

> <Gold.PLP.part.metal>
0.0000

> <Gold.PLP.part.buried>
-5.6084

> <Gold.PLP.part.nonpolar>
-27.3608

> <Gold.PLP.part.repulsive>
0.1582

> <Gold.PLP.ligand.clash>
0.0000

> <Gold.PLP.ligand.torsion>
0.6092

> <Gold.PLP.Chemscore.Hbond>
1.9280

> <Gold.PLP.Chemscore.CHOScore>
0.0000

> <Gold.PLP.Chemscore.Metal>
0.0000

> <Gold.Chemscore.Hbonds>
donor molecule, donor type, donor heavy atom, donor atom, acceptor molecule, acceptor atom, score
      L1  H     6    27       P1 10747  1.00
      P1  H  6896  6907       L1    14  1.00

> <Gold.PLP.Chemscore.Internal.Correction>
0.5429

> <Gold.Rescore>
     Score         DG    S(hbond)    S(metal)    S(lipo)     H(rot)  DE(clash)    DE(int)     intcor
     14.38     -15.23       1.98        0.00      69.68       1.96       0.20       0.64       ----

> <Gold.Chemscore.Fitness>
14.3820

> <Gold.Chemscore.DG>
-15.2254

> <Gold.Chemscore.ZeroCoef>
-5.4800

> <Gold.Chemscore.Hbond>
1.9798

> <Gold.Chemscore.Metal>
0.0000

> <Gold.Chemscore.Lipo>
69.6837

> <Gold.Chemscore.Internal_Hbond>
0.0000

> <Gold.Chemscore.DEClash>
0.1997

> <Gold.Chemscore.DEInternal>
0.6437

> <Gold.Chemscore.Rot>
1.9609

> <Gold.Chemscore.Internal.Correction>
   9.000000E+99

> <Gold.Chemscore.Hbonds>
donor molecule, donor type, donor heavy atom, donor atom, acceptor molecule, acceptor atom, score
      L1  H     6    27       P1 10747  0.95
      P1  H  6896  6907       L1    14  0.89

> <Gold.Chemscore.Hbond.Weighted>
-6.6124

> <Gold.Chemscore.Metal.Weighted>
-0.0000

> <Gold.Chemscore.Lipo.Weighted>
-8.1530

> <Gold.Chemscore.Internal_Hbond.Weighted>
0.0000

> <Gold.Chemscore.DEClash.Weighted>
0.1997

> <Gold.Chemscore.DEInternal.Weighted>
0.6437

> <Gold.Chemscore.Rot.Weighted>
5.0200

> <Gold.Chemscore.Internal.Correction.Weighted>
   9.000000E+99

> <Gold.Protein.RotatedTorsions>
[ 6907 6896 6895 6894 ] final -170.36 input  -60.11 | X-H torsion
[ 7974 7965 7964 7962 ] final  -19.36 input  175.53 | X-H torsion
[ 8008 7997 7996 7995 ] final   -4.13 input   59.86 | X-H torsion
[ 10167 10162 10161 10158 ] final   15.07 input  -65.29 | X-H torsion
[ 10718 10713 10712 10709 ] final   37.55 input   66.30 | X-H torsion
[ 10763 10752 10751 10750 ] final -155.02 input  -60.55 | X-H torsion
[ 11005 11000 10999 10996 ] final   36.97 input  -57.11 | X-H torsion

> <Gold.Protein.ActiveResidues>
 VAL166  LYS551  ARG553  GLY616  TRP617  ASP618  TYR619  PRO620  LYS621  CYS622 
 ASP623  PHE694  ASN695  SER759  ASP760  ASP761  ALA762  ILE779  LEU786  VAL792 
 PHE793  MET794  SER795  GLU796  ALA797  LYS798  CYS799  TRP800  GLU811  SER814 

> <Gold.Protein.RotatedAtoms>
  151.5064  133.3493  159.2877 H   0  0  0  0  0  0  0  0  0  0  0  0  # atno 6907 bound_to 6896
  150.8740  134.8121  159.7187 H   0  0  0  0  0  0  0  0  0  0  0  0  # atno 6908 bound_to 6896
  152.4718  134.4953  159.9759 H   0  0  0  0  0  0  0  0  0  0  0  0  # atno 6909 bound_to 6896
  146.1845  140.4050  142.8481 H   0  0  0  0  0  0  0  0  0  0  0  0  # atno 7974 bound_to 7965
  154.6175  140.2491  155.7591 H   0  0  0  0  0  0  0  0  0  0  0  0  # atno 8008 bound_to 7997
  156.2407  140.2933  156.0386 H   0  0  0  0  0  0  0  0  0  0  0  0  # atno 8009 bound_to 7997
  155.1951  140.0392  157.2898 H   0  0  0  0  0  0  0  0  0  0  0  0  # atno 8010 bound_to 7997
  140.5892  143.8829  150.6858 H   0  0  0  0  0  0  0  0  0  0  0  0  # atno 10167 bound_to 10162
  157.3483  130.7584  149.6960 H   0  0  0  0  0  0  0  0  0  0  0  0  # atno 10718 bound_to 10713
  154.7817  135.3177  154.7974 H   0  0  0  0  0  0  0  0  0  0  0  0  # atno 10763 bound_to 10752
  153.8684  135.6846  153.4781 H   0  0  0  0  0  0  0  0  0  0  0  0  # atno 10764 bound_to 10752
  153.1456  135.4721  154.9499 H   0  0  0  0  0  0  0  0  0  0  0  0  # atno 10765 bound_to 10752
  140.2273  134.3570  155.7979 H   0  0  0  0  0  0  0  0  0  0  0  0  # atno 11005 bound_to 11000
  144.8373  140.6803  143.6252 LP  0  0  0  0  0  0  0  0  0  0  0  0  # atno 17320 bound_to 7965
  145.3978  139.1603  143.4194 LP  0  0  0  0  0  0  0  0  0  0  0  0  # atno 17321 bound_to 7965
  140.2347  143.3709  152.1536 LP  0  0  0  0  0  0  0  0  0  0  0  0  # atno 17342 bound_to 10162
  139.5217  144.7049  151.5384 LP  0  0  0  0  0  0  0  0  0  0  0  0  # atno 17343 bound_to 10162
  155.9717  130.4148  150.4150 LP  0  0  0  0  0  0  0  0  0  0  0  0  # atno 17370 bound_to 10713
  157.2208  131.0482  151.2547 LP  0  0  0  0  0  0  0  0  0  0  0  0  # atno 17371 bound_to 10713
  141.2220  133.7226  156.8673 LP  0  0  0  0  0  0  0  0  0  0  0  0  # atno 17394 bound_to 11000
  140.1787  134.9048  157.2922 LP  0  0  0  0  0  0  0  0  0  0  0  0  # atno 17395 bound_to 11000

$$$$
