AV-unprocessed.smi:1360|AV-procd|sdf|5554|dock4
  -GOLD-   22720 5143D 1   1.00000     0.00000
 Structure written by MMmdl.
 36 37  0  0  0  0  0  0  0  0  1 V2000
  150.6255  137.1186  156.7846 C   0  0  0  0  0  0  0  0  0  0  0  0
  151.7154  138.1584  156.4766 C   0  0  1  0  0  0  0  0  0  0  0  0
  151.6310  138.7261  155.0431 C   0  0  0  0  0  0  0  0  0  0  0  0
  150.3784  139.4125  154.7845 N   0  0  0  0  0  0  0  0  0  0  0  0
  149.2391  138.9133  154.1895 C   0  0  0  0  0  0  0  0  0  0  0  0
  148.3193  139.9220  154.1632 C   0  0  0  0  0  0  0  0  0  0  0  0
  148.9986  141.0148  154.7707 C   0  0  0  0  0  0  0  0  0  0  0  0
  150.2319  140.7076  155.1394 N   0  0  0  0  0  0  0  0  0  0  0  0
  151.6280  139.2424  157.4506 N   0  0  0  0  0  0  0  0  0  0  0  0
  152.6379  139.6875  158.2146 C   0  0  0  0  0  0  0  0  0  0  0  0
  153.7773  139.2229  158.1663 O   0  0  0  0  0  0  0  0  0  0  0  0
  152.3104  140.8360  159.1779 C   0  0  1  0  0  0  0  0  0  0  0  0
  153.4752  141.0872  160.1623 C   0  0  0  0  0  0  0  0  0  0  0  0
  153.2828  142.3644  160.9609 C   0  0  0  0  0  0  0  0  0  0  0  0
  152.4096  143.3264  160.6166 C   0  0  0  0  0  0  0  0  0  0  0  0
  151.5208  143.2482  159.3876 C   0  0  0  0  0  0  0  0  0  0  0  0
  151.9585  142.1320  158.4197 C   0  0  0  0  0  0  0  0  0  0  0  0
  150.7099  136.2463  156.1364 H   0  0  0  0  0  0  0  0  0  0  0  0
  149.6279  137.5382  156.6504 H   0  0  0  0  0  0  0  0  0  0  0  0
  150.7027  136.7637  157.8128 H   0  0  0  0  0  0  0  0  0  0  0  0
  152.6795  137.6604  156.5957 H   0  0  0  0  0  0  0  0  0  0  0  0
  152.4569  139.4151  154.8585 H   0  0  0  0  0  0  0  0  0  0  0  0
  151.7284  137.9238  154.3106 H   0  0  0  0  0  0  0  0  0  0  0  0
  149.1792  137.8928  153.8405 H   0  0  0  0  0  0  0  0  0  0  0  0
  147.3143  139.8853  153.7696 H   0  0  0  0  0  0  0  0  0  0  0  0
  148.6357  142.0156  154.9525 H   0  0  0  0  0  0  0  0  0  0  0  0
  150.7270  139.6864  157.5549 H   0  0  0  0  0  0  0  0  0  0  0  0
  151.4323  140.5495  159.7603 H   0  0  0  0  0  0  0  0  0  0  0  0
  153.5567  140.2514  160.8580 H   0  0  0  0  0  0  0  0  0  0  0  0
  154.4298  141.1587  159.6390 H   0  0  0  0  0  0  0  0  0  0  0  0
  153.8990  142.4876  161.8395 H   0  0  0  0  0  0  0  0  0  0  0  0
  152.3093  144.2063  161.2350 H   0  0  0  0  0  0  0  0  0  0  0  0
  150.4971  143.0767  159.7216 H   0  0  0  0  0  0  0  0  0  0  0  0
  151.5309  144.2100  158.8740 H   0  0  0  0  0  0  0  0  0  0  0  0
  152.8287  142.4718  157.8553 H   0  0  0  0  0  0  0  0  0  0  0  0
  151.1696  141.9517  157.6881 H   0  0  0  0  0  0  0  0  0  0  0  0
  1  2  1  0  0  0  0
  1 18  1  0  0  0  0
  1 19  1  0  0  0  0
  1 20  1  0  0  0  0
  2  3  1  0  0  0  0
  2  9  1  0  0  0  0
  2 21  1  0  0  0  0
  3  4  1  0  0  0  0
  3 22  1  0  0  0  0
  3 23  1  0  0  0  0
  4  8  1  0  0  0  0
  4  5  1  0  0  0  0
  5  6  2  0  0  0  0
  5 24  1  0  0  0  0
  6  7  1  0  0  0  0
  6 25  1  0  0  0  0
  7  8  2  0  0  0  0
  7 26  1  0  0  0  0
  9 10  1  0  0  0  0
  9 27  1  0  0  0  0
 10 11  2  0  0  0  0
 10 12  1  0  0  0  0
 12 17  1  0  0  0  0
 12 13  1  0  0  0  0
 12 28  1  0  0  0  0
 13 14  1  0  0  0  0
 13 29  1  0  0  0  0
 13 30  1  0  0  0  0
 14 15  2  0  0  0  0
 14 31  1  0  0  0  0
 15 16  1  0  0  0  0
 15 32  1  0  0  0  0
 16 17  1  0  0  0  0
 16 33  1  0  0  0  0
 16 34  1  0  0  0  0
 17 35  1  0  0  0  0
 17 36  1  0  0  0  0
M  END
> <s_m_source_file>
AV-unprocessed.smi

> <i_m_source_file_index>
1360

> <i_lp_mmshare_version>
43012

> <i_f3d_flags>
0

> <s_epik_input>
bjFbY0hdW2NIXVtjSF1uMVtDSDJdW0NAQEhdKFtDSDNdKVtOSF1DKD1PKVtDQEBIXTJbQ0gyXVtDSF09W0NIXVtDSDJdW0NIMl0y

> <s_epik_cmdline>
J2VwaWtfcHl0aG9uJywgJy1waCcsICc3LjAnLCAnLXRuJywgJzgnLCAnLW1hJywgJzIwMCcsICctbWV0YWxfYmluZGluZycsICctaW1hZScsICc8aW5maWxlLm1hZT4nLCAnLW9tYWUnLCAnPG91dGZpbGUubWFlPic=

> <r_lp_tautomer_probability>
1

> <r_epik_Ionization_Penalty>
0.000315076

> <r_epik_Ionization_Penalty_Charging>
0

> <r_epik_Ionization_Penalty_Neutral>
0.000315076

> <r_epik_State_Penalty>
-0

> <r_epik_Charging_Adjusted_Penalty>
0

> <i_epik_Tot_Q>
0

> <i_epik_Tot_abs_Q>
0

> <r_epik_Metal_State_Penalty>
-0

> <b_epik_Metal_Only>
0

> <s_lp_Force_Field>
OPLS_2005

> <r_lp_Energy>
7.88056

> <b_lp_Chiralities_Consistent>
1

> <s_lp_Variant>
AV-unprocessed.smi:1360-4

> <Gold.Version>
5.8.1

> <Gold.Id.Protein>
6NUR|6NUR_protein|mol2

> <Gold.PLP.Fitness>
42.2413

> <Gold.PLP.PLP>
-35.3816

> <Gold.PLP.part.hbond>
-2.0000

> <Gold.PLP.part.metal>
0.0000

> <Gold.PLP.part.buried>
-1.3050

> <Gold.PLP.part.nonpolar>
-31.5552

> <Gold.PLP.part.repulsive>
0.1421

> <Gold.PLP.ligand.clash>
0.0000

> <Gold.PLP.ligand.torsion>
0.5491

> <Gold.PLP.Chemscore.Hbond>
1.0000

> <Gold.PLP.Chemscore.CHOScore>
1.6415

> <Gold.PLP.Chemscore.Metal>
0.0000

> <Gold.Chemscore.Hbonds>
donor molecule, donor type, donor heavy atom, donor atom, acceptor molecule, acceptor atom, score
      P1  H  7997  8009       L1    11  1.00
      L1  C     5    24       P1  7948  0.90
      L1  C     7    26       P1  8028  0.34

> <Gold.PLP.Chemscore.Internal.Correction>
0.0335

> <Gold.Rescore>
     Score         DG    S(hbond)    S(metal)    S(lipo)     H(rot)  DE(clash)    DE(int)     intcor
     15.87     -16.19       0.97        0.00      96.78       1.51       0.00       0.32       ----

> <Gold.Chemscore.Fitness>
15.8710

> <Gold.Chemscore.DG>
-16.1943

> <Gold.Chemscore.ZeroCoef>
-5.4800

> <Gold.Chemscore.Hbond>
0.9716

> <Gold.Chemscore.Metal>
0.0000

> <Gold.Chemscore.Lipo>
96.7847

> <Gold.Chemscore.Internal_Hbond>
0.0000

> <Gold.Chemscore.DEClash>
0.0004

> <Gold.Chemscore.DEInternal>
0.3229

> <Gold.Chemscore.Rot>
1.5057

> <Gold.Chemscore.Internal.Correction>
   9.000000E+99

> <Gold.Chemscore.Hbonds>
donor molecule, donor type, donor heavy atom, donor atom, acceptor molecule, acceptor atom, score
      P1  H  7997  8009       L1    11  0.92

> <Gold.Chemscore.Hbond.Weighted>
-3.2451

> <Gold.Chemscore.Metal.Weighted>
-0.0000

> <Gold.Chemscore.Lipo.Weighted>
-11.3238

> <Gold.Chemscore.Internal_Hbond.Weighted>
0.0000

> <Gold.Chemscore.DEClash.Weighted>
0.0004

> <Gold.Chemscore.DEInternal.Weighted>
0.3229

> <Gold.Chemscore.Rot.Weighted>
3.8546

> <Gold.Chemscore.Internal.Correction.Weighted>
   9.000000E+99

> <Gold.Protein.RotatedTorsions>
[ 6907 6896 6895 6894 ] final  -35.94 input  -60.11 | X-H torsion
[ 7974 7965 7964 7962 ] final  -22.26 input  175.53 | X-H torsion
[ 8008 7997 7996 7995 ] final  137.71 input   59.86 | X-H torsion
[ 10167 10162 10161 10158 ] final -157.10 input  -65.29 | X-H torsion
[ 10718 10713 10712 10709 ] final  -96.70 input   66.30 | X-H torsion
[ 10763 10752 10751 10750 ] final -127.82 input  -60.55 | X-H torsion
[ 11005 11000 10999 10996 ] final   70.98 input  -57.11 | X-H torsion

> <Gold.Protein.ActiveResidues>
 VAL166  LYS551  ARG553  GLY616  TRP617  ASP618  TYR619  PRO620  LYS621  CYS622 
 ASP623  PHE694  ASN695  SER759  ASP760  ASP761  ALA762  ILE779  LEU786  VAL792 
 PHE793  MET794  SER795  GLU796  ALA797  LYS798  CYS799  TRP800  GLU811  SER814 

> <Gold.Protein.RotatedAtoms>
  151.0334  134.9556  159.8123 H   0  0  0  0  0  0  0  0  0  0  0  0  # atno 6907 bound_to 6896
  152.5350  134.2750  159.8996 H   0  0  0  0  0  0  0  0  0  0  0  0  # atno 6908 bound_to 6896
  151.2760  133.4190  159.2658 H   0  0  0  0  0  0  0  0  0  0  0  0  # atno 6909 bound_to 6896
  146.1686  140.4455  142.8542 H   0  0  0  0  0  0  0  0  0  0  0  0  # atno 7974 bound_to 7965
  156.3001  140.2412  156.3955 H   0  0  0  0  0  0  0  0  0  0  0  0  # atno 8008 bound_to 7997
  154.8575  140.0421  157.1663 H   0  0  0  0  0  0  0  0  0  0  0  0  # atno 8009 bound_to 7997
  154.8932  140.2966  155.5362 H   0  0  0  0  0  0  0  0  0  0  0  0  # atno 8010 bound_to 7997
  139.6797  143.9602  152.2330 H   0  0  0  0  0  0  0  0  0  0  0  0  # atno 10167 bound_to 10162
  156.0068  130.5163  150.6265 H   0  0  0  0  0  0  0  0  0  0  0  0  # atno 10718 bound_to 10713
  154.8754  135.3949  154.3657 H   0  0  0  0  0  0  0  0  0  0  0  0  # atno 10763 bound_to 10752
  153.4423  135.7027  153.6166 H   0  0  0  0  0  0  0  0  0  0  0  0  # atno 10764 bound_to 10752
  153.4742  135.3783  155.2376 H   0  0  0  0  0  0  0  0  0  0  0  0  # atno 10765 bound_to 10752
  139.9568  134.7130  156.0735 H   0  0  0  0  0  0  0  0  0  0  0  0  # atno 11005 bound_to 11000
  144.8129  140.6417  143.6403 LP  0  0  0  0  0  0  0  0  0  0  0  0  # atno 17320 bound_to 7965
  145.4402  139.1537  143.3975 LP  0  0  0  0  0  0  0  0  0  0  0  0  # atno 17321 bound_to 7965
  139.9388  144.6694  150.8287 LP  0  0  0  0  0  0  0  0  0  0  0  0  # atno 17342 bound_to 10162
  140.7648  143.3258  151.2519 LP  0  0  0  0  0  0  0  0  0  0  0  0  # atno 17343 bound_to 10162
  157.4071  131.0818  151.1255 LP  0  0  0  0  0  0  0  0  0  0  0  0  # atno 17370 bound_to 10713
  157.1898  130.6347  149.5700 LP  0  0  0  0  0  0  0  0  0  0  0  0  # atno 17371 bound_to 10713
  141.1241  133.6604  156.3290 LP  0  0  0  0  0  0  0  0  0  0  0  0  # atno 17394 bound_to 11000
  140.5591  134.5952  157.5428 LP  0  0  0  0  0  0  0  0  0  0  0  0  # atno 17395 bound_to 11000

$$$$
