AV-unprocessed.smi:170|AV-procd|sdf|1408|dock8
  -GOLD-   2262019163D 1   1.00000     0.00000
 Structure written by MMmdl.
 57 61  0  0  0  0  0  0  0  0  1 V2000
  148.4651  134.2296  152.8125 O   0  0  0  0  0  0  0  0  0  0  0  0
  149.2396  133.6337  153.8364 C   0  0  2  0  0  0  0  0  0  0  0  0
  150.4418  134.5426  154.1598 C   0  0  0  0  0  0  0  0  0  0  0  0
  150.0367  135.8853  154.5356 N   0  0  0  0  0  0  0  0  0  0  0  0
  148.7939  136.2805  154.9776 C   0  0  0  0  0  0  0  0  0  0  0  0
  148.6799  137.5513  155.2546 N   0  0  0  0  0  0  0  0  0  0  0  0
  149.9406  138.0679  154.9831 C   0  0  0  0  0  0  0  0  0  0  0  0
  150.5120  139.3656  155.0604 C   0  0  0  0  0  0  0  0  0  0  0  0
  149.8011  140.4335  155.4966 N   0  0  0  0  0  0  0  0  0  0  0  0
  148.4635  140.4063  154.9135 C   0  0  0  0  0  0  0  0  0  0  0  0
  147.7013  141.6933  155.2523 C   0  0  0  0  0  0  0  0  0  0  0  0
  147.6594  141.8413  156.6641 O   0  0  0  0  0  0  0  0  0  0  0  0
  148.9620  141.9824  157.2177 C   0  0  0  0  0  0  0  0  0  0  0  0
  149.8190  140.7239  156.9380 C   0  0  2  0  0  0  0  0  0  0  0  0
  151.2620  140.9017  157.4814 C   0  0  0  0  0  0  0  0  0  0  0  0
  151.3948  141.9616  158.5739 C   0  0  0  0  0  0  0  0  0  0  0  0
  151.5541  143.4399  158.1870 C   0  0  0  0  0  0  0  0  0  0  0  0
  152.4637  143.6120  159.4068 C   0  0  0  0  0  0  0  0  0  0  0  0
  152.7130  142.1026  159.3504 C   0  0  0  0  0  0  0  0  0  0  0  0
  151.8214  139.5027  154.7189 N   0  0  0  0  0  0  0  0  0  0  0  0
  152.5207  138.4397  154.3091 C   0  0  0  0  0  0  0  0  0  0  0  0
  152.1166  137.1739  154.1775 N   0  0  0  0  0  0  0  0  0  0  0  0
  150.8067  137.0338  154.5313 C   0  0  0  0  0  0  0  0  0  0  0  0
  149.6833  132.2173  153.4161 C   0  0  2  0  0  0  0  0  0  0  0  0
  148.5806  131.2165  153.0536 C   0  0  0  0  0  0  0  0  0  0  0  0
  149.2819  129.9019  153.3115 C   0  0  0  0  0  0  0  0  0  0  0  0
  150.1011  130.2277  154.5578 C   0  0  0  0  0  0  0  0  0  0  0  0
  150.4645  131.6006  154.4365 O   0  0  0  0  0  0  0  0  0  0  0  0
  148.5998  135.1646  152.8457 H   0  0  0  0  0  0  0  0  0  0  0  0
  148.6154  133.5533  154.7274 H   0  0  0  0  0  0  0  0  0  0  0  0
  151.0234  134.1215  154.9807 H   0  0  0  0  0  0  0  0  0  0  0  0
  151.1147  134.6096  153.3040 H   0  0  0  0  0  0  0  0  0  0  0  0
  147.9706  135.5902  155.0916 H   0  0  0  0  0  0  0  0  0  0  0  0
  148.5243  140.2941  153.8299 H   0  0  0  0  0  0  0  0  0  0  0  0
  147.9192  139.5416  155.2963 H   0  0  0  0  0  0  0  0  0  0  0  0
  148.1724  142.5630  154.7912 H   0  0  0  0  0  0  0  0  0  0  0  0
  146.6823  141.6391  154.8695 H   0  0  0  0  0  0  0  0  0  0  0  0
  149.4398  142.8772  156.8147 H   0  0  0  0  0  0  0  0  0  0  0  0
  148.8455  142.1402  158.2895 H   0  0  0  0  0  0  0  0  0  0  0  0
  149.3513  139.8834  157.4528 H   0  0  0  0  0  0  0  0  0  0  0  0
  151.6327  139.9563  157.8763 H   0  0  0  0  0  0  0  0  0  0  0  0
  151.9276  141.1482  156.6533 H   0  0  0  0  0  0  0  0  0  0  0  0
  150.5746  141.8872  159.2906 H   0  0  0  0  0  0  0  0  0  0  0  0
  152.0860  143.5802  157.2445 H   0  0  0  0  0  0  0  0  0  0  0  0
  150.6329  144.0224  158.2185 H   0  0  0  0  0  0  0  0  0  0  0  0
  153.3465  144.2288  159.2367 H   0  0  0  0  0  0  0  0  0  0  0  0
  151.9192  143.9179  160.3017 H   0  0  0  0  0  0  0  0  0  0  0  0
  152.7268  141.6033  160.3197 H   0  0  0  0  0  0  0  0  0  0  0  0
  153.5871  141.8412  158.7512 H   0  0  0  0  0  0  0  0  0  0  0  0
  153.5521  138.6303  154.0517 H   0  0  0  0  0  0  0  0  0  0  0  0
  150.3526  132.3048  152.5586 H   0  0  0  0  0  0  0  0  0  0  0  0
  147.7183  131.3048  153.7149 H   0  0  0  0  0  0  0  0  0  0  0  0
  148.2331  131.3216  152.0255 H   0  0  0  0  0  0  0  0  0  0  0  0
  148.5946  129.0683  153.4581 H   0  0  0  0  0  0  0  0  0  0  0  0
  149.9435  129.6597  152.4787 H   0  0  0  0  0  0  0  0  0  0  0  0
  149.4894  130.1105  155.4533 H   0  0  0  0  0  0  0  0  0  0  0  0
  150.9785  129.5886  154.6608 H   0  0  0  0  0  0  0  0  0  0  0  0
  1  2  1  0  0  0  0
  1 29  1  0  0  0  0
  2  3  1  0  0  0  0
  2 24  1  0  0  0  0
  2 30  1  0  0  0  0
  3  4  1  0  0  0  0
  3 31  1  0  0  0  0
  3 32  1  0  0  0  0
  4 23  1  0  0  0  0
  4  5  1  0  0  0  0
  5  6  2  0  0  0  0
  5 33  1  0  0  0  0
  6  7  1  0  0  0  0
  7 23  2  0  0  0  0
  7  8  1  0  0  0  0
  8  9  1  0  0  0  0
  8 20  2  0  0  0  0
  9 14  1  0  0  0  0
  9 10  1  0  0  0  0
 10 11  1  0  0  0  0
 10 34  1  0  0  0  0
 10 35  1  0  0  0  0
 11 12  1  0  0  0  0
 11 36  1  0  0  0  0
 11 37  1  0  0  0  0
 12 13  1  0  0  0  0
 13 14  1  0  0  0  0
 13 38  1  0  0  0  0
 13 39  1  0  0  0  0
 14 15  1  0  0  0  0
 14 40  1  0  0  0  0
 15 16  1  0  0  0  0
 15 41  1  0  0  0  0
 15 42  1  0  0  0  0
 16 19  1  0  0  0  0
 16 17  1  0  0  0  0
 16 43  1  0  0  0  0
 17 18  1  0  0  0  0
 17 44  1  0  0  0  0
 17 45  1  0  0  0  0
 18 19  1  0  0  0  0
 18 46  1  0  0  0  0
 18 47  1  0  0  0  0
 19 48  1  0  0  0  0
 19 49  1  0  0  0  0
 20 21  1  0  0  0  0
 21 22  2  0  0  0  0
 21 50  1  0  0  0  0
 22 23  1  0  0  0  0
 24 28  1  0  0  0  0
 24 25  1  0  0  0  0
 24 51  1  0  0  0  0
 25 26  1  0  0  0  0
 25 52  1  0  0  0  0
 25 53  1  0  0  0  0
 26 27  1  0  0  0  0
 26 54  1  0  0  0  0
 26 55  1  0  0  0  0
 27 28  1  0  0  0  0
 27 56  1  0  0  0  0
 27 57  1  0  0  0  0
M  END
> <s_m_source_file>
AV-unprocessed.smi

> <i_m_source_file_index>
170

> <i_lp_mmshare_version>
43012

> <i_f3d_flags>
0

> <s_epik_input>
TzFbQ0gyXVtDSDJdW0NIMl1bQ0BIXTFbQ0BIXShbT0hdKVtDSDJdbihbY0hdbjIpYyhjMjMpbltjSF1uYzNONFtDSDJdW0NIMl1PW0NIMl1bQ0BIXTRbQ0gyXVtDSF01W0NIMl1bQ0gyXVtDSDJdNQ==

> <s_epik_cmdline>
J2VwaWtfcHl0aG9uJywgJy1waCcsICc3LjAnLCAnLXRuJywgJzgnLCAnLW1hJywgJzIwMCcsICctbWV0YWxfYmluZGluZycsICctaW1hZScsICc8aW5maWxlLm1hZT4nLCAnLW9tYWUnLCAnPG91dGZpbGUubWFlPic=

> <r_lp_tautomer_probability>
1

> <r_epik_Ionization_Penalty>
4.98275e-05

> <r_epik_Ionization_Penalty_Charging>
0

> <r_epik_Ionization_Penalty_Neutral>
4.98275e-05

> <r_epik_State_Penalty>
-0

> <r_epik_Charging_Adjusted_Penalty>
0

> <i_epik_Tot_Q>
0

> <i_epik_Tot_abs_Q>
0

> <r_epik_Metal_State_Penalty>
-0

> <b_epik_Metal_Only>
0

> <s_lp_Force_Field>
OPLS_2005

> <r_lp_Energy>
52.7672

> <b_lp_Chiralities_Consistent>
1

> <s_lp_Variant>
AV-unprocessed.smi:170-3

> <Gold.Version>
5.8.1

> <Gold.Id.Protein>
6NUR|6NUR_protein|mol2

> <Gold.PLP.Fitness>
51.0208

> <Gold.PLP.PLP>
-45.9745

> <Gold.PLP.part.hbond>
-3.0000

> <Gold.PLP.part.metal>
0.0000

> <Gold.PLP.part.buried>
-5.1936

> <Gold.PLP.part.nonpolar>
-38.3541

> <Gold.PLP.part.repulsive>
0.7642

> <Gold.PLP.ligand.clash>
0.0000

> <Gold.PLP.ligand.torsion>
1.5606

> <Gold.PLP.Chemscore.Hbond>
2.6320

> <Gold.PLP.Chemscore.CHOScore>
0.0000

> <Gold.PLP.Chemscore.Metal>
0.0000

> <Gold.Chemscore.Hbonds>
donor molecule, donor type, donor heavy atom, donor atom, acceptor molecule, acceptor atom, score
      L1  H     1    29       P1  7948  0.56
      P1  H  7989  7998       L1    20  0.95
      P1  H 10752 10765       L1    22  0.90

> <Gold.PLP.Chemscore.Internal.Correction>
0.2715

> <Gold.Rescore>
     Score         DG    S(hbond)    S(metal)    S(lipo)     H(rot)  DE(clash)    DE(int)     intcor
     13.11     -17.35       2.05        0.00     100.30       2.61       1.49       2.75       ----

> <Gold.Chemscore.Fitness>
13.1127

> <Gold.Chemscore.DG>
-17.3534

> <Gold.Chemscore.ZeroCoef>
-5.4800

> <Gold.Chemscore.Hbond>
2.0451

> <Gold.Chemscore.Metal>
0.0000

> <Gold.Chemscore.Lipo>
100.3038

> <Gold.Chemscore.Internal_Hbond>
0.0000

> <Gold.Chemscore.DEClash>
1.4938

> <Gold.Chemscore.DEInternal>
2.7468

> <Gold.Chemscore.Rot>
2.6144

> <Gold.Chemscore.Internal.Correction>
   9.000000E+99

> <Gold.Chemscore.Hbonds>
donor molecule, donor type, donor heavy atom, donor atom, acceptor molecule, acceptor atom, score
      L1  H     1    29       P1  7948  0.36
      P1  H  7989  7998       L1    20  0.19
      P1  H 10752 10765       L1    22  0.69

> <Gold.Chemscore.Hbond.Weighted>
-6.8308

> <Gold.Chemscore.Metal.Weighted>
-0.0000

> <Gold.Chemscore.Lipo.Weighted>
-11.7355

> <Gold.Chemscore.Internal_Hbond.Weighted>
0.0000

> <Gold.Chemscore.DEClash.Weighted>
1.4938

> <Gold.Chemscore.DEInternal.Weighted>
2.7468

> <Gold.Chemscore.Rot.Weighted>
6.6929

> <Gold.Chemscore.Internal.Correction.Weighted>
   9.000000E+99

> <Gold.Protein.RotatedTorsions>
[ 6907 6896 6895 6894 ] final  -25.61 input  -60.11 | X-H torsion
[ 7974 7965 7964 7962 ] final  174.37 input  175.53 | X-H torsion
[ 8008 7997 7996 7995 ] final  106.34 input   59.86 | X-H torsion
[ 10167 10162 10161 10158 ] final -128.12 input  -65.29 | X-H torsion
[ 10718 10713 10712 10709 ] final  177.48 input   66.30 | X-H torsion
[ 10763 10752 10751 10750 ] final  165.64 input  -60.55 | X-H torsion
[ 11005 11000 10999 10996 ] final  -75.45 input  -57.11 | X-H torsion

> <Gold.Protein.ActiveResidues>
 VAL166  LYS551  ARG553  GLY616  TRP617  ASP618  TYR619  PRO620  LYS621  CYS622 
 ASP623  PHE694  ASN695  SER759  ASP760  ASP761  ALA762  ILE779  LEU786  VAL792 
 PHE793  MET794  SER795  GLU796  ALA797  LYS798  CYS799  TRP800  GLU811  SER814 

> <Gold.Protein.RotatedAtoms>
  151.1728  135.0325  159.8758 H   0  0  0  0  0  0  0  0  0  0  0  0  # atno 6907 bound_to 6896
  152.5448  134.1152  159.8385 H   0  0  0  0  0  0  0  0  0  0  0  0  # atno 6908 bound_to 6896
  151.1259  133.5024  159.2633 H   0  0  0  0  0  0  0  0  0  0  0  0  # atno 6909 bound_to 6896
  144.7223  139.9787  143.6438 H   0  0  0  0  0  0  0  0  0  0  0  0  # atno 7974 bound_to 7965
  156.1735  140.3114  155.9017 H   0  0  0  0  0  0  0  0  0  0  0  0  # atno 8008 bound_to 7997
  155.3536  140.0472  157.3063 H   0  0  0  0  0  0  0  0  0  0  0  0  # atno 8009 bound_to 7997
  154.5266  140.2216  155.8890 H   0  0  0  0  0  0  0  0  0  0  0  0  # atno 8010 bound_to 7997
  139.9537  143.6027  152.2467 H   0  0  0  0  0  0  0  0  0  0  0  0  # atno 10167 bound_to 10162
  156.9047  130.9890  151.3030 H   0  0  0  0  0  0  0  0  0  0  0  0  # atno 10718 bound_to 10713
  154.3271  135.2755  155.2491 H   0  0  0  0  0  0  0  0  0  0  0  0  # atno 10763 bound_to 10752
  154.4819  135.5856  153.6399 H   0  0  0  0  0  0  0  0  0  0  0  0  # atno 10764 bound_to 10752
  152.9870  135.6113  154.3460 H   0  0  0  0  0  0  0  0  0  0  0  0  # atno 10765 bound_to 10752
  141.1645  133.6947  156.7518 H   0  0  0  0  0  0  0  0  0  0  0  0  # atno 11005 bound_to 11000
  146.0505  139.3506  143.0642 LP  0  0  0  0  0  0  0  0  0  0  0  0  # atno 17320 bound_to 7965
  145.8221  140.9674  143.0893 LP  0  0  0  0  0  0  0  0  0  0  0  0  # atno 17321 bound_to 7965
  139.6608  144.7662  151.1966 LP  0  0  0  0  0  0  0  0  0  0  0  0  # atno 17342 bound_to 10162
  140.7575  143.6013  150.8697 LP  0  0  0  0  0  0  0  0  0  0  0  0  # atno 17343 bound_to 10162
  157.6005  130.8509  149.8794 LP  0  0  0  0  0  0  0  0  0  0  0  0  # atno 17370 bound_to 10713
  156.0565  130.3707  150.1079 LP  0  0  0  0  0  0  0  0  0  0  0  0  # atno 17371 bound_to 10713
  140.2598  134.8475  157.3748 LP  0  0  0  0  0  0  0  0  0  0  0  0  # atno 17394 bound_to 11000
  140.1622  134.4714  155.7887 LP  0  0  0  0  0  0  0  0  0  0  0  0  # atno 17395 bound_to 11000

$$$$
