AV-unprocessed.smi:783|AV-procd|sdf|3716|dock6
  -GOLD-   22720 1143D 1   1.00000     0.00000
 Structure written by MMmdl.
 45 46  0  0  0  0  0  0  0  0  1 V2000
  152.1469  139.6574  157.8583 C   0  0  0  0  0  0  0  0  0  0  0  0
  151.0921  140.7408  157.5532 C   0  0  2  0  0  0  0  0  0  0  0  0
  150.7216  140.7986  156.0633 C   0  0  0  0  0  0  0  0  0  0  0  0
  151.5548  140.5247  155.1992 O   0  0  0  0  0  0  0  0  0  0  0  0
  149.4568  141.1504  155.7811 N   0  0  0  0  0  0  0  0  0  0  0  0
  148.8650  141.2369  154.4457 C   0  0  0  0  0  0  0  0  0  0  0  0
  147.6423  140.2850  154.2642 C   0  0  0  0  0  0  0  0  0  0  0  0
  146.4107  140.7260  155.1256 C   0  0  0  0  0  0  0  0  0  0  0  0
  145.9623  139.9228  155.9478 O   0  0  0  0  0  0  0  0  0  0  0  0
  145.8172  141.9420  154.9784 N   0  0  0  0  0  0  0  0  0  0  0  0
  146.2164  143.0412  154.0935 C   0  0  0  0  0  0  0  0  0  0  0  0
  144.6146  142.2553  155.7571 C   0  0  0  0  0  0  0  0  0  0  0  0
  147.2858  140.2479  152.7509 C   0  0  0  0  0  0  0  0  0  0  0  0
  146.5554  138.9274  152.4866 C   0  0  0  0  0  0  0  0  0  0  0  0
  147.0177  137.9778  153.5936 C   0  0  0  0  0  0  0  0  0  0  0  0
  147.9728  138.7869  154.4821 C   0  0  0  0  0  0  0  0  0  0  0  0
  151.4965  142.0600  158.0262 N   0  0  0  0  0  0  0  0  0  0  0  0
  151.2639  143.2821  157.4278 C   0  0  0  0  0  0  0  0  0  0  0  0
  151.8570  144.2386  158.2011 C   0  0  0  0  0  0  0  0  0  0  0  0
  152.4498  143.4965  159.2600 C   0  0  0  0  0  0  0  0  0  0  0  0
  152.2406  142.1952  159.1490 N   0  0  0  0  0  0  0  0  0  0  0  0
  151.7979  138.6727  157.5457 H   0  0  0  0  0  0  0  0  0  0  0  0
  152.3524  139.6060  158.9278 H   0  0  0  0  0  0  0  0  0  0  0  0
  153.0932  139.8479  157.3498 H   0  0  0  0  0  0  0  0  0  0  0  0
  150.1894  140.4681  158.1027 H   0  0  0  0  0  0  0  0  0  0  0  0
  148.8454  141.3577  156.5573 H   0  0  0  0  0  0  0  0  0  0  0  0
  148.5421  142.2701  154.3156 H   0  0  0  0  0  0  0  0  0  0  0  0
  149.6264  141.1008  153.6815 H   0  0  0  0  0  0  0  0  0  0  0  0
  147.2009  142.9530  153.6479 H   0  0  0  0  0  0  0  0  0  0  0  0
  146.2186  143.9824  154.6444 H   0  0  0  0  0  0  0  0  0  0  0  0
  145.4979  143.1393  153.2795 H   0  0  0  0  0  0  0  0  0  0  0  0
  144.8452  142.2867  156.8229 H   0  0  0  0  0  0  0  0  0  0  0  0
  143.8411  141.5029  155.5951 H   0  0  0  0  0  0  0  0  0  0  0  0
  144.1823  143.2194  155.4860 H   0  0  0  0  0  0  0  0  0  0  0  0
  146.7104  141.1095  152.4092 H   0  0  0  0  0  0  0  0  0  0  0  0
  148.2011  140.2495  152.1568 H   0  0  0  0  0  0  0  0  0  0  0  0
  145.4757  139.0701  152.5454 H   0  0  0  0  0  0  0  0  0  0  0  0
  146.7792  138.5387  151.4925 H   0  0  0  0  0  0  0  0  0  0  0  0
  146.1566  137.6415  154.1722 H   0  0  0  0  0  0  0  0  0  0  0  0
  147.5072  137.0899  153.1923 H   0  0  0  0  0  0  0  0  0  0  0  0
  149.0004  138.5910  154.1727 H   0  0  0  0  0  0  0  0  0  0  0  0
  147.8878  138.4421  155.5102 H   0  0  0  0  0  0  0  0  0  0  0  0
  150.7007  143.3688  156.5103 H   0  0  0  0  0  0  0  0  0  0  0  0
  151.8703  145.3053  158.0332 H   0  0  0  0  0  0  0  0  0  0  0  0
  153.0257  143.8615  160.0979 H   0  0  0  0  0  0  0  0  0  0  0  0
  1  2  1  0  0  0  0
  1 22  1  0  0  0  0
  1 23  1  0  0  0  0
  1 24  1  0  0  0  0
  2  3  1  0  0  0  0
  2 17  1  0  0  0  0
  2 25  1  0  0  0  0
  3  4  2  0  0  0  0
  3  5  1  0  0  0  0
  5  6  1  0  0  0  0
  5 26  1  0  0  0  0
  6  7  1  0  0  0  0
  6 27  1  0  0  0  0
  6 28  1  0  0  0  0
  7 16  1  0  0  0  0
  7  8  1  0  0  0  0
  7 13  1  0  0  0  0
  8  9  2  0  0  0  0
  8 10  1  0  0  0  0
 10 11  1  0  0  0  0
 10 12  1  0  0  0  0
 11 29  1  0  0  0  0
 11 30  1  0  0  0  0
 11 31  1  0  0  0  0
 12 32  1  0  0  0  0
 12 33  1  0  0  0  0
 12 34  1  0  0  0  0
 13 14  1  0  0  0  0
 13 35  1  0  0  0  0
 13 36  1  0  0  0  0
 14 15  1  0  0  0  0
 14 37  1  0  0  0  0
 14 38  1  0  0  0  0
 15 16  1  0  0  0  0
 15 39  1  0  0  0  0
 15 40  1  0  0  0  0
 16 41  1  0  0  0  0
 16 42  1  0  0  0  0
 17 21  1  0  0  0  0
 17 18  1  0  0  0  0
 18 19  2  0  0  0  0
 18 43  1  0  0  0  0
 19 20  1  0  0  0  0
 19 44  1  0  0  0  0
 20 21  2  0  0  0  0
 20 45  1  0  0  0  0
M  END
> <s_m_source_file>
AV-unprocessed.smi

> <i_m_source_file_index>
783

> <i_lp_mmshare_version>
43012

> <i_f3d_flags>
0

> <s_epik_input>
bjFbY0hdW2NIXVtjSF1uMVtDQEhdKFtDSDNdKUMoPU8pW05IXVtDSDJdQzIoQyg9TylOKFtDSDNdKVtDSDNdKVtDSDJdW0NIMl1bQ0gyXVtDSDJdMg==

> <s_epik_cmdline>
J2VwaWtfcHl0aG9uJywgJy1waCcsICc3LjAnLCAnLXRuJywgJzgnLCAnLW1hJywgJzIwMCcsICctbWV0YWxfYmluZGluZycsICctaW1hZScsICc8aW5maWxlLm1hZT4nLCAnLW9tYWUnLCAnPG91dGZpbGUubWFlPic=

> <r_lp_tautomer_probability>
1

> <r_epik_Ionization_Penalty>
3.31274e-05

> <r_epik_Ionization_Penalty_Charging>
0

> <r_epik_Ionization_Penalty_Neutral>
3.31274e-05

> <r_epik_State_Penalty>
-0

> <r_epik_Charging_Adjusted_Penalty>
0

> <i_epik_Tot_Q>
0

> <i_epik_Tot_abs_Q>
0

> <r_epik_Metal_State_Penalty>
-0

> <b_epik_Metal_Only>
0

> <s_lp_Force_Field>
OPLS_2005

> <r_lp_Energy>
39.8422

> <b_lp_Chiralities_Consistent>
1

> <s_lp_Variant>
AV-unprocessed.smi:783-1

> <Gold.Version>
5.8.1

> <Gold.Id.Protein>
6NUR|6NUR_protein|mol2

> <Gold.PLP.Fitness>
41.8041

> <Gold.PLP.PLP>
-38.7751

> <Gold.PLP.part.hbond>
-1.0000

> <Gold.PLP.part.metal>
0.0000

> <Gold.PLP.part.buried>
-1.9270

> <Gold.PLP.part.nonpolar>
-36.2263

> <Gold.PLP.part.repulsive>
0.1637

> <Gold.PLP.ligand.clash>
0.0000

> <Gold.PLP.ligand.torsion>
1.4591

> <Gold.PLP.Chemscore.Hbond>
0.8800

> <Gold.PLP.Chemscore.CHOScore>
1.0000

> <Gold.PLP.Chemscore.Metal>
0.0000

> <Gold.Chemscore.Hbonds>
donor molecule, donor type, donor heavy atom, donor atom, acceptor molecule, acceptor atom, score
      P1  H  7989  7998       L1     4  0.83
      L1  C    18    43       P1  8028  1.00

> <Gold.PLP.Chemscore.Internal.Correction>
0.3071

> <Gold.Rescore>
     Score         DG    S(hbond)    S(metal)    S(lipo)     H(rot)  DE(clash)    DE(int)     intcor
     12.72     -14.32       0.98        0.00      87.86       1.84       0.22       1.38       ----

> <Gold.Chemscore.Fitness>
12.7239

> <Gold.Chemscore.DG>
-14.3171

> <Gold.Chemscore.ZeroCoef>
-5.4800

> <Gold.Chemscore.Hbond>
0.9823

> <Gold.Chemscore.Metal>
0.0000

> <Gold.Chemscore.Lipo>
87.8555

> <Gold.Chemscore.Internal_Hbond>
0.0000

> <Gold.Chemscore.DEClash>
0.2165

> <Gold.Chemscore.DEInternal>
1.3768

> <Gold.Chemscore.Rot>
1.8449

> <Gold.Chemscore.Internal.Correction>
   9.000000E+99

> <Gold.Chemscore.Hbonds>
donor molecule, donor type, donor heavy atom, donor atom, acceptor molecule, acceptor atom, score
      P1  H  7989  7998       L1     4  0.81

> <Gold.Chemscore.Hbond.Weighted>
-3.2809

> <Gold.Chemscore.Metal.Weighted>
-0.0000

> <Gold.Chemscore.Lipo.Weighted>
-10.2791

> <Gold.Chemscore.Internal_Hbond.Weighted>
0.0000

> <Gold.Chemscore.DEClash.Weighted>
0.2165

> <Gold.Chemscore.DEInternal.Weighted>
1.3768

> <Gold.Chemscore.Rot.Weighted>
4.7229

> <Gold.Chemscore.Internal.Correction.Weighted>
   9.000000E+99

> <Gold.Protein.RotatedTorsions>
[ 6907 6896 6895 6894 ] final -110.99 input  -60.11 | X-H torsion
[ 7974 7965 7964 7962 ] final   46.43 input  175.53 | X-H torsion
[ 8008 7997 7996 7995 ] final  -76.86 input   59.86 | X-H torsion
[ 10167 10162 10161 10158 ] final  -69.50 input  -65.29 | X-H torsion
[ 10718 10713 10712 10709 ] final -151.46 input   66.30 | X-H torsion
[ 10763 10752 10751 10750 ] final  -75.35 input  -60.55 | X-H torsion
[ 11005 11000 10999 10996 ] final -168.85 input  -57.11 | X-H torsion

> <Gold.Protein.ActiveResidues>
 VAL166  LYS551  ARG553  GLY616  TRP617  ASP618  TYR619  PRO620  LYS621  CYS622 
 ASP623  PHE694  ASN695  SER759  ASP760  ASP761  ALA762  ILE779  LEU786  VAL792 
 PHE793  MET794  SER795  GLU796  ALA797  LYS798  CYS799  TRP800  GLU811  SER814 

> <Gold.Protein.RotatedAtoms>
  150.7661  133.9300  159.3423 H   0  0  0  0  0  0  0  0  0  0  0  0  # atno 6907 bound_to 6896
  151.7198  135.0894  160.0291 H   0  0  0  0  0  0  0  0  0  0  0  0  # atno 6908 bound_to 6896
  152.3657  133.6316  159.6084 H   0  0  0  0  0  0  0  0  0  0  0  0  # atno 6909 bound_to 6896
  146.0391  139.4857  142.9790 H   0  0  0  0  0  0  0  0  0  0  0  0  # atno 7974 bound_to 7965
  154.5543  140.0720  156.8719 H   0  0  0  0  0  0  0  0  0  0  0  0  # atno 8008 bound_to 7997
  155.2932  140.3379  155.4233 H   0  0  0  0  0  0  0  0  0  0  0  0  # atno 8009 bound_to 7997
  156.1989  140.1714  156.7927 H   0  0  0  0  0  0  0  0  0  0  0  0  # atno 8010 bound_to 7997
  140.5426  143.2314  151.7061 H   0  0  0  0  0  0  0  0  0  0  0  0  # atno 10167 bound_to 10162
  156.4595  130.8206  151.2437 H   0  0  0  0  0  0  0  0  0  0  0  0  # atno 10718 bound_to 10713
  154.4854  135.5834  153.6420 H   0  0  0  0  0  0  0  0  0  0  0  0  # atno 10763 bound_to 10752
  152.9854  135.6100  154.3192 H   0  0  0  0  0  0  0  0  0  0  0  0  # atno 10764 bound_to 10752
  154.3087  135.2845  155.2555 H   0  0  0  0  0  0  0  0  0  0  0  0  # atno 10765 bound_to 10752
  140.5373  134.5557  157.5090 H   0  0  0  0  0  0  0  0  0  0  0  0  # atno 11005 bound_to 11000
  145.6915  141.0163  143.1553 LP  0  0  0  0  0  0  0  0  0  0  0  0  # atno 17320 bound_to 7965
  144.7065  139.8538  143.7428 LP  0  0  0  0  0  0  0  0  0  0  0  0  # atno 17321 bound_to 7965
  139.4995  144.3945  152.0245 LP  0  0  0  0  0  0  0  0  0  0  0  0  # atno 17342 bound_to 10162
  140.3055  144.3598  150.6048 LP  0  0  0  0  0  0  0  0  0  0  0  0  # atno 17343 bound_to 10162
  157.7498  131.0112  150.3335 LP  0  0  0  0  0  0  0  0  0  0  0  0  # atno 17370 bound_to 10713
  156.3731  130.3867  149.7160 LP  0  0  0  0  0  0  0  0  0  0  0  0  # atno 17371 bound_to 10713
  139.9522  134.7597  156.0422 LP  0  0  0  0  0  0  0  0  0  0  0  0  # atno 17394 bound_to 11000
  141.1247  133.6602  156.3306 LP  0  0  0  0  0  0  0  0  0  0  0  0  # atno 17395 bound_to 11000

$$$$
