AV-unprocessed.smi:1240|AV-procd|sdf|5212|dock4
  -GOLD-   22720 4303D 1   1.00000     0.00000
 Structure written by MMmdl.
 48 50  0  0  0  0  0  0  0  0  4 V2000
  147.3504  132.3353  153.5559 O   0  0  0  0  0  0  0  0  0  0  0  0
  147.9428  133.4067  153.3831 C   0  0  0  0  0  0  0  0  0  0  0  0
  149.2023  133.7310  153.7788 N   0  5  0  0  0  0  0  0  0  0  0  0
  149.5219  134.5250  154.9649 C   0  0  0  0  0  0  0  0  0  0  0  0
  148.6353  135.8191  155.0285 C   0  0  1  0  0  0  0  0  0  0  0  0
  147.9693  136.0903  156.4185 C   0  0  2  0  0  0  0  0  0  0  0  0
  148.9062  136.3073  157.6031 C   0  0  0  0  0  0  0  0  0  0  0  0
  148.0031  136.0417  158.8030 C   0  0  0  0  0  0  0  0  0  0  0  0
  147.0290  135.1059  158.3568 O   0  0  0  0  0  0  0  0  0  0  0  0
  147.1652  134.8992  156.9564 C   0  0  0  0  0  0  0  0  0  0  0  0
  149.3275  137.0682  154.5503 N   0  3  0  0  0  0  0  0  0  0  0  0
  148.6041  138.3652  154.6778 C   0  0  0  0  0  0  0  0  0  0  0  0
  149.3380  139.4509  153.8745 C   0  0  0  0  0  0  0  0  0  0  0  0
  150.6842  139.5534  154.3246 O   0  0  0  0  0  0  0  0  0  0  0  0
  151.4089  138.3438  154.1326 C   0  0  0  0  0  0  0  0  0  0  0  0
  150.7551  137.2120  154.9419 C   0  0  0  0  0  0  0  0  0  0  0  0
  147.3492  134.4106  152.7130 N   0  0  0  0  0  0  0  0  0  0  0  0
  146.0516  134.4537  152.1363 C   0  0  0  0  0  0  0  0  0  0  0  0
  145.0696  133.5875  152.6649 C   0  0  0  0  0  0  0  0  0  0  0  0
  143.7735  133.5867  152.1109 C   0  0  0  0  0  0  0  0  0  0  0  0
  143.4854  134.4012  151.0730 N   0  3  0  0  0  0  0  0  0  0  0  0
  144.3964  135.2319  150.5218 C   0  0  0  0  0  0  0  0  0  0  0  0
  145.7088  135.2769  151.0342 C   0  0  0  0  0  0  0  0  0  0  0  0
  149.3924  133.9563  155.8861 H   0  0  0  0  0  0  0  0  0  0  0  0
  150.5711  134.8209  154.9548 H   0  0  0  0  0  0  0  0  0  0  0  0
  147.8132  135.6757  154.3250 H   0  0  0  0  0  0  0  0  0  0  0  0
  147.2977  136.9494  156.3597 H   0  0  0  0  0  0  0  0  0  0  0  0
  149.7204  135.5813  157.5818 H   0  0  0  0  0  0  0  0  0  0  0  0
  149.3430  137.3061  157.6346 H   0  0  0  0  0  0  0  0  0  0  0  0
  148.5566  135.6626  159.6623 H   0  0  0  0  0  0  0  0  0  0  0  0
  147.4914  136.9560  159.1054 H   0  0  0  0  0  0  0  0  0  0  0  0
  146.1878  134.8033  156.4829 H   0  0  0  0  0  0  0  0  0  0  0  0
  147.7077  133.9658  156.7990 H   0  0  0  0  0  0  0  0  0  0  0  0
  147.5823  138.2741  154.3108 H   0  0  0  0  0  0  0  0  0  0  0  0
  148.5449  138.6720  155.7229 H   0  0  0  0  0  0  0  0  0  0  0  0
  149.3145  139.2277  152.8066 H   0  0  0  0  0  0  0  0  0  0  0  0
  148.8464  140.4143  154.0091 H   0  0  0  0  0  0  0  0  0  0  0  0
  151.4454  138.0924  153.0713 H   0  0  0  0  0  0  0  0  0  0  0  0
  152.4381  138.4927  154.4597 H   0  0  0  0  0  0  0  0  0  0  0  0
  150.8395  137.4318  156.0066 H   0  0  0  0  0  0  0  0  0  0  0  0
  151.2907  136.2791  154.7622 H   0  0  0  0  0  0  0  0  0  0  0  0
  147.9358  135.2110  152.5286 H   0  0  0  0  0  0  0  0  0  0  0  0
  145.3035  132.9349  153.4938 H   0  0  0  0  0  0  0  0  0  0  0  0
  142.9656  132.9625  152.4636 H   0  0  0  0  0  0  0  0  0  0  0  0
  144.0532  135.8281  149.6890 H   0  0  0  0  0  0  0  0  0  0  0  0
  146.4313  135.9307  150.5692 H   0  0  0  0  0  0  0  0  0  0  0  0
  149.3773  136.9192  153.5531 H   0  0  0  0  0  0  0  0  0  0  0  0
  142.5418  134.3844  150.6854 H   0  0  0  0  0  0  0  0  0  0  0  0
  1  2  2  0  0  0  0
  2  3  1  0  0  0  0
  2 17  1  0  0  0  0
  3  4  1  0  0  0  0
  4  5  1  0  0  0  0
  4 24  1  0  0  0  0
  4 25  1  0  0  0  0
  5  6  1  0  0  0  0
  5 11  1  0  0  0  0
  5 26  1  0  0  0  0
  6 10  1  0  0  0  0
  6  7  1  0  0  0  0
  6 27  1  0  0  0  0
  7  8  1  0  0  0  0
  7 28  1  0  0  0  0
  7 29  1  0  0  0  0
  8  9  1  0  0  0  0
  8 30  1  0  0  0  0
  8 31  1  0  0  0  0
  9 10  1  0  0  0  0
 10 32  1  0  0  0  0
 10 33  1  0  0  0  0
 11 16  1  0  0  0  0
 11 12  1  0  0  0  0
 11 47  1  0  0  0  0
 12 13  1  0  0  0  0
 12 34  1  0  0  0  0
 12 35  1  0  0  0  0
 13 14  1  0  0  0  0
 13 36  1  0  0  0  0
 13 37  1  0  0  0  0
 14 15  1  0  0  0  0
 15 16  1  0  0  0  0
 15 38  1  0  0  0  0
 15 39  1  0  0  0  0
 16 40  1  0  0  0  0
 16 41  1  0  0  0  0
 17 18  1  0  0  0  0
 17 42  1  0  0  0  0
 18 23  1  0  0  0  0
 18 19  2  0  0  0  0
 19 20  1  0  0  0  0
 19 43  1  0  0  0  0
 20 21  2  0  0  0  0
 20 44  1  0  0  0  0
 21 22  1  0  0  0  0
 21 48  1  0  0  0  0
 22 23  2  0  0  0  0
 22 45  1  0  0  0  0
 23 46  1  0  0  0  0
M  CHG  1   3  -1
M  CHG  1  11   1
M  CHG  1  21   1
M  END
> <s_m_source_file>
AV-unprocessed.smi

> <i_m_source_file_index>
1240

> <i_lp_mmshare_version>
43012

> <i_f3d_flags>
0

> <s_epik_input>
W2NIXTFbY0hdbltjSF1bY0hdYzFbTkhdQyg9TylbTkhdW0NIMl1bQ0BIXShbQ0BASF0yW0NIMl1bQ0gyXU9bQ0gyXTIpTjNbQ0gyXVtDSDJdT1tDSDJdW0NIMl0z

> <s_epik_cmdline>
J2VwaWtfcHl0aG9uJywgJy1waCcsICc3LjAnLCAnLXRuJywgJzgnLCAnLW1hJywgJzIwMCcsICctbWV0YWxfYmluZGluZycsICctaW1hZScsICc8aW5maWxlLm1hZT4nLCAnLW9tYWUnLCAnPG91dGZpbGUubWFlPic=

> <r_epik_Ionization_Penalty>
8.41087

> <r_epik_Ionization_Penalty_Charging>
8.41087

> <r_epik_Ionization_Penalty_Neutral>
3.12936e-06

> <r_epik_State_Penalty>
8.81894

> <r_epik_Charging_Adjusted_Penalty>
17.2298

> <i_epik_Tot_Q>
1

> <i_epik_Tot_abs_Q>
3

> <r_epik_Metal_State_Penalty>
4.82983

> <b_epik_Metal_Only>
1

> <s_lp_Force_Field>
OPLS_2005

> <r_lp_Energy>
48.6891

> <b_lp_Chiralities_Consistent>
1

> <s_lp_Variant>
AV-unprocessed.smi:1240-18

> <Gold.Version>
5.8.1

> <Gold.Id.Protein>
6NUR|6NUR_protein|mol2

> <Gold.PLP.Fitness>
45.8428

> <Gold.PLP.PLP>
-31.1490

> <Gold.PLP.part.hbond>
-3.9310

> <Gold.PLP.part.metal>
0.0000

> <Gold.PLP.part.buried>
-3.5078

> <Gold.PLP.part.nonpolar>
-23.0777

> <Gold.PLP.part.repulsive>
0.5224

> <Gold.PLP.ligand.clash>
0.0040

> <Gold.PLP.ligand.torsion>
1.9395

> <Gold.PLP.Chemscore.Hbond>
6.0000

> <Gold.PLP.Chemscore.CHOScore>
0.0000

> <Gold.PLP.Chemscore.Metal>
0.0000

> <Gold.Chemscore.Hbonds>
donor molecule, donor type, donor heavy atom, donor atom, acceptor molecule, acceptor atom, score
      L1  H    11    47       P1  7948  2.00
      L1  H    17    42       P1  7948  1.00
      L1  H    21    48       P1 10186  2.00
      P1  H  7989  7998       L1    14  1.00

> <Gold.PLP.Chemscore.Internal.Correction>
0.5768

> <Gold.Rescore>
     Score         DG    S(hbond)    S(metal)    S(lipo)     H(rot)  DE(clash)    DE(int)     intcor
     14.67     -19.77       3.28        0.00      65.60       1.70       0.96       4.14       ----

> <Gold.Chemscore.Fitness>
14.6658

> <Gold.Chemscore.DG>
-19.7694

> <Gold.Chemscore.ZeroCoef>
-5.4800

> <Gold.Chemscore.Hbond>
3.2849

> <Gold.Chemscore.Metal>
0.0000

> <Gold.Chemscore.Lipo>
65.6015

> <Gold.Chemscore.Internal_Hbond>
0.0000

> <Gold.Chemscore.DEClash>
0.9600

> <Gold.Chemscore.DEInternal>
4.1435

> <Gold.Chemscore.Rot>
1.7021

> <Gold.Chemscore.Internal.Correction>
   9.000000E+99

> <Gold.Chemscore.Hbonds>
donor molecule, donor type, donor heavy atom, donor atom, acceptor molecule, acceptor atom, score
      L1  H    11    47       P1  7948  0.94
      L1  H    17    42       P1  7948  0.94
      L1  H    21    48       P1 10186  0.35
      P1  H  7989  7998       L1    14  0.47

> <Gold.Chemscore.Hbond.Weighted>
-10.9715

> <Gold.Chemscore.Metal.Weighted>
-0.0000

> <Gold.Chemscore.Lipo.Weighted>
-7.6754

> <Gold.Chemscore.Internal_Hbond.Weighted>
0.0000

> <Gold.Chemscore.DEClash.Weighted>
0.9600

> <Gold.Chemscore.DEInternal.Weighted>
4.1435

> <Gold.Chemscore.Rot.Weighted>
4.3575

> <Gold.Chemscore.Internal.Correction.Weighted>
   9.000000E+99

> <Gold.Protein.RotatedTorsions>
[ 6907 6896 6895 6894 ] final   26.85 input  -60.11 | X-H torsion
[ 7974 7965 7964 7962 ] final  -14.87 input  175.53 | X-H torsion
[ 8008 7997 7996 7995 ] final   86.40 input   59.86 | X-H torsion
[ 10167 10162 10161 10158 ] final  -99.80 input  -65.29 | X-H torsion
[ 10718 10713 10712 10709 ] final  -57.99 input   66.30 | X-H torsion
[ 10763 10752 10751 10750 ] final   -1.74 input  -60.55 | X-H torsion
[ 11005 11000 10999 10996 ] final  -72.28 input  -57.11 | X-H torsion

> <Gold.Protein.ActiveResidues>
 VAL166  LYS551  ARG553  GLY616  TRP617  ASP618  TYR619  PRO620  LYS621  CYS622 
 ASP623  PHE694  ASN695  SER759  ASP760  ASP761  ALA762  ILE779  LEU786  VAL792 
 PHE793  MET794  SER795  GLU796  ALA797  LYS798  CYS799  TRP800  GLU811  SER814 

> <Gold.Protein.RotatedAtoms>
  151.9935  134.9966  160.0562 H   0  0  0  0  0  0  0  0  0  0  0  0  # atno 6907 bound_to 6896
  152.1586  133.4562  159.4858 H   0  0  0  0  0  0  0  0  0  0  0  0  # atno 6908 bound_to 6896
  150.6884  134.2018  159.4368 H   0  0  0  0  0  0  0  0  0  0  0  0  # atno 6909 bound_to 6896
  146.2056  140.3410  142.8408 H   0  0  0  0  0  0  0  0  0  0  0  0  # atno 7974 bound_to 7965
  155.9623  140.3392  155.6502 H   0  0  0  0  0  0  0  0  0  0  0  0  # atno 8008 bound_to 7997
  155.6782  140.0734  157.2513 H   0  0  0  0  0  0  0  0  0  0  0  0  # atno 8009 bound_to 7997
  154.4146  140.1679  156.1940 H   0  0  0  0  0  0  0  0  0  0  0  0  # atno 8010 bound_to 7997
  140.2586  143.3423  152.0647 H   0  0  0  0  0  0  0  0  0  0  0  0  # atno 10167 bound_to 10162
  156.1169  130.4169  150.0516 H   0  0  0  0  0  0  0  0  0  0  0  0  # atno 10718 bound_to 10713
  153.3488  135.6984  153.6806 H   0  0  0  0  0  0  0  0  0  0  0  0  # atno 10763 bound_to 10752
  153.5541  135.3548  155.2772 H   0  0  0  0  0  0  0  0  0  0  0  0  # atno 10764 bound_to 10752
  154.8649  135.4233  154.2718 H   0  0  0  0  0  0  0  0  0  0  0  0  # atno 10765 bound_to 10752
  141.1606  133.6842  156.7034 H   0  0  0  0  0  0  0  0  0  0  0  0  # atno 11005 bound_to 11000
  144.8785  140.7369  143.6001 LP  0  0  0  0  0  0  0  0  0  0  0  0  # atno 17320 bound_to 7965
  145.3330  139.1754  143.4526 LP  0  0  0  0  0  0  0  0  0  0  0  0  # atno 17321 bound_to 7965
  139.5024  144.6733  151.6189 LP  0  0  0  0  0  0  0  0  0  0  0  0  # atno 17342 bound_to 10162
  140.5984  143.9654  150.6369 LP  0  0  0  0  0  0  0  0  0  0  0  0  # atno 17343 bound_to 10162
  156.8464  130.9444  151.3628 LP  0  0  0  0  0  0  0  0  0  0  0  0  # atno 17370 bound_to 10713
  157.6352  130.8761  149.9346 LP  0  0  0  0  0  0  0  0  0  0  0  0  # atno 17371 bound_to 10713
  140.2941  134.8216  157.4042 LP  0  0  0  0  0  0  0  0  0  0  0  0  # atno 17394 bound_to 11000
  140.1320  134.5083  155.8098 LP  0  0  0  0  0  0  0  0  0  0  0  0  # atno 17395 bound_to 11000

$$$$
