#       Name:                AV-unprocessed.smi:1893
#       Creating user name   scv26
#       Creation time:       Fri Mar 27 09:41:56 2020


#       File generated by GOLD software.
#

@<TRIPOS>MOLECULE
AV-unprocessed.smi:1893
    47    48     1
SMALL
NO_CHARGES


@<TRIPOS>ATOM
      1 ****        -2.0175   2.6134  -1.0155 C.3            1 S1                 0.0000
      2 ****        -2.5527   1.9370   0.2647 C.3            1 S1                 0.0000
      3 ****        -4.0954   1.8893   0.1801 C.3            1 S1                 0.0000
      4 ****        -4.7221   1.2279   1.4093 C.3            1 S1                 0.0000
      5 ****        -4.1265  -0.1676   1.5878 C.3            1 S1                 0.0000
      6 ****        -2.5975  -0.0882   1.6881 C.3            1 S1                 0.0000
      7 ****        -1.9881   0.5649   0.4926 N.4            1 S1                 1.0000
      8 ****        -0.4979   0.5149   0.5442 C.3            1 S1                 0.0000
      9 ****         0.0624  -0.9006   0.3146 C.3            1 S1                 0.0000
     10 ****         1.5181  -0.8765   0.2903 N.am           1 S1                 0.0000
     11 ****         2.2868  -1.9149  -0.0715 C.2            1 S1                 0.0000
     12 ****         1.8238  -3.0055  -0.4075 O.2            1 S1                 0.0000
     13 ****         3.8042  -1.6736  -0.0551 C.3            1 S1                 0.0000
     14 ****         4.6190  -2.9784   0.0200 C.3            1 S1                 0.0000
     15 ****         4.1979  -0.8766  -1.2088 N.pl3          1 S1                 0.0000
     16 ****         4.1614  -1.1495  -2.5163 C.2            1 S1                 0.0000
     17 ****         4.5963  -0.1598  -3.2834 N.2            1 S1                 0.0000
     18 ****         4.9079   0.7562  -2.3191 C.2            1 S1                 0.0000
     19 ****         4.6832   0.3793  -1.0603 N.2            1 S1                 0.0000
     20 ****        -2.5852   3.5159  -1.2445 H              1 S1                 0.0000
     21 ****        -2.0947   1.9517  -1.8789 H              1 S1                 0.0000
     22 ****        -0.9807   2.9326  -0.9186 H              1 S1                 0.0000
     23 ****        -2.2772   2.5594   1.1178 H              1 S1                 0.0000
     24 ****        -4.4965   2.8982   0.0751 H              1 S1                 0.0000
     25 ****        -4.3982   1.3450  -0.7160 H              1 S1                 0.0000
     26 ****        -4.5328   1.8324   2.2973 H              1 S1                 0.0000
     27 ****        -5.8048   1.1656   1.2953 H              1 S1                 0.0000
     28 ****        -4.5356  -0.6347   2.4842 H              1 S1                 0.0000
     29 ****        -4.4106  -0.8042   0.7485 H              1 S1                 0.0000
     30 ****        -2.3124   0.4611   2.5869 H              1 S1                 0.0000
     31 ****        -2.2214  -1.1019   1.8107 H              1 S1                 0.0000
     32 ****        -0.0609   1.1401  -0.2305 H              1 S1                 0.0000
     33 ****        -0.1495   0.9203   1.4956 H              1 S1                 0.0000
     34 ****        -0.2433  -1.5891   1.1016 H              1 S1                 0.0000
     35 ****        -0.3134  -1.2981  -0.6298 H              1 S1                 0.0000
     36 ****         1.9741  -0.0146   0.5536 H              1 S1                 0.0000
     37 ****         4.0288  -1.0982   0.8451 H              1 S1                 0.0000
     38 ****         4.3418  -3.5679   0.8947 H              1 S1                 0.0000
     39 ****         5.6855  -2.7649   0.0955 H              1 S1                 0.0000
     40 ****         4.4703  -3.6019  -0.8627 H              1 S1                 0.0000
     41 ****         3.8069  -2.0893  -2.9142 H              1 S1                 0.0000
     42 ****         5.3079   1.7323  -2.5518 H              1 S1                 0.0000
     43 ****        -2.2622   0.0169  -0.3104 H              1 S1                 0.0000
     44 ****         0.8339  -3.1463  -0.4187 LP             1 S1                 0.0000
     45 ****         2.4378  -3.7501  -0.6691 LP             1 S1                 0.0000
     46 ****         4.6738  -0.1008  -4.2786 LP             1 S1                 0.0000
     47 ****         4.8350   0.8950  -0.2170 LP             1 S1                 0.0000
@<TRIPOS>BOND
    1    1    2 1     
    2    1   20 1     
    3    1   21 1     
    4    1   22 1     
    5    2    7 1     
    6    2    3 1     
    7    2   23 1     
    8    3    4 1     
    9    3   24 1     
   10    3   25 1     
   11    4    5 1     
   12    4   26 1     
   13    4   27 1     
   14    5    6 1     
   15    5   28 1     
   16    5   29 1     
   17    6    7 1     
   18    6   30 1     
   19    6   31 1     
   20    7    8 1     
   21    7   43 1     
   22    8    9 1     
   23    8   32 1     
   24    8   33 1     
   25    9   10 1     
   26    9   34 1     
   27    9   35 1     
   28   10   11 am    
   29   10   36 1     
   30   11   12 2     
   31   11   13 1     
   32   13   14 1     
   33   13   15 1     
   34   13   37 1     
   35   14   38 1     
   36   14   39 1     
   37   14   40 1     
   38   15   19 1     
   39   15   16 1     
   40   16   17 2     
   41   16   41 1     
   42   17   18 1     
   43   18   19 2     
   44   18   42 1     
   45   12   44 1     
   46   12   45 1     
   47   17   46 1     
   48   19   47 1     
@<TRIPOS>SUBSTRUCTURE
      1 S1             1
@<TRIPOS>SET
LONE_PAIRS      STATIC     ATOMS    <user>   **** ""
4 44 45 46 47
DONOR_HYDROGENS      STATIC     ATOMS    <user>   **** ""
2 43 36
ATOM$BLUE        STATIC     ATOMS    COLORGROUP SYSTEM
4 44 45 46 47
ATOM$RED        STATIC     ATOMS    COLORGROUP SYSTEM
2 43 36
