AV-unprocessed.smi:2475|AV-procd|sdf|9756|dock4
  -GOLD-   2272013393D 1   1.00000     0.00000
 Structure written by MMmdl.
 37 38  0  0  0  0  0  0  0  0  1 V2000
  146.9928  140.1544  153.4474 C   0  0  0  0  0  0  0  0  0  0  0  0
  148.3520  140.2664  154.1043 C   0  0  0  0  0  0  0  0  0  0  0  0
  148.7094  141.3932  154.8741 C   0  0  0  0  0  0  0  0  0  0  0  0
  150.0012  141.3995  155.4461 C   0  0  0  0  0  0  0  0  0  0  0  0
  150.3324  142.5468  156.2121 N   0  0  0  0  0  0  0  0  0  0  0  0
  151.0354  142.6108  157.3594 C   0  0  0  0  0  0  0  0  0  0  0  0
  151.4815  141.6289  157.9539 O   0  0  0  0  0  0  0  0  0  0  0  0
  151.2454  144.0155  157.9551 C   0  0  1  0  0  0  0  0  0  0  0  0
  150.5346  144.2288  159.3084 C   0  0  0  0  0  0  0  0  0  0  0  0
  151.6568  144.5654  160.2761 C   0  0  0  0  0  0  0  0  0  0  0  0
  152.8801  143.9696  159.5962 C   0  0  0  0  0  0  0  0  0  0  0  0
  152.6313  144.2392  158.2256 O   0  0  0  0  0  0  0  0  0  0  0  0
  150.8354  140.3502  155.2441 N   0  0  0  0  0  0  0  0  0  0  0  0
  150.4006  139.3302  154.4969 C   0  0  0  0  0  0  0  0  0  0  0  0
  151.3594  138.1643  154.2939 C   0  0  0  0  0  0  0  0  0  0  0  0
  150.7993  136.8543  154.8693 C   0  0  0  0  0  0  0  0  0  0  0  0
  152.7739  138.4866  154.8008 C   0  0  0  0  0  0  0  0  0  0  0  0
  149.2009  139.2341  153.9171 N   0  0  0  0  0  0  0  0  0  0  0  0
  146.4091  141.0638  153.5920 H   0  0  0  0  0  0  0  0  0  0  0  0
  146.4349  139.3196  153.8723 H   0  0  0  0  0  0  0  0  0  0  0  0
  147.1010  139.9866  152.3755 H   0  0  0  0  0  0  0  0  0  0  0  0
  148.0232  142.2151  155.0181 H   0  0  0  0  0  0  0  0  0  0  0  0
  150.0121  143.4288  155.8396 H   0  0  0  0  0  0  0  0  0  0  0  0
  150.9122  144.7517  157.2230 H   0  0  0  0  0  0  0  0  0  0  0  0
  149.7991  145.0322  159.2588 H   0  0  0  0  0  0  0  0  0  0  0  0
  150.0137  143.3325  159.6489 H   0  0  0  0  0  0  0  0  0  0  0  0
  151.7684  145.6477  160.3526 H   0  0  0  0  0  0  0  0  0  0  0  0
  151.4914  144.1691  161.2785 H   0  0  0  0  0  0  0  0  0  0  0  0
  153.8136  144.4205  159.9333 H   0  0  0  0  0  0  0  0  0  0  0  0
  152.9353  142.8922  159.7597 H   0  0  0  0  0  0  0  0  0  0  0  0
  151.4520  138.0085  153.2176 H   0  0  0  0  0  0  0  0  0  0  0  0
  149.8297  136.6175  154.4303 H   0  0  0  0  0  0  0  0  0  0  0  0
  150.6698  136.9171  155.9502 H   0  0  0  0  0  0  0  0  0  0  0  0
  151.4683  136.0185  154.6637 H   0  0  0  0  0  0  0  0  0  0  0  0
  153.1683  139.3807  154.3173 H   0  0  0  0  0  0  0  0  0  0  0  0
  153.4618  137.6671  154.5916 H   0  0  0  0  0  0  0  0  0  0  0  0
  152.7821  138.6584  155.8777 H   0  0  0  0  0  0  0  0  0  0  0  0
  1  2  1  0  0  0  0
  1 19  1  0  0  0  0
  1 20  1  0  0  0  0
  1 21  1  0  0  0  0
  2 18  1  0  0  0  0
  2  3  2  0  0  0  0
  3  4  1  0  0  0  0
  3 22  1  0  0  0  0
  4  5  1  0  0  0  0
  4 13  2  0  0  0  0
  5  6  1  0  0  0  0
  5 23  1  0  0  0  0
  6  7  2  0  0  0  0
  6  8  1  0  0  0  0
  8 12  1  0  0  0  0
  8  9  1  0  0  0  0
  8 24  1  0  0  0  0
  9 10  1  0  0  0  0
  9 25  1  0  0  0  0
  9 26  1  0  0  0  0
 10 11  1  0  0  0  0
 10 27  1  0  0  0  0
 10 28  1  0  0  0  0
 11 12  1  0  0  0  0
 11 29  1  0  0  0  0
 11 30  1  0  0  0  0
 13 14  1  0  0  0  0
 14 15  1  0  0  0  0
 14 18  2  0  0  0  0
 15 16  1  0  0  0  0
 15 17  1  0  0  0  0
 15 31  1  0  0  0  0
 16 32  1  0  0  0  0
 16 33  1  0  0  0  0
 16 34  1  0  0  0  0
 17 35  1  0  0  0  0
 17 36  1  0  0  0  0
 17 37  1  0  0  0  0
M  END
> <s_m_source_file>
AV-unprocessed.smi

> <i_m_source_file_index>
2475

> <i_lp_mmshare_version>
43012

> <i_f3d_flags>
0

> <s_epik_input>
W0NIM11bQ0hdKFtDSDNdKWMobjEpbmMoW2NIXWMxW0NIM10pW05IXUMoPU8pW0NAQEhdMltDSDJdW0NIMl1bQ0gyXU8y

> <s_epik_cmdline>
J2VwaWtfcHl0aG9uJywgJy1waCcsICc3LjAnLCAnLXRuJywgJzgnLCAnLW1hJywgJzIwMCcsICctbWV0YWxfYmluZGluZycsICctaW1hZScsICc8aW5maWxlLm1hZT4nLCAnLW9tYWUnLCAnPG91dGZpbGUubWFlPic=

> <r_lp_tautomer_probability>
1

> <r_epik_Ionization_Penalty>
1.42804e-05

> <r_epik_Ionization_Penalty_Charging>
0

> <r_epik_Ionization_Penalty_Neutral>
1.42804e-05

> <r_epik_State_Penalty>
-0

> <r_epik_Charging_Adjusted_Penalty>
0

> <i_epik_Tot_Q>
0

> <i_epik_Tot_abs_Q>
0

> <r_epik_Metal_State_Penalty>
-0

> <b_epik_Metal_Only>
0

> <s_lp_Force_Field>
OPLS_2005

> <r_lp_Energy>
11.5588

> <b_lp_Chiralities_Consistent>
1

> <s_lp_Variant>
AV-unprocessed.smi:2475-2

> <Gold.Version>
5.8.1

> <Gold.Id.Protein>
6NUR|6NUR_protein|mol2

> <Gold.PLP.Fitness>
42.5546

> <Gold.PLP.PLP>
-40.2988

> <Gold.PLP.part.hbond>
-2.0000

> <Gold.PLP.part.metal>
0.0000

> <Gold.PLP.part.buried>
-6.8608

> <Gold.PLP.part.nonpolar>
-34.4016

> <Gold.PLP.part.repulsive>
1.9317

> <Gold.PLP.ligand.clash>
0.0000

> <Gold.PLP.ligand.torsion>
0.4701

> <Gold.PLP.Chemscore.Hbond>
1.0400

> <Gold.PLP.Chemscore.CHOScore>
0.0000

> <Gold.PLP.Chemscore.Metal>
0.0000

> <Gold.Chemscore.Hbonds>
donor molecule, donor type, donor heavy atom, donor atom, acceptor molecule, acceptor atom, score
      L1  H     5    23       P1  8028  1.00
      P1  H  7989  7998       L1    13  0.05

> <Gold.PLP.Chemscore.Internal.Correction>
0.0760

> <Gold.Rescore>
     Score         DG    S(hbond)    S(metal)    S(lipo)     H(rot)  DE(clash)    DE(int)     intcor
     14.62     -16.14       1.00        0.00      88.60       1.18       0.03       1.49       ----

> <Gold.Chemscore.Fitness>
14.6210

> <Gold.Chemscore.DG>
-16.1444

> <Gold.Chemscore.ZeroCoef>
-5.4800

> <Gold.Chemscore.Hbond>
0.9968

> <Gold.Chemscore.Metal>
0.0000

> <Gold.Chemscore.Lipo>
88.6024

> <Gold.Chemscore.Internal_Hbond>
0.0000

> <Gold.Chemscore.DEClash>
0.0333

> <Gold.Chemscore.DEInternal>
1.4901

> <Gold.Chemscore.Rot>
1.1842

> <Gold.Chemscore.Internal.Correction>
   9.000000E+99

> <Gold.Chemscore.Hbonds>
donor molecule, donor type, donor heavy atom, donor atom, acceptor molecule, acceptor atom, score
      L1  H     5    23       P1  8028  0.98

> <Gold.Chemscore.Hbond.Weighted>
-3.3294

> <Gold.Chemscore.Metal.Weighted>
-0.0000

> <Gold.Chemscore.Lipo.Weighted>
-10.3665

> <Gold.Chemscore.Internal_Hbond.Weighted>
0.0000

> <Gold.Chemscore.DEClash.Weighted>
0.0333

> <Gold.Chemscore.DEInternal.Weighted>
1.4901

> <Gold.Chemscore.Rot.Weighted>
3.0315

> <Gold.Chemscore.Internal.Correction.Weighted>
   9.000000E+99

> <Gold.Protein.RotatedTorsions>
[ 6907 6896 6895 6894 ] final   31.00 input  -60.11 | X-H torsion
[ 7974 7965 7964 7962 ] final -178.96 input  175.53 | X-H torsion
[ 8008 7997 7996 7995 ] final -129.82 input   59.86 | X-H torsion
[ 10167 10162 10161 10158 ] final   63.02 input  -65.29 | X-H torsion
[ 10718 10713 10712 10709 ] final   81.50 input   66.30 | X-H torsion
[ 10763 10752 10751 10750 ] final    2.96 input  -60.55 | X-H torsion
[ 11005 11000 10999 10996 ] final  -11.80 input  -57.11 | X-H torsion

> <Gold.Protein.ActiveResidues>
 VAL166  LYS551  ARG553  GLY616  TRP617  ASP618  TYR619  PRO620  LYS621  CYS622 
 ASP623  PHE694  ASN695  SER759  ASP760  ASP761  ALA762  ILE779  LEU786  VAL792 
 PHE793  MET794  SER795  GLU796  ALA797  LYS798  CYS799  TRP800  GLU811  SER814 

> <Gold.Protein.RotatedAtoms>
  152.0541  134.9635  160.0574 H   0  0  0  0  0  0  0  0  0  0  0  0  # atno 6907 bound_to 6896
  152.1025  133.4252  159.4602 H   0  0  0  0  0  0  0  0  0  0  0  0  # atno 6908 bound_to 6896
  150.6840  134.2663  159.4613 H   0  0  0  0  0  0  0  0  0  0  0  0  # atno 6909 bound_to 6896
  144.7133  140.0790  143.6426 H   0  0  0  0  0  0  0  0  0  0  0  0  # atno 7974 bound_to 7965
  155.2856  140.0446  157.3019 H   0  0  0  0  0  0  0  0  0  0  0  0  # atno 8008 bound_to 7997
  154.5571  140.2335  155.8361 H   0  0  0  0  0  0  0  0  0  0  0  0  # atno 8009 bound_to 7997
  156.2016  140.3024  155.9547 H   0  0  0  0  0  0  0  0  0  0  0  0  # atno 8010 bound_to 7997
  140.1376  144.4584  150.6829 H   0  0  0  0  0  0  0  0  0  0  0  0  # atno 10167 bound_to 10162
  157.6834  131.0007  150.2236 H   0  0  0  0  0  0  0  0  0  0  0  0  # atno 10718 bound_to 10713
  153.2892  135.6947  153.7310 H   0  0  0  0  0  0  0  0  0  0  0  0  # atno 10763 bound_to 10752
  153.6267  135.3417  155.3029 H   0  0  0  0  0  0  0  0  0  0  0  0  # atno 10764 bound_to 10752
  154.8519  135.4399  154.1969 H   0  0  0  0  0  0  0  0  0  0  0  0  # atno 10765 bound_to 10752
  140.7590  133.8530  155.9109 H   0  0  0  0  0  0  0  0  0  0  0  0  # atno 11005 bound_to 11000
  145.9719  139.2876  143.1094 LP  0  0  0  0  0  0  0  0  0  0  0  0  # atno 17320 bound_to 7965
  145.9107  140.9182  143.0455 LP  0  0  0  0  0  0  0  0  0  0  0  0  # atno 17321 bound_to 7965
  140.6780  143.2313  151.5458 LP  0  0  0  0  0  0  0  0  0  0  0  0  # atno 17342 bound_to 10162
  139.5488  144.2449  152.1493 LP  0  0  0  0  0  0  0  0  0  0  0  0  # atno 17343 bound_to 10162
  156.2883  130.3742  149.7867 LP  0  0  0  0  0  0  0  0  0  0  0  0  # atno 17370 bound_to 10713
  156.5534  130.8352  151.3306 LP  0  0  0  0  0  0  0  0  0  0  0  0  # atno 17371 bound_to 10713
  140.9680  134.1568  157.4599 LP  0  0  0  0  0  0  0  0  0  0  0  0  # atno 17394 bound_to 11000
  139.8774  134.9969  156.5817 LP  0  0  0  0  0  0  0  0  0  0  0  0  # atno 17395 bound_to 11000

$$$$
