AV-unprocessed.smi:329|AV-procd|sdf|2348|dock9
  -GOLD-   2262022263D 1   1.00000     0.00000
 Structure written by MMmdl.
 18 18  0  0  0  0  0  0  0  0  1 V2000
  142.8123  132.2824  150.5015 N   0  0  0  0  0  0  0  0  0  0  0  0
  143.7927  132.3832  149.6011 C   0  0  0  0  0  0  0  0  0  0  0  0
  143.6187  132.1001  148.4164 O   0  0  0  0  0  0  0  0  0  0  0  0
  145.1517  132.8662  150.1250 C   0  0  0  0  0  0  0  0  0  0  0  0
  145.0951  134.1992  150.7035 N   0  0  0  0  0  0  0  0  0  0  0  0
  146.1260  134.9478  151.2337 C   0  0  0  0  0  0  0  0  0  0  0  0
  145.5934  136.1344  151.6492 C   0  0  0  0  0  0  0  0  0  0  0  0
  146.2858  137.2032  152.2485 N   0  0  0  0  0  0  0  0  0  0  0  0
  144.2114  136.0164  151.3304 C   0  0  0  0  0  0  0  0  0  0  0  0
  143.9158  134.8564  150.7661 N   0  0  0  0  0  0  0  0  0  0  0  0
  141.8969  131.9710  150.2104 H   0  0  0  0  0  0  0  0  0  0  0  0
  142.9866  132.5184  151.4677 H   0  0  0  0  0  0  0  0  0  0  0  0
  145.5257  132.1652  150.8732 H   0  0  0  0  0  0  0  0  0  0  0  0
  145.8718  132.8764  149.3058 H   0  0  0  0  0  0  0  0  0  0  0  0
  147.1403  134.5778  151.2649 H   0  0  0  0  0  0  0  0  0  0  0  0
  147.2800  137.1633  152.4219 H   0  0  0  0  0  0  0  0  0  0  0  0
  145.8074  138.0253  152.5879 H   0  0  0  0  0  0  0  0  0  0  0  0
  143.4199  136.7334  151.4912 H   0  0  0  0  0  0  0  0  0  0  0  0
  1  2  1  0  0  0  0
  1 11  1  0  0  0  0
  1 12  1  0  0  0  0
  2  3  2  0  0  0  0
  2  4  1  0  0  0  0
  4  5  1  0  0  0  0
  4 13  1  0  0  0  0
  4 14  1  0  0  0  0
  5 10  1  0  0  0  0
  5  6  1  0  0  0  0
  6  7  2  0  0  0  0
  6 15  1  0  0  0  0
  7  8  1  0  0  0  0
  7  9  1  0  0  0  0
  8 16  1  0  0  0  0
  8 17  1  0  0  0  0
  9 10  2  0  0  0  0
  9 18  1  0  0  0  0
M  END
> <s_m_source_file>
AV-unprocessed.smi

> <i_m_source_file_index>
329

> <i_lp_mmshare_version>
43012

> <i_f3d_flags>
0

> <s_epik_input>
W05IMl1DKD1PKVtDSDJdbjFbY0hdYyhbTkgyXSlbY0hdbjE=

> <s_epik_cmdline>
J2VwaWtfcHl0aG9uJywgJy1waCcsICc3LjAnLCAnLXRuJywgJzgnLCAnLW1hJywgJzIwMCcsICctbWV0YWxfYmluZGluZycsICctaW1hZScsICc8aW5maWxlLm1hZT4nLCAnLW9tYWUnLCAnPG91dGZpbGUubWFlPic=

> <r_lp_tautomer_probability>
1

> <r_epik_Ionization_Penalty>
9.33273e-05

> <r_epik_Ionization_Penalty_Charging>
0

> <r_epik_Ionization_Penalty_Neutral>
9.33273e-05

> <r_epik_State_Penalty>
-0

> <r_epik_Charging_Adjusted_Penalty>
0

> <i_epik_Tot_Q>
0

> <i_epik_Tot_abs_Q>
0

> <r_epik_Metal_State_Penalty>
-0

> <b_epik_Metal_Only>
0

> <s_lp_Force_Field>
OPLS_2005

> <r_lp_Energy>
3.96238

> <b_lp_Chiralities_Consistent>
1

> <s_lp_Variant>
AV-unprocessed.smi:329-1

> <Gold.Version>
5.8.1

> <Gold.Id.Protein>
6NUR|6NUR_protein|mol2

> <Gold.PLP.Fitness>
30.0177

> <Gold.PLP.PLP>
-19.3203

> <Gold.PLP.part.hbond>
-4.0000

> <Gold.PLP.part.metal>
0.0000

> <Gold.PLP.part.buried>
-2.4767

> <Gold.PLP.part.nonpolar>
-13.6568

> <Gold.PLP.part.repulsive>
0.6802

> <Gold.PLP.ligand.clash>
0.0000

> <Gold.PLP.ligand.torsion>
0.0038

> <Gold.PLP.Chemscore.Hbond>
2.2960

> <Gold.PLP.Chemscore.CHOScore>
1.2723

> <Gold.PLP.Chemscore.Metal>
0.0000

> <Gold.Chemscore.Hbonds>
donor molecule, donor type, donor heavy atom, donor atom, acceptor molecule, acceptor atom, score
      L1  H     1    11       P1 10952  0.90
      L1  H     8    16       P1  7948  0.85
      P1  H 10785 10796       L1     3  0.54
      L1  C     6    15       P1  7948  0.76
      L1  C     9    18       P1 10171  0.51

> <Gold.PLP.Chemscore.Internal.Correction>
0.0000

> <Gold.Rescore>
     Score         DG    S(hbond)    S(metal)    S(lipo)     H(rot)  DE(clash)    DE(int)     intcor
      9.21     -10.76       1.87        0.00      27.43       1.63       0.20       1.34       ----

> <Gold.Chemscore.Fitness>
9.2090

> <Gold.Chemscore.DG>
-10.7559

> <Gold.Chemscore.ZeroCoef>
-5.4800

> <Gold.Chemscore.Hbond>
1.8660

> <Gold.Chemscore.Metal>
0.0000

> <Gold.Chemscore.Lipo>
27.4325

> <Gold.Chemscore.Internal_Hbond>
0.0000

> <Gold.Chemscore.DEClash>
0.2043

> <Gold.Chemscore.DEInternal>
1.3425

> <Gold.Chemscore.Rot>
1.6274

> <Gold.Chemscore.Internal.Correction>
   9.000000E+99

> <Gold.Chemscore.Hbonds>
donor molecule, donor type, donor heavy atom, donor atom, acceptor molecule, acceptor atom, score
      L1  H     1    11       P1 10952  0.57
      L1  H     8    16       P1  7948  0.81
      P1  H 10785 10796       L1     3  0.09

> <Gold.Chemscore.Hbond.Weighted>
-6.2324

> <Gold.Chemscore.Metal.Weighted>
-0.0000

> <Gold.Chemscore.Lipo.Weighted>
-3.2096

> <Gold.Chemscore.Internal_Hbond.Weighted>
0.0000

> <Gold.Chemscore.DEClash.Weighted>
0.2043

> <Gold.Chemscore.DEInternal.Weighted>
1.3425

> <Gold.Chemscore.Rot.Weighted>
4.1662

> <Gold.Chemscore.Internal.Correction.Weighted>
   9.000000E+99

> <Gold.Protein.RotatedTorsions>
[ 6907 6896 6895 6894 ] final   20.65 input  -60.11 | X-H torsion
[ 7974 7965 7964 7962 ] final   91.56 input  175.53 | X-H torsion
[ 8008 7997 7996 7995 ] final -165.02 input   59.86 | X-H torsion
[ 10167 10162 10161 10158 ] final   95.81 input  -65.29 | X-H torsion
[ 10718 10713 10712 10709 ] final  103.85 input   66.30 | X-H torsion
[ 10763 10752 10751 10750 ] final -117.79 input  -60.55 | X-H torsion
[ 11005 11000 10999 10996 ] final  -60.25 input  -57.11 | X-H torsion

> <Gold.Protein.ActiveResidues>
 VAL166  LYS551  ARG553  GLY616  TRP617  ASP618  TYR619  PRO620  LYS621  CYS622 
 ASP623  PHE694  ASN695  SER759  ASP760  ASP761  ALA762  ILE779  LEU786  VAL792 
 PHE793  MET794  SER795  GLU796  ALA797  LYS798  CYS799  TRP800  GLU811  SER814 

> <Gold.Protein.RotatedAtoms>
  151.8996  135.0383  160.0504 H   0  0  0  0  0  0  0  0  0  0  0  0  # atno 6907 bound_to 6896
  152.2369  133.5099  159.5256 H   0  0  0  0  0  0  0  0  0  0  0  0  # atno 6908 bound_to 6896
  150.7042  134.1058  159.4025 H   0  0  0  0  0  0  0  0  0  0  0  0  # atno 6909 bound_to 6896
  145.5040  139.2276  143.2761 H   0  0  0  0  0  0  0  0  0  0  0  0  # atno 7974 bound_to 7965
  155.8438  140.0952  157.1718 H   0  0  0  0  0  0  0  0  0  0  0  0  # atno 8008 bound_to 7997
  154.3983  140.1396  156.3823 H   0  0  0  0  0  0  0  0  0  0  0  0  # atno 8009 bound_to 7997
  155.8035  140.3452  155.5419 H   0  0  0  0  0  0  0  0  0  0  0  0  # atno 8010 bound_to 7997
  139.7953  144.6836  150.9837 H   0  0  0  0  0  0  0  0  0  0  0  0  # atno 10167 bound_to 10162
  157.6759  131.0789  150.5617 H   0  0  0  0  0  0  0  0  0  0  0  0  # atno 10718 bound_to 10713
  154.8566  135.4297  154.2036 H   0  0  0  0  0  0  0  0  0  0  0  0  # atno 10763 bound_to 10752
  153.3077  135.6973  153.7150 H   0  0  0  0  0  0  0  0  0  0  0  0  # atno 10764 bound_to 10752
  153.6255  135.3494  155.2999 H   0  0  0  0  0  0  0  0  0  0  0  0  # atno 10765 bound_to 10752
  141.1280  133.6621  156.5195 H   0  0  0  0  0  0  0  0  0  0  0  0  # atno 11005 bound_to 11000
  146.2208  140.5843  142.9018 LP  0  0  0  0  0  0  0  0  0  0  0  0  # atno 17320 bound_to 7965
  144.7764  140.5748  143.6635 LP  0  0  0  0  0  0  0  0  0  0  0  0  # atno 17321 bound_to 7965
  140.7820  143.4337  151.0655 LP  0  0  0  0  0  0  0  0  0  0  0  0  # atno 17342 bound_to 10162
  139.8012  143.8081  152.3163 LP  0  0  0  0  0  0  0  0  0  0  0  0  # atno 17343 bound_to 10162
  156.5919  130.4331  149.5933 LP  0  0  0  0  0  0  0  0  0  0  0  0  # atno 17370 bound_to 10713
  156.2576  130.6943  151.1702 LP  0  0  0  0  0  0  0  0  0  0  0  0  # atno 17371 bound_to 10713
  140.4304  134.7107  157.4938 LP  0  0  0  0  0  0  0  0  0  0  0  0  # atno 17394 bound_to 11000
  140.0298  134.6423  155.9122 LP  0  0  0  0  0  0  0  0  0  0  0  0  # atno 17395 bound_to 11000

$$$$
