AV-unprocessed.smi:2502|AV-procd|sdf|9846|dock4
  -GOLD-   2272013473D 1   1.00000     0.00000
 Structure written by MMmdl.
 39 41  0  0  0  0  0  0  0  0  1 V2000
  150.1328  139.8003  153.7594 O   0  0  0  0  0  0  0  0  0  0  0  0
  149.2702  140.3076  154.7598 C   0  0  1  0  0  0  0  0  0  0  0  0
  148.9115  139.1635  155.7211 C   0  0  0  0  0  0  0  0  0  0  0  0
  148.6246  137.9985  154.9607 O   0  0  0  0  0  0  0  0  0  0  0  0
  148.8520  136.7733  155.6453 C   0  0  0  0  0  0  0  0  0  0  0  0
  148.2169  136.7812  157.0468 C   0  0  0  0  0  0  0  0  0  0  0  0
  148.6449  135.5342  157.8379 C   0  0  0  0  0  0  0  0  0  0  0  0
  150.0653  135.4655  157.9136 O   0  0  0  0  0  0  0  0  0  0  0  0
  150.6855  135.3483  156.6371 C   0  0  0  0  0  0  0  0  0  0  0  0
  150.3685  136.5880  155.7855 C   0  0  0  0  0  0  0  0  0  0  0  0
  149.9761  141.4692  155.4868 C   0  0  0  0  0  0  0  0  0  0  0  0
  151.0268  141.0130  156.3801 N   0  0  0  0  0  0  0  0  0  0  0  0
  151.7486  139.9046  156.0507 N   0  0  0  0  0  0  0  0  0  0  0  0
  152.6225  139.6836  156.9866 N   0  0  0  0  0  0  0  0  0  0  0  0
  152.4739  140.6652  157.9522 C   0  0  0  0  0  0  0  0  0  0  0  0
  153.1537  140.9014  159.1678 C   0  0  0  0  0  0  0  0  0  0  0  0
  152.7955  141.9957  159.9853 C   0  0  0  0  0  0  0  0  0  0  0  0
  153.6501  142.2506  161.4652 Cl  0  0  0  0  0  0  0  0  0  0  0  0
  151.7505  142.8676  159.5947 C   0  0  0  0  0  0  0  0  0  0  0  0
  151.2984  144.2097  160.5842 Cl  0  0  0  0  0  0  0  0  0  0  0  0
  151.0644  142.6447  158.3841 C   0  0  0  0  0  0  0  0  0  0  0  0
  151.4371  141.5504  157.5848 C   0  0  0  0  0  0  0  0  0  0  0  0
  149.6788  139.8222  152.9308 H   0  0  0  0  0  0  0  0  0  0  0  0
  148.3614  140.6831  154.2874 H   0  0  0  0  0  0  0  0  0  0  0  0
  149.7107  138.9975  156.4441 H   0  0  0  0  0  0  0  0  0  0  0  0
  148.0166  139.4294  156.2859 H   0  0  0  0  0  0  0  0  0  0  0  0
  148.4555  135.9397  155.0625 H   0  0  0  0  0  0  0  0  0  0  0  0
  148.5268  137.6769  157.5863 H   0  0  0  0  0  0  0  0  0  0  0  0
  147.1296  136.8148  156.9821 H   0  0  0  0  0  0  0  0  0  0  0  0
  148.2410  135.5758  158.8495 H   0  0  0  0  0  0  0  0  0  0  0  0
  148.2514  134.6274  157.3760 H   0  0  0  0  0  0  0  0  0  0  0  0
  151.7627  135.2551  156.7766 H   0  0  0  0  0  0  0  0  0  0  0  0
  150.3490  134.4375  156.1396 H   0  0  0  0  0  0  0  0  0  0  0  0
  150.8291  136.4961  154.8014 H   0  0  0  0  0  0  0  0  0  0  0  0
  150.8062  137.4701  156.2547 H   0  0  0  0  0  0  0  0  0  0  0  0
  150.4180  142.1549  154.7622 H   0  0  0  0  0  0  0  0  0  0  0  0
  149.2564  142.0516  156.0640 H   0  0  0  0  0  0  0  0  0  0  0  0
  153.9510  140.2392  159.4720 H   0  0  0  0  0  0  0  0  0  0  0  0
  150.2645  143.3016  158.0755 H   0  0  0  0  0  0  0  0  0  0  0  0
  1  2  1  0  0  0  0
  1 23  1  0  0  0  0
  2  3  1  0  0  0  0
  2 11  1  0  0  0  0
  2 24  1  0  0  0  0
  3  4  1  0  0  0  0
  3 25  1  0  0  0  0
  3 26  1  0  0  0  0
  4  5  1  0  0  0  0
  5 10  1  0  0  0  0
  5  6  1  0  0  0  0
  5 27  1  0  0  0  0
  6  7  1  0  0  0  0
  6 28  1  0  0  0  0
  6 29  1  0  0  0  0
  7  8  1  0  0  0  0
  7 30  1  0  0  0  0
  7 31  1  0  0  0  0
  8  9  1  0  0  0  0
  9 10  1  0  0  0  0
  9 32  1  0  0  0  0
  9 33  1  0  0  0  0
 10 34  1  0  0  0  0
 10 35  1  0  0  0  0
 11 12  1  0  0  0  0
 11 36  1  0  0  0  0
 11 37  1  0  0  0  0
 12 22  1  0  0  0  0
 12 13  1  0  0  0  0
 13 14  2  0  0  0  0
 14 15  1  0  0  0  0
 15 22  2  0  0  0  0
 15 16  1  0  0  0  0
 16 17  2  0  0  0  0
 16 38  1  0  0  0  0
 17 18  1  0  0  0  0
 17 19  1  0  0  0  0
 19 20  1  0  0  0  0
 19 21  2  0  0  0  0
 21 22  1  0  0  0  0
 21 39  1  0  0  0  0
M  END
> <s_m_source_file>
AV-unprocessed.smi

> <i_m_source_file_index>
2502

> <i_lp_mmshare_version>
43012

> <i_f3d_flags>
0

> <s_epik_input>
W2NIXTFjKENsKWMoQ2wpW2NIXWMoYzEyKW4obm4yKVtDSDJdW0NASF0oW09IXSlbQ0gyXU9bQ0hdM1tDSDJdW0NIMl1PW0NIMl1bQ0gyXTM=

> <s_epik_cmdline>
J2VwaWtfcHl0aG9uJywgJy1waCcsICc3LjAnLCAnLXRuJywgJzgnLCAnLW1hJywgJzIwMCcsICctbWV0YWxfYmluZGluZycsICctaW1hZScsICc8aW5maWxlLm1hZT4nLCAnLW9tYWUnLCAnPG91dGZpbGUubWFlPic=

> <r_lp_tautomer_probability>
1

> <r_epik_Ionization_Penalty>
2.65748e-06

> <r_epik_Ionization_Penalty_Charging>
0

> <r_epik_Ionization_Penalty_Neutral>
2.65748e-06

> <r_epik_State_Penalty>
-0

> <r_epik_Charging_Adjusted_Penalty>
0

> <i_epik_Tot_Q>
0

> <i_epik_Tot_abs_Q>
0

> <r_epik_Metal_State_Penalty>
-0

> <b_epik_Metal_Only>
0

> <s_lp_Force_Field>
OPLS_2005

> <r_lp_Energy>
14.648

> <b_lp_Chiralities_Consistent>
1

> <s_lp_Variant>
AV-unprocessed.smi:2502-2

> <Gold.Version>
5.8.1

> <Gold.Id.Protein>
6NUR|6NUR_protein|mol2

> <Gold.PLP.Fitness>
45.9089

> <Gold.PLP.PLP>
-35.8878

> <Gold.PLP.part.hbond>
-4.0000

> <Gold.PLP.part.metal>
0.0000

> <Gold.PLP.part.buried>
-5.5621

> <Gold.PLP.part.nonpolar>
-26.2041

> <Gold.PLP.part.repulsive>
0.1029

> <Gold.PLP.ligand.clash>
0.0000

> <Gold.PLP.ligand.torsion>
0.8062

> <Gold.PLP.Chemscore.Hbond>
3.8720

> <Gold.PLP.Chemscore.CHOScore>
0.0000

> <Gold.PLP.Chemscore.Metal>
0.0000

> <Gold.Chemscore.Hbonds>
donor molecule, donor type, donor heavy atom, donor atom, acceptor molecule, acceptor atom, score
      L1  H     1    23       P1  7957  1.00
      P1  H  6896  6908       L1     8  0.83
      P1  H  7989  7998       L1     1  0.88
      P1  H  7997  8009       L1    14  1.00

> <Gold.PLP.Chemscore.Internal.Correction>
0.0175

> <Gold.Rescore>
     Score         DG    S(hbond)    S(metal)    S(lipo)     H(rot)  DE(clash)    DE(int)     intcor
     19.20     -21.21       3.00        0.00      96.95       2.21       0.05       1.96       ----

> <Gold.Chemscore.Fitness>
19.2012

> <Gold.Chemscore.DG>
-21.2084

> <Gold.Chemscore.ZeroCoef>
-5.4800

> <Gold.Chemscore.Hbond>
3.0041

> <Gold.Chemscore.Metal>
0.0000

> <Gold.Chemscore.Lipo>
96.9523

> <Gold.Chemscore.Internal_Hbond>
0.0000

> <Gold.Chemscore.DEClash>
0.0484

> <Gold.Chemscore.DEInternal>
1.9588

> <Gold.Chemscore.Rot>
2.2065

> <Gold.Chemscore.Internal.Correction>
   9.000000E+99

> <Gold.Chemscore.Hbonds>
donor molecule, donor type, donor heavy atom, donor atom, acceptor molecule, acceptor atom, score
      L1  H     1    23       P1  7957  0.97
      P1  H  6896  6908       L1     8  0.70
      P1  H  7989  7998       L1     1  0.29
      P1  H  7997  8009       L1    14  0.16

> <Gold.Chemscore.Hbond.Weighted>
-10.0335

> <Gold.Chemscore.Metal.Weighted>
-0.0000

> <Gold.Chemscore.Lipo.Weighted>
-11.3434

> <Gold.Chemscore.Internal_Hbond.Weighted>
0.0000

> <Gold.Chemscore.DEClash.Weighted>
0.0484

> <Gold.Chemscore.DEInternal.Weighted>
1.9588

> <Gold.Chemscore.Rot.Weighted>
5.6485

> <Gold.Chemscore.Internal.Correction.Weighted>
   9.000000E+99

> <Gold.Protein.RotatedTorsions>
[ 6907 6896 6895 6894 ] final  167.47 input  -60.11 | X-H torsion
[ 7974 7965 7964 7962 ] final  162.44 input  175.53 | X-H torsion
[ 8008 7997 7996 7995 ] final -159.45 input   59.86 | X-H torsion
[ 10167 10162 10161 10158 ] final  -73.92 input  -65.29 | X-H torsion
[ 10718 10713 10712 10709 ] final   17.86 input   66.30 | X-H torsion
[ 10763 10752 10751 10750 ] final -171.12 input  -60.55 | X-H torsion
[ 11005 11000 10999 10996 ] final   21.80 input  -57.11 | X-H torsion

> <Gold.Protein.ActiveResidues>
 VAL166  LYS551  ARG553  GLY616  TRP617  ASP618  TYR619  PRO620  LYS621  CYS622 
 ASP623  PHE694  ASN695  SER759  ASP760  ASP761  ALA762  ILE779  LEU786  VAL792 
 PHE793  MET794  SER795  GLU796  ALA797  LYS798  CYS799  TRP800  GLU811  SER814 

> <Gold.Protein.RotatedAtoms>
  151.8628  133.3460  159.3709 H   0  0  0  0  0  0  0  0  0  0  0  0  # atno 6907 bound_to 6896
  150.7174  134.5189  159.5653 H   0  0  0  0  0  0  0  0  0  0  0  0  # atno 6908 bound_to 6896
  152.2706  134.7937  160.0466 H   0  0  0  0  0  0  0  0  0  0  0  0  # atno 6909 bound_to 6896
  144.7637  139.8040  143.6323 H   0  0  0  0  0  0  0  0  0  0  0  0  # atno 7974 bound_to 7965
  155.7628  140.0841  157.2147 H   0  0  0  0  0  0  0  0  0  0  0  0  # atno 8008 bound_to 7997
  154.4002  140.1540  156.2908 H   0  0  0  0  0  0  0  0  0  0  0  0  # atno 8009 bound_to 7997
  155.8823  140.3420  155.5899 H   0  0  0  0  0  0  0  0  0  0  0  0  # atno 8010 bound_to 7997
  140.5070  143.2351  151.7657 H   0  0  0  0  0  0  0  0  0  0  0  0  # atno 10167 bound_to 10162
  157.0882  130.6416  149.5842 H   0  0  0  0  0  0  0  0  0  0  0  0  # atno 10718 bound_to 10713
  154.6340  135.2890  155.0182 H   0  0  0  0  0  0  0  0  0  0  0  0  # atno 10763 bound_to 10752
  154.1332  135.6530  153.4930 H   0  0  0  0  0  0  0  0  0  0  0  0  # atno 10764 bound_to 10752
  153.0294  135.5315  154.7180 H   0  0  0  0  0  0  0  0  0  0  0  0  # atno 10765 bound_to 10752
  140.3876  134.1853  155.7663 H   0  0  0  0  0  0  0  0  0  0  0  0  # atno 11005 bound_to 11000
  146.1724  139.4880  142.9919 LP  0  0  0  0  0  0  0  0  0  0  0  0  # atno 17320 bound_to 7965
  145.6538  141.0257  143.1745 LP  0  0  0  0  0  0  0  0  0  0  0  0  # atno 17321 bound_to 7965
  139.4886  144.4443  151.9728 LP  0  0  0  0  0  0  0  0  0  0  0  0  # atno 17342 bound_to 10162
  140.3534  144.3061  150.5945 LP  0  0  0  0  0  0  0  0  0  0  0  0  # atno 17343 bound_to 10162
  155.9905  130.4956  150.7260 LP  0  0  0  0  0  0  0  0  0  0  0  0  # atno 17370 bound_to 10713
  157.4744  131.0896  151.0607 LP  0  0  0  0  0  0  0  0  0  0  0  0  # atno 17371 bound_to 10713
  141.1902  133.8222  157.0928 LP  0  0  0  0  0  0  0  0  0  0  0  0  # atno 17394 bound_to 11000
  140.0431  134.9844  157.0998 LP  0  0  0  0  0  0  0  0  0  0  0  0  # atno 17395 bound_to 11000

$$$$
