#       Name:                AV-unprocessed.smi:837
#       Creating user name   scv26
#       Creation time:       Fri Mar 27 01:35:00 2020


#       File generated by GOLD software.
#

@<TRIPOS>MOLECULE
AV-unprocessed.smi:837
    56    58     1
SMALL
NO_CHARGES


@<TRIPOS>ATOM
      1 ****         0.9329   2.1545  -0.8254 C.3            1 S1                 0.0000
      2 ****        -0.5781   2.2143  -1.1387 C.3            1 S1                 0.0000
      3 ****        -0.9680   3.6381  -1.5919 C.3            1 S1                 0.0000
      4 ****        -2.4528   3.7357  -1.9756 C.3            1 S1                 0.0000
      5 ****        -3.3579   3.2788  -0.8232 C.3            1 S1                 0.0000
      6 ****        -2.9957   1.8548  -0.3734 C.3            1 S1                 0.0000
      7 ****        -1.5044   1.7330   0.0217 C.3            1 S1                 0.0000
      8 ****        -1.2349   2.4326   1.2671 N.am           1 S1                 0.0000
      9 ****        -0.8341   1.6152   2.2492 C.2            1 S1                 0.0000
     10 ****        -0.5327   1.9703   3.3875 O.2            1 S1                 0.0000
     11 ****        -0.8129   0.3581   1.7705 N.am           1 S1                 0.0000
     12 ****        -0.3753  -0.8176   2.5325 C.3            1 S1                 0.0000
     13 ****         1.1109  -1.1337   2.3178 C.2            1 S1                 0.0000
     14 ****         1.9349  -0.2262   2.1982 O.2            1 S1                 0.0000
     15 ****         1.4390  -2.4336   2.2801 N.am           1 S1                 0.0000
     16 ****         2.7849  -2.9569   2.0646 C.3            1 S1                 0.0000
     17 ****         3.2907  -2.7527   0.6219 C.3            1 S1                 0.0000
     18 ****         2.3001  -3.1984  -0.4402 C.ar           1 S1                 0.0000
     19 ****         1.5556  -2.2549  -1.1781 C.ar           1 S1                 0.0000
     20 ****         0.6424  -2.7168  -2.1448 C.ar           1 S1                 0.0000
     21 ****         0.5129  -4.1070  -2.3340 C.ar           1 S1                 0.0000
     22 ****         1.2224  -5.0198  -1.6356 N.ar           1 S1                 0.0000
     23 ****         2.0963  -4.5680  -0.7103 C.ar           1 S1                 0.0000
     24 ****        -1.1886   0.3170   0.4849 C.2            1 S1                 0.0000
     25 ****        -1.2667  -0.6785  -0.2352 O.2            1 S1                 0.0000
     26 ****         1.1988   2.8151  -0.0000 H              1 S1                 0.0000
     27 ****         1.5206   2.4619  -1.6907 H              1 S1                 0.0000
     28 ****         1.2573   1.1482  -0.5625 H              1 S1                 0.0000
     29 ****        -0.7487   1.5509  -1.9885 H              1 S1                 0.0000
     30 ****        -0.7516   4.3528  -0.7967 H              1 S1                 0.0000
     31 ****        -0.3570   3.9370  -2.4444 H              1 S1                 0.0000
     32 ****        -2.6973   4.7611  -2.2545 H              1 S1                 0.0000
     33 ****        -2.6440   3.1217  -2.8567 H              1 S1                 0.0000
     34 ****        -3.2639   3.9693   0.0159 H              1 S1                 0.0000
     35 ****        -4.4018   3.3143  -1.1357 H              1 S1                 0.0000
     36 ****        -3.6395   1.5596   0.4570 H              1 S1                 0.0000
     37 ****        -3.2172   1.1631  -1.1879 H              1 S1                 0.0000
     38 ****        -1.3299   3.4332   1.3631 H              1 S1                 0.0000
     39 ****        -0.5456  -0.6659   3.5995 H              1 S1                 0.0000
     40 ****        -0.9823  -1.6814   2.2540 H              1 S1                 0.0000
     41 ****         0.6989  -3.1122   2.3884 H              1 S1                 0.0000
     42 ****         3.4802  -2.5133   2.7787 H              1 S1                 0.0000
     43 ****         2.7539  -4.0235   2.2880 H              1 S1                 0.0000
     44 ****         3.5304  -1.7008   0.4613 H              1 S1                 0.0000
     45 ****         4.2256  -3.2959   0.4811 H              1 S1                 0.0000
     46 ****         1.6741  -1.1960  -1.0024 H              1 S1                 0.0000
     47 ****         0.0521  -2.0215  -2.7229 H              1 S1                 0.0000
     48 ****        -0.1795  -4.4963  -3.0656 H              1 S1                 0.0000
     49 ****         2.6461  -5.3220  -0.1664 H              1 S1                 0.0000
     50 ****        -0.5777   2.9374   3.6379 LP             1 S1                 0.0000
     51 ****        -0.2426   1.2920   4.0625 LP             1 S1                 0.0000
     52 ****         1.6378   0.7278   2.2406 LP             1 S1                 0.0000
     53 ****         2.9010  -0.4432   2.0586 LP             1 S1                 0.0000
     54 ****         1.1043  -5.9993  -1.7986 LP             1 S1                 0.0000
     55 ****        -1.5525  -0.5845  -1.1889 LP             1 S1                 0.0000
     56 ****        -1.0443  -1.5810   0.1335 LP             1 S1                 0.0000
@<TRIPOS>BOND
    1    1    2 1     
    2    1   26 1     
    3    1   27 1     
    4    1   28 1     
    5    2    7 1     
    6    2    3 1     
    7    2   29 1     
    8    3    4 1     
    9    3   30 1     
   10    3   31 1     
   11    4    5 1     
   12    4   32 1     
   13    4   33 1     
   14    5    6 1     
   15    5   34 1     
   16    5   35 1     
   17    6    7 1     
   18    6   36 1     
   19    6   37 1     
   20    7   24 1     
   21    7    8 1     
   22    8    9 am    
   23    8   38 1     
   24    9   10 2     
   25    9   11 am    
   26   11   12 1     
   27   11   24 am    
   28   12   13 1     
   29   12   39 1     
   30   12   40 1     
   31   13   14 2     
   32   13   15 am    
   33   15   16 1     
   34   15   41 1     
   35   16   17 1     
   36   16   42 1     
   37   16   43 1     
   38   17   18 1     
   39   17   44 1     
   40   17   45 1     
   41   18   23 ar    
   42   18   19 ar    
   43   19   20 ar    
   44   19   46 1     
   45   20   21 ar    
   46   20   47 1     
   47   21   22 ar    
   48   21   48 1     
   49   22   23 ar    
   50   23   49 1     
   51   24   25 2     
   52   10   50 1     
   53   10   51 1     
   54   14   52 1     
   55   14   53 1     
   56   22   54 1     
   57   25   55 1     
   58   25   56 1     
@<TRIPOS>SUBSTRUCTURE
      1 S1             1
@<TRIPOS>SET
LONE_PAIRS      STATIC     ATOMS    <user>   **** ""
7 50 51 52 53 54 55 56
DONOR_HYDROGENS      STATIC     ATOMS    <user>   **** ""
2 38 41
ATOM$BLUE        STATIC     ATOMS    COLORGROUP SYSTEM
7 50 51 52 53 54 55 56
ATOM$RED        STATIC     ATOMS    COLORGROUP SYSTEM
2 38 41
