AV-unprocessed.smi:3308|AV-procd|sdf|12715|dock8
  -GOLD-   2272019 53D 1   1.00000     0.00000
 Structure written by MMmdl.
 40 41  0  0  0  0  0  0  0  0  1 V2000
  148.5575  138.8865  156.9391 C   0  0  0  0  0  0  0  0  0  0  0  0
  149.5290  140.0532  156.6902 C   0  0  1  0  0  0  0  0  0  0  0  0
  150.7833  139.6818  157.3503 N   0  0  0  0  0  0  0  0  0  0  0  0
  151.8264  140.7216  157.3241 C   0  0  0  0  0  0  0  0  0  0  0  0
  152.8178  140.6354  158.5001 C   0  0  0  0  0  0  0  0  0  0  0  0
  153.5971  139.6822  158.5396 O   0  0  0  0  0  0  0  0  0  0  0  0
  152.8078  141.5891  159.4567 N   0  0  0  0  0  0  0  0  0  0  0  0
  151.9165  142.7474  159.4177 C   0  0  0  0  0  0  0  0  0  0  0  0
  152.4203  143.6980  160.5033 C   0  0  0  0  0  0  0  0  0  0  0  0
  153.1159  142.7840  161.5013 C   0  0  0  0  0  0  0  0  0  0  0  0
  153.6590  141.6400  160.6450 C   0  0  0  0  0  0  0  0  0  0  0  0
  149.7851  140.3255  155.1811 C   0  0  1  0  0  0  0  0  0  0  0  0
  150.3239  139.0946  154.4248 C   0  0  0  0  0  0  0  0  0  0  0  0
  148.5892  140.8318  154.5160 N   0  0  0  0  0  0  0  0  0  0  0  0
  147.9765  142.0569  154.6823 C   0  0  0  0  0  0  0  0  0  0  0  0
  146.8740  142.0766  153.8770 C   0  0  0  0  0  0  0  0  0  0  0  0
  146.8913  140.8002  153.2493 C   0  0  0  0  0  0  0  0  0  0  0  0
  147.9158  140.0572  153.6342 N   0  0  0  0  0  0  0  0  0  0  0  0
  147.5561  139.1136  156.5744 H   0  0  0  0  0  0  0  0  0  0  0  0
  148.4619  138.6754  158.0051 H   0  0  0  0  0  0  0  0  0  0  0  0
  148.8940  137.9727  156.4478 H   0  0  0  0  0  0  0  0  0  0  0  0
  149.0907  140.9453  157.1395 H   0  0  0  0  0  0  0  0  0  0  0  0
  150.5873  139.3943  158.2986 H   0  0  0  0  0  0  0  0  0  0  0  0
  152.3984  140.6072  156.4035 H   0  0  0  0  0  0  0  0  0  0  0  0
  151.3464  141.6946  157.2543 H   0  0  0  0  0  0  0  0  0  0  0  0
  151.9133  143.2317  158.4399 H   0  0  0  0  0  0  0  0  0  0  0  0
  150.8993  142.4194  159.6372 H   0  0  0  0  0  0  0  0  0  0  0  0
  153.1468  144.3899  160.0752 H   0  0  0  0  0  0  0  0  0  0  0  0
  151.6214  144.2879  160.9533 H   0  0  0  0  0  0  0  0  0  0  0  0
  153.8948  143.2925  162.0701 H   0  0  0  0  0  0  0  0  0  0  0  0
  152.3839  142.3950  162.2104 H   0  0  0  0  0  0  0  0  0  0  0  0
  153.6508  140.7017  161.2012 H   0  0  0  0  0  0  0  0  0  0  0  0
  154.6841  141.8511  160.3385 H   0  0  0  0  0  0  0  0  0  0  0  0
  150.5452  141.1045  155.1008 H   0  0  0  0  0  0  0  0  0  0  0  0
  151.3149  138.8089  154.7761 H   0  0  0  0  0  0  0  0  0  0  0  0
  150.4139  139.3012  153.3578 H   0  0  0  0  0  0  0  0  0  0  0  0
  149.6667  138.2322  154.5418 H   0  0  0  0  0  0  0  0  0  0  0  0
  148.3695  142.8032  155.3569 H   0  0  0  0  0  0  0  0  0  0  0  0
  146.1617  142.8793  153.7573 H   0  0  0  0  0  0  0  0  0  0  0  0
  146.1933  140.3926  152.5330 H   0  0  0  0  0  0  0  0  0  0  0  0
  1  2  1  0  0  0  0
  1 19  1  0  0  0  0
  1 20  1  0  0  0  0
  1 21  1  0  0  0  0
  2  3  1  0  0  0  0
  2 12  1  0  0  0  0
  2 22  1  0  0  0  0
  3  4  1  0  0  0  0
  3 23  1  0  0  0  0
  4  5  1  0  0  0  0
  4 24  1  0  0  0  0
  4 25  1  0  0  0  0
  5  6  2  0  0  0  0
  5  7  1  0  0  0  0
  7 11  1  0  0  0  0
  7  8  1  0  0  0  0
  8  9  1  0  0  0  0
  8 26  1  0  0  0  0
  8 27  1  0  0  0  0
  9 10  1  0  0  0  0
  9 28  1  0  0  0  0
  9 29  1  0  0  0  0
 10 11  1  0  0  0  0
 10 30  1  0  0  0  0
 10 31  1  0  0  0  0
 11 32  1  0  0  0  0
 11 33  1  0  0  0  0
 12 13  1  0  0  0  0
 12 14  1  0  0  0  0
 12 34  1  0  0  0  0
 13 35  1  0  0  0  0
 13 36  1  0  0  0  0
 13 37  1  0  0  0  0
 14 18  1  0  0  0  0
 14 15  1  0  0  0  0
 15 16  2  0  0  0  0
 15 38  1  0  0  0  0
 16 17  1  0  0  0  0
 16 39  1  0  0  0  0
 17 18  2  0  0  0  0
 17 40  1  0  0  0  0
M  END
> <s_m_source_file>
AV-unprocessed.smi

> <i_m_source_file_index>
3308

> <i_lp_mmshare_version>
43012

> <i_f3d_flags>
0

> <s_epik_input>
bjFbY0hdW2NIXVtjSF1uMVtDQEBIXShbQ0gzXSlbQ0BIXShbQ0gzXSlbTkhdW0NIMl1DKD1PKU4yW0NIMl1bQ0gyXVtDSDJdW0NIMl0y

> <s_epik_cmdline>
J2VwaWtfcHl0aG9uJywgJy1waCcsICc3LjAnLCAnLXRuJywgJzgnLCAnLW1hJywgJzIwMCcsICctbWV0YWxfYmluZGluZycsICctaW1hZScsICc8aW5maWxlLm1hZT4nLCAnLW9tYWUnLCAnPG91dGZpbGUubWFlPic=

> <r_lp_tautomer_probability>
1

> <r_epik_Ionization_Penalty>
0.918676

> <r_epik_Ionization_Penalty_Charging>
0

> <r_epik_Ionization_Penalty_Neutral>
0.918676

> <r_epik_State_Penalty>
0.958258

> <r_epik_Charging_Adjusted_Penalty>
0.958258

> <i_epik_Tot_Q>
0

> <i_epik_Tot_abs_Q>
0

> <r_epik_Metal_State_Penalty>
0.956879

> <b_epik_Metal_Only>
0

> <s_lp_Force_Field>
OPLS_2005

> <r_lp_Energy>
35.595

> <b_lp_Chiralities_Consistent>
1

> <s_lp_Variant>
AV-unprocessed.smi:3308-8

> <Gold.Version>
5.8.1

> <Gold.Id.Protein>
6NUR|6NUR_protein|mol2

> <Gold.PLP.Fitness>
44.9870

> <Gold.PLP.PLP>
-37.1471

> <Gold.PLP.part.hbond>
-1.0000

> <Gold.PLP.part.metal>
0.0000

> <Gold.PLP.part.buried>
-3.8222

> <Gold.PLP.part.nonpolar>
-32.7683

> <Gold.PLP.part.repulsive>
1.1200

> <Gold.PLP.ligand.clash>
0.0000

> <Gold.PLP.ligand.torsion>
0.5739

> <Gold.PLP.Chemscore.Hbond>
1.0000

> <Gold.PLP.Chemscore.CHOScore>
1.9609

> <Gold.PLP.Chemscore.Metal>
0.0000

> <Gold.Chemscore.Hbonds>
donor molecule, donor type, donor heavy atom, donor atom, acceptor molecule, acceptor atom, score
      P1  H  7997  8009       L1     6  1.00
      L1  C    15    38       P1  8028  0.90
      L1  C    17    40       P1 10175  1.00

> <Gold.PLP.Chemscore.Internal.Correction>
0.1050

> <Gold.Rescore>
     Score         DG    S(hbond)    S(metal)    S(lipo)     H(rot)  DE(clash)    DE(int)     intcor
     13.68     -14.31       0.88        0.00      87.99       1.72       0.00       0.63       ----

> <Gold.Chemscore.Fitness>
13.6805

> <Gold.Chemscore.DG>
-14.3145

> <Gold.Chemscore.ZeroCoef>
-5.4800

> <Gold.Chemscore.Hbond>
0.8812

> <Gold.Chemscore.Metal>
0.0000

> <Gold.Chemscore.Lipo>
87.9870

> <Gold.Chemscore.Internal_Hbond>
0.0000

> <Gold.Chemscore.DEClash>
0.0004

> <Gold.Chemscore.DEInternal>
0.6336

> <Gold.Chemscore.Rot>
1.7200

> <Gold.Chemscore.Internal.Correction>
   9.000000E+99

> <Gold.Chemscore.Hbonds>
donor molecule, donor type, donor heavy atom, donor atom, acceptor molecule, acceptor atom, score
      P1  H  7997  8009       L1     6  0.58

> <Gold.Chemscore.Hbond.Weighted>
-2.9431

> <Gold.Chemscore.Metal.Weighted>
-0.0000

> <Gold.Chemscore.Lipo.Weighted>
-10.2945

> <Gold.Chemscore.Internal_Hbond.Weighted>
0.0000

> <Gold.Chemscore.DEClash.Weighted>
0.0004

> <Gold.Chemscore.DEInternal.Weighted>
0.6336

> <Gold.Chemscore.Rot.Weighted>
4.4031

> <Gold.Chemscore.Internal.Correction.Weighted>
   9.000000E+99

> <Gold.Protein.RotatedTorsions>
[ 6907 6896 6895 6894 ] final  174.99 input  -60.11 | X-H torsion
[ 7974 7965 7964 7962 ] final  -59.42 input  175.53 | X-H torsion
[ 8008 7997 7996 7995 ] final  129.61 input   59.86 | X-H torsion
[ 10167 10162 10161 10158 ] final -102.16 input  -65.29 | X-H torsion
[ 10718 10713 10712 10709 ] final   -7.93 input   66.30 | X-H torsion
[ 10763 10752 10751 10750 ] final  175.84 input  -60.55 | X-H torsion
[ 11005 11000 10999 10996 ] final  -82.46 input  -57.11 | X-H torsion

> <Gold.Protein.ActiveResidues>
 VAL166  LYS551  ARG553  GLY616  TRP617  ASP618  TYR619  PRO620  LYS621  CYS622 
 ASP623  PHE694  ASN695  SER759  ASP760  ASP761  ALA762  ILE779  LEU786  VAL792 
 PHE793  MET794  SER795  GLU796  ALA797  LYS798  CYS799  TRP800  GLU811  SER814 

> <Gold.Protein.RotatedAtoms>
  151.7435  133.3323  159.3371 H   0  0  0  0  0  0  0  0  0  0  0  0  # atno 6907 bound_to 6896
  150.7564  134.6257  159.6169 H   0  0  0  0  0  0  0  0  0  0  0  0  # atno 6908 bound_to 6896
  152.3515  134.7001  160.0286 H   0  0  0  0  0  0  0  0  0  0  0  0  # atno 6909 bound_to 6896
  145.8276  140.8500  143.0100 H   0  0  0  0  0  0  0  0  0  0  0  0  # atno 7974 bound_to 7965
  156.2939  140.2616  156.2628 H   0  0  0  0  0  0  0  0  0  0  0  0  # atno 8008 bound_to 7997
  154.9772  140.0390  157.2280 H   0  0  0  0  0  0  0  0  0  0  0  0  # atno 8009 bound_to 7997
  154.7805  140.2794  155.6072 H   0  0  0  0  0  0  0  0  0  0  0  0  # atno 8010 bound_to 7997
  140.2337  143.3588  152.0864 H   0  0  0  0  0  0  0  0  0  0  0  0  # atno 10167 bound_to 10162
  156.7100  130.5119  149.5894 H   0  0  0  0  0  0  0  0  0  0  0  0  # atno 10718 bound_to 10713
  154.4731  135.2772  155.1627 H   0  0  0  0  0  0  0  0  0  0  0  0  # atno 10763 bound_to 10752
  154.3368  135.6178  153.5581 H   0  0  0  0  0  0  0  0  0  0  0  0  # atno 10764 bound_to 10752
  152.9866  135.5779  154.5116 H   0  0  0  0  0  0  0  0  0  0  0  0  # atno 10765 bound_to 10752
  141.1663  133.7245  156.8574 H   0  0  0  0  0  0  0  0  0  0  0  0  # atno 11005 bound_to 11000
  144.6742  140.0625  143.7475 LP  0  0  0  0  0  0  0  0  0  0  0  0  # atno 17320 bound_to 7965
  145.9606  139.2798  143.1158 LP  0  0  0  0  0  0  0  0  0  0  0  0  # atno 17321 bound_to 7965
  139.5101  144.6879  151.5839 LP  0  0  0  0  0  0  0  0  0  0  0  0  # atno 17342 bound_to 10162
  140.6166  143.9337  150.6493 LP  0  0  0  0  0  0  0  0  0  0  0  0  # atno 17343 bound_to 10162
  156.1668  130.6410  151.0788 LP  0  0  0  0  0  0  0  0  0  0  0  0  # atno 17370 bound_to 10713
  157.6940  131.0800  150.7025 LP  0  0  0  0  0  0  0  0  0  0  0  0  # atno 17371 bound_to 10713
  140.1872  134.8991  157.3018 LP  0  0  0  0  0  0  0  0  0  0  0  0  # atno 17394 bound_to 11000
  140.2329  134.3887  155.7513 LP  0  0  0  0  0  0  0  0  0  0  0  0  # atno 17395 bound_to 11000

$$$$
