#       Name:                AV-unprocessed.smi:1766
#       Creating user name   scv26
#       Creation time:       Fri Mar 27 08:37:16 2020


#       File generated by GOLD software.
#

@<TRIPOS>MOLECULE
AV-unprocessed.smi:1766
    44    46     1
SMALL
NO_CHARGES


@<TRIPOS>ATOM
      1 ****        -0.9951   3.6553  -2.9233 N.am           1 S1                 0.0000
      2 ****        -0.0946   3.0332  -2.1570 C.2            1 S1                 0.0000
      3 ****         0.9774   2.6287  -2.6020 O.2            1 S1                 0.0000
      4 ****        -0.4398   2.8498  -0.6759 C.3            1 S1                 0.0000
      5 ****        -1.3902   1.6927  -0.5400 C.2            1 S1                 0.0000
      6 ****        -2.7134   1.8691  -0.5557 N.2            1 S1                 0.0000
      7 ****        -3.1960   0.5851  -0.3979 C.ar           1 S1                 0.0000
      8 ****        -4.5234   0.1035  -0.3362 C.ar           1 S1                 0.0000
      9 ****        -4.7757  -1.2736  -0.1659 C.ar           1 S1                 0.0000
     10 ****        -3.7070  -2.1868  -0.0554 C.ar           1 S1                 0.0000
     11 ****        -2.3771  -1.7276  -0.1146 C.ar           1 S1                 0.0000
     12 ****        -2.1310  -0.3521  -0.2849 C.ar           1 S1                 0.0000
     13 ****        -0.9711   0.4101  -0.3785 N.pl3          1 S1                 0.0000
     14 ****         0.3905  -0.1052  -0.3114 C.3            1 S1                 0.0000
     15 ****         0.8455  -0.3925   1.1333 C.3            1 S1                 0.0000
     16 ****         0.7579   0.7841   1.9138 O.3            1 S1                 0.0000
     17 ****         2.2412  -0.9951   1.1630 C.ar           1 S1                 0.0000
     18 ****         2.4104  -2.3753   1.4051 C.ar           1 S1                 0.0000
     19 ****         3.7011  -2.9391   1.4288 C.ar           1 S1                 0.0000
     20 ****         4.8297  -2.1267   1.2075 C.ar           1 S1                 0.0000
     21 ****         6.0701  -2.6692   1.2309 F              1 S1                 0.0000
     22 ****         4.6669  -0.7501   0.9604 C.ar           1 S1                 0.0000
     23 ****         3.3766  -0.1857   0.9372 C.ar           1 S1                 0.0000
     24 ****        -0.8109   3.7877  -3.9072 H              1 S1                 0.0000
     25 ****        -1.8608   3.9820  -2.5187 H              1 S1                 0.0000
     26 ****         0.4618   2.6844  -0.0862 H              1 S1                 0.0000
     27 ****        -0.9080   3.7554  -0.2874 H              1 S1                 0.0000
     28 ****        -5.3487   0.7949  -0.4194 H              1 S1                 0.0000
     29 ****        -5.7940  -1.6306  -0.1195 H              1 S1                 0.0000
     30 ****        -3.9089  -3.2399   0.0751 H              1 S1                 0.0000
     31 ****        -1.5559  -2.4238  -0.0294 H              1 S1                 0.0000
     32 ****         0.4298  -1.0228  -0.8996 H              1 S1                 0.0000
     33 ****         1.0730   0.5890  -0.7994 H              1 S1                 0.0000
     34 ****         0.1552  -1.1098   1.5793 H              1 S1                 0.0000
     35 ****         0.9458   0.5618   2.8129 H              1 S1                 0.0000
     36 ****         1.5513  -3.0082   1.5730 H              1 S1                 0.0000
     37 ****         3.8254  -3.9955   1.6158 H              1 S1                 0.0000
     38 ****         5.5316  -0.1267   0.7872 H              1 S1                 0.0000
     39 ****         3.2604   0.8708   0.7434 H              1 S1                 0.0000
     40 ****         1.1997   2.7611  -3.5680 LP             1 S1                 0.0000
     41 ****         1.6272   2.1671  -1.9981 LP             1 S1                 0.0000
     42 ****        -3.2279   2.7206  -0.6568 LP             1 S1                 0.0000
     43 ****        -0.1638   1.1660   1.8462 LP             1 S1                 0.0000
     44 ****         1.4220   1.4563   1.5865 LP             1 S1                 0.0000
@<TRIPOS>BOND
    1    1    2 am    
    2    1   24 1     
    3    1   25 1     
    4    2    3 2     
    5    2    4 1     
    6    4    5 1     
    7    4   26 1     
    8    4   27 1     
    9    5   13 1     
   10    5    6 2     
   11    6    7 1     
   12    7   12 ar    
   13    7    8 ar    
   14    8    9 ar    
   15    8   28 1     
   16    9   10 ar    
   17    9   29 1     
   18   10   11 ar    
   19   10   30 1     
   20   11   12 ar    
   21   11   31 1     
   22   12   13 1     
   23   13   14 1     
   24   14   15 1     
   25   14   32 1     
   26   14   33 1     
   27   15   16 1     
   28   15   17 1     
   29   15   34 1     
   30   16   35 1     
   31   17   23 ar    
   32   17   18 ar    
   33   18   19 ar    
   34   18   36 1     
   35   19   20 ar    
   36   19   37 1     
   37   20   21 1     
   38   20   22 ar    
   39   22   23 ar    
   40   22   38 1     
   41   23   39 1     
   42    3   40 1     
   43    3   41 1     
   44    6   42 1     
   45   16   43 1     
   46   16   44 1     
@<TRIPOS>SUBSTRUCTURE
      1 S1             1
@<TRIPOS>SET
LONE_PAIRS      STATIC     ATOMS    <user>   **** ""
5 40 41 42 43 44
DONOR_HYDROGENS      STATIC     ATOMS    <user>   **** ""
3 24 25 35
ATOM$BLUE        STATIC     ATOMS    COLORGROUP SYSTEM
5 40 41 42 43 44
ATOM$RED        STATIC     ATOMS    COLORGROUP SYSTEM
3 24 25 35
