AV-unprocessed.smi:1521|AV-procd|sdf|6132|dock10
  -GOLD-   22720 6273D 1   1.00000     0.00000
 Structure written by MMmdl.
 35 36  0  0  0  0  0  0  0  0  2 V2000
  145.6426  138.4088  153.7074 O   0  0  0  0  0  0  0  0  0  0  0  0
  146.5750  137.8272  153.1523 C   0  0  0  0  0  0  0  0  0  0  0  0
  146.4129  136.7255  152.4066 N   0  0  0  0  0  0  0  0  0  0  0  0
  145.1358  136.0747  152.1368 C   0  0  0  0  0  0  0  0  0  0  0  0
  145.3033  134.8723  151.1930 C   0  0  2  0  0  0  0  0  0  0  0  0
  144.0650  133.9541  151.2078 C   0  0  0  0  0  0  0  0  0  0  0  0
  144.2986  132.8320  150.3667 O   0  0  0  0  0  0  0  0  0  0  0  0
  145.4252  132.0849  150.8044 C   0  0  0  0  0  0  0  0  0  0  0  0
  146.6646  132.9941  150.7842 C   0  0  0  0  0  0  0  0  0  0  0  0
  146.4275  134.1132  151.6274 O   0  0  0  0  0  0  0  0  0  0  0  0
  147.8675  138.1980  153.1815 N   0  0  0  0  0  0  0  0  0  0  0  0
  148.4711  139.2680  153.8632 C   0  0  0  0  0  0  0  0  0  0  0  0
  149.6309  139.1810  154.5720 C   0  0  0  0  0  0  0  0  0  0  0  0
  150.2210  140.3308  155.2461 C   0  0  0  0  0  0  0  0  0  0  0  0
  151.4602  140.2530  156.1196 C   0  0  0  0  0  0  0  0  0  0  0  0
  151.7689  141.4489  156.6213 F   0  0  0  0  0  0  0  0  0  0  0  0
  151.2797  139.4054  157.1327 F   0  0  0  0  0  0  0  0  0  0  0  0
  152.4961  139.8254  155.3992 F   0  0  0  0  0  0  0  0  0  0  0  0
  149.4668  141.4769  155.0844 C   0  0  0  0  0  0  0  0  0  0  0  0
  148.3282  141.6540  154.3790 N   0  5  0  0  0  0  0  0  0  0  0  0
  147.7881  140.5732  153.7481 C   0  0  0  0  0  0  0  0  0  0  0  0
  146.7517  140.6636  153.0889 O   0  0  0  0  0  0  0  0  0  0  0  0
  147.2306  136.3178  151.9776 H   0  0  0  0  0  0  0  0  0  0  0  0
  144.7081  135.7496  153.0856 H   0  0  0  0  0  0  0  0  0  0  0  0
  144.4339  136.7948  151.7131 H   0  0  0  0  0  0  0  0  0  0  0  0
  145.4747  135.2297  150.1757 H   0  0  0  0  0  0  0  0  0  0  0  0
  143.8357  133.6209  152.2212 H   0  0  0  0  0  0  0  0  0  0  0  0
  143.1904  134.4915  150.8408 H   0  0  0  0  0  0  0  0  0  0  0  0
  145.2497  131.6886  151.8058 H   0  0  0  0  0  0  0  0  0  0  0  0
  145.5683  131.2318  150.1409 H   0  0  0  0  0  0  0  0  0  0  0  0
  147.5385  132.4533  151.1476 H   0  0  0  0  0  0  0  0  0  0  0  0
  146.8891  133.3256  149.7692 H   0  0  0  0  0  0  0  0  0  0  0  0
  148.5017  137.6619  152.6076 H   0  0  0  0  0  0  0  0  0  0  0  0
  150.1683  138.2494  154.6389 H   0  0  0  0  0  0  0  0  0  0  0  0
  149.8337  142.3894  155.6009 H   0  0  0  0  0  0  0  0  0  0  0  0
  1  2  2  0  0  0  0
  2  3  1  0  0  0  0
  2 11  1  0  0  0  0
  3  4  1  0  0  0  0
  3 23  1  0  0  0  0
  4  5  1  0  0  0  0
  4 24  1  0  0  0  0
  4 25  1  0  0  0  0
  5 10  1  0  0  0  0
  5  6  1  0  0  0  0
  5 26  1  0  0  0  0
  6  7  1  0  0  0  0
  6 27  1  0  0  0  0
  6 28  1  0  0  0  0
  7  8  1  0  0  0  0
  8  9  1  0  0  0  0
  8 29  1  0  0  0  0
  8 30  1  0  0  0  0
  9 10  1  0  0  0  0
  9 31  1  0  0  0  0
  9 32  1  0  0  0  0
 11 12  1  0  0  0  0
 11 33  1  0  0  0  0
 12 21  1  0  0  0  0
 12 13  2  0  0  0  0
 13 14  1  0  0  0  0
 13 34  1  0  0  0  0
 14 15  1  0  0  0  0
 14 19  2  0  0  0  0
 15 16  1  0  0  0  0
 15 17  1  0  0  0  0
 15 18  1  0  0  0  0
 19 20  1  0  0  0  0
 19 35  1  0  0  0  0
 20 21  1  0  0  0  0
 21 22  2  0  0  0  0
M  CHG  1  20  -1
M  END
> <s_m_source_file>
AV-unprocessed.smi

> <i_m_source_file_index>
1521

> <i_lp_mmshare_version>
43012

> <i_f3d_flags>
0

> <s_epik_input>
Tz1jMVtuSF1bY0hdYyhDKEYpKEYpRilbY0hdYzFbTkhdQyg9TylbTkhdW0NIMl1bQ0BASF0yW0NIMl1PW0NIMl1bQ0gyXU8y

> <s_epik_cmdline>
J2VwaWtfcHl0aG9uJywgJy1waCcsICc3LjAnLCAnLXRuJywgJzgnLCAnLW1hJywgJzIwMCcsICctbWV0YWxfYmluZGluZycsICctaW1hZScsICc8aW5maWxlLm1hZT4nLCAnLW9tYWUnLCAnPG91dGZpbGUubWFlPic=

> <r_lp_tautomer_probability>
1

> <r_epik_Ionization_Penalty>
3.1412

> <r_epik_Ionization_Penalty_Charging>
0.17015

> <r_epik_Ionization_Penalty_Neutral>
2.97105

> <r_epik_State_Penalty>
2.96707

> <r_epik_Charging_Adjusted_Penalty>
3.13722

> <i_epik_Tot_Q>
-1

> <i_epik_Tot_abs_Q>
1

> <r_epik_Metal_State_Penalty>
0.451298

> <b_epik_Metal_Only>
1

> <s_lp_Force_Field>
OPLS_2005

> <r_lp_Energy>
20.4323

> <b_lp_Chiralities_Consistent>
1

> <s_lp_Variant>
AV-unprocessed.smi:1521-3

> <Gold.Version>
5.8.1

> <Gold.Id.Protein>
6NUR|6NUR_protein|mol2

> <Gold.PLP.Fitness>
37.8875

> <Gold.PLP.PLP>
-32.9260

> <Gold.PLP.part.hbond>
-2.4974

> <Gold.PLP.part.metal>
0.0000

> <Gold.PLP.part.buried>
-3.1586

> <Gold.PLP.part.nonpolar>
-29.9501

> <Gold.PLP.part.repulsive>
2.0901

> <Gold.PLP.ligand.clash>
0.0000

> <Gold.PLP.ligand.torsion>
0.5344

> <Gold.PLP.Chemscore.Hbond>
1.9920

> <Gold.PLP.Chemscore.CHOScore>
0.0000

> <Gold.PLP.Chemscore.Metal>
0.0000

> <Gold.Chemscore.Hbonds>
donor molecule, donor type, donor heavy atom, donor atom, acceptor molecule, acceptor atom, score
      L1  H     3    23       P1  7948  1.00
      L1  H    11    33       P1  7948  1.00

> <Gold.PLP.Chemscore.Internal.Correction>
0.0543

> <Gold.Rescore>
     Score         DG    S(hbond)    S(metal)    S(lipo)     H(rot)  DE(clash)    DE(int)     intcor
     10.94     -15.31       1.96        0.00      57.88       1.36       0.11       4.25       ----

> <Gold.Chemscore.Fitness>
10.9429

> <Gold.Chemscore.DG>
-15.3112

> <Gold.Chemscore.ZeroCoef>
-5.4800

> <Gold.Chemscore.Hbond>
1.9614

> <Gold.Chemscore.Metal>
0.0000

> <Gold.Chemscore.Lipo>
57.8802

> <Gold.Chemscore.Internal_Hbond>
0.0000

> <Gold.Chemscore.DEClash>
0.1144

> <Gold.Chemscore.DEInternal>
4.2540

> <Gold.Chemscore.Rot>
1.3640

> <Gold.Chemscore.Internal.Correction>
   9.000000E+99

> <Gold.Chemscore.Hbonds>
donor molecule, donor type, donor heavy atom, donor atom, acceptor molecule, acceptor atom, score
      L1  H     3    23       P1  7948  0.94
      L1  H    11    33       P1  7948  0.97

> <Gold.Chemscore.Hbond.Weighted>
-6.5510

> <Gold.Chemscore.Metal.Weighted>
-0.0000

> <Gold.Chemscore.Lipo.Weighted>
-6.7720

> <Gold.Chemscore.Internal_Hbond.Weighted>
0.0000

> <Gold.Chemscore.DEClash.Weighted>
0.1144

> <Gold.Chemscore.DEInternal.Weighted>
4.2540

> <Gold.Chemscore.Rot.Weighted>
3.4918

> <Gold.Chemscore.Internal.Correction.Weighted>
   9.000000E+99

> <Gold.Protein.RotatedTorsions>
[ 6907 6896 6895 6894 ] final  119.91 input  -60.11 | X-H torsion
[ 7974 7965 7964 7962 ] final  -73.01 input  175.53 | X-H torsion
[ 8008 7997 7996 7995 ] final -157.45 input   59.86 | X-H torsion
[ 10167 10162 10161 10158 ] final  167.69 input  -65.29 | X-H torsion
[ 10718 10713 10712 10709 ] final  164.41 input   66.30 | X-H torsion
[ 10763 10752 10751 10750 ] final  138.29 input  -60.55 | X-H torsion
[ 11005 11000 10999 10996 ] final -161.70 input  -57.11 | X-H torsion

> <Gold.Protein.ActiveResidues>
 VAL166  LYS551  ARG553  GLY616  TRP617  ASP618  TYR619  PRO620  LYS621  CYS622 
 ASP623  PHE694  ASN695  SER759  ASP760  ASP761  ALA762  ILE779  LEU786  VAL792 
 PHE793  MET794  SER795  GLU796  ALA797  LYS798  CYS799  TRP800  GLU811  SER814 

> <Gold.Protein.RotatedAtoms>
  152.4437  133.7495  159.6685 H   0  0  0  0  0  0  0  0  0  0  0  0  # atno 6907 bound_to 6896
  150.8332  133.8046  159.3096 H   0  0  0  0  0  0  0  0  0  0  0  0  # atno 6908 bound_to 6896
  151.5693  135.1065  160.0043 H   0  0  0  0  0  0  0  0  0  0  0  0  # atno 6909 bound_to 6896
  145.6577  140.9262  143.0950 H   0  0  0  0  0  0  0  0  0  0  0  0  # atno 7974 bound_to 7965
  155.7327  140.0804  157.2281 H   0  0  0  0  0  0  0  0  0  0  0  0  # atno 8008 bound_to 7997
  154.4031  140.1592  156.2581 H   0  0  0  0  0  0  0  0  0  0  0  0  # atno 8009 bound_to 7997
  155.9094  140.3405  155.6090 H   0  0  0  0  0  0  0  0  0  0  0  0  # atno 8010 bound_to 7997
  139.4951  144.3895  151.9533 H   0  0  0  0  0  0  0  0  0  0  0  0  # atno 10167 bound_to 10162
  157.0947  131.0427  151.2523 H   0  0  0  0  0  0  0  0  0  0  0  0  # atno 10718 bound_to 10713
  153.8872  135.3037  155.3446 H   0  0  0  0  0  0  0  0  0  0  0  0  # atno 10763 bound_to 10752
  154.7734  135.4874  153.9697 H   0  0  0  0  0  0  0  0  0  0  0  0  # atno 10764 bound_to 10752
  153.1318  135.6805  153.9264 H   0  0  0  0  0  0  0  0  0  0  0  0  # atno 10765 bound_to 10752
  140.6175  134.4785  157.5221 H   0  0  0  0  0  0  0  0  0  0  0  0  # atno 11005 bound_to 11000
  144.7100  139.8409  143.7418 LP  0  0  0  0  0  0  0  0  0  0  0  0  # atno 17320 bound_to 7965
  146.1151  139.4161  143.0263 LP  0  0  0  0  0  0  0  0  0  0  0  0  # atno 17321 bound_to 7965
  140.3332  144.3291  150.5983 LP  0  0  0  0  0  0  0  0  0  0  0  0  # atno 17342 bound_to 10162
  140.5627  143.2190  151.7736 LP  0  0  0  0  0  0  0  0  0  0  0  0  # atno 17343 bound_to 10162
  157.4692  130.7698  149.7307 LP  0  0  0  0  0  0  0  0  0  0  0  0  # atno 17370 bound_to 10713
  155.9889  130.3956  150.3098 LP  0  0  0  0  0  0  0  0  0  0  0  0  # atno 17371 bound_to 10713
  139.9167  134.8232  156.1343 LP  0  0  0  0  0  0  0  0  0  0  0  0  # atno 17394 bound_to 11000
  141.0766  133.6773  156.2248 LP  0  0  0  0  0  0  0  0  0  0  0  0  # atno 17395 bound_to 11000

$$$$
