AV-unprocessed.smi:1567|AV-procd|sdf|6307|dock3
  -GOLD-   22720 6503D 1   1.00000     0.00000
 Structure written by MMmdl.
 42 44  0  0  0  0  0  0  0  0  1 V2000
  153.7702  136.0373  160.4926 O   0  0  0  0  0  0  0  0  0  0  0  0
  154.4152  136.5645  159.3540 C   0  0  0  0  0  0  0  0  0  0  0  0
  154.2614  138.0926  159.3316 C   0  0  0  0  0  0  0  0  0  0  0  0
  152.8341  138.5830  159.6374 C   0  0  0  0  0  0  0  0  0  0  0  0
  152.6269  140.0492  159.3723 C   0  0  0  0  0  0  0  0  0  0  0  0
  153.1977  140.9768  160.1429 N   0  0  0  0  0  0  0  0  0  0  0  0
  152.7785  142.1586  159.5664 C   0  0  0  0  0  0  0  0  0  0  0  0
  153.0337  143.4996  159.9323 C   0  0  0  0  0  0  0  0  0  0  0  0
  152.4914  144.5607  159.1781 C   0  0  0  0  0  0  0  0  0  0  0  0
  151.6892  144.2963  158.0493 C   0  0  0  0  0  0  0  0  0  0  0  0
  151.4242  142.9671  157.6673 C   0  0  0  0  0  0  0  0  0  0  0  0
  151.9667  141.9110  158.4244 C   0  0  0  0  0  0  0  0  0  0  0  0
  151.9049  140.5237  158.3226 N   0  0  0  0  0  0  0  0  0  0  0  0
  151.2075  139.7784  157.2819 C   0  0  0  0  0  0  0  0  0  0  0  0
  151.2818  140.4587  155.9013 C   0  0  1  0  0  0  0  0  0  0  0  0
  152.3880  139.9578  155.1743 O   0  0  0  0  0  0  0  0  0  0  0  0
  149.9714  140.3072  155.1418 C   0  0  0  0  0  0  0  0  0  0  0  0
  149.1324  141.4257  154.9380 C   0  0  0  0  0  0  0  0  0  0  0  0
  147.9238  141.2896  154.2285 C   0  0  0  0  0  0  0  0  0  0  0  0
  147.1257  142.3667  154.0392 F   0  0  0  0  0  0  0  0  0  0  0  0
  147.5459  140.0344  153.7151 C   0  0  0  0  0  0  0  0  0  0  0  0
  148.3799  138.9169  153.9087 C   0  0  0  0  0  0  0  0  0  0  0  0
  149.5906  139.0511  154.6166 C   0  0  0  0  0  0  0  0  0  0  0  0
  150.3854  137.9668  154.7849 F   0  0  0  0  0  0  0  0  0  0  0  0
  154.2335  136.3284  161.2632 H   0  0  0  0  0  0  0  0  0  0  0  0
  155.4679  136.2854  159.3914 H   0  0  0  0  0  0  0  0  0  0  0  0
  153.9820  136.1116  158.4616 H   0  0  0  0  0  0  0  0  0  0  0  0
  154.9575  138.5407  160.0421 H   0  0  0  0  0  0  0  0  0  0  0  0
  154.5557  138.4636  158.3490 H   0  0  0  0  0  0  0  0  0  0  0  0
  152.1238  138.0291  159.0228 H   0  0  0  0  0  0  0  0  0  0  0  0
  152.5929  138.3357  160.6695 H   0  0  0  0  0  0  0  0  0  0  0  0
  153.6472  143.7118  160.7952 H   0  0  0  0  0  0  0  0  0  0  0  0
  152.6918  145.5819  159.4668 H   0  0  0  0  0  0  0  0  0  0  0  0
  151.2768  145.1143  157.4769 H   0  0  0  0  0  0  0  0  0  0  0  0
  150.8078  142.7627  156.8046 H   0  0  0  0  0  0  0  0  0  0  0  0
  151.6374  138.7777  157.2266 H   0  0  0  0  0  0  0  0  0  0  0  0
  150.1711  139.6329  157.5865 H   0  0  0  0  0  0  0  0  0  0  0  0
  151.4733  141.5200  156.0429 H   0  0  0  0  0  0  0  0  0  0  0  0
  152.2857  139.0234  155.0768 H   0  0  0  0  0  0  0  0  0  0  0  0
  149.4147  142.3949  155.3229 H   0  0  0  0  0  0  0  0  0  0  0  0
  146.6190  139.9296  153.1707 H   0  0  0  0  0  0  0  0  0  0  0  0
  148.0917  137.9550  153.5112 H   0  0  0  0  0  0  0  0  0  0  0  0
  1  2  1  0  0  0  0
  1 25  1  0  0  0  0
  2  3  1  0  0  0  0
  2 26  1  0  0  0  0
  2 27  1  0  0  0  0
  3  4  1  0  0  0  0
  3 28  1  0  0  0  0
  3 29  1  0  0  0  0
  4  5  1  0  0  0  0
  4 30  1  0  0  0  0
  4 31  1  0  0  0  0
  5 13  1  0  0  0  0
  5  6  2  0  0  0  0
  6  7  1  0  0  0  0
  7 12  2  0  0  0  0
  7  8  1  0  0  0  0
  8  9  2  0  0  0  0
  8 32  1  0  0  0  0
  9 10  1  0  0  0  0
  9 33  1  0  0  0  0
 10 11  2  0  0  0  0
 10 34  1  0  0  0  0
 11 12  1  0  0  0  0
 11 35  1  0  0  0  0
 12 13  1  0  0  0  0
 13 14  1  0  0  0  0
 14 15  1  0  0  0  0
 14 36  1  0  0  0  0
 14 37  1  0  0  0  0
 15 16  1  0  0  0  0
 15 17  1  0  0  0  0
 15 38  1  0  0  0  0
 16 39  1  0  0  0  0
 17 23  1  0  0  0  0
 17 18  2  0  0  0  0
 18 19  1  0  0  0  0
 18 40  1  0  0  0  0
 19 20  1  0  0  0  0
 19 21  2  0  0  0  0
 21 22  1  0  0  0  0
 21 41  1  0  0  0  0
 22 23  2  0  0  0  0
 22 42  1  0  0  0  0
 23 24  1  0  0  0  0
M  END
> <s_m_source_file>
AV-unprocessed.smi

> <i_m_source_file_index>
1567

> <i_lp_mmshare_version>
43012

> <i_f3d_flags>
0

> <s_epik_input>
W09IXVtDSDJdW0NIMl1bQ0gyXWMobjEpbihjKGMxMilbY0hdW2NIXVtjSF1bY0hdMilbQ0gyXVtDQEhdKFtPSF0pYzNbY0hdYyhGKVtjSF1bY0hdYzNG

> <s_epik_cmdline>
J2VwaWtfcHl0aG9uJywgJy1waCcsICc3LjAnLCAnLXRuJywgJzgnLCAnLW1hJywgJzIwMCcsICctbWV0YWxfYmluZGluZycsICctaW1hZScsICc8aW5maWxlLm1hZT4nLCAnLW9tYWUnLCAnPG91dGZpbGUubWFlPic=

> <r_epik_Ionization_Penalty>
0.182562

> <r_epik_Ionization_Penalty_Charging>
0

> <r_epik_Ionization_Penalty_Neutral>
0.182562

> <r_epik_State_Penalty>
0.172086

> <r_epik_Charging_Adjusted_Penalty>
0.172086

> <i_epik_Tot_Q>
0

> <i_epik_Tot_abs_Q>
0

> <r_epik_Metal_State_Penalty>
0.000199649

> <b_epik_Metal_Only>
0

> <s_lp_Force_Field>
OPLS_2005

> <r_lp_Energy>
10.1612

> <b_lp_Chiralities_Consistent>
1

> <s_lp_Variant>
AV-unprocessed.smi:1567-2

> <Gold.Version>
5.8.1

> <Gold.Id.Protein>
6NUR|6NUR_protein|mol2

> <Gold.PLP.Fitness>
57.9204

> <Gold.PLP.PLP>
-53.7928

> <Gold.PLP.part.hbond>
-2.8897

> <Gold.PLP.part.metal>
0.0000

> <Gold.PLP.part.buried>
-4.3021

> <Gold.PLP.part.nonpolar>
-46.5569

> <Gold.PLP.part.repulsive>
0.0000

> <Gold.PLP.ligand.clash>
0.0000

> <Gold.PLP.ligand.torsion>
1.1709

> <Gold.PLP.Chemscore.Hbond>
2.1208

> <Gold.PLP.Chemscore.CHOScore>
0.0000

> <Gold.PLP.Chemscore.Metal>
0.0000

> <Gold.Chemscore.Hbonds>
donor molecule, donor type, donor heavy atom, donor atom, acceptor molecule, acceptor atom, score
      P1  H  6896  6909       L1     1  1.00
      P1  H  7989  7998       L1    16  0.33
      P1  H  7997  8010       L1    16  0.62

> <Gold.PLP.Chemscore.Internal.Correction>
0.1070

> <Gold.Rescore>
     Score         DG    S(hbond)    S(metal)    S(lipo)     H(rot)  DE(clash)    DE(int)     intcor
     16.65     -19.34       1.88        0.00     135.30       3.23       0.19       2.50       ----

> <Gold.Chemscore.Fitness>
16.6496

> <Gold.Chemscore.DG>
-19.3391

> <Gold.Chemscore.ZeroCoef>
-5.4800

> <Gold.Chemscore.Hbond>
1.8841

> <Gold.Chemscore.Metal>
0.0000

> <Gold.Chemscore.Lipo>
135.3006

> <Gold.Chemscore.Internal_Hbond>
0.0000

> <Gold.Chemscore.DEClash>
0.1929

> <Gold.Chemscore.DEInternal>
2.4966

> <Gold.Chemscore.Rot>
3.2281

> <Gold.Chemscore.Internal.Correction>
   9.000000E+99

> <Gold.Chemscore.Hbonds>
donor molecule, donor type, donor heavy atom, donor atom, acceptor molecule, acceptor atom, score
      P1  H  6896  6909       L1     1  0.85
      P1  H  7989  7998       L1    16  0.01
      P1  H  7997  8010       L1    16  0.26

> <Gold.Chemscore.Hbond.Weighted>
-6.2928

> <Gold.Chemscore.Metal.Weighted>
-0.0000

> <Gold.Chemscore.Lipo.Weighted>
-15.8302

> <Gold.Chemscore.Internal_Hbond.Weighted>
0.0000

> <Gold.Chemscore.DEClash.Weighted>
0.1929

> <Gold.Chemscore.DEInternal.Weighted>
2.4966

> <Gold.Chemscore.Rot.Weighted>
8.2639

> <Gold.Chemscore.Internal.Correction.Weighted>
   9.000000E+99

> <Gold.Protein.RotatedTorsions>
[ 6907 6896 6895 6894 ] final  168.37 input  -60.11 | X-H torsion
[ 7974 7965 7964 7962 ] final   98.37 input  175.53 | X-H torsion
[ 8008 7997 7996 7995 ] final   95.34 input   59.86 | X-H torsion
[ 10167 10162 10161 10158 ] final -158.66 input  -65.29 | X-H torsion
[ 10718 10713 10712 10709 ] final   95.19 input   66.30 | X-H torsion
[ 10763 10752 10751 10750 ] final  -41.15 input  -60.55 | X-H torsion
[ 11005 11000 10999 10996 ] final  155.41 input  -57.11 | X-H torsion

> <Gold.Protein.ActiveResidues>
 VAL166  LYS551  ARG553  GLY616  TRP617  ASP618  TYR619  PRO620  LYS621  CYS622 
 ASP623  PHE694  ASN695  SER759  ASP760  ASP761  ALA762  ILE779  LEU786  VAL792 
 PHE793  MET794  SER795  GLU796  ALA797  LYS798  CYS799  TRP800  GLU811  SER814 

> <Gold.Protein.RotatedAtoms>
  151.8486  133.3436  159.3665 H   0  0  0  0  0  0  0  0  0  0  0  0  # atno 6907 bound_to 6896
  150.7213  134.5321  159.5715 H   0  0  0  0  0  0  0  0  0  0  0  0  # atno 6908 bound_to 6896
  152.2810  134.7829  160.0447 H   0  0  0  0  0  0  0  0  0  0  0  0  # atno 6909 bound_to 6896
  145.4131  139.2331  143.3237 H   0  0  0  0  0  0  0  0  0  0  0  0  # atno 7974 bound_to 7965
  156.0678  140.3288  155.7539 H   0  0  0  0  0  0  0  0  0  0  0  0  # atno 8008 bound_to 7997
  155.5354  140.0597  157.2898 H   0  0  0  0  0  0  0  0  0  0  0  0  # atno 8009 bound_to 7997
  154.4514  140.1920  156.0525 H   0  0  0  0  0  0  0  0  0  0  0  0  # atno 8010 bound_to 7997
  139.6675  143.9804  152.2263 H   0  0  0  0  0  0  0  0  0  0  0  0  # atno 10167 bound_to 10162
  157.6941  131.0537  150.4301 H   0  0  0  0  0  0  0  0  0  0  0  0  # atno 10718 bound_to 10713
  153.9577  135.6743  153.4745 H   0  0  0  0  0  0  0  0  0  0  0  0  # atno 10763 bound_to 10752
  153.0853  135.4902  154.8581 H   0  0  0  0  0  0  0  0  0  0  0  0  # atno 10764 bound_to 10752
  154.7290  135.3134  154.8883 H   0  0  0  0  0  0  0  0  0  0  0  0  # atno 10765 bound_to 10752
  140.1579  134.8630  157.2537 H   0  0  0  0  0  0  0  0  0  0  0  0  # atno 11005 bound_to 11000
  146.2695  140.4845  142.8820 LP  0  0  0  0  0  0  0  0  0  0  0  0  # atno 17320 bound_to 7965
  144.8295  140.6684  143.6300 LP  0  0  0  0  0  0  0  0  0  0  0  0  # atno 17321 bound_to 7965
  139.9559  144.6590  150.8126 LP  0  0  0  0  0  0  0  0  0  0  0  0  # atno 17342 bound_to 10162
  140.7605  143.3152  151.2749 LP  0  0  0  0  0  0  0  0  0  0  0  0  # atno 17343 bound_to 10162
  156.4669  130.4044  149.6542 LP  0  0  0  0  0  0  0  0  0  0  0  0  # atno 17370 bound_to 10713
  156.3637  130.7494  151.2470 LP  0  0  0  0  0  0  0  0  0  0  0  0  # atno 17371 bound_to 10713
  140.2525  134.3666  155.7436 LP  0  0  0  0  0  0  0  0  0  0  0  0  # atno 17394 bound_to 11000
  141.2206  133.7325  156.8958 LP  0  0  0  0  0  0  0  0  0  0  0  0  # atno 17395 bound_to 11000

$$$$
