AV-unprocessed.smi:3276|AV-procd|sdf|12534|dock4
  -GOLD-   2272018453D 1   1.00000     0.00000
 Structure written by MMmdl.
 39 40  0  0  0  0  0  0  0  0  1 V2000
  146.7092  143.0407  153.4642 C   0  0  0  0  0  0  0  0  0  0  0  0
  147.5916  141.8266  153.6610 C   0  0  0  0  0  0  0  0  0  0  0  0
  148.6950  141.8500  154.5403 C   0  0  0  0  0  0  0  0  0  0  0  0
  149.4823  140.7669  154.7162 N   0  0  0  0  0  0  0  0  0  0  0  0
  149.1637  139.6591  154.0075 C   0  0  0  0  0  0  0  0  0  0  0  0
  150.0608  138.4519  154.2156 C   0  0  0  0  0  0  0  0  0  0  0  0
  148.0577  139.6302  153.1200 C   0  0  0  0  0  0  0  0  0  0  0  0
  147.7563  138.4629  152.4029 N   0  0  0  0  0  0  0  0  0  0  0  0
  146.8076  138.5048  151.2993 C   0  0  0  0  0  0  0  0  0  0  0  0
  145.5892  137.6196  151.5797 C   0  0  0  0  0  0  0  0  0  0  0  0
  145.8724  136.3045  151.1328 O   0  0  0  0  0  0  0  0  0  0  0  0
  144.7514  135.4391  151.2027 C   0  0  0  0  0  0  0  0  0  0  0  0
  145.1213  134.0687  150.6178 C   0  0  2  0  0  0  0  0  0  0  0  0
  143.9973  133.0292  150.6351 C   0  0  0  0  0  0  0  0  0  0  0  0
  144.7785  131.7368  150.7056 C   0  0  0  0  0  0  0  0  0  0  0  0
  145.9298  132.1274  151.6271 C   0  0  0  0  0  0  0  0  0  0  0  0
  146.2158  133.4894  151.3246 O   0  0  0  0  0  0  0  0  0  0  0  0
  147.2713  140.7217  152.9519 N   0  0  0  0  0  0  0  0  0  0  0  0
  146.9847  143.8425  154.1501 H   0  0  0  0  0  0  0  0  0  0  0  0
  145.6642  142.7848  153.6418 H   0  0  0  0  0  0  0  0  0  0  0  0
  146.8047  143.4157  152.4448 H   0  0  0  0  0  0  0  0  0  0  0  0
  148.9487  142.7358  155.1038 H   0  0  0  0  0  0  0  0  0  0  0  0
  150.4985  138.1358  153.2684 H   0  0  0  0  0  0  0  0  0  0  0  0
  149.4866  137.6204  154.6248 H   0  0  0  0  0  0  0  0  0  0  0  0
  150.8754  138.6733  154.9066 H   0  0  0  0  0  0  0  0  0  0  0  0
  148.4017  137.6873  152.4435 H   0  0  0  0  0  0  0  0  0  0  0  0
  146.4830  139.5364  151.1581 H   0  0  0  0  0  0  0  0  0  0  0  0
  147.2937  138.1885  150.3756 H   0  0  0  0  0  0  0  0  0  0  0  0
  145.3471  137.6254  152.6439 H   0  0  0  0  0  0  0  0  0  0  0  0
  144.7223  138.0078  151.0433 H   0  0  0  0  0  0  0  0  0  0  0  0
  144.4389  135.3201  152.2411 H   0  0  0  0  0  0  0  0  0  0  0  0
  143.9109  135.8673  150.6544 H   0  0  0  0  0  0  0  0  0  0  0  0
  145.4550  134.2015  149.5875 H   0  0  0  0  0  0  0  0  0  0  0  0
  143.3777  133.1295  151.5272 H   0  0  0  0  0  0  0  0  0  0  0  0
  143.3473  133.0914  149.7619 H   0  0  0  0  0  0  0  0  0  0  0  0
  144.1923  130.8998  151.0857 H   0  0  0  0  0  0  0  0  0  0  0  0
  145.1576  131.4713  149.7179 H   0  0  0  0  0  0  0  0  0  0  0  0
  145.6187  132.0618  152.6705 H   0  0  0  0  0  0  0  0  0  0  0  0
  146.8075  131.4948  151.4944 H   0  0  0  0  0  0  0  0  0  0  0  0
  1  2  1  0  0  0  0
  1 19  1  0  0  0  0
  1 20  1  0  0  0  0
  1 21  1  0  0  0  0
  2 18  1  0  0  0  0
  2  3  2  0  0  0  0
  3  4  1  0  0  0  0
  3 22  1  0  0  0  0
  4  5  2  0  0  0  0
  5  6  1  0  0  0  0
  5  7  1  0  0  0  0
  6 23  1  0  0  0  0
  6 24  1  0  0  0  0
  6 25  1  0  0  0  0
  7  8  1  0  0  0  0
  7 18  2  0  0  0  0
  8  9  1  0  0  0  0
  8 26  1  0  0  0  0
  9 10  1  0  0  0  0
  9 27  1  0  0  0  0
  9 28  1  0  0  0  0
 10 11  1  0  0  0  0
 10 29  1  0  0  0  0
 10 30  1  0  0  0  0
 11 12  1  0  0  0  0
 12 13  1  0  0  0  0
 12 31  1  0  0  0  0
 12 32  1  0  0  0  0
 13 17  1  0  0  0  0
 13 14  1  0  0  0  0
 13 33  1  0  0  0  0
 14 15  1  0  0  0  0
 14 34  1  0  0  0  0
 14 35  1  0  0  0  0
 15 16  1  0  0  0  0
 15 36  1  0  0  0  0
 15 37  1  0  0  0  0
 16 17  1  0  0  0  0
 16 38  1  0  0  0  0
 16 39  1  0  0  0  0
M  END
> <s_m_source_file>
AV-unprocessed.smi

> <i_m_source_file_index>
3276

> <i_lp_mmshare_version>
43012

> <i_f3d_flags>
0

> <s_epik_input>
W0NIM11jMVtjSF1uYyhbQ0gzXSljKG4xKVtOSF1bQ0gyXVtDSDJdT1tDSDJdW0NAQEhdMltDSDJdW0NIMl1bQ0gyXU8y

> <s_epik_cmdline>
J2VwaWtfcHl0aG9uJywgJy1waCcsICc3LjAnLCAnLXRuJywgJzgnLCAnLW1hJywgJzIwMCcsICctbWV0YWxfYmluZGluZycsICctaW1hZScsICc8aW5maWxlLm1hZT4nLCAnLW9tYWUnLCAnPG91dGZpbGUubWFlPic=

> <r_lp_tautomer_probability>
1

> <r_epik_Ionization_Penalty>
0.000506

> <r_epik_Ionization_Penalty_Charging>
0

> <r_epik_Ionization_Penalty_Neutral>
0.000506

> <r_epik_State_Penalty>
-0

> <r_epik_Charging_Adjusted_Penalty>
0

> <i_epik_Tot_Q>
0

> <i_epik_Tot_abs_Q>
0

> <r_epik_Metal_State_Penalty>
-0

> <b_epik_Metal_Only>
0

> <s_lp_Force_Field>
OPLS_2005

> <r_lp_Energy>
26.3084

> <b_lp_Chiralities_Consistent>
1

> <s_lp_Variant>
AV-unprocessed.smi:3276-1

> <Gold.Version>
5.8.1

> <Gold.Id.Protein>
6NUR|6NUR_protein|mol2

> <Gold.PLP.Fitness>
40.7006

> <Gold.PLP.PLP>
-34.9259

> <Gold.PLP.part.hbond>
-2.0000

> <Gold.PLP.part.metal>
0.0000

> <Gold.PLP.part.buried>
1.7315

> <Gold.PLP.part.nonpolar>
-35.8845

> <Gold.PLP.part.repulsive>
0.8455

> <Gold.PLP.ligand.clash>
0.0000

> <Gold.PLP.ligand.torsion>
0.2211

> <Gold.PLP.Chemscore.Hbond>
1.0000

> <Gold.PLP.Chemscore.CHOScore>
1.0000

> <Gold.PLP.Chemscore.Metal>
0.0000

> <Gold.Chemscore.Hbonds>
donor molecule, donor type, donor heavy atom, donor atom, acceptor molecule, acceptor atom, score
      L1  H     8    26       P1  7948  1.00
      L1  C     3    22       P1  8028  1.00

> <Gold.PLP.Chemscore.Internal.Correction>
0.2169

> <Gold.Rescore>
     Score         DG    S(hbond)    S(metal)    S(lipo)     H(rot)  DE(clash)    DE(int)     intcor
     12.14     -14.95       0.91        0.00      91.79       1.68       2.02       0.79       ----

> <Gold.Chemscore.Fitness>
12.1432

> <Gold.Chemscore.DG>
-14.9491

> <Gold.Chemscore.ZeroCoef>
-5.4800

> <Gold.Chemscore.Hbond>
0.9088

> <Gold.Chemscore.Metal>
0.0000

> <Gold.Chemscore.Lipo>
91.7900

> <Gold.Chemscore.Internal_Hbond>
0.0000

> <Gold.Chemscore.DEClash>
2.0184

> <Gold.Chemscore.DEInternal>
0.7875

> <Gold.Chemscore.Rot>
1.6820

> <Gold.Chemscore.Internal.Correction>
   9.000000E+99

> <Gold.Chemscore.Hbonds>
donor molecule, donor type, donor heavy atom, donor atom, acceptor molecule, acceptor atom, score
      L1  H     8    26       P1  7948  0.94

> <Gold.Chemscore.Hbond.Weighted>
-3.0355

> <Gold.Chemscore.Metal.Weighted>
-0.0000

> <Gold.Chemscore.Lipo.Weighted>
-10.7394

> <Gold.Chemscore.Internal_Hbond.Weighted>
0.0000

> <Gold.Chemscore.DEClash.Weighted>
2.0184

> <Gold.Chemscore.DEInternal.Weighted>
0.7875

> <Gold.Chemscore.Rot.Weighted>
4.3058

> <Gold.Chemscore.Internal.Correction.Weighted>
   9.000000E+99

> <Gold.Protein.RotatedTorsions>
[ 6907 6896 6895 6894 ] final  -22.71 input  -60.11 | X-H torsion
[ 7974 7965 7964 7962 ] final  -41.18 input  175.53 | X-H torsion
[ 8008 7997 7996 7995 ] final   19.09 input   59.86 | X-H torsion
[ 10167 10162 10161 10158 ] final  -75.04 input  -65.29 | X-H torsion
[ 10718 10713 10712 10709 ] final  173.09 input   66.30 | X-H torsion
[ 10763 10752 10751 10750 ] final  -27.57 input  -60.55 | X-H torsion
[ 11005 11000 10999 10996 ] final   93.18 input  -57.11 | X-H torsion

> <Gold.Protein.ActiveResidues>
 VAL166  LYS551  ARG553  GLY616  TRP617  ASP618  TYR619  PRO620  LYS621  CYS622 
 ASP623  PHE694  ASN695  SER759  ASP760  ASP761  ALA762  ILE779  LEU786  VAL792 
 PHE793  MET794  SER795  GLU796  ALA797  LYS798  CYS799  TRP800  GLU811  SER814 

> <Gold.Protein.RotatedAtoms>
  151.2146  135.0495  159.8924 H   0  0  0  0  0  0  0  0  0  0  0  0  # atno 6907 bound_to 6896
  152.5421  134.0707  159.8203 H   0  0  0  0  0  0  0  0  0  0  0  0  # atno 6908 bound_to 6896
  151.0865  133.5301  159.2649 H   0  0  0  0  0  0  0  0  0  0  0  0  # atno 6909 bound_to 6896
  146.0235  140.6821  142.9167 H   0  0  0  0  0  0  0  0  0  0  0  0  # atno 7974 bound_to 7965
  154.9156  140.3020  155.5243 H   0  0  0  0  0  0  0  0  0  0  0  0  # atno 8008 bound_to 7997
  156.3012  140.2381  156.4136 H   0  0  0  0  0  0  0  0  0  0  0  0  # atno 8009 bound_to 7997
  154.8381  140.0415  157.1512 H   0  0  0  0  0  0  0  0  0  0  0  0  # atno 8010 bound_to 7997
  140.4976  143.2367  151.7804 H   0  0  0  0  0  0  0  0  0  0  0  0  # atno 10167 bound_to 10162
  156.9694  131.0085  151.2908 H   0  0  0  0  0  0  0  0  0  0  0  0  # atno 10718 bound_to 10713
  153.7343  135.6937  153.4982 H   0  0  0  0  0  0  0  0  0  0  0  0  # atno 10763 bound_to 10752
  153.2114  135.4401  155.0383 H   0  0  0  0  0  0  0  0  0  0  0  0  # atno 10764 bound_to 10752
  154.8242  135.3437  154.6871 H   0  0  0  0  0  0  0  0  0  0  0  0  # atno 10765 bound_to 10752
  139.8813  134.8775  156.3681 H   0  0  0  0  0  0  0  0  0  0  0  0  # atno 11005 bound_to 11000
  144.7000  140.3608  143.7164 LP  0  0  0  0  0  0  0  0  0  0  0  0  # atno 17320 bound_to 7965
  145.7155  139.1696  143.2514 LP  0  0  0  0  0  0  0  0  0  0  0  0  # atno 17321 bound_to 7965
  139.4865  144.4565  151.9592 LP  0  0  0  0  0  0  0  0  0  0  0  0  # atno 17342 bound_to 10162
  140.3653  144.2922  150.5927 LP  0  0  0  0  0  0  0  0  0  0  0  0  # atno 17343 bound_to 10162
  157.5603  130.8241  149.8257 LP  0  0  0  0  0  0  0  0  0  0  0  0  # atno 17370 bound_to 10713
  156.0289  130.3771  150.1744 LP  0  0  0  0  0  0  0  0  0  0  0  0  # atno 17371 bound_to 10713
  140.9483  133.7468  156.0238 LP  0  0  0  0  0  0  0  0  0  0  0  0  # atno 17394 bound_to 11000
  140.8136  134.3370  157.5404 LP  0  0  0  0  0  0  0  0  0  0  0  0  # atno 17395 bound_to 11000

$$$$
