AV-unprocessed.smi:3123|AV-procd|sdf|11900|dock3
  -GOLD-   2272017283D 1   1.00000     0.00000
 Structure written by MMmdl.
 30 31  0  0  0  0  0  0  0  0  2 V2000
  150.2558  138.2010  153.4815 N   0  3  0  0  0  0  0  0  0  0  0  0
  151.1730  138.5151  154.5886 C   0  0  0  0  0  0  0  0  0  0  0  0
  150.7911  139.8261  155.2438 C   0  0  0  0  0  0  0  0  0  0  0  0
  149.6979  140.5760  154.7654 C   0  0  0  0  0  0  0  0  0  0  0  0
  149.3879  141.7914  155.4062 C   0  0  0  0  0  0  0  0  0  0  0  0
  150.0872  142.2742  156.4549 N   0  0  0  0  0  0  0  0  0  0  0  0
  151.1374  141.5526  156.9152 C   0  0  0  0  0  0  0  0  0  0  0  0
  151.8621  142.0503  158.0070 N   0  0  0  0  0  0  0  0  0  0  0  0
  151.4803  143.4043  158.3892 C   0  0  0  0  0  0  0  0  0  0  0  0
  152.4058  143.9165  159.5068 C   0  0  0  0  0  0  0  0  0  0  0  0
  152.3724  143.0125  160.6077 O   0  0  0  0  0  0  0  0  0  0  0  0
  152.8156  141.7081  160.2436 C   0  0  0  0  0  0  0  0  0  0  0  0
  151.8999  141.1400  159.1454 C   0  0  0  0  0  0  0  0  0  0  0  0
  151.5263  140.3248  156.3386 C   0  0  0  0  0  0  0  0  0  0  0  0
  150.6641  137.4872  152.8951 H   0  0  0  0  0  0  0  0  0  0  0  0
  150.0920  139.0347  152.9356 H   0  0  0  0  0  0  0  0  0  0  0  0
  151.1441  137.7095  155.3229 H   0  0  0  0  0  0  0  0  0  0  0  0
  152.1937  138.5697  154.2086 H   0  0  0  0  0  0  0  0  0  0  0  0
  149.1073  140.2322  153.9290 H   0  0  0  0  0  0  0  0  0  0  0  0
  148.5568  142.3919  155.0670 H   0  0  0  0  0  0  0  0  0  0  0  0
  151.5390  144.0637  157.5224 H   0  0  0  0  0  0  0  0  0  0  0  0
  150.4450  143.4134  158.7334 H   0  0  0  0  0  0  0  0  0  0  0  0
  153.4291  144.0271  159.1444 H   0  0  0  0  0  0  0  0  0  0  0  0
  152.0791  144.9002  159.8441 H   0  0  0  0  0  0  0  0  0  0  0  0
  153.8524  141.7459  159.9053 H   0  0  0  0  0  0  0  0  0  0  0  0
  152.7908  141.0653  161.1235 H   0  0  0  0  0  0  0  0  0  0  0  0
  150.8930  140.9992  159.5413 H   0  0  0  0  0  0  0  0  0  0  0  0
  152.2612  140.1619  158.8248 H   0  0  0  0  0  0  0  0  0  0  0  0
  152.3708  139.7773  156.7325 H   0  0  0  0  0  0  0  0  0  0  0  0
  149.3791  137.8691  153.8572 H   0  0  0  0  0  0  0  0  0  0  0  0
  1  2  1  0  0  0  0
  1 15  1  0  0  0  0
  1 16  1  0  0  0  0
  1 30  1  0  0  0  0
  2  3  1  0  0  0  0
  2 17  1  0  0  0  0
  2 18  1  0  0  0  0
  3 14  1  0  0  0  0
  3  4  2  0  0  0  0
  4  5  1  0  0  0  0
  4 19  1  0  0  0  0
  5  6  2  0  0  0  0
  5 20  1  0  0  0  0
  6  7  1  0  0  0  0
  7  8  1  0  0  0  0
  7 14  2  0  0  0  0
  8 13  1  0  0  0  0
  8  9  1  0  0  0  0
  9 10  1  0  0  0  0
  9 21  1  0  0  0  0
  9 22  1  0  0  0  0
 10 11  1  0  0  0  0
 10 23  1  0  0  0  0
 10 24  1  0  0  0  0
 11 12  1  0  0  0  0
 12 13  1  0  0  0  0
 12 25  1  0  0  0  0
 12 26  1  0  0  0  0
 13 27  1  0  0  0  0
 13 28  1  0  0  0  0
 14 29  1  0  0  0  0
M  CHG  1   1   1
M  END
> <s_m_source_file>
AV-unprocessed.smi

> <i_m_source_file_index>
3123

> <i_lp_mmshare_version>
43012

> <i_f3d_flags>
0

> <s_epik_input>
W05IMl1bQ0gyXWMxW2NIXVtjSF1uYyhbY0hdMSlOMltDSDJdW0NIMl1PW0NIMl1bQ0gyXTI=

> <s_epik_cmdline>
J2VwaWtfcHl0aG9uJywgJy1waCcsICc3LjAnLCAnLXRuJywgJzgnLCAnLW1hJywgJzIwMCcsICctbWV0YWxfYmluZGluZycsICctaW1hZScsICc8aW5maWxlLm1hZT4nLCAnLW9tYWUnLCAnPG91dGZpbGUubWFlPic=

> <r_lp_tautomer_probability>
1

> <r_epik_Ionization_Penalty>
0.0770075

> <r_epik_Ionization_Penalty_Charging>
0.0770037

> <r_epik_Ionization_Penalty_Neutral>
3.77435e-06

> <r_epik_State_Penalty>
0.00932976

> <r_epik_Charging_Adjusted_Penalty>
0.0863335

> <i_epik_Tot_Q>
1

> <i_epik_Tot_abs_Q>
1

> <r_epik_Metal_State_Penalty>
0.00963217

> <b_epik_Metal_Only>
0

> <s_lp_Force_Field>
OPLS_2005

> <r_lp_Energy>
15.1833

> <b_lp_Chiralities_Consistent>
1

> <s_lp_Variant>
AV-unprocessed.smi:3123-1

> <Gold.Version>
5.8.1

> <Gold.Id.Protein>
6NUR|6NUR_protein|mol2

> <Gold.PLP.Fitness>
38.8619

> <Gold.PLP.PLP>
-28.3689

> <Gold.PLP.part.hbond>
-3.0000

> <Gold.PLP.part.metal>
0.0000

> <Gold.PLP.part.buried>
1.5586

> <Gold.PLP.part.nonpolar>
-26.9359

> <Gold.PLP.part.repulsive>
1.6862

> <Gold.PLP.ligand.clash>
0.0000

> <Gold.PLP.ligand.torsion>
0.0679

> <Gold.PLP.Chemscore.Hbond>
2.9100

> <Gold.PLP.Chemscore.CHOScore>
0.5989

> <Gold.PLP.Chemscore.Metal>
0.0000

> <Gold.Chemscore.Hbonds>
donor molecule, donor type, donor heavy atom, donor atom, acceptor molecule, acceptor atom, score
      L1  H     1    15       P1  7949  0.96
      L1  H     1    16       P1  7957  0.88
      L1  C     5    20       P1  8028  0.63

> <Gold.PLP.Chemscore.Internal.Correction>
0.1022

> <Gold.Rescore>
     Score         DG    S(hbond)    S(metal)    S(lipo)     H(rot)  DE(clash)    DE(int)     intcor
     12.80     -13.55       0.70        0.00      77.73       1.32       0.64       0.11       ----

> <Gold.Chemscore.Fitness>
12.7967

> <Gold.Chemscore.DG>
-13.5546

> <Gold.Chemscore.ZeroCoef>
-5.4800

> <Gold.Chemscore.Hbond>
0.7030

> <Gold.Chemscore.Metal>
0.0000

> <Gold.Chemscore.Lipo>
77.7347

> <Gold.Chemscore.Internal_Hbond>
0.0000

> <Gold.Chemscore.DEClash>
0.6435

> <Gold.Chemscore.DEInternal>
0.1144

> <Gold.Chemscore.Rot>
1.3158

> <Gold.Chemscore.Internal.Correction>
   9.000000E+99

> <Gold.Chemscore.Hbonds>
donor molecule, donor type, donor heavy atom, donor atom, acceptor molecule, acceptor atom, score
      L1  H     1    15       P1  7949  0.03
      L1  H     1    16       P1  7957  0.66

> <Gold.Chemscore.Hbond.Weighted>
-2.3481

> <Gold.Chemscore.Metal.Weighted>
-0.0000

> <Gold.Chemscore.Lipo.Weighted>
-9.0950

> <Gold.Chemscore.Internal_Hbond.Weighted>
0.0000

> <Gold.Chemscore.DEClash.Weighted>
0.6435

> <Gold.Chemscore.DEInternal.Weighted>
0.1144

> <Gold.Chemscore.Rot.Weighted>
3.3684

> <Gold.Chemscore.Internal.Correction.Weighted>
   9.000000E+99

> <Gold.Protein.RotatedTorsions>
[ 6907 6896 6895 6894 ] final -151.10 input  -60.11 | X-H torsion
[ 7974 7965 7964 7962 ] final   28.59 input  175.53 | X-H torsion
[ 8008 7997 7996 7995 ] final  -17.37 input   59.86 | X-H torsion
[ 10167 10162 10161 10158 ] final   79.26 input  -65.29 | X-H torsion
[ 10718 10713 10712 10709 ] final   75.81 input   66.30 | X-H torsion
[ 10763 10752 10751 10750 ] final  171.98 input  -60.55 | X-H torsion
[ 11005 11000 10999 10996 ] final  169.37 input  -57.11 | X-H torsion

> <Gold.Protein.ActiveResidues>
 VAL166  LYS551  ARG553  GLY616  TRP617  ASP618  TYR619  PRO620  LYS621  CYS622 
 ASP623  PHE694  ASN695  SER759  ASP760  ASP761  ALA762  ILE779  LEU786  VAL792 
 PHE793  MET794  SER795  GLU796  ALA797  LYS798  CYS799  TRP800  GLU811  SER814 

> <Gold.Protein.RotatedAtoms>
  151.2082  133.4571  159.2597 H   0  0  0  0  0  0  0  0  0  0  0  0  # atno 6907 bound_to 6896
  151.1003  134.9968  159.8455 H   0  0  0  0  0  0  0  0  0  0  0  0  # atno 6908 bound_to 6896
  152.5442  134.2009  159.8764 H   0  0  0  0  0  0  0  0  0  0  0  0  # atno 6909 bound_to 6896
  146.1720  139.7035  142.8961 H   0  0  0  0  0  0  0  0  0  0  0  0  # atno 7974 bound_to 7965
  154.4983  140.2144  155.9399 H   0  0  0  0  0  0  0  0  0  0  0  0  # atno 8008 bound_to 7997
  156.1400  140.3181  155.8449 H   0  0  0  0  0  0  0  0  0  0  0  0  # atno 8009 bound_to 7997
  155.4137  140.0492  157.3021 H   0  0  0  0  0  0  0  0  0  0  0  0  # atno 8010 bound_to 7997
  139.9622  144.5953  150.8061 H   0  0  0  0  0  0  0  0  0  0  0  0  # atno 10167 bound_to 10162
  157.6649  130.9744  150.1407 H   0  0  0  0  0  0  0  0  0  0  0  0  # atno 10718 bound_to 10713
  154.4196  135.2757  155.1984 H   0  0  0  0  0  0  0  0  0  0  0  0  # atno 10763 bound_to 10752
  154.3935  135.6061  153.5860 H   0  0  0  0  0  0  0  0  0  0  0  0  # atno 10764 bound_to 10752
  152.9833  135.5909  154.4490 H   0  0  0  0  0  0  0  0  0  0  0  0  # atno 10765 bound_to 10752
  140.2970  134.7626  157.3885 H   0  0  0  0  0  0  0  0  0  0  0  0  # atno 11005 bound_to 11000
  145.4314  141.0415  143.2908 LP  0  0  0  0  0  0  0  0  0  0  0  0  # atno 17320 bound_to 7965
  144.8178  139.5846  143.7000 LP  0  0  0  0  0  0  0  0  0  0  0  0  # atno 17321 bound_to 7965
  140.7549  143.3036  151.3017 LP  0  0  0  0  0  0  0  0  0  0  0  0  # atno 17342 bound_to 10162
  139.6545  144.0302  152.2650 LP  0  0  0  0  0  0  0  0  0  0  0  0  # atno 17343 bound_to 10162
  156.2231  130.3675  149.8533 LP  0  0  0  0  0  0  0  0  0  0  0  0  # atno 17370 bound_to 10713
  156.6380  130.8693  151.3508 LP  0  0  0  0  0  0  0  0  0  0  0  0  # atno 17371 bound_to 10713
  140.1143  134.5303  155.8238 LP  0  0  0  0  0  0  0  0  0  0  0  0  # atno 17394 bound_to 11000
  141.2135  133.6735  156.6748 LP  0  0  0  0  0  0  0  0  0  0  0  0  # atno 17395 bound_to 11000

$$$$
