AV-unprocessed.smi:726|AV-procd|sdf|3510|dock2
  -GOLD-   22720 0503D 1   1.00000     0.00000
 Structure written by MMmdl.
 24 24  0  0  0  0  0  0  0  0  2 V2000
  152.9241  139.3413  158.7212 C   0  0  0  0  0  0  0  0  0  0  0  0
  152.1046  140.1964  157.7611 C   0  0  0  0  0  0  0  0  0  0  0  0
  151.6490  141.3986  158.1587 C   0  0  0  0  0  0  0  0  0  0  0  0
  150.8385  142.1910  157.2717 C   0  0  0  0  0  0  0  0  0  0  0  0
  150.4044  143.3984  157.6542 O   0  0  0  0  0  0  0  0  0  0  0  0
  150.5122  141.7038  156.0630 C   0  0  0  0  0  0  0  0  0  0  0  0
  150.9658  140.3887  155.6063 C   0  0  0  0  0  0  0  0  0  0  0  0
  150.6052  139.9549  154.5124 O   0  0  0  0  0  0  0  0  0  0  0  0
  151.7933  139.6884  156.4574 N   0  0  0  0  0  0  0  0  0  0  0  0
  152.4123  138.4085  155.9936 C   0  0  2  0  0  0  0  0  0  0  0  0
  153.2957  138.5701  154.7308 C   0  0  0  0  0  0  0  0  0  0  0  0
  151.3940  137.2557  155.9252 C   0  0  0  0  0  0  0  0  0  0  0  0
  150.7115  137.0144  156.9453 O   0  0  0  0  0  0  0  0  0  0  0  0
  151.3172  136.6299  154.8450 O   0  5  0  0  0  0  0  0  0  0  0  0
  152.9063  139.7615  159.7273 H   0  0  0  0  0  0  0  0  0  0  0  0
  153.9673  139.2970  158.4069 H   0  0  0  0  0  0  0  0  0  0  0  0
  152.5253  138.3300  158.7991 H   0  0  0  0  0  0  0  0  0  0  0  0
  151.8753  141.7673  159.1487 H   0  0  0  0  0  0  0  0  0  0  0  0
  149.9598  143.7865  156.9162 H   0  0  0  0  0  0  0  0  0  0  0  0
  149.8980  142.2971  155.4007 H   0  0  0  0  0  0  0  0  0  0  0  0
  153.1443  138.0517  156.7108 H   0  0  0  0  0  0  0  0  0  0  0  0
  153.8673  137.6598  154.5467 H   0  0  0  0  0  0  0  0  0  0  0  0
  154.0141  139.3799  154.8605 H   0  0  0  0  0  0  0  0  0  0  0  0
  152.7297  138.7681  153.8217 H   0  0  0  0  0  0  0  0  0  0  0  0
  1  2  1  0  0  0  0
  1 15  1  0  0  0  0
  1 16  1  0  0  0  0
  1 17  1  0  0  0  0
  2  9  1  0  0  0  0
  2  3  2  0  0  0  0
  3  4  1  0  0  0  0
  3 18  1  0  0  0  0
  4  5  1  0  0  0  0
  4  6  2  0  0  0  0
  5 19  1  0  0  0  0
  6  7  1  0  0  0  0
  6 20  1  0  0  0  0
  7  8  2  0  0  0  0
  7  9  1  0  0  0  0
  9 10  1  0  0  0  0
 10 11  1  0  0  0  0
 10 12  1  0  0  0  0
 10 21  1  0  0  0  0
 11 22  1  0  0  0  0
 11 23  1  0  0  0  0
 11 24  1  0  0  0  0
 12 13  2  0  0  0  0
 12 14  1  0  0  0  0
M  CHG  1  14  -1
M  END
> <s_m_source_file>
AV-unprocessed.smi

> <i_m_source_file_index>
726

> <i_lp_mmshare_version>
43012

> <i_f3d_flags>
0

> <s_epik_input>
W0NIM11jMVtjSF1jKFtPSF0pW2NIXWMoPU8pbjFbQ0BIXShbQ0gzXSlDKD1PKVtPSF0=

> <s_epik_cmdline>
J2VwaWtfcHl0aG9uJywgJy1waCcsICc3LjAnLCAnLXRuJywgJzgnLCAnLW1hJywgJzIwMCcsICctbWV0YWxfYmluZGluZycsICctaW1hZScsICc8aW5maWxlLm1hZT4nLCAnLW9tYWUnLCAnPG91dGZpbGUubWFlPic=

> <r_lp_tautomer_probability>
0.999984

> <r_epik_Ionization_Penalty>
0.316948

> <r_epik_Ionization_Penalty_Charging>
0.000813874

> <r_epik_Ionization_Penalty_Neutral>
0.316134

> <r_epik_State_Penalty>
0.363429

> <r_epik_Charging_Adjusted_Penalty>
0.364242

> <i_epik_Tot_Q>
-1

> <i_epik_Tot_abs_Q>
1

> <r_epik_Metal_State_Penalty>
0.363429

> <b_epik_Metal_Only>
0

> <s_lp_Force_Field>
OPLS_2005

> <r_lp_Energy>
20.5014

> <b_lp_Chiralities_Consistent>
1

> <s_lp_Variant>
AV-unprocessed.smi:726-1

> <Gold.Version>
5.8.1

> <Gold.Id.Protein>
6NUR|6NUR_protein|mol2

> <Gold.PLP.Fitness>
37.4785

> <Gold.PLP.PLP>
-25.5995

> <Gold.PLP.part.hbond>
-3.0000

> <Gold.PLP.part.metal>
0.0000

> <Gold.PLP.part.buried>
-2.7377

> <Gold.PLP.part.nonpolar>
-20.6586

> <Gold.PLP.part.repulsive>
0.2709

> <Gold.PLP.ligand.clash>
0.0000

> <Gold.PLP.ligand.torsion>
0.2072

> <Gold.PLP.Chemscore.Hbond>
4.0000

> <Gold.PLP.Chemscore.CHOScore>
0.0000

> <Gold.PLP.Chemscore.Metal>
0.0000

> <Gold.Chemscore.Hbonds>
donor molecule, donor type, donor heavy atom, donor atom, acceptor molecule, acceptor atom, score
      L1  H     5    19       P1  8028  1.00
      P1  H  7989  7998       L1     8  1.00
      P1  H 10752 10764       L1    14  2.00

> <Gold.PLP.Chemscore.Internal.Correction>
0.2934

> <Gold.Rescore>
     Score         DG    S(hbond)    S(metal)    S(lipo)     H(rot)  DE(clash)    DE(int)     intcor
     13.19     -14.85       2.70        0.00      48.11       2.06       0.00       1.66       ----

> <Gold.Chemscore.Fitness>
13.1888

> <Gold.Chemscore.DG>
-14.8484

> <Gold.Chemscore.ZeroCoef>
-5.4800

> <Gold.Chemscore.Hbond>
2.6978

> <Gold.Chemscore.Metal>
0.0000

> <Gold.Chemscore.Lipo>
48.1125

> <Gold.Chemscore.Internal_Hbond>
0.0000

> <Gold.Chemscore.DEClash>
0.0004

> <Gold.Chemscore.DEInternal>
1.6591

> <Gold.Chemscore.Rot>
2.0592

> <Gold.Chemscore.Internal.Correction>
   9.000000E+99

> <Gold.Chemscore.Hbonds>
donor molecule, donor type, donor heavy atom, donor atom, acceptor molecule, acceptor atom, score
      L1  H     5    19       P1  8028  0.98
      P1  H  7989  7998       L1     8  0.26
      P1  H 10752 10764       L1    14  0.85

> <Gold.Chemscore.Hbond.Weighted>
-9.0106

> <Gold.Chemscore.Metal.Weighted>
-0.0000

> <Gold.Chemscore.Lipo.Weighted>
-5.6292

> <Gold.Chemscore.Internal_Hbond.Weighted>
0.0000

> <Gold.Chemscore.DEClash.Weighted>
0.0004

> <Gold.Chemscore.DEInternal.Weighted>
1.6591

> <Gold.Chemscore.Rot.Weighted>
5.2715

> <Gold.Chemscore.Internal.Correction.Weighted>
   9.000000E+99

> <Gold.Protein.RotatedTorsions>
[ 6907 6896 6895 6894 ] final   46.97 input  -60.11 | X-H torsion
[ 7974 7965 7964 7962 ] final  122.87 input  175.53 | X-H torsion
[ 8008 7997 7996 7995 ] final -106.70 input   59.86 | X-H torsion
[ 10167 10162 10161 10158 ] final  170.77 input  -65.29 | X-H torsion
[ 10718 10713 10712 10709 ] final   57.56 input   66.30 | X-H torsion
[ 10763 10752 10751 10750 ] final  -68.50 input  -60.55 | X-H torsion
[ 11005 11000 10999 10996 ] final -101.68 input  -57.11 | X-H torsion

> <Gold.Protein.ActiveResidues>
 VAL166  LYS551  ARG553  GLY616  TRP617  ASP618  TYR619  PRO620  LYS621  CYS622 
 ASP623  PHE694  ASN695  SER759  ASP760  ASP761  ALA762  ILE779  LEU786  VAL792 
 PHE793  MET794  SER795  GLU796  ALA797  LYS798  CYS799  TRP800  GLU811  SER814 

> <Gold.Protein.RotatedAtoms>
  152.2626  134.8017  160.0427 H   0  0  0  0  0  0  0  0  0  0  0  0  # atno 6907 bound_to 6896
  151.8658  133.3461  159.3727 H   0  0  0  0  0  0  0  0  0  0  0  0  # atno 6908 bound_to 6896
  150.7122  134.5088  159.5641 H   0  0  0  0  0  0  0  0  0  0  0  0  # atno 6909 bound_to 6896
  145.1025  139.3508  143.4804 H   0  0  0  0  0  0  0  0  0  0  0  0  # atno 7974 bound_to 7965
  154.9184  140.0408  157.1984 H   0  0  0  0  0  0  0  0  0  0  0  0  # atno 8008 bound_to 7997
  154.8278  140.2894  155.5721 H   0  0  0  0  0  0  0  0  0  0  0  0  # atno 8009 bound_to 7997
  156.2985  140.2506  156.3198 H   0  0  0  0  0  0  0  0  0  0  0  0  # atno 8010 bound_to 7997
  139.5027  144.3560  151.9874 H   0  0  0  0  0  0  0  0  0  0  0  0  # atno 10167 bound_to 10162
  157.5525  130.8776  149.8984 H   0  0  0  0  0  0  0  0  0  0  0  0  # atno 10718 bound_to 10713
  154.3899  135.6055  153.5837 H   0  0  0  0  0  0  0  0  0  0  0  0  # atno 10763 bound_to 10752
  152.9787  135.5881  154.4310 H   0  0  0  0  0  0  0  0  0  0  0  0  # atno 10764 bound_to 10752
  154.4092  135.2844  155.2025 H   0  0  0  0  0  0  0  0  0  0  0  0  # atno 10765 bound_to 10752
  141.1221  133.8497  157.1263 H   0  0  0  0  0  0  0  0  0  0  0  0  # atno 11005 bound_to 11000
  146.3529  140.0909  142.8612 LP  0  0  0  0  0  0  0  0  0  0  0  0  # atno 17320 bound_to 7965
  145.0939  140.9302  143.4753 LP  0  0  0  0  0  0  0  0  0  0  0  0  # atno 17321 bound_to 7965
  140.2997  144.3661  150.6064 LP  0  0  0  0  0  0  0  0  0  0  0  0  # atno 17342 bound_to 10162
  140.5883  143.2169  151.7300 LP  0  0  0  0  0  0  0  0  0  0  0  0  # atno 17343 bound_to 10162
  156.0589  130.3703  150.1028 LP  0  0  0  0  0  0  0  0  0  0  0  0  # atno 17370 bound_to 10713
  156.9199  130.9679  151.3550 LP  0  0  0  0  0  0  0  0  0  0  0  0  # atno 17371 bound_to 10713
  140.0186  134.9956  157.0546 LP  0  0  0  0  0  0  0  0  0  0  0  0  # atno 17394 bound_to 11000
  140.4477  134.1615  155.7179 LP  0  0  0  0  0  0  0  0  0  0  0  0  # atno 17395 bound_to 11000

$$$$
