AV-unprocessed.smi:148|AV-procd|sdf|1224|dock3
  -GOLD-   2262018423D 1   1.00000     0.00000
 Structure written by MMmdl.
 63 67  0  0  0  0  0  0  0  0  1 V2000
  143.6556  141.7481  158.7089 O   0  0  0  0  0  0  0  0  0  0  0  0
  144.0908  142.8004  157.8741 C   0  0  0  0  0  0  0  0  0  0  0  0
  144.3324  142.3229  156.4182 C   0  0  2  0  0  0  0  0  0  0  0  0
  145.3360  141.1411  156.3696 C   0  0  0  0  0  0  0  0  0  0  0  0
  146.6720  141.4893  156.8218 N   0  0  0  0  0  0  0  0  0  0  0  0
  147.0073  142.1076  158.0060 C   0  0  0  0  0  0  0  0  0  0  0  0
  148.2834  142.3162  158.1840 N   0  0  0  0  0  0  0  0  0  0  0  0
  148.8681  141.8108  157.0306 C   0  0  0  0  0  0  0  0  0  0  0  0
  150.2041  141.7213  156.5613 C   0  0  0  0  0  0  0  0  0  0  0  0
  151.2463  142.1783  157.2888 N   0  0  0  0  0  0  0  0  0  0  0  0
  151.0922  143.6120  157.5451 C   0  0  0  0  0  0  0  0  0  0  0  0
  152.3872  144.2242  158.0872 C   0  0  0  0  0  0  0  0  0  0  0  0
  152.8266  143.4724  159.3442 C   0  0  0  0  0  0  0  0  0  0  0  0
  152.9696  141.9765  159.0348 C   0  0  0  0  0  0  0  0  0  0  0  0
  151.6749  141.3574  158.4403 C   0  0  2  0  0  0  0  0  0  0  0  0
  151.9014  139.8436  158.0920 C   0  0  1  0  0  0  0  0  0  0  0  0
  152.5384  139.0000  159.2131 C   0  0  0  0  0  0  0  0  0  0  0  0
  152.2683  137.5325  158.8611 C   0  0  0  0  0  0  0  0  0  0  0  0
  151.1370  137.5427  157.8274 C   0  0  0  0  0  0  0  0  0  0  0  0
  150.6583  138.9954  157.7351 C   0  0  1  0  0  0  0  0  0  0  0  0
  149.6150  139.1920  158.6713 O   0  0  0  0  0  0  0  0  0  0  0  0
  150.4186  141.1487  155.3473 N   0  0  0  0  0  0  0  0  0  0  0  0
  149.3819  140.7031  154.6304 C   0  0  0  0  0  0  0  0  0  0  0  0
  148.0820  140.7268  154.9364 N   0  0  0  0  0  0  0  0  0  0  0  0
  147.8705  141.2928  156.1595 C   0  0  0  0  0  0  0  0  0  0  0  0
  144.8145  143.4760  155.4942 C   0  0  1  0  0  0  0  0  0  0  0  0
  145.2993  143.0368  154.1219 C   0  0  0  0  0  0  0  0  0  0  0  0
  145.2641  144.3370  153.3267 C   0  0  0  0  0  0  0  0  0  0  0  0
  144.1992  145.0996  153.8811 O   0  0  0  0  0  0  0  0  0  0  0  0
  143.7400  144.4893  155.0825 C   0  0  0  0  0  0  0  0  0  0  0  0
  142.7960  141.9612  159.0389 H   0  0  0  0  0  0  0  0  0  0  0  0
  143.3638  143.6125  157.9001 H   0  0  0  0  0  0  0  0  0  0  0  0
  145.0032  143.1824  158.3292 H   0  0  0  0  0  0  0  0  0  0  0  0
  143.3832  141.9509  156.0297 H   0  0  0  0  0  0  0  0  0  0  0  0
  144.9934  140.3166  156.9948 H   0  0  0  0  0  0  0  0  0  0  0  0
  145.4059  140.7511  155.3533 H   0  0  0  0  0  0  0  0  0  0  0  0
  146.2709  142.3945  158.7425 H   0  0  0  0  0  0  0  0  0  0  0  0
  150.8048  144.1278  156.6273 H   0  0  0  0  0  0  0  0  0  0  0  0
  150.2866  143.7689  158.2641 H   0  0  0  0  0  0  0  0  0  0  0  0
  153.1688  144.1701  157.3282 H   0  0  0  0  0  0  0  0  0  0  0  0
  152.2386  145.2807  158.3113 H   0  0  0  0  0  0  0  0  0  0  0  0
  153.7715  143.8735  159.7117 H   0  0  0  0  0  0  0  0  0  0  0  0
  152.0930  143.6172  160.1383 H   0  0  0  0  0  0  0  0  0  0  0  0
  153.7964  141.8329  158.3375 H   0  0  0  0  0  0  0  0  0  0  0  0
  153.2530  141.4733  159.9585 H   0  0  0  0  0  0  0  0  0  0  0  0
  150.9013  141.4331  159.2050 H   0  0  0  0  0  0  0  0  0  0  0  0
  152.5875  139.7974  157.2441 H   0  0  0  0  0  0  0  0  0  0  0  0
  153.6057  139.1926  159.3266 H   0  0  0  0  0  0  0  0  0  0  0  0
  152.0598  139.2293  160.1663 H   0  0  0  0  0  0  0  0  0  0  0  0
  153.1586  137.0643  158.4396 H   0  0  0  0  0  0  0  0  0  0  0  0
  151.9921  136.9664  159.7511 H   0  0  0  0  0  0  0  0  0  0  0  0
  151.5380  137.2353  156.8606 H   0  0  0  0  0  0  0  0  0  0  0  0
  150.3347  136.8462  158.0759 H   0  0  0  0  0  0  0  0  0  0  0  0
  150.2724  139.1923  156.7373 H   0  0  0  0  0  0  0  0  0  0  0  0
  149.9853  139.1754  159.5406 H   0  0  0  0  0  0  0  0  0  0  0  0
  149.6300  140.2661  153.6745 H   0  0  0  0  0  0  0  0  0  0  0  0
  145.6264  144.0149  155.9855 H   0  0  0  0  0  0  0  0  0  0  0  0
  146.2944  142.5914  154.1354 H   0  0  0  0  0  0  0  0  0  0  0  0
  144.6071  142.3138  153.6875 H   0  0  0  0  0  0  0  0  0  0  0  0
  146.1937  144.8912  153.4619 H   0  0  0  0  0  0  0  0  0  0  0  0
  145.1214  144.1686  152.2591 H   0  0  0  0  0  0  0  0  0  0  0  0
  142.7956  143.9863  154.8688 H   0  0  0  0  0  0  0  0  0  0  0  0
  143.5576  145.2416  155.8501 H   0  0  0  0  0  0  0  0  0  0  0  0
  1  2  1  0  0  0  0
  1 31  1  0  0  0  0
  2  3  1  0  0  0  0
  2 32  1  0  0  0  0
  2 33  1  0  0  0  0
  3  4  1  0  0  0  0
  3 26  1  0  0  0  0
  3 34  1  0  0  0  0
  4  5  1  0  0  0  0
  4 35  1  0  0  0  0
  4 36  1  0  0  0  0
  5 25  1  0  0  0  0
  5  6  1  0  0  0  0
  6  7  2  0  0  0  0
  6 37  1  0  0  0  0
  7  8  1  0  0  0  0
  8 25  2  0  0  0  0
  8  9  1  0  0  0  0
  9 10  1  0  0  0  0
  9 22  2  0  0  0  0
 10 15  1  0  0  0  0
 10 11  1  0  0  0  0
 11 12  1  0  0  0  0
 11 38  1  0  0  0  0
 11 39  1  0  0  0  0
 12 13  1  0  0  0  0
 12 40  1  0  0  0  0
 12 41  1  0  0  0  0
 13 14  1  0  0  0  0
 13 42  1  0  0  0  0
 13 43  1  0  0  0  0
 14 15  1  0  0  0  0
 14 44  1  0  0  0  0
 14 45  1  0  0  0  0
 15 16  1  0  0  0  0
 15 46  1  0  0  0  0
 16 20  1  0  0  0  0
 16 17  1  0  0  0  0
 16 47  1  0  0  0  0
 17 18  1  0  0  0  0
 17 48  1  0  0  0  0
 17 49  1  0  0  0  0
 18 19  1  0  0  0  0
 18 50  1  0  0  0  0
 18 51  1  0  0  0  0
 19 20  1  0  0  0  0
 19 52  1  0  0  0  0
 19 53  1  0  0  0  0
 20 21  1  0  0  0  0
 20 54  1  0  0  0  0
 21 55  1  0  0  0  0
 22 23  1  0  0  0  0
 23 24  2  0  0  0  0
 23 56  1  0  0  0  0
 24 25  1  0  0  0  0
 26 30  1  0  0  0  0
 26 27  1  0  0  0  0
 26 57  1  0  0  0  0
 27 28  1  0  0  0  0
 27 58  1  0  0  0  0
 27 59  1  0  0  0  0
 28 29  1  0  0  0  0
 28 60  1  0  0  0  0
 28 61  1  0  0  0  0
 29 30  1  0  0  0  0
 30 62  1  0  0  0  0
 30 63  1  0  0  0  0
M  END
> <s_m_source_file>
AV-unprocessed.smi

> <i_m_source_file_index>
148

> <i_lp_mmshare_version>
43012

> <i_f3d_flags>
0

> <s_epik_input>
W0NIMl0xT1tDSDJdW0NIMl1bQ0BIXTFbQ0BIXShbQ0gyXVtPSF0pW0NIMl1uKFtjSF1uMiljKGMyMyluW2NIXW5jM040W0NIMl1bQ0gyXVtDSDJdW0NIMl1bQ0BIXTRbQ0BASF01W0NIMl1bQ0gyXVtDSDJdW0NASF01W09IXQ==

> <s_epik_cmdline>
J2VwaWtfcHl0aG9uJywgJy1waCcsICc3LjAnLCAnLXRuJywgJzgnLCAnLW1hJywgJzIwMCcsICctbWV0YWxfYmluZGluZycsICctaW1hZScsICc8aW5maWxlLm1hZT4nLCAnLW9tYWUnLCAnPG91dGZpbGUubWFlPic=

> <r_lp_tautomer_probability>
1

> <r_epik_Ionization_Penalty>
0.00556303

> <r_epik_Ionization_Penalty_Charging>
0

> <r_epik_Ionization_Penalty_Neutral>
0.00556303

> <r_epik_State_Penalty>
0.00401767

> <r_epik_Charging_Adjusted_Penalty>
0.00401767

> <i_epik_Tot_Q>
0

> <i_epik_Tot_abs_Q>
0

> <r_epik_Metal_State_Penalty>
-0

> <b_epik_Metal_Only>
0

> <s_lp_Force_Field>
OPLS_2005

> <r_lp_Energy>
70.7604

> <b_lp_Chiralities_Consistent>
1

> <s_lp_Variant>
AV-unprocessed.smi:148-23

> <Gold.Version>
5.8.1

> <Gold.Id.Protein>
6NUR|6NUR_protein|mol2

> <Gold.PLP.Fitness>
45.5899

> <Gold.PLP.PLP>
-42.6331

> <Gold.PLP.part.hbond>
-1.9853

> <Gold.PLP.part.metal>
0.0000

> <Gold.PLP.part.buried>
-3.2752

> <Gold.PLP.part.nonpolar>
-38.6079

> <Gold.PLP.part.repulsive>
0.4846

> <Gold.PLP.ligand.clash>
0.0000

> <Gold.PLP.ligand.torsion>
0.5815

> <Gold.PLP.Chemscore.Hbond>
0.1269

> <Gold.PLP.Chemscore.CHOScore>
0.9998

> <Gold.PLP.Chemscore.Metal>
0.0000

> <Gold.Chemscore.Hbonds>
donor molecule, donor type, donor heavy atom, donor atom, acceptor molecule, acceptor atom, score
      P1  H  7989  7998       L1    22  0.12
      L1  C    23    56       P1  7957  1.00

> <Gold.PLP.Chemscore.Internal.Correction>
0.7397

> <Gold.Rescore>
     Score         DG    S(hbond)    S(metal)    S(lipo)     H(rot)  DE(clash)    DE(int)     intcor
      6.56      -9.74       0.00        0.00     108.99       3.32       0.76       2.41       ----

> <Gold.Chemscore.Fitness>
6.5644

> <Gold.Chemscore.DG>
-9.7356

> <Gold.Chemscore.ZeroCoef>
-5.4800

> <Gold.Chemscore.Hbond>
0.0013

> <Gold.Chemscore.Metal>
0.0000

> <Gold.Chemscore.Lipo>
108.9858

> <Gold.Chemscore.Internal_Hbond>
0.0000

> <Gold.Chemscore.DEClash>
0.7646

> <Gold.Chemscore.DEInternal>
2.4067

> <Gold.Chemscore.Rot>
3.3203

> <Gold.Chemscore.Internal.Correction>
   9.000000E+99

> <Gold.Chemscore.Hbond.Weighted>
-0.0043

> <Gold.Chemscore.Metal.Weighted>
-0.0000

> <Gold.Chemscore.Lipo.Weighted>
-12.7513

> <Gold.Chemscore.Internal_Hbond.Weighted>
0.0000

> <Gold.Chemscore.DEClash.Weighted>
0.7646

> <Gold.Chemscore.DEInternal.Weighted>
2.4067

> <Gold.Chemscore.Rot.Weighted>
8.5000

> <Gold.Chemscore.Internal.Correction.Weighted>
   9.000000E+99

> <Gold.Protein.RotatedTorsions>
[ 6907 6896 6895 6894 ] final -132.55 input  -60.11 | X-H torsion
[ 7974 7965 7964 7962 ] final -125.21 input  175.53 | X-H torsion
[ 8008 7997 7996 7995 ] final  169.39 input   59.86 | X-H torsion
[ 10167 10162 10161 10158 ] final -142.94 input  -65.29 | X-H torsion
[ 10718 10713 10712 10709 ] final -130.08 input   66.30 | X-H torsion
[ 10763 10752 10751 10750 ] final  139.10 input  -60.55 | X-H torsion
[ 11005 11000 10999 10996 ] final -165.38 input  -57.11 | X-H torsion

> <Gold.Protein.ActiveResidues>
 VAL166  LYS551  ARG553  GLY616  TRP617  ASP618  TYR619  PRO620  LYS621  CYS622 
 ASP623  PHE694  ASN695  SER759  ASP760  ASP761  ALA762  ILE779  LEU786  VAL792 
 PHE793  MET794  SER795  GLU796  ALA797  LYS798  CYS799  TRP800  GLU811  SER814 

> <Gold.Protein.RotatedAtoms>
  150.9637  133.6417  159.2749 H   0  0  0  0  0  0  0  0  0  0  0  0  # atno 6907 bound_to 6896
  151.3731  135.0925  159.9481 H   0  0  0  0  0  0  0  0  0  0  0  0  # atno 6908 bound_to 6896
  152.5157  133.9187  159.7578 H   0  0  0  0  0  0  0  0  0  0  0  0  # atno 6909 bound_to 6896
  145.0000  140.7811  143.4502 H   0  0  0  0  0  0  0  0  0  0  0  0  # atno 7974 bound_to 7965
  156.1461  140.1565  156.8844 H   0  0  0  0  0  0  0  0  0  0  0  0  # atno 8008 bound_to 7997
  154.5030  140.0820  156.7874 H   0  0  0  0  0  0  0  0  0  0  0  0  # atno 8009 bound_to 7997
  155.3985  140.3413  155.4258 H   0  0  0  0  0  0  0  0  0  0  0  0  # atno 8010 bound_to 7997
  139.8041  143.7793  152.2660 H   0  0  0  0  0  0  0  0  0  0  0  0  # atno 10167 bound_to 10162
  156.2110  130.6918  151.0649 H   0  0  0  0  0  0  0  0  0  0  0  0  # atno 10718 bound_to 10713
  153.9006  135.3022  155.3448 H   0  0  0  0  0  0  0  0  0  0  0  0  # atno 10763 bound_to 10752
  154.7672  135.4904  153.9581 H   0  0  0  0  0  0  0  0  0  0  0  0  # atno 10764 bound_to 10752
  153.1247  135.6790  153.9377 H   0  0  0  0  0  0  0  0  0  0  0  0  # atno 10765 bound_to 10752
  140.5764  134.5186  157.5171 H   0  0  0  0  0  0  0  0  0  0  0  0  # atno 11005 bound_to 11000
  145.2166  139.2179  143.5115 LP  0  0  0  0  0  0  0  0  0  0  0  0  # atno 17320 bound_to 7965
  146.3450  140.2015  142.8589 LP  0  0  0  0  0  0  0  0  0  0  0  0  # atno 17321 bound_to 7965
  139.7922  144.7406  150.9940 LP  0  0  0  0  0  0  0  0  0  0  0  0  # atno 17342 bound_to 10162
  140.7819  143.4431  151.0523 LP  0  0  0  0  0  0  0  0  0  0  0  0  # atno 17343 bound_to 10162
  157.7038  131.0765  150.6734 LP  0  0  0  0  0  0  0  0  0  0  0  0  # atno 17370 bound_to 10713
  156.6794  130.4562  149.5632 LP  0  0  0  0  0  0  0  0  0  0  0  0  # atno 17371 bound_to 10713
  139.9338  134.7914  156.0859 LP  0  0  0  0  0  0  0  0  0  0  0  0  # atno 17394 bound_to 11000
  141.1024  133.6672  156.2785 LP  0  0  0  0  0  0  0  0  0  0  0  0  # atno 17395 bound_to 11000

$$$$
