AV-unprocessed.smi:1278|AV-procd|sdf|5354|dock1
  -GOLD-   22720 4493D 1   1.00000     0.00000
 Structure written by MMmdl.
 38 39  0  0  0  0  0  0  0  0  3 V2000
  145.9253  132.6361  150.2589 C   0  0  0  0  0  0  0  0  0  0  0  0
  146.4544  133.6806  151.2518 C   0  0  1  0  0  0  0  0  0  0  0  0
  145.3069  134.3546  152.0221 C   0  0  0  0  0  0  0  0  0  0  0  0
  145.8659  135.3729  153.0233 C   0  0  0  0  0  0  0  0  0  0  0  0
  146.8898  134.7157  153.9621 C   0  0  0  0  0  0  0  0  0  0  0  0
  147.9878  134.0741  153.1937 N   0  3  1  0  0  0  0  0  0  0  0  0
  149.0544  133.5439  154.0784 C   0  0  0  0  0  0  0  0  0  0  0  0
  149.4437  134.5406  155.1866 C   0  0  0  0  0  0  0  0  0  0  0  0
  149.6688  135.8748  154.6436 N   0  0  0  0  0  0  0  0  0  0  0  0
  150.2105  136.9078  155.3044 C   0  0  0  0  0  0  0  0  0  0  0  0
  150.5482  136.7740  156.4830 O   0  0  0  0  0  0  0  0  0  0  0  0
  150.3347  138.0261  154.5558 N   0  5  0  0  0  0  0  0  0  0  0  0
  150.2418  139.2347  155.1341 C   0  0  0  0  0  0  0  0  0  0  0  0
  150.0725  140.3660  154.4401 N   0  0  0  0  0  0  0  0  0  0  0  0
  150.0086  141.5058  155.2441 C   0  0  0  0  0  0  0  0  0  0  0  0
  150.1387  141.2364  156.5805 C   0  0  0  0  0  0  0  0  0  0  0  0
  150.3504  139.5335  156.8710 S   0  0  0  0  0  0  0  0  0  0  0  0
  147.4669  133.0612  152.2364 C   0  0  0  0  0  0  0  0  0  0  0  0
  145.3957  131.8324  150.7721 H   0  0  0  0  0  0  0  0  0  0  0  0
  146.7397  132.1867  149.6899 H   0  0  0  0  0  0  0  0  0  0  0  0
  145.2352  133.0869  149.5449 H   0  0  0  0  0  0  0  0  0  0  0  0
  146.9720  134.4486  150.6747 H   0  0  0  0  0  0  0  0  0  0  0  0
  144.6246  134.8504  151.3305 H   0  0  0  0  0  0  0  0  0  0  0  0
  144.7213  133.6024  152.5528 H   0  0  0  0  0  0  0  0  0  0  0  0
  146.3379  136.1960  152.4850 H   0  0  0  0  0  0  0  0  0  0  0  0
  145.0530  135.8088  153.6048 H   0  0  0  0  0  0  0  0  0  0  0  0
  147.2999  135.4762  154.6281 H   0  0  0  0  0  0  0  0  0  0  0  0
  146.4011  133.9708  154.5924 H   0  0  0  0  0  0  0  0  0  0  0  0
  148.6985  132.6273  154.5505 H   0  0  0  0  0  0  0  0  0  0  0  0
  149.9254  133.2621  153.4844 H   0  0  0  0  0  0  0  0  0  0  0  0
  148.6530  134.6248  155.9312 H   0  0  0  0  0  0  0  0  0  0  0  0
  150.3349  134.1991  155.7161 H   0  0  0  0  0  0  0  0  0  0  0  0
  149.3997  136.0309  153.6830 H   0  0  0  0  0  0  0  0  0  0  0  0
  149.8688  142.4704  154.7797 H   0  0  0  0  0  0  0  0  0  0  0  0
  150.1257  141.9307  157.4070 H   0  0  0  0  0  0  0  0  0  0  0  0
  147.0016  132.2446  152.7912 H   0  0  0  0  0  0  0  0  0  0  0  0
  148.2898  132.6258  151.6705 H   0  0  0  0  0  0  0  0  0  0  0  0
  148.4138  134.8089  152.6473 H   0  0  0  0  0  0  0  0  0  0  0  0
  1  2  1  0  0  0  0
  1 19  1  0  0  0  0
  1 20  1  0  0  0  0
  1 21  1  0  0  0  0
  2 18  1  0  0  0  0
  2  3  1  0  0  0  0
  2 22  1  0  0  0  0
  3  4  1  0  0  0  0
  3 23  1  0  0  0  0
  3 24  1  0  0  0  0
  4  5  1  0  0  0  0
  4 25  1  0  0  0  0
  4 26  1  0  0  0  0
  5  6  1  0  0  0  0
  5 27  1  0  0  0  0
  5 28  1  0  0  0  0
  6  7  1  0  0  0  0
  6 18  1  0  0  0  0
  6 38  1  0  0  0  0
  7  8  1  0  0  0  0
  7 29  1  0  0  0  0
  7 30  1  0  0  0  0
  8  9  1  0  0  0  0
  8 31  1  0  0  0  0
  8 32  1  0  0  0  0
  9 10  1  0  0  0  0
  9 33  1  0  0  0  0
 10 11  2  0  0  0  0
 10 12  1  0  0  0  0
 12 13  1  0  0  0  0
 13 17  1  0  0  0  0
 13 14  2  0  0  0  0
 14 15  1  0  0  0  0
 15 16  2  0  0  0  0
 15 34  1  0  0  0  0
 16 17  1  0  0  0  0
 16 35  1  0  0  0  0
 18 36  1  0  0  0  0
 18 37  1  0  0  0  0
M  CHG  1   6   1
M  CHG  1  12  -1
M  END
> <s_m_source_file>
AV-unprocessed.smi

> <i_m_source_file_index>
1278

> <i_lp_mmshare_version>
43012

> <i_f3d_flags>
0

> <s_epik_input>
W0NIM11bQ0BASF0xW0NIMl1bQ0gyXVtDSDJdTihbQ0gyXTEpW0NIMl1bQ0gyXVtOSF1DKD1PKVtOSF1jMm5bY0hdW2NIXXMy

> <s_epik_cmdline>
J2VwaWtfcHl0aG9uJywgJy1waCcsICc3LjAnLCAnLXRuJywgJzgnLCAnLW1hJywgJzIwMCcsICctbWV0YWxfYmluZGluZycsICctaW1hZScsICc8aW5maWxlLm1hZT4nLCAnLW9tYWUnLCAnPG91dGZpbGUubWFlPic=

> <r_lp_tautomer_probability>
0.999

> <r_epik_Ionization_Penalty>
6.22019

> <r_epik_Ionization_Penalty_Charging>
5.38911

> <r_epik_Ionization_Penalty_Neutral>
0.831074

> <r_epik_State_Penalty>
5.38904

> <r_epik_Charging_Adjusted_Penalty>
10.7782

> <i_epik_Tot_Q>
0

> <i_epik_Tot_abs_Q>
2

> <r_epik_Metal_State_Penalty>
1.41502

> <b_epik_Metal_Only>
1

> <s_lp_Force_Field>
OPLS_2005

> <r_lp_Energy>
5.28715

> <b_lp_Chiralities_Consistent>
1

> <s_lp_Variant>
AV-unprocessed.smi:1278-8

> <Gold.Version>
5.8.1

> <Gold.Id.Protein>
6NUR|6NUR_protein|mol2

> <Gold.PLP.Fitness>
41.6173

> <Gold.PLP.PLP>
-27.5950

> <Gold.PLP.part.hbond>
-3.0000

> <Gold.PLP.part.metal>
0.0000

> <Gold.PLP.part.buried>
-3.4453

> <Gold.PLP.part.nonpolar>
-21.4053

> <Gold.PLP.part.repulsive>
0.3388

> <Gold.PLP.ligand.clash>
0.0000

> <Gold.PLP.ligand.torsion>
0.4166

> <Gold.PLP.Chemscore.Hbond>
3.8816

> <Gold.PLP.Chemscore.CHOScore>
0.9953

> <Gold.PLP.Chemscore.Metal>
0.0000

> <Gold.Chemscore.Hbonds>
donor molecule, donor type, donor heavy atom, donor atom, acceptor molecule, acceptor atom, score
      L1  H     6    38       P1  7948  2.00
      L1  H     9    33       P1  7948  1.00
      P1  H  7989  7998       L1    14  0.74
      L1  C    15    34       P1  8028  0.83

> <Gold.PLP.Chemscore.Internal.Correction>
0.2247

> <Gold.Rescore>
     Score         DG    S(hbond)    S(metal)    S(lipo)     H(rot)  DE(clash)    DE(int)     intcor
     13.05     -14.89       2.21        0.00      51.60       1.57       0.03       1.81       ----

> <Gold.Chemscore.Fitness>
13.0465

> <Gold.Chemscore.DG>
-14.8912

> <Gold.Chemscore.ZeroCoef>
-5.4800

> <Gold.Chemscore.Hbond>
2.2115

> <Gold.Chemscore.Metal>
0.0000

> <Gold.Chemscore.Lipo>
51.6047

> <Gold.Chemscore.Internal_Hbond>
0.0000

> <Gold.Chemscore.DEClash>
0.0331

> <Gold.Chemscore.DEInternal>
1.8116

> <Gold.Chemscore.Rot>
1.5676

> <Gold.Chemscore.Internal.Correction>
   9.000000E+99

> <Gold.Chemscore.Hbonds>
donor molecule, donor type, donor heavy atom, donor atom, acceptor molecule, acceptor atom, score
      L1  H     6    38       P1  7948  0.35
      L1  H     9    33       P1  7948  0.65
      P1  H  7989  7998       L1    14  0.09

> <Gold.Chemscore.Hbond.Weighted>
-7.3865

> <Gold.Chemscore.Metal.Weighted>
-0.0000

> <Gold.Chemscore.Lipo.Weighted>
-6.0378

> <Gold.Chemscore.Internal_Hbond.Weighted>
0.0000

> <Gold.Chemscore.DEClash.Weighted>
0.0331

> <Gold.Chemscore.DEInternal.Weighted>
1.8116

> <Gold.Chemscore.Rot.Weighted>
4.0130

> <Gold.Chemscore.Internal.Correction.Weighted>
   9.000000E+99

> <Gold.Protein.RotatedTorsions>
[ 6907 6896 6895 6894 ] final  -99.28 input  -60.11 | X-H torsion
[ 7974 7965 7964 7962 ] final -136.09 input  175.53 | X-H torsion
[ 8008 7997 7996 7995 ] final  -19.68 input   59.86 | X-H torsion
[ 10167 10162 10161 10158 ] final  129.81 input  -65.29 | X-H torsion
[ 10718 10713 10712 10709 ] final  -60.00 input   66.30 | X-H torsion
[ 10763 10752 10751 10750 ] final -152.39 input  -60.55 | X-H torsion
[ 11005 11000 10999 10996 ] final -124.60 input  -57.11 | X-H torsion

> <Gold.Protein.ActiveResidues>
 VAL166  LYS551  ARG553  GLY616  TRP617  ASP618  TYR619  PRO620  LYS621  CYS622 
 ASP623  PHE694  ASN695  SER759  ASP760  ASP761  ALA762  ILE779  LEU786  VAL792 
 PHE793  MET794  SER795  GLU796  ALA797  LYS798  CYS799  TRP800  GLU811  SER814 

> <Gold.Protein.RotatedAtoms>
  150.7074  134.1065  159.3984 H   0  0  0  0  0  0  0  0  0  0  0  0  # atno 6907 bound_to 6896
  151.9052  135.0359  160.0519 H   0  0  0  0  0  0  0  0  0  0  0  0  # atno 6908 bound_to 6896
  152.2381  133.5078  159.5291 H   0  0  0  0  0  0  0  0  0  0  0  0  # atno 6909 bound_to 6896
  144.8957  140.6703  143.5117 H   0  0  0  0  0  0  0  0  0  0  0  0  # atno 7974 bound_to 7965
  154.4820  140.2082  155.9742 H   0  0  0  0  0  0  0  0  0  0  0  0  # atno 8008 bound_to 7997
  156.1179  140.3218  155.8135 H   0  0  0  0  0  0  0  0  0  0  0  0  # atno 8009 bound_to 7997
  155.4519  140.0517  157.2991 H   0  0  0  0  0  0  0  0  0  0  0  0  # atno 8010 bound_to 7997
  139.5459  144.6773  151.4473 H   0  0  0  0  0  0  0  0  0  0  0  0  # atno 10167 bound_to 10162
  156.1021  130.4185  150.0794 H   0  0  0  0  0  0  0  0  0  0  0  0  # atno 10718 bound_to 10713
  154.7997  135.3237  154.7580 H   0  0  0  0  0  0  0  0  0  0  0  0  # atno 10763 bound_to 10752
  153.8251  135.6884  153.4826 H   0  0  0  0  0  0  0  0  0  0  0  0  # atno 10764 bound_to 10752
  153.1707  135.4624  154.9841 H   0  0  0  0  0  0  0  0  0  0  0  0  # atno 10765 bound_to 10752
  140.9828  134.0648  157.3745 H   0  0  0  0  0  0  0  0  0  0  0  0  # atno 11005 bound_to 11000
  145.3705  139.1660  143.4334 LP  0  0  0  0  0  0  0  0  0  0  0  0  # atno 17320 bound_to 7965
  146.3080  140.3776  142.8680 LP  0  0  0  0  0  0  0  0  0  0  0  0  # atno 17321 bound_to 7965
  140.6707  143.8299  150.6996 LP  0  0  0  0  0  0  0  0  0  0  0  0  # atno 17342 bound_to 10162
  140.1722  143.4185  152.1992 LP  0  0  0  0  0  0  0  0  0  0  0  0  # atno 17343 bound_to 10162
  156.8778  130.9546  151.3602 LP  0  0  0  0  0  0  0  0  0  0  0  0  # atno 17370 bound_to 10713
  157.6193  130.8642  149.9081 LP  0  0  0  0  0  0  0  0  0  0  0  0  # atno 17371 bound_to 10713
  139.8958  135.0142  156.7018 LP  0  0  0  0  0  0  0  0  0  0  0  0  # atno 17394 bound_to 11000
  140.7160  133.9182  155.8115 LP  0  0  0  0  0  0  0  0  0  0  0  0  # atno 17395 bound_to 11000

$$$$
