AV-unprocessed.smi:3290|AV-procd|sdf|12611|dock3
  -GOLD-   2272018543D 1   1.00000     0.00000
 Structure written by MMmdl.
 43 44  0  0  0  0  0  0  0  0  2 V2000
  147.2494  132.4352  152.7991 C   0  0  0  0  0  0  0  0  0  0  0  0
  145.9016  132.7022  152.1045 C   0  0  2  0  0  0  0  0  0  0  0  0
  145.6666  131.6357  151.0134 C   0  0  0  0  0  0  0  0  0  0  0  0
  144.3132  131.8141  150.3128 C   0  0  0  0  0  0  0  0  0  0  0  0
  144.1897  133.2215  149.7199 C   0  0  0  0  0  0  0  0  0  0  0  0
  144.4063  134.2889  150.8011 C   0  0  0  0  0  0  0  0  0  0  0  0
  145.7706  134.1371  151.5113 C   0  0  1  0  0  0  0  0  0  0  0  0
  145.9228  135.2589  152.5637 C   0  0  0  0  0  0  0  0  0  0  0  0
  146.2278  136.5666  151.9492 N   0  3  0  0  0  0  0  0  0  0  0  0
  146.1220  137.7077  152.8804 C   0  0  0  0  0  0  0  0  0  0  0  0
  146.6817  138.9991  152.2597 C   0  0  2  0  0  0  0  0  0  0  0  0
  147.4912  138.6578  151.1508 O   0  0  0  0  0  0  0  0  0  0  0  0
  147.4491  139.8121  153.2906 C   0  0  0  0  0  0  0  0  0  0  0  0
  148.5492  139.2490  153.9712 C   0  0  0  0  0  0  0  0  0  0  0  0
  149.2384  140.0418  154.9108 C   0  0  0  0  0  0  0  0  0  0  0  0
  148.9014  141.3182  155.1930 N   0  0  0  0  0  0  0  0  0  0  0  0
  147.8490  141.8535  154.5383 C   0  0  0  0  0  0  0  0  0  0  0  0
  147.0934  141.1475  153.5810 C   0  0  0  0  0  0  0  0  0  0  0  0
  148.0885  132.6364  152.1320 H   0  0  0  0  0  0  0  0  0  0  0  0
  147.3247  131.3952  153.1180 H   0  0  0  0  0  0  0  0  0  0  0  0
  147.3713  133.0426  153.6951 H   0  0  0  0  0  0  0  0  0  0  0  0
  145.1212  132.5759  152.8568 H   0  0  0  0  0  0  0  0  0  0  0  0
  146.4666  131.6831  150.2729 H   0  0  0  0  0  0  0  0  0  0  0  0
  145.7128  130.6374  151.4503 H   0  0  0  0  0  0  0  0  0  0  0  0
  144.1989  131.0671  149.5267 H   0  0  0  0  0  0  0  0  0  0  0  0
  143.5049  131.6417  151.0247 H   0  0  0  0  0  0  0  0  0  0  0  0
  144.9221  133.3510  148.9221 H   0  0  0  0  0  0  0  0  0  0  0  0
  143.2077  133.3474  149.2628 H   0  0  0  0  0  0  0  0  0  0  0  0
  144.3302  135.2758  150.3428 H   0  0  0  0  0  0  0  0  0  0  0  0
  143.6007  134.2295  151.5346 H   0  0  0  0  0  0  0  0  0  0  0  0
  146.5431  134.2720  150.7519 H   0  0  0  0  0  0  0  0  0  0  0  0
  144.9934  135.3783  153.1226 H   0  0  0  0  0  0  0  0  0  0  0  0
  146.6924  134.9945  153.2902 H   0  0  0  0  0  0  0  0  0  0  0  0
  147.1741  136.5391  151.5963 H   0  0  0  0  0  0  0  0  0  0  0  0
  145.0709  137.8477  153.1379 H   0  0  0  0  0  0  0  0  0  0  0  0
  146.6500  137.4726  153.8060 H   0  0  0  0  0  0  0  0  0  0  0  0
  145.8566  139.6070  151.8855 H   0  0  0  0  0  0  0  0  0  0  0  0
  148.1864  139.2950  151.0800 H   0  0  0  0  0  0  0  0  0  0  0  0
  148.8637  138.2332  153.7814 H   0  0  0  0  0  0  0  0  0  0  0  0
  150.0846  139.6397  155.4484 H   0  0  0  0  0  0  0  0  0  0  0  0
  147.6029  142.8763  154.7820 H   0  0  0  0  0  0  0  0  0  0  0  0
  146.2623  141.6252  153.0830 H   0  0  0  0  0  0  0  0  0  0  0  0
  145.5990  136.7175  151.1736 H   0  0  0  0  0  0  0  0  0  0  0  0
  1  2  1  0  0  0  0
  1 19  1  0  0  0  0
  1 20  1  0  0  0  0
  1 21  1  0  0  0  0
  2  7  1  0  0  0  0
  2  3  1  0  0  0  0
  2 22  1  0  0  0  0
  3  4  1  0  0  0  0
  3 23  1  0  0  0  0
  3 24  1  0  0  0  0
  4  5  1  0  0  0  0
  4 25  1  0  0  0  0
  4 26  1  0  0  0  0
  5  6  1  0  0  0  0
  5 27  1  0  0  0  0
  5 28  1  0  0  0  0
  6  7  1  0  0  0  0
  6 29  1  0  0  0  0
  6 30  1  0  0  0  0
  7  8  1  0  0  0  0
  7 31  1  0  0  0  0
  8  9  1  0  0  0  0
  8 32  1  0  0  0  0
  8 33  1  0  0  0  0
  9 10  1  0  0  0  0
  9 34  1  0  0  0  0
  9 43  1  0  0  0  0
 10 11  1  0  0  0  0
 10 35  1  0  0  0  0
 10 36  1  0  0  0  0
 11 12  1  0  0  0  0
 11 13  1  0  0  0  0
 11 37  1  0  0  0  0
 12 38  1  0  0  0  0
 13 18  1  0  0  0  0
 13 14  2  0  0  0  0
 14 15  1  0  0  0  0
 14 39  1  0  0  0  0
 15 16  2  0  0  0  0
 15 40  1  0  0  0  0
 16 17  1  0  0  0  0
 17 18  2  0  0  0  0
 17 41  1  0  0  0  0
 18 42  1  0  0  0  0
M  CHG  1   9   1
M  END
> <s_m_source_file>
AV-unprocessed.smi

> <i_m_source_file_index>
3290

> <i_lp_mmshare_version>
43012

> <i_f3d_flags>
0

> <s_epik_input>
W0NIM11bQ0BASF0xW0NIMl1bQ0gyXVtDSDJdW0NIMl1bQ0BIXTFbQ0gyXVtOSF1bQ0gyXVtDQEhdKFtPSF0pYzJbY0hdW2NIXW5bY0hdW2NIXTI=

> <s_epik_cmdline>
J2VwaWtfcHl0aG9uJywgJy1waCcsICc3LjAnLCAnLXRuJywgJzgnLCAnLW1hJywgJzIwMCcsICctbWV0YWxfYmluZGluZycsICctaW1hZScsICc8aW5maWxlLm1hZT4nLCAnLW9tYWUnLCAnPG91dGZpbGUubWFlPic=

> <r_lp_tautomer_probability>
1

> <r_epik_Ionization_Penalty>
0.00420552

> <r_epik_Ionization_Penalty_Charging>
0.00207255

> <r_epik_Ionization_Penalty_Neutral>
0.00213297

> <r_epik_State_Penalty>
-0

> <r_epik_Charging_Adjusted_Penalty>
0.00207255

> <i_epik_Tot_Q>
1

> <i_epik_Tot_abs_Q>
1

> <r_epik_Metal_State_Penalty>
-0

> <b_epik_Metal_Only>
0

> <s_lp_Force_Field>
OPLS_2005

> <r_lp_Energy>
17.3626

> <b_lp_Chiralities_Consistent>
1

> <s_lp_Variant>
AV-unprocessed.smi:3290-1

> <Gold.Version>
5.8.1

> <Gold.Id.Protein>
6NUR|6NUR_protein|mol2

> <Gold.PLP.Fitness>
47.5606

> <Gold.PLP.PLP>
-36.2458

> <Gold.PLP.part.hbond>
-4.0000

> <Gold.PLP.part.metal>
0.0000

> <Gold.PLP.part.buried>
0.4713

> <Gold.PLP.part.nonpolar>
-32.3131

> <Gold.PLP.part.repulsive>
0.1688

> <Gold.PLP.ligand.clash>
0.0000

> <Gold.PLP.ligand.torsion>
0.7951

> <Gold.PLP.Chemscore.Hbond>
3.2784

> <Gold.PLP.Chemscore.CHOScore>
0.9994

> <Gold.PLP.Chemscore.Metal>
0.0000

> <Gold.Chemscore.Hbonds>
donor molecule, donor type, donor heavy atom, donor atom, acceptor molecule, acceptor atom, score
      L1  H     9    34       P1  7948  2.00
      L1  H    12    38       P1  7957  1.00
      P1  H  7954  7966       L1    12  0.32
      L1  C    17    41       P1  8028  1.00

> <Gold.PLP.Chemscore.Internal.Correction>
0.0716

> <Gold.Rescore>
     Score         DG    S(hbond)    S(metal)    S(lipo)     H(rot)  DE(clash)    DE(int)     intcor
     16.98     -18.25       1.90        0.00      99.75       2.05       0.49       0.78       ----

> <Gold.Chemscore.Fitness>
16.9844

> <Gold.Chemscore.DG>
-18.2492

> <Gold.Chemscore.ZeroCoef>
-5.4800

> <Gold.Chemscore.Hbond>
1.9000

> <Gold.Chemscore.Metal>
0.0000

> <Gold.Chemscore.Lipo>
99.7480

> <Gold.Chemscore.Internal_Hbond>
0.0000

> <Gold.Chemscore.DEClash>
0.4886

> <Gold.Chemscore.DEInternal>
0.7762

> <Gold.Chemscore.Rot>
2.0498

> <Gold.Chemscore.Internal.Correction>
   9.000000E+99

> <Gold.Chemscore.Hbonds>
donor molecule, donor type, donor heavy atom, donor atom, acceptor molecule, acceptor atom, score
      L1  H     9    34       P1  7948  0.96
      L1  H    12    38       P1  7957  0.48
      P1  H  7954  7966       L1    12  0.01

> <Gold.Chemscore.Hbond.Weighted>
-6.3462

> <Gold.Chemscore.Metal.Weighted>
-0.0000

> <Gold.Chemscore.Lipo.Weighted>
-11.6705

> <Gold.Chemscore.Internal_Hbond.Weighted>
0.0000

> <Gold.Chemscore.DEClash.Weighted>
0.4886

> <Gold.Chemscore.DEInternal.Weighted>
0.7762

> <Gold.Chemscore.Rot.Weighted>
5.2475

> <Gold.Chemscore.Internal.Correction.Weighted>
   9.000000E+99

> <Gold.Protein.RotatedTorsions>
[ 6907 6896 6895 6894 ] final    6.27 input  -60.11 | X-H torsion
[ 7974 7965 7964 7962 ] final   58.02 input  175.53 | X-H torsion
[ 8008 7997 7996 7995 ] final    7.19 input   59.86 | X-H torsion
[ 10167 10162 10161 10158 ] final  -87.01 input  -65.29 | X-H torsion
[ 10718 10713 10712 10709 ] final  -65.35 input   66.30 | X-H torsion
[ 10763 10752 10751 10750 ] final  -27.49 input  -60.55 | X-H torsion
[ 11005 11000 10999 10996 ] final  -97.48 input  -57.11 | X-H torsion

> <Gold.Protein.ActiveResidues>
 VAL166  LYS551  ARG553  GLY616  TRP617  ASP618  TYR619  PRO620  LYS621  CYS622 
 ASP623  PHE694  ASN695  SER759  ASP760  ASP761  ALA762  ILE779  LEU786  VAL792 
 PHE793  MET794  SER795  GLU796  ALA797  LYS798  CYS799  TRP800  GLU811  SER814 

> <Gold.Protein.RotatedAtoms>
  151.6711  135.0976  160.0197 H   0  0  0  0  0  0  0  0  0  0  0  0  # atno 6907 bound_to 6896
  152.3891  133.6649  159.6231 H   0  0  0  0  0  0  0  0  0  0  0  0  # atno 6908 bound_to 6896
  150.7810  133.8901  159.3352 H   0  0  0  0  0  0  0  0  0  0  0  0  # atno 6909 bound_to 6896
  145.9227  139.3742  143.0468 H   0  0  0  0  0  0  0  0  0  0  0  0  # atno 7974 bound_to 7965
  154.7506  140.2766  155.6295 H   0  0  0  0  0  0  0  0  0  0  0  0  # atno 8008 bound_to 7997
  156.2895  140.2679  156.2185 H   0  0  0  0  0  0  0  0  0  0  0  0  # atno 8009 bound_to 7997
  155.0141  140.0372  157.2401 H   0  0  0  0  0  0  0  0  0  0  0  0  # atno 8010 bound_to 7997
  140.3886  143.2715  151.9293 H   0  0  0  0  0  0  0  0  0  0  0  0  # atno 10167 bound_to 10162
  156.0674  130.4246  150.1552 H   0  0  0  0  0  0  0  0  0  0  0  0  # atno 10718 bound_to 10713
  153.7329  135.6937  153.4985 H   0  0  0  0  0  0  0  0  0  0  0  0  # atno 10763 bound_to 10752
  153.2123  135.4398  155.0393 H   0  0  0  0  0  0  0  0  0  0  0  0  # atno 10764 bound_to 10752
  154.8247  135.3440  154.6858 H   0  0  0  0  0  0  0  0  0  0  0  0  # atno 10765 bound_to 10752
  141.1377  133.8174  157.0712 H   0  0  0  0  0  0  0  0  0  0  0  0  # atno 11005 bound_to 11000
  145.8529  140.9519  143.0740 LP  0  0  0  0  0  0  0  0  0  0  0  0  # atno 17320 bound_to 7965
  144.6755  140.0430  143.7480 LP  0  0  0  0  0  0  0  0  0  0  0  0  # atno 17321 bound_to 7965
  139.4790  144.5750  151.8027 LP  0  0  0  0  0  0  0  0  0  0  0  0  # atno 17342 bound_to 10162
  140.4863  144.1375  150.5941 LP  0  0  0  0  0  0  0  0  0  0  0  0  # atno 17343 bound_to 10162
  156.9609  130.9804  151.3479 LP  0  0  0  0  0  0  0  0  0  0  0  0  # atno 17370 bound_to 10713
  157.5725  130.8320  149.8411 LP  0  0  0  0  0  0  0  0  0  0  0  0  # atno 17371 bound_to 10713
  140.0510  134.9805  157.1136 LP  0  0  0  0  0  0  0  0  0  0  0  0  # atno 17394 bound_to 11000
  140.3990  134.2103  155.7164 LP  0  0  0  0  0  0  0  0  0  0  0  0  # atno 17395 bound_to 11000

$$$$
