AV-unprocessed.smi:1696|AV-procd|sdf|6799|dock9
  -GOLD-   22720 7563D 1   1.00000     0.00000
 Structure written by MMmdl.
 39 40  0  0  0  0  0  0  0  0  2 V2000
  146.6493  140.6589  154.8920 C   0  0  0  0  0  0  0  0  0  0  0  0
  147.2141  140.7272  153.4636 C   0  0  0  0  0  0  0  0  0  0  0  0
  147.4962  139.3482  152.8068 C   0  0  2  0  0  0  0  0  0  0  0  0
  146.2240  138.4655  152.7030 C   0  0  0  0  0  0  0  0  0  0  0  0
  146.5143  137.1331  152.1779 N   0  0  0  0  0  0  0  0  0  0  0  0
  145.6013  136.2099  151.8416 C   0  0  0  0  0  0  0  0  0  0  0  0
  144.3876  136.3802  151.9565 O   0  0  0  0  0  0  0  0  0  0  0  0
  146.1874  135.0977  151.3650 N   0  0  0  0  0  0  0  0  0  0  0  0
  145.5649  133.9156  150.8846 C   0  0  0  0  0  0  0  0  0  0  0  0
  146.2006  132.9458  150.2168 N   0  0  0  0  0  0  0  0  0  0  0  0
  145.3421  131.9000  149.8680 C   0  0  0  0  0  0  0  0  0  0  0  0
  144.0473  132.0915  150.2818 C   0  0  0  0  0  0  0  0  0  0  0  0
  143.8531  133.6021  151.1302 S   0  0  0  0  0  0  0  0  0  0  0  0
  148.6042  138.6233  153.4972 N   0  3  0  0  0  0  0  0  0  0  0  0
  149.7806  139.4529  153.8616 C   0  0  0  0  0  0  0  0  0  0  0  0
  150.3361  138.9033  155.1835 C   0  0  0  0  0  0  0  0  0  0  0  0
  149.5397  137.6304  155.4487 C   0  0  0  0  0  0  0  0  0  0  0  0
  148.2252  137.8815  154.7196 C   0  0  0  0  0  0  0  0  0  0  0  0
  146.4855  141.6618  155.2867 H   0  0  0  0  0  0  0  0  0  0  0  0
  147.3314  140.1479  155.5710 H   0  0  0  0  0  0  0  0  0  0  0  0
  145.6932  140.1380  154.9254 H   0  0  0  0  0  0  0  0  0  0  0  0
  146.5209  141.2956  152.8431 H   0  0  0  0  0  0  0  0  0  0  0  0
  148.1222  141.3299  153.4722 H   0  0  0  0  0  0  0  0  0  0  0  0
  147.8362  139.5461  151.7887 H   0  0  0  0  0  0  0  0  0  0  0  0
  145.7796  138.3113  153.6857 H   0  0  0  0  0  0  0  0  0  0  0  0
  145.4604  138.9720  152.1111 H   0  0  0  0  0  0  0  0  0  0  0  0
  147.4885  136.8987  152.0532 H   0  0  0  0  0  0  0  0  0  0  0  0
  147.1961  135.0989  151.3311 H   0  0  0  0  0  0  0  0  0  0  0  0
  145.7379  131.0551  149.3240 H   0  0  0  0  0  0  0  0  0  0  0  0
  143.1998  131.4377  150.1393 H   0  0  0  0  0  0  0  0  0  0  0  0
  150.5231  139.4049  153.0643 H   0  0  0  0  0  0  0  0  0  0  0  0
  149.5024  140.4993  153.9956 H   0  0  0  0  0  0  0  0  0  0  0  0
  151.4089  138.7144  155.1392 H   0  0  0  0  0  0  0  0  0  0  0  0
  150.1602  139.6229  155.9839 H   0  0  0  0  0  0  0  0  0  0  0  0
  150.0504  136.7748  155.0047 H   0  0  0  0  0  0  0  0  0  0  0  0
  149.4036  137.4272  156.5114 H   0  0  0  0  0  0  0  0  0  0  0  0
  147.5710  138.4983  155.3381 H   0  0  0  0  0  0  0  0  0  0  0  0
  147.7050  136.9503  154.4944 H   0  0  0  0  0  0  0  0  0  0  0  0
  148.9465  137.9267  152.8506 H   0  0  0  0  0  0  0  0  0  0  0  0
  1  2  1  0  0  0  0
  1 19  1  0  0  0  0
  1 20  1  0  0  0  0
  1 21  1  0  0  0  0
  2  3  1  0  0  0  0
  2 22  1  0  0  0  0
  2 23  1  0  0  0  0
  3  4  1  0  0  0  0
  3 14  1  0  0  0  0
  3 24  1  0  0  0  0
  4  5  1  0  0  0  0
  4 25  1  0  0  0  0
  4 26  1  0  0  0  0
  5  6  1  0  0  0  0
  5 27  1  0  0  0  0
  6  7  2  0  0  0  0
  6  8  1  0  0  0  0
  8  9  1  0  0  0  0
  8 28  1  0  0  0  0
  9 13  1  0  0  0  0
  9 10  2  0  0  0  0
 10 11  1  0  0  0  0
 11 12  2  0  0  0  0
 11 29  1  0  0  0  0
 12 13  1  0  0  0  0
 12 30  1  0  0  0  0
 14 18  1  0  0  0  0
 14 15  1  0  0  0  0
 14 39  1  0  0  0  0
 15 16  1  0  0  0  0
 15 31  1  0  0  0  0
 15 32  1  0  0  0  0
 16 17  1  0  0  0  0
 16 33  1  0  0  0  0
 16 34  1  0  0  0  0
 17 18  1  0  0  0  0
 17 35  1  0  0  0  0
 17 36  1  0  0  0  0
 18 37  1  0  0  0  0
 18 38  1  0  0  0  0
M  CHG  1  14   1
M  END
> <s_m_source_file>
AV-unprocessed.smi

> <i_m_source_file_index>
1696

> <i_lp_mmshare_version>
43012

> <i_f3d_flags>
0

> <s_epik_input>
W0NIMl0xW0NIMl1bQ0gyXVtDSDJdTjFbQ0BIXShbQ0gyXVtDSDNdKVtDSDJdW05IXUMoPU8pW05IXWMybltjSF1bY0hdczI=

> <s_epik_cmdline>
J2VwaWtfcHl0aG9uJywgJy1waCcsICc3LjAnLCAnLXRuJywgJzgnLCAnLW1hJywgJzIwMCcsICctbWV0YWxfYmluZGluZycsICctaW1hZScsICc8aW5maWxlLm1hZT4nLCAnLW9tYWUnLCAnPG91dGZpbGUubWFlPic=

> <r_lp_tautomer_probability>
1

> <r_epik_Ionization_Penalty>
0.0013883

> <r_epik_Ionization_Penalty_Charging>
0.00115997

> <r_epik_Ionization_Penalty_Neutral>
0.000228323

> <r_epik_State_Penalty>
-0

> <r_epik_Charging_Adjusted_Penalty>
0.00115997

> <i_epik_Tot_Q>
1

> <i_epik_Tot_abs_Q>
1

> <r_epik_Metal_State_Penalty>
0.0131845

> <b_epik_Metal_Only>
0

> <s_lp_Force_Field>
OPLS_2005

> <r_lp_Energy>
31.4712

> <b_lp_Chiralities_Consistent>
1

> <s_lp_Variant>
AV-unprocessed.smi:1696-1

> <Gold.Version>
5.8.1

> <Gold.Id.Protein>
6NUR|6NUR_protein|mol2

> <Gold.PLP.Fitness>
41.1091

> <Gold.PLP.PLP>
-28.5979

> <Gold.PLP.part.hbond>
-4.0000

> <Gold.PLP.part.metal>
0.0000

> <Gold.PLP.part.buried>
-0.3006

> <Gold.PLP.part.nonpolar>
-26.1149

> <Gold.PLP.part.repulsive>
0.7062

> <Gold.PLP.ligand.clash>
0.0000

> <Gold.PLP.ligand.torsion>
0.3746

> <Gold.PLP.Chemscore.Hbond>
3.7558

> <Gold.PLP.Chemscore.CHOScore>
0.6316

> <Gold.PLP.Chemscore.Metal>
0.0000

> <Gold.Chemscore.Hbonds>
donor molecule, donor type, donor heavy atom, donor atom, acceptor molecule, acceptor atom, score
      L1  H     5    27       P1  7948  1.00
      L1  H     8    28       P1  7948  0.76
      L1  H    14    39       P1  7948  2.00
      L1  C    12    30       P1 10952  0.63

> <Gold.PLP.Chemscore.Internal.Correction>
0.0980

> <Gold.Rescore>
     Score         DG    S(hbond)    S(metal)    S(lipo)     H(rot)  DE(clash)    DE(int)     intcor
     15.67     -17.50       2.62        0.00      66.57       1.77       0.25       1.57       ----

> <Gold.Chemscore.Fitness>
15.6737

> <Gold.Chemscore.DG>
-17.5007

> <Gold.Chemscore.ZeroCoef>
-5.4800

> <Gold.Chemscore.Hbond>
2.6243

> <Gold.Chemscore.Metal>
0.0000

> <Gold.Chemscore.Lipo>
66.5650

> <Gold.Chemscore.Internal_Hbond>
0.0000

> <Gold.Chemscore.DEClash>
0.2548

> <Gold.Chemscore.DEInternal>
1.5721

> <Gold.Chemscore.Rot>
1.7705

> <Gold.Chemscore.Internal.Correction>
   9.000000E+99

> <Gold.Chemscore.Hbonds>
donor molecule, donor type, donor heavy atom, donor atom, acceptor molecule, acceptor atom, score
      L1  H     5    27       P1  7948  0.99
      L1  H     8    28       P1  7948  0.53
      L1  H    14    39       P1  7948  0.98

> <Gold.Chemscore.Hbond.Weighted>
-8.7650

> <Gold.Chemscore.Metal.Weighted>
-0.0000

> <Gold.Chemscore.Lipo.Weighted>
-7.7881

> <Gold.Chemscore.Internal_Hbond.Weighted>
0.0000

> <Gold.Chemscore.DEClash.Weighted>
0.2548

> <Gold.Chemscore.DEInternal.Weighted>
1.5721

> <Gold.Chemscore.Rot.Weighted>
4.5324

> <Gold.Chemscore.Internal.Correction.Weighted>
   9.000000E+99

> <Gold.Protein.RotatedTorsions>
[ 6907 6896 6895 6894 ] final  -73.04 input  -60.11 | X-H torsion
[ 7974 7965 7964 7962 ] final  107.04 input  175.53 | X-H torsion
[ 8008 7997 7996 7995 ] final -108.71 input   59.86 | X-H torsion
[ 10167 10162 10161 10158 ] final -135.00 input  -65.29 | X-H torsion
[ 10718 10713 10712 10709 ] final   41.56 input   66.30 | X-H torsion
[ 10763 10752 10751 10750 ] final   12.90 input  -60.55 | X-H torsion
[ 11005 11000 10999 10996 ] final  153.67 input  -57.11 | X-H torsion

> <Gold.Protein.ActiveResidues>
 VAL166  LYS551  ARG553  GLY616  TRP617  ASP618  TYR619  PRO620  LYS621  CYS622 
 ASP623  PHE694  ASN695  SER759  ASP760  ASP761  ALA762  ILE779  LEU786  VAL792 
 PHE793  MET794  SER795  GLU796  ALA797  LYS798  CYS799  TRP800  GLU811  SER814 

> <Gold.Protein.RotatedAtoms>
  150.7145  134.5074  159.5590 H   0  0  0  0  0  0  0  0  0  0  0  0  # atno 6907 bound_to 6896
  152.2658  134.7983  160.0432 H   0  0  0  0  0  0  0  0  0  0  0  0  # atno 6908 bound_to 6896
  151.8680  133.3435  159.3762 H   0  0  0  0  0  0  0  0  0  0  0  0  # atno 6909 bound_to 6896
  145.2987  139.2576  143.3825 H   0  0  0  0  0  0  0  0  0  0  0  0  # atno 7974 bound_to 7965
  154.9483  140.0401  157.2131 H   0  0  0  0  0  0  0  0  0  0  0  0  # atno 8008 bound_to 7997
  154.8002  140.2850  155.5905 H   0  0  0  0  0  0  0  0  0  0  0  0  # atno 8009 bound_to 7997
  156.2960  140.2556  156.2869 H   0  0  0  0  0  0  0  0  0  0  0  0  # atno 8010 bound_to 7997
  139.8824  143.6823  152.2625 H   0  0  0  0  0  0  0  0  0  0  0  0  # atno 10167 bound_to 10162
  157.3949  130.7827  149.7300 H   0  0  0  0  0  0  0  0  0  0  0  0  # atno 10718 bound_to 10713
  153.1776  135.6822  153.8522 H   0  0  0  0  0  0  0  0  0  0  0  0  # atno 10763 bound_to 10752
  153.7865  135.3175  155.3374 H   0  0  0  0  0  0  0  0  0  0  0  0  # atno 10764 bound_to 10752
  154.8039  135.4761  154.0437 H   0  0  0  0  0  0  0  0  0  0  0  0  # atno 10765 bound_to 10752
  140.1419  134.8733  157.2342 H   0  0  0  0  0  0  0  0  0  0  0  0  # atno 11005 bound_to 11000
  146.3159  140.3496  142.8655 LP  0  0  0  0  0  0  0  0  0  0  0  0  # atno 17320 bound_to 7965
  144.9111  140.7759  143.5807 LP  0  0  0  0  0  0  0  0  0  0  0  0  # atno 17321 bound_to 7965
  139.7184  144.7607  151.0995 LP  0  0  0  0  0  0  0  0  0  0  0  0  # atno 17342 bound_to 10162
  140.7742  143.5239  150.9503 LP  0  0  0  0  0  0  0  0  0  0  0  0  # atno 17343 bound_to 10162
  155.9808  130.4026  150.3509 LP  0  0  0  0  0  0  0  0  0  0  0  0  # atno 17370 bound_to 10713
  157.1629  131.0349  151.2832 LP  0  0  0  0  0  0  0  0  0  0  0  0  # atno 17371 bound_to 10713
  140.2711  134.3459  155.7373 LP  0  0  0  0  0  0  0  0  0  0  0  0  # atno 17394 bound_to 11000
  141.2187  133.7424  156.9224 LP  0  0  0  0  0  0  0  0  0  0  0  0  # atno 17395 bound_to 11000

$$$$
