AV-unprocessed.smi:1679|AV-procd|sdf|6730|dock3
  -GOLD-   22720 7473D 1   1.00000     0.00000
 Structure written by MMmdl.
 45 46  0  0  0  0  0  0  0  0  1 V2000
  150.2010  142.4977  156.4857 C   0  0  0  0  0  0  0  0  0  0  0  0
  151.0831  141.3530  155.9634 C   0  0  1  0  0  0  0  0  0  0  0  0
  151.6703  140.5132  157.1178 C   0  0  0  0  0  0  0  0  0  0  0  0
  152.5860  139.3945  156.5943 C   0  0  0  0  0  0  0  0  0  0  0  0
  151.8636  138.5089  155.5673 C   0  0  0  0  0  0  0  0  0  0  0  0
  151.2773  139.3498  154.4231 C   0  0  0  0  0  0  0  0  0  0  0  0
  150.3344  140.4517  154.9550 C   0  0  1  0  0  0  0  0  0  0  0  0
  149.2051  139.9150  155.6343 O   0  0  0  0  0  0  0  0  0  0  0  0
  148.5706  138.7955  155.0357 C   0  0  0  0  0  0  0  0  0  0  0  0
  148.1078  139.1870  153.6231 C   0  0  0  0  0  0  0  0  0  0  0  0
  147.5059  138.0571  152.9202 N   0  0  0  0  0  0  0  0  0  0  0  0
  146.2401  137.6392  153.0830 C   0  0  0  0  0  0  0  0  0  0  0  0
  145.4310  138.2097  153.8161 O   0  0  0  0  0  0  0  0  0  0  0  0
  145.8107  136.4006  152.2870 C   0  0  0  0  0  0  0  0  0  0  0  0
  144.5476  135.8482  152.7962 N   0  0  0  0  0  0  0  0  0  0  0  0
  143.3883  136.6108  152.7728 C   0  0  0  0  0  0  0  0  0  0  0  0
  142.2047  136.1842  153.2736 C   0  0  0  0  0  0  0  0  0  0  0  0
  142.0933  134.8620  153.8801 C   0  0  0  0  0  0  0  0  0  0  0  0
  141.0686  134.3880  154.3657 O   0  0  0  0  0  0  0  0  0  0  0  0
  143.2794  134.1235  153.8797 N   0  0  0  0  0  0  0  0  0  0  0  0
  144.5014  134.5565  153.3636 C   0  0  0  0  0  0  0  0  0  0  0  0
  145.4883  133.8243  153.4180 O   0  0  0  0  0  0  0  0  0  0  0  0
  143.2504  133.2013  154.2898 H   0  0  0  0  0  0  0  0  0  0  0  0
  149.3527  142.1201  157.0577 H   0  0  0  0  0  0  0  0  0  0  0  0
  149.8087  143.0977  155.6644 H   0  0  0  0  0  0  0  0  0  0  0  0
  150.7680  143.1623  157.1378 H   0  0  0  0  0  0  0  0  0  0  0  0
  151.9186  141.8138  155.4345 H   0  0  0  0  0  0  0  0  0  0  0  0
  152.2318  141.1528  157.7990 H   0  0  0  0  0  0  0  0  0  0  0  0
  150.8625  140.0768  157.7068 H   0  0  0  0  0  0  0  0  0  0  0  0
  153.4713  139.8352  156.1348 H   0  0  0  0  0  0  0  0  0  0  0  0
  152.9414  138.7852  157.4254 H   0  0  0  0  0  0  0  0  0  0  0  0
  152.5531  137.7649  155.1681 H   0  0  0  0  0  0  0  0  0  0  0  0
  151.0618  137.9557  156.0558 H   0  0  0  0  0  0  0  0  0  0  0  0
  152.0939  139.8166  153.8709 H   0  0  0  0  0  0  0  0  0  0  0  0
  150.7690  138.7080  153.7043 H   0  0  0  0  0  0  0  0  0  0  0  0
  149.9853  141.0622  154.1208 H   0  0  0  0  0  0  0  0  0  0  0  0
  149.2660  137.9574  154.9757 H   0  0  0  0  0  0  0  0  0  0  0  0
  147.7143  138.4744  155.6288 H   0  0  0  0  0  0  0  0  0  0  0  0
  147.4126  140.0269  153.6701 H   0  0  0  0  0  0  0  0  0  0  0  0
  148.9634  139.5297  153.0408 H   0  0  0  0  0  0  0  0  0  0  0  0
  148.1026  137.5364  152.2938 H   0  0  0  0  0  0  0  0  0  0  0  0
  145.6967  136.6901  151.2414 H   0  0  0  0  0  0  0  0  0  0  0  0
  146.6002  135.6461  152.2909 H   0  0  0  0  0  0  0  0  0  0  0  0
  143.4279  137.6013  152.3420 H   0  0  0  0  0  0  0  0  0  0  0  0
  141.3374  136.8270  153.2297 H   0  0  0  0  0  0  0  0  0  0  0  0
  1  2  1  0  0  0  0
  1 24  1  0  0  0  0
  1 25  1  0  0  0  0
  1 26  1  0  0  0  0
  2  7  1  0  0  0  0
  2  3  1  0  0  0  0
  2 27  1  0  0  0  0
  3  4  1  0  0  0  0
  3 28  1  0  0  0  0
  3 29  1  0  0  0  0
  4  5  1  0  0  0  0
  4 30  1  0  0  0  0
  4 31  1  0  0  0  0
  5  6  1  0  0  0  0
  5 32  1  0  0  0  0
  5 33  1  0  0  0  0
  6  7  1  0  0  0  0
  6 34  1  0  0  0  0
  6 35  1  0  0  0  0
  7  8  1  0  0  0  0
  7 36  1  0  0  0  0
  8  9  1  0  0  0  0
  9 10  1  0  0  0  0
  9 37  1  0  0  0  0
  9 38  1  0  0  0  0
 10 11  1  0  0  0  0
 10 39  1  0  0  0  0
 10 40  1  0  0  0  0
 11 12  1  0  0  0  0
 11 41  1  0  0  0  0
 12 13  2  0  0  0  0
 12 14  1  0  0  0  0
 14 15  1  0  0  0  0
 14 42  1  0  0  0  0
 14 43  1  0  0  0  0
 15 21  1  0  0  0  0
 15 16  1  0  0  0  0
 16 17  2  0  0  0  0
 16 44  1  0  0  0  0
 17 18  1  0  0  0  0
 17 45  1  0  0  0  0
 18 19  2  0  0  0  0
 18 20  1  0  0  0  0
 20 23  1  0  0  0  0
 20 21  1  0  0  0  0
 21 22  2  0  0  0  0
M  END
> <s_m_source_file>
AV-unprocessed.smi

> <i_m_source_file_index>
1679

> <i_lp_mmshare_version>
43012

> <i_f3d_flags>
0

> <s_epik_input>
W0NIM11bQ0BASF0xW0NIMl1bQ0gyXVtDSDJdW0NIMl1bQ0BIXTFPW0NIMl1bQ0gyXVtOSF1DKD1PKVtDSDJdbjJbY0hdW2NIXWMoPU8pW25IXWMyPU8=

> <s_epik_cmdline>
J2VwaWtfcHl0aG9uJywgJy1waCcsICc3LjAnLCAnLXRuJywgJzgnLCAnLW1hJywgJzIwMCcsICctbWV0YWxfYmluZGluZycsICctaW1hZScsICc8aW5maWxlLm1hZT4nLCAnLW9tYWUnLCAnPG91dGZpbGUubWFlPic=

> <r_lp_tautomer_probability>
0.999537

> <r_epik_Ionization_Penalty>
0.0033132

> <r_epik_Ionization_Penalty_Charging>
0.00331317

> <r_epik_Ionization_Penalty_Neutral>
2.78599e-08

> <r_epik_State_Penalty>
0.002342

> <r_epik_Charging_Adjusted_Penalty>
0.00565517

> <i_epik_Tot_Q>
0

> <i_epik_Tot_abs_Q>
0

> <r_epik_Metal_State_Penalty>
0.365595

> <b_epik_Metal_Only>
0

> <s_lp_Force_Field>
OPLS_2005

> <r_lp_Energy>
9.24545

> <b_lp_Chiralities_Consistent>
1

> <s_lp_Variant>
AV-unprocessed.smi:1679-2

> <Gold.Version>
5.8.1

> <Gold.Id.Protein>
6NUR|6NUR_protein|mol2

> <Gold.PLP.Fitness>
47.1404

> <Gold.PLP.PLP>
-33.5307

> <Gold.PLP.part.hbond>
-3.8698

> <Gold.PLP.part.metal>
0.0000

> <Gold.PLP.part.buried>
-3.9911

> <Gold.PLP.part.nonpolar>
-26.3868

> <Gold.PLP.part.repulsive>
0.9677

> <Gold.PLP.ligand.clash>
0.0000

> <Gold.PLP.ligand.torsion>
0.4828

> <Gold.PLP.Chemscore.Hbond>
3.0000

> <Gold.PLP.Chemscore.CHOScore>
1.8240

> <Gold.PLP.Chemscore.Metal>
0.0000

> <Gold.Chemscore.Hbonds>
donor molecule, donor type, donor heavy atom, donor atom, acceptor molecule, acceptor atom, score
      L1  H    11    41       P1  7948  1.00
      L1  H    20    23       P1 10957  1.00
      P1  H 11000 11005       L1    19  0.93
      L1  C    16    44       P1 10171  0.49
      L1  C    16    44       P1 10175  0.23

> <Gold.PLP.Chemscore.Internal.Correction>
0.1032

> <Gold.Rescore>
     Score         DG    S(hbond)    S(metal)    S(lipo)     H(rot)  DE(clash)    DE(int)     intcor
     13.86     -16.62       2.93        0.00      66.78       2.52       0.75       2.01       ----

> <Gold.Chemscore.Fitness>
13.8616

> <Gold.Chemscore.DG>
-16.6173

> <Gold.Chemscore.ZeroCoef>
-5.4800

> <Gold.Chemscore.Hbond>
2.9254

> <Gold.Chemscore.Metal>
0.0000

> <Gold.Chemscore.Lipo>
66.7825

> <Gold.Chemscore.Internal_Hbond>
0.0000

> <Gold.Chemscore.DEClash>
0.7488

> <Gold.Chemscore.DEInternal>
2.0069

> <Gold.Chemscore.Rot>
2.5185

> <Gold.Chemscore.Internal.Correction>
   9.000000E+99

> <Gold.Chemscore.Hbonds>
donor molecule, donor type, donor heavy atom, donor atom, acceptor molecule, acceptor atom, score
      L1  H    11    41       P1  7948  0.96
      L1  H    20    23       P1 10957  0.99
      P1  H 11000 11005       L1    19  0.88

> <Gold.Chemscore.Hbond.Weighted>
-9.7710

> <Gold.Chemscore.Metal.Weighted>
-0.0000

> <Gold.Chemscore.Lipo.Weighted>
-7.8135

> <Gold.Chemscore.Internal_Hbond.Weighted>
0.0000

> <Gold.Chemscore.DEClash.Weighted>
0.7488

> <Gold.Chemscore.DEInternal.Weighted>
2.0069

> <Gold.Chemscore.Rot.Weighted>
6.4472

> <Gold.Chemscore.Internal.Correction.Weighted>
   9.000000E+99

> <Gold.Protein.RotatedTorsions>
[ 6907 6896 6895 6894 ] final -128.21 input  -60.11 | X-H torsion
[ 7974 7965 7964 7962 ] final   18.46 input  175.53 | X-H torsion
[ 8008 7997 7996 7995 ] final  152.52 input   59.86 | X-H torsion
[ 10167 10162 10161 10158 ] final  -76.59 input  -65.29 | X-H torsion
[ 10718 10713 10712 10709 ] final  -89.31 input   66.30 | X-H torsion
[ 10763 10752 10751 10750 ] final  150.71 input  -60.55 | X-H torsion
[ 11005 11000 10999 10996 ] final   21.75 input  -57.11 | X-H torsion

> <Gold.Protein.ActiveResidues>
 VAL166  LYS551  ARG553  GLY616  TRP617  ASP618  TYR619  PRO620  LYS621  CYS622 
 ASP623  PHE694  ASN695  SER759  ASP760  ASP761  ALA762  ILE779  LEU786  VAL792 
 PHE793  MET794  SER795  GLU796  ALA797  LYS798  CYS799  TRP800  GLU811  SER814 

> <Gold.Protein.RotatedAtoms>
  150.9154  133.6945  159.2844 H   0  0  0  0  0  0  0  0  0  0  0  0  # atno 6907 bound_to 6896
  151.4418  135.1019  159.9682 H   0  0  0  0  0  0  0  0  0  0  0  0  # atno 6908 bound_to 6896
  152.4952  133.8561  159.7281 H   0  0  0  0  0  0  0  0  0  0  0  0  # atno 6909 bound_to 6896
  146.2184  139.8454  142.8633 H   0  0  0  0  0  0  0  0  0  0  0  0  # atno 7974 bound_to 7965
  156.2625  140.2018  156.6346 H   0  0  0  0  0  0  0  0  0  0  0  0  # atno 8008 bound_to 7997
  154.6656  140.0556  157.0135 H   0  0  0  0  0  0  0  0  0  0  0  0  # atno 8009 bound_to 7997
  155.1211  140.3225  155.4500 H   0  0  0  0  0  0  0  0  0  0  0  0  # atno 8010 bound_to 7997
  140.4844  143.2394  151.8007 H   0  0  0  0  0  0  0  0  0  0  0  0  # atno 10167 bound_to 10162
  155.9984  130.4867  150.5151 H   0  0  0  0  0  0  0  0  0  0  0  0  # atno 10718 bound_to 10713
  154.0919  135.2852  155.3269 H   0  0  0  0  0  0  0  0  0  0  0  0  # atno 10763 bound_to 10752
  154.6614  135.5333  153.8026 H   0  0  0  0  0  0  0  0  0  0  0  0  # atno 10764 bound_to 10752
  153.0410  135.6535  154.1088 H   0  0  0  0  0  0  0  0  0  0  0  0  # atno 10765 bound_to 10752
  140.3881  134.1848  155.7663 H   0  0  0  0  0  0  0  0  0  0  0  0  # atno 11005 bound_to 11000
  145.2856  141.0152  143.3692 LP  0  0  0  0  0  0  0  0  0  0  0  0  # atno 17320 bound_to 7965
  144.9116  139.4521  143.6584 LP  0  0  0  0  0  0  0  0  0  0  0  0  # atno 17321 bound_to 7965
  139.4839  144.4731  151.9401 LP  0  0  0  0  0  0  0  0  0  0  0  0  # atno 17342 bound_to 10162
  140.3817  144.2728  150.5908 LP  0  0  0  0  0  0  0  0  0  0  0  0  # atno 17343 bound_to 10162
  157.3119  131.0665  151.1994 LP  0  0  0  0  0  0  0  0  0  0  0  0  # atno 17370 bound_to 10713
  157.2937  130.6809  149.6127 LP  0  0  0  0  0  0  0  0  0  0  0  0  # atno 17371 bound_to 10713
  141.1900  133.8226  157.0934 LP  0  0  0  0  0  0  0  0  0  0  0  0  # atno 17394 bound_to 11000
  140.0427  134.9846  157.0992 LP  0  0  0  0  0  0  0  0  0  0  0  0  # atno 17395 bound_to 11000

$$$$
