AV-unprocessed.smi:1214|AV-procd|sdf|5092|dock1
  -GOLD-   22720 4143D 1   1.00000     0.00000
 Structure written by MMmdl.
 33 34  0  0  0  0  0  0  0  0  1 V2000
  144.5834  134.2728  152.9009 C   0  0  0  0  0  0  0  0  0  0  0  0
  144.9038  133.5140  151.6228 C   0  0  0  0  0  0  0  0  0  0  0  0
  143.8446  133.0098  150.8386 C   0  0  0  0  0  0  0  0  0  0  0  0
  144.1391  132.3087  149.6570 C   0  0  0  0  0  0  0  0  0  0  0  0
  145.4892  132.1416  149.3074 C   0  0  0  0  0  0  0  0  0  0  0  0
  146.5073  132.6203  150.0514 N   0  0  0  0  0  0  0  0  0  0  0  0
  146.2430  133.2960  151.1994 C   0  0  0  0  0  0  0  0  0  0  0  0
  147.2602  133.8520  152.0355 N   0  0  0  0  0  0  0  0  0  0  0  0
  147.7104  133.4953  153.2574 C   0  0  0  0  0  0  0  0  0  0  0  0
  147.2414  132.5237  153.8479 O   0  0  0  0  0  0  0  0  0  0  0  0
  148.6981  134.2474  153.7694 N   0  0  0  0  0  0  0  0  0  0  0  0
  149.3392  134.0371  155.0623 C   0  0  2  0  0  0  0  0  0  0  0  0
  150.6307  134.8665  155.2079 C   0  0  0  0  0  0  0  0  0  0  0  0
  151.4372  134.3185  156.3920 C   0  0  0  0  0  0  0  0  0  0  0  0
  151.0480  132.5301  156.4918 S   0  0  0  0  0  0  0  0  0  0  0  0
  152.1760  131.7480  155.9635 O   0  0  0  0  0  0  0  0  0  0  0  0
  150.4811  132.2401  157.8174 O   0  0  0  0  0  0  0  0  0  0  0  0
  149.7033  132.5581  155.2484 C   0  0  0  0  0  0  0  0  0  0  0  0
  143.5077  134.3343  153.0678 H   0  0  0  0  0  0  0  0  0  0  0  0
  144.9729  135.2900  152.8499 H   0  0  0  0  0  0  0  0  0  0  0  0
  145.0279  133.7735  153.7623 H   0  0  0  0  0  0  0  0  0  0  0  0
  142.8167  133.1575  151.1358 H   0  0  0  0  0  0  0  0  0  0  0  0
  143.3509  131.9112  149.0350 H   0  0  0  0  0  0  0  0  0  0  0  0
  145.7607  131.6110  148.4068 H   0  0  0  0  0  0  0  0  0  0  0  0
  147.7462  134.6371  151.6280 H   0  0  0  0  0  0  0  0  0  0  0  0
  149.0229  135.0300  153.2188 H   0  0  0  0  0  0  0  0  0  0  0  0
  148.6538  134.3178  155.8644 H   0  0  0  0  0  0  0  0  0  0  0  0
  151.2279  134.7601  154.3009 H   0  0  0  0  0  0  0  0  0  0  0  0
  150.4209  135.9299  155.3262 H   0  0  0  0  0  0  0  0  0  0  0  0
  152.5113  134.4657  156.2792 H   0  0  0  0  0  0  0  0  0  0  0  0
  151.1176  134.7833  157.3247 H   0  0  0  0  0  0  0  0  0  0  0  0
  148.8641  131.9506  155.5874 H   0  0  0  0  0  0  0  0  0  0  0  0
  150.0960  132.1278  154.3263 H   0  0  0  0  0  0  0  0  0  0  0  0
  1  2  1  0  0  0  0
  1 19  1  0  0  0  0
  1 20  1  0  0  0  0
  1 21  1  0  0  0  0
  2  7  1  0  0  0  0
  2  3  2  0  0  0  0
  3  4  1  0  0  0  0
  3 22  1  0  0  0  0
  4  5  2  0  0  0  0
  4 23  1  0  0  0  0
  5  6  1  0  0  0  0
  5 24  1  0  0  0  0
  6  7  2  0  0  0  0
  7  8  1  0  0  0  0
  8  9  1  0  0  0  0
  8 25  1  0  0  0  0
  9 10  2  0  0  0  0
  9 11  1  0  0  0  0
 11 12  1  0  0  0  0
 11 26  1  0  0  0  0
 12 18  1  0  0  0  0
 12 13  1  0  0  0  0
 12 27  1  0  0  0  0
 13 14  1  0  0  0  0
 13 28  1  0  0  0  0
 13 29  1  0  0  0  0
 14 15  1  0  0  0  0
 14 30  1  0  0  0  0
 14 31  1  0  0  0  0
 15 16  2  0  0  0  0
 15 17  2  0  0  0  0
 15 18  1  0  0  0  0
 18 32  1  0  0  0  0
 18 33  1  0  0  0  0
M  END
> <s_m_source_file>
AV-unprocessed.smi

> <i_m_source_file_index>
1214

> <i_lp_mmshare_version>
43012

> <i_f3d_flags>
0

> <s_epik_input>
W0NIM11jMVtjSF1bY0hdW2NIXW5jMVtOSF1DKD1PKVtOSF1bQ0BASF0oW0NIMl0yKVtDSDJdW0NIMl1TMig9Tyk9Tw==

> <s_epik_cmdline>
J2VwaWtfcHl0aG9uJywgJy1waCcsICc3LjAnLCAnLXRuJywgJzgnLCAnLW1hJywgJzIwMCcsICctbWV0YWxfYmluZGluZycsICctaW1hZScsICc8aW5maWxlLm1hZT4nLCAnLW9tYWUnLCAnPG91dGZpbGUubWFlPic=

> <r_lp_tautomer_probability>
1

> <r_epik_Ionization_Penalty>
4.18367e-05

> <r_epik_Ionization_Penalty_Charging>
0

> <r_epik_Ionization_Penalty_Neutral>
4.18367e-05

> <r_epik_State_Penalty>
-0

> <r_epik_Charging_Adjusted_Penalty>
0

> <i_epik_Tot_Q>
0

> <i_epik_Tot_abs_Q>
0

> <r_epik_Metal_State_Penalty>
-0

> <b_epik_Metal_Only>
0

> <s_lp_Force_Field>
OPLS_2005

> <r_lp_Energy>
8.88601

> <b_lp_Chiralities_Consistent>
1

> <s_lp_Variant>
AV-unprocessed.smi:1214-1

> <Gold.Version>
5.8.1

> <Gold.Id.Protein>
6NUR|6NUR_protein|mol2

> <Gold.PLP.Fitness>
37.5015

> <Gold.PLP.PLP>
-30.1532

> <Gold.PLP.part.hbond>
-3.0000

> <Gold.PLP.part.metal>
0.0000

> <Gold.PLP.part.buried>
-4.1439

> <Gold.PLP.part.nonpolar>
-23.4064

> <Gold.PLP.part.repulsive>
0.9467

> <Gold.PLP.ligand.clash>
0.0000

> <Gold.PLP.ligand.torsion>
0.8273

> <Gold.PLP.Chemscore.Hbond>
3.0000

> <Gold.PLP.Chemscore.CHOScore>
0.0000

> <Gold.PLP.Chemscore.Metal>
0.0000

> <Gold.Chemscore.Hbonds>
donor molecule, donor type, donor heavy atom, donor atom, acceptor molecule, acceptor atom, score
      L1  H     8    25       P1  7948  0.90
      L1  H    11    26       P1  7948  0.95
      P1  H  6896  6909       L1    17  1.00

> <Gold.PLP.Chemscore.Internal.Correction>
0.0030

> <Gold.Rescore>
     Score         DG    S(hbond)    S(metal)    S(lipo)     H(rot)  DE(clash)    DE(int)     intcor
     15.08     -17.50       2.28        0.00      59.64       1.00       0.02       2.40       ----

> <Gold.Chemscore.Fitness>
15.0799

> <Gold.Chemscore.DG>
-17.4993

> <Gold.Chemscore.ZeroCoef>
-5.4800

> <Gold.Chemscore.Hbond>
2.2760

> <Gold.Chemscore.Metal>
0.0000

> <Gold.Chemscore.Lipo>
59.6358

> <Gold.Chemscore.Internal_Hbond>
0.0000

> <Gold.Chemscore.DEClash>
0.0203

> <Gold.Chemscore.DEInternal>
2.3991

> <Gold.Chemscore.Rot>
1.0000

> <Gold.Chemscore.Internal.Correction>
   9.000000E+99

> <Gold.Chemscore.Hbonds>
donor molecule, donor type, donor heavy atom, donor atom, acceptor molecule, acceptor atom, score
      L1  H     8    25       P1  7948  0.17
      L1  H    11    26       P1  7948  0.21
      P1  H  6896  6909       L1    17  0.75

> <Gold.Chemscore.Hbond.Weighted>
-7.6019

> <Gold.Chemscore.Metal.Weighted>
-0.0000

> <Gold.Chemscore.Lipo.Weighted>
-6.9774

> <Gold.Chemscore.Internal_Hbond.Weighted>
0.0000

> <Gold.Chemscore.DEClash.Weighted>
0.0203

> <Gold.Chemscore.DEInternal.Weighted>
2.3991

> <Gold.Chemscore.Rot.Weighted>
2.5600

> <Gold.Chemscore.Internal.Correction.Weighted>
   9.000000E+99

> <Gold.Protein.RotatedTorsions>
[ 6907 6896 6895 6894 ] final  -45.49 input  -60.11 | X-H torsion
[ 7974 7965 7964 7962 ] final -177.76 input  175.53 | X-H torsion
[ 8008 7997 7996 7995 ] final -129.08 input   59.86 | X-H torsion
[ 10167 10162 10161 10158 ] final -101.23 input  -65.29 | X-H torsion
[ 10718 10713 10712 10709 ] final -121.86 input   66.30 | X-H torsion
[ 10763 10752 10751 10750 ] final   21.44 input  -60.55 | X-H torsion
[ 11005 11000 10999 10996 ] final   61.75 input  -57.11 | X-H torsion

> <Gold.Protein.ActiveResidues>
 VAL166  LYS551  ARG553  GLY616  TRP617  ASP618  TYR619  PRO620  LYS621  CYS622 
 ASP623  PHE694  ASN695  SER759  ASP760  ASP761  ALA762  ILE779  LEU786  VAL792 
 PHE793  MET794  SER795  GLU796  ALA797  LYS798  CYS799  TRP800  GLU811  SER814 

> <Gold.Protein.RotatedAtoms>
  150.9214  134.8632  159.7491 H   0  0  0  0  0  0  0  0  0  0  0  0  # atno 6907 bound_to 6896
  152.4994  134.4212  159.9491 H   0  0  0  0  0  0  0  0  0  0  0  0  # atno 6908 bound_to 6896
  151.4246  133.3648  159.2796 H   0  0  0  0  0  0  0  0  0  0  0  0  # atno 6909 bound_to 6896
  144.7128  140.0971  143.6418 H   0  0  0  0  0  0  0  0  0  0  0  0  # atno 7974 bound_to 7965
  155.2732  140.0441  157.3009 H   0  0  0  0  0  0  0  0  0  0  0  0  # atno 8008 bound_to 7997
  154.5640  140.2354  155.8260 H   0  0  0  0  0  0  0  0  0  0  0  0  # atno 8009 bound_to 7997
  156.2070  140.3009  155.9657 H   0  0  0  0  0  0  0  0  0  0  0  0  # atno 8010 bound_to 7997
  140.2435  143.3522  152.0780 H   0  0  0  0  0  0  0  0  0  0  0  0  # atno 10167 bound_to 10162
  156.1371  130.6439  150.9714 H   0  0  0  0  0  0  0  0  0  0  0  0  # atno 10718 bound_to 10713
  153.0995  135.6669  153.9699 H   0  0  0  0  0  0  0  0  0  0  0  0  # atno 10763 bound_to 10752
  153.9273  135.3008  155.3448 H   0  0  0  0  0  0  0  0  0  0  0  0  # atno 10764 bound_to 10752
  154.7416  135.5077  153.9206 H   0  0  0  0  0  0  0  0  0  0  0  0  # atno 10765 bound_to 10752
  140.0139  134.6254  155.9739 H   0  0  0  0  0  0  0  0  0  0  0  0  # atno 11005 bound_to 11000
  145.9570  139.2774  143.1178 LP  0  0  0  0  0  0  0  0  0  0  0  0  # atno 17320 bound_to 7965
  145.9261  140.9081  143.0380 LP  0  0  0  0  0  0  0  0  0  0  0  0  # atno 17321 bound_to 7965
  139.5069  144.6823  151.5978 LP  0  0  0  0  0  0  0  0  0  0  0  0  # atno 17342 bound_to 10162
  140.6095  143.9462  150.6443 LP  0  0  0  0  0  0  0  0  0  0  0  0  # atno 17343 bound_to 10162
  157.6542  131.0892  150.7983 LP  0  0  0  0  0  0  0  0  0  0  0  0  # atno 17370 bound_to 10713
  156.8062  130.4937  149.5362 LP  0  0  0  0  0  0  0  0  0  0  0  0  # atno 17371 bound_to 10713
  141.1730  133.6538  156.4721 LP  0  0  0  0  0  0  0  0  0  0  0  0  # atno 17394 bound_to 11000
  140.4505  134.6933  157.5037 LP  0  0  0  0  0  0  0  0  0  0  0  0  # atno 17395 bound_to 11000

$$$$
