AV-unprocessed.smi:1096|AV-procd|sdf|4749|dock4
  -GOLD-   22720 3283D 1   1.00000     0.00000
 Structure written by MMmdl.
 48 50  0  0  0  0  0  0  0  0  1 V2000
  150.7380  140.7649  156.5926 O   0  0  0  0  0  0  0  0  0  0  0  0
  150.2138  141.8539  156.3564 C   0  0  0  0  0  0  0  0  0  0  0  0
  150.3602  142.9657  157.0986 N   0  0  0  0  0  0  0  0  0  0  0  0
  151.1027  143.1295  158.2982 C   0  0  0  0  0  0  0  0  0  0  0  0
  151.0661  144.4297  158.8518 C   0  0  0  0  0  0  0  0  0  0  0  0
  151.7676  144.6952  160.0437 C   0  0  0  0  0  0  0  0  0  0  0  0
  152.4879  143.6523  160.6530 C   0  0  0  0  0  0  0  0  0  0  0  0
  152.4723  142.3875  160.0370 C   0  0  0  0  0  0  0  0  0  0  0  0
  151.8012  142.1308  158.8943 N   0  0  0  0  0  0  0  0  0  0  0  0
  149.4136  142.0767  155.3034 N   0  0  0  0  0  0  0  0  0  0  0  0
  149.0572  141.0884  154.2897 C   0  0  2  0  0  0  0  0  0  0  0  0
  147.8958  141.6272  153.4339 C   0  0  0  0  0  0  0  0  0  0  0  0
  147.4381  140.5938  152.3921 C   0  0  0  0  0  0  0  0  0  0  0  0
  147.0304  139.2636  153.0649 C   0  0  1  0  0  0  0  0  0  0  0  0
  146.5562  138.2163  152.0341 C   0  0  0  0  0  0  0  0  0  0  0  0
  146.7534  138.4428  150.8391 O   0  0  0  0  0  0  0  0  0  0  0  0
  145.9073  137.1000  152.4524 N   0  0  0  0  0  0  0  0  0  0  0  0
  145.2296  136.1917  151.5192 C   0  0  0  0  0  0  0  0  0  0  0  0
  143.7184  136.4786  151.5558 C   0  0  0  0  0  0  0  0  0  0  0  0
  143.0279  136.1675  153.2125 S   0  0  0  0  0  0  0  0  0  0  0  0
  144.2234  137.0928  154.2273 C   0  0  0  0  0  0  0  0  0  0  0  0
  145.6652  136.7178  153.8490 C   0  0  0  0  0  0  0  0  0  0  0  0
  148.2108  138.7196  153.8959 C   0  0  0  0  0  0  0  0  0  0  0  0
  148.6756  139.7442  154.9435 C   0  0  0  0  0  0  0  0  0  0  0  0
  149.8803  143.7903  156.7697 H   0  0  0  0  0  0  0  0  0  0  0  0
  150.5072  145.2194  158.3708 H   0  0  0  0  0  0  0  0  0  0  0  0
  151.7523  145.6822  160.4821 H   0  0  0  0  0  0  0  0  0  0  0  0
  153.0377  143.8172  161.5678 H   0  0  0  0  0  0  0  0  0  0  0  0
  153.0115  141.5595  160.4728 H   0  0  0  0  0  0  0  0  0  0  0  0
  149.0266  143.0020  155.1886 H   0  0  0  0  0  0  0  0  0  0  0  0
  149.9157  140.9303  153.6340 H   0  0  0  0  0  0  0  0  0  0  0  0
  147.0531  141.8905  154.0750 H   0  0  0  0  0  0  0  0  0  0  0  0
  148.1988  142.5455  152.9293 H   0  0  0  0  0  0  0  0  0  0  0  0
  146.6010  140.9983  151.8216 H   0  0  0  0  0  0  0  0  0  0  0  0
  148.2484  140.4297  151.6799 H   0  0  0  0  0  0  0  0  0  0  0  0
  146.2064  139.5127  153.7324 H   0  0  0  0  0  0  0  0  0  0  0  0
  145.5992  136.2939  150.4980 H   0  0  0  0  0  0  0  0  0  0  0  0
  145.4236  135.1537  151.7929 H   0  0  0  0  0  0  0  0  0  0  0  0
  143.5225  137.5154  151.2791 H   0  0  0  0  0  0  0  0  0  0  0  0
  143.1943  135.8512  150.8346 H   0  0  0  0  0  0  0  0  0  0  0  0
  144.0576  138.1618  154.0895 H   0  0  0  0  0  0  0  0  0  0  0  0
  144.0355  136.8723  155.2782 H   0  0  0  0  0  0  0  0  0  0  0  0
  145.8102  135.6434  153.9700 H   0  0  0  0  0  0  0  0  0  0  0  0
  146.3760  137.1668  154.5408 H   0  0  0  0  0  0  0  0  0  0  0  0
  147.9293  137.7932  154.3979 H   0  0  0  0  0  0  0  0  0  0  0  0
  149.0455  138.4699  153.2390 H   0  0  0  0  0  0  0  0  0  0  0  0
  149.5235  139.3382  155.4962 H   0  0  0  0  0  0  0  0  0  0  0  0
  147.8793  139.9002  155.6727 H   0  0  0  0  0  0  0  0  0  0  0  0
  1  2  2  0  0  0  0
  2  3  1  0  0  0  0
  2 10  1  0  0  0  0
  3  4  1  0  0  0  0
  3 25  1  0  0  0  0
  4  9  1  0  0  0  0
  4  5  2  0  0  0  0
  5  6  1  0  0  0  0
  5 26  1  0  0  0  0
  6  7  2  0  0  0  0
  6 27  1  0  0  0  0
  7  8  1  0  0  0  0
  7 28  1  0  0  0  0
  8  9  2  0  0  0  0
  8 29  1  0  0  0  0
 10 11  1  0  0  0  0
 10 30  1  0  0  0  0
 11 24  1  0  0  0  0
 11 12  1  0  0  0  0
 11 31  1  0  0  0  0
 12 13  1  0  0  0  0
 12 32  1  0  0  0  0
 12 33  1  0  0  0  0
 13 14  1  0  0  0  0
 13 34  1  0  0  0  0
 13 35  1  0  0  0  0
 14 15  1  0  0  0  0
 14 23  1  0  0  0  0
 14 36  1  0  0  0  0
 15 16  2  0  0  0  0
 15 17  1  0  0  0  0
 17 22  1  0  0  0  0
 17 18  1  0  0  0  0
 18 19  1  0  0  0  0
 18 37  1  0  0  0  0
 18 38  1  0  0  0  0
 19 20  1  0  0  0  0
 19 39  1  0  0  0  0
 19 40  1  0  0  0  0
 20 21  1  0  0  0  0
 21 22  1  0  0  0  0
 21 41  1  0  0  0  0
 21 42  1  0  0  0  0
 22 43  1  0  0  0  0
 22 44  1  0  0  0  0
 23 24  1  0  0  0  0
 23 45  1  0  0  0  0
 23 46  1  0  0  0  0
 24 47  1  0  0  0  0
 24 48  1  0  0  0  0
M  END
> <s_m_source_file>
AV-unprocessed.smi

> <i_m_source_file_index>
1096

> <i_lp_mmshare_version>
43012

> <i_f3d_flags>
0

> <s_epik_input>
bjFbY0hdW2NIXVtjSF1bY0hdYzFbTkhdQyg9TylbTkhdW0NAQEhdMltDSDJdW0NIMl1bQ0BIXShbQ0gyXVtDSDJdMilDKD1PKU4zW0NIMl1bQ0gyXVNbQ0gyXVtDSDJdMw==

> <s_epik_cmdline>
J2VwaWtfcHl0aG9uJywgJy1waCcsICc3LjAnLCAnLXRuJywgJzgnLCAnLW1hJywgJzIwMCcsICctbWV0YWxfYmluZGluZycsICctaW1hZScsICc8aW5maWxlLm1hZT4nLCAnLW9tYWUnLCAnPG91dGZpbGUubWFlPic=

> <r_lp_tautomer_probability>
1

> <r_epik_Ionization_Penalty>
5.08504e-05

> <r_epik_Ionization_Penalty_Charging>
0

> <r_epik_Ionization_Penalty_Neutral>
5.08504e-05

> <r_epik_State_Penalty>
-0

> <r_epik_Charging_Adjusted_Penalty>
0

> <i_epik_Tot_Q>
0

> <i_epik_Tot_abs_Q>
0

> <r_epik_Metal_State_Penalty>
-0

> <b_epik_Metal_Only>
0

> <s_lp_Force_Field>
OPLS_2005

> <r_lp_Energy>
29.3602

> <b_lp_Chiralities_Consistent>
1

> <s_lp_Variant>
AV-unprocessed.smi:1096-1

> <Gold.Version>
5.8.1

> <Gold.Id.Protein>
6NUR|6NUR_protein|mol2

> <Gold.PLP.Fitness>
50.4916

> <Gold.PLP.PLP>
-42.2484

> <Gold.PLP.part.hbond>
-3.0000

> <Gold.PLP.part.metal>
0.0000

> <Gold.PLP.part.buried>
-3.3763

> <Gold.PLP.part.nonpolar>
-37.4257

> <Gold.PLP.part.repulsive>
1.9350

> <Gold.PLP.ligand.clash>
0.0000

> <Gold.PLP.ligand.torsion>
0.4120

> <Gold.PLP.Chemscore.Hbond>
3.0000

> <Gold.PLP.Chemscore.CHOScore>
0.0000

> <Gold.PLP.Chemscore.Metal>
0.0000

> <Gold.Chemscore.Hbonds>
donor molecule, donor type, donor heavy atom, donor atom, acceptor molecule, acceptor atom, score
      L1  H     3    25       P1  8028  1.00
      L1  H    10    30       P1  8028  1.00
      P1  H  7954  7966       L1    16  0.99

> <Gold.PLP.Chemscore.Internal.Correction>
0.0671

> <Gold.Rescore>
     Score         DG    S(hbond)    S(metal)    S(lipo)     H(rot)  DE(clash)    DE(int)     intcor
     18.96     -24.01       2.91        0.00     102.86       1.26       1.83       3.22       ----

> <Gold.Chemscore.Fitness>
18.9629

> <Gold.Chemscore.DG>
-24.0131

> <Gold.Chemscore.ZeroCoef>
-5.4800

> <Gold.Chemscore.Hbond>
2.9097

> <Gold.Chemscore.Metal>
0.0000

> <Gold.Chemscore.Lipo>
102.8611

> <Gold.Chemscore.Internal_Hbond>
0.0000

> <Gold.Chemscore.DEClash>
1.8260

> <Gold.Chemscore.DEInternal>
3.2242

> <Gold.Chemscore.Rot>
1.2578

> <Gold.Chemscore.Internal.Correction>
   9.000000E+99

> <Gold.Chemscore.Hbonds>
donor molecule, donor type, donor heavy atom, donor atom, acceptor molecule, acceptor atom, score
      L1  H     3    25       P1  8028  0.98
      L1  H    10    30       P1  8028  0.97
      P1  H  7954  7966       L1    16  0.94

> <Gold.Chemscore.Hbond.Weighted>
-9.7184

> <Gold.Chemscore.Metal.Weighted>
-0.0000

> <Gold.Chemscore.Lipo.Weighted>
-12.0348

> <Gold.Chemscore.Internal_Hbond.Weighted>
0.0000

> <Gold.Chemscore.DEClash.Weighted>
1.8260

> <Gold.Chemscore.DEInternal.Weighted>
3.2242

> <Gold.Chemscore.Rot.Weighted>
3.2200

> <Gold.Chemscore.Internal.Correction.Weighted>
   9.000000E+99

> <Gold.Protein.RotatedTorsions>
[ 6907 6896 6895 6894 ] final   61.33 input  -60.11 | X-H torsion
[ 7974 7965 7964 7962 ] final  -70.51 input  175.53 | X-H torsion
[ 8008 7997 7996 7995 ] final  100.99 input   59.86 | X-H torsion
[ 10167 10162 10161 10158 ] final  167.29 input  -65.29 | X-H torsion
[ 10718 10713 10712 10709 ] final   48.26 input   66.30 | X-H torsion
[ 10763 10752 10751 10750 ] final  -32.39 input  -60.55 | X-H torsion
[ 11005 11000 10999 10996 ] final   25.15 input  -57.11 | X-H torsion

> <Gold.Protein.ActiveResidues>
 VAL166  LYS551  ARG553  GLY616  TRP617  ASP618  TYR619  PRO620  LYS621  CYS622 
 ASP623  PHE694  ASN695  SER759  ASP760  ASP761  ALA762  ILE779  LEU786  VAL792 
 PHE793  MET794  SER795  GLU796  ALA797  LYS798  CYS799  TRP800  GLU811  SER814 

> <Gold.Protein.RotatedAtoms>
  152.4079  134.6174  160.0041 H   0  0  0  0  0  0  0  0  0  0  0  0  # atno 6907 bound_to 6896
  151.6360  133.3323  159.3127 H   0  0  0  0  0  0  0  0  0  0  0  0  # atno 6908 bound_to 6896
  150.7973  134.7082  159.6633 H   0  0  0  0  0  0  0  0  0  0  0  0  # atno 6909 bound_to 6896
  145.6900  140.9156  143.0786 H   0  0  0  0  0  0  0  0  0  0  0  0  # atno 7974 bound_to 7965
  156.1257  140.3204  155.8273 H   0  0  0  0  0  0  0  0  0  0  0  0  # atno 8008 bound_to 7997
  155.4425  140.0526  157.3026 H   0  0  0  0  0  0  0  0  0  0  0  0  # atno 8009 bound_to 7997
  154.4860  140.2073  155.9667 H   0  0  0  0  0  0  0  0  0  0  0  0  # atno 8010 bound_to 7997
  139.4942  144.3938  151.9488 H   0  0  0  0  0  0  0  0  0  0  0  0  # atno 10167 bound_to 10162
  157.4669  130.8231  149.7945 H   0  0  0  0  0  0  0  0  0  0  0  0  # atno 10718 bound_to 10713
  153.8130  135.6881  153.4838 H   0  0  0  0  0  0  0  0  0  0  0  0  # atno 10763 bound_to 10752
  153.1616  135.4577  154.9778 H   0  0  0  0  0  0  0  0  0  0  0  0  # atno 10764 bound_to 10752
  154.7959  135.3319  154.7609 H   0  0  0  0  0  0  0  0  0  0  0  0  # atno 10765 bound_to 10752
  140.3510  134.2229  155.7680 H   0  0  0  0  0  0  0  0  0  0  0  0  # atno 11005 bound_to 11000
  144.6999  139.8809  143.7447 LP  0  0  0  0  0  0  0  0  0  0  0  0  # atno 17320 bound_to 7965
  146.0890  139.3879  143.0418 LP  0  0  0  0  0  0  0  0  0  0  0  0  # atno 17321 bound_to 7965
  140.3375  144.3242  150.5974 LP  0  0  0  0  0  0  0  0  0  0  0  0  # atno 17342 bound_to 10162
  140.5593  143.2194  151.7792 LP  0  0  0  0  0  0  0  0  0  0  0  0  # atno 17343 bound_to 10162
  156.0054  130.3858  150.2449 LP  0  0  0  0  0  0  0  0  0  0  0  0  # atno 17370 bound_to 10713
  157.0629  131.0095  151.3216 LP  0  0  0  0  0  0  0  0  0  0  0  0  # atno 17371 bound_to 10713
  141.2012  133.7968  157.0452 LP  0  0  0  0  0  0  0  0  0  0  0  0  # atno 17394 bound_to 11000
  140.0703  134.9706  157.1456 LP  0  0  0  0  0  0  0  0  0  0  0  0  # atno 17395 bound_to 11000

$$$$
