AV-unprocessed.smi:113|AV-procd|sdf|1101|dock6
  -GOLD-   2262018213D 1   1.00000     0.00000
 Structure written by MMmdl.
 53 56  0  0  0  0  0  0  0  0  2 V2000
  148.7909  141.6725  154.3886 C   0  0  0  0  0  0  0  0  0  0  0  0
  149.7765  141.3642  155.4955 C   0  0  0  0  0  0  0  0  0  0  0  0
  150.3230  140.0789  155.6748 C   0  0  0  0  0  0  0  0  0  0  0  0
  151.2380  139.8393  156.7299 C   0  0  0  0  0  0  0  0  0  0  0  0
  151.8448  138.4494  156.9507 C   0  0  0  0  0  0  0  0  0  0  0  0
  150.9180  137.3737  157.2738 N   0  0  0  0  0  0  0  0  0  0  0  0
  150.7606  136.3270  156.3331 C   0  0  0  0  0  0  0  0  0  0  0  0
  151.3754  136.3220  155.2644 O   0  0  0  0  0  0  0  0  0  0  0  0
  149.8099  135.2823  156.7204 C   0  0  0  0  0  0  0  0  0  0  0  0
  149.6220  134.1009  155.7815 C   0  0  0  0  0  0  0  0  0  0  0  0
  149.1309  135.3900  157.8879 C   0  0  0  0  0  0  0  0  0  0  0  0
  149.2634  136.4518  158.7662 N   0  0  0  0  0  0  0  0  0  0  0  0
  148.4645  136.4527  160.0543 C   0  0  2  0  0  0  0  0  0  0  0  0
  147.9442  135.0677  160.4572 C   0  0  0  0  0  0  0  0  0  0  0  0
  146.6121  135.4274  161.0820 C   0  0  2  0  0  0  0  0  0  0  0  0
  145.7136  134.3390  161.0150 O   0  0  0  0  0  0  0  0  0  0  0  0
  146.1520  136.6172  160.2330 C   0  0  1  0  0  0  0  0  0  0  0  0
  145.2036  137.5675  160.9800 C   0  0  0  0  0  0  0  0  0  0  0  0
  144.0452  136.8738  161.3918 O   0  0  0  0  0  0  0  0  0  0  0  0
  147.3632  137.3004  159.9073 O   0  0  0  0  0  0  0  0  0  0  0  0
  150.1981  137.4734  158.4855 C   0  0  0  0  0  0  0  0  0  0  0  0
  150.3677  138.4189  159.2575 O   0  0  0  0  0  0  0  0  0  0  0  0
  151.5819  140.9241  157.5826 C   0  0  0  0  0  0  0  0  0  0  0  0
  152.4910  140.7797  158.6580 C   0  0  0  0  0  0  0  0  0  0  0  0
  152.8032  141.8781  159.4828 C   0  0  0  0  0  0  0  0  0  0  0  0
  152.2148  143.1343  159.2456 C   0  0  0  0  0  0  0  0  0  0  0  0
  151.3105  143.2959  158.1798 C   0  0  0  0  0  0  0  0  0  0  0  0
  150.9965  142.1987  157.3537 C   0  0  0  0  0  0  0  0  0  0  0  0
  150.1285  142.3608  156.3328 N   0  3  0  0  0  0  0  0  0  0  0  0
  148.9085  140.9745  153.5591 H   0  0  0  0  0  0  0  0  0  0  0  0
  148.9406  142.6820  154.0046 H   0  0  0  0  0  0  0  0  0  0  0  0
  147.7695  141.5930  154.7611 H   0  0  0  0  0  0  0  0  0  0  0  0
  150.0300  139.2902  154.9980 H   0  0  0  0  0  0  0  0  0  0  0  0
  152.4148  138.1454  156.0715 H   0  0  0  0  0  0  0  0  0  0  0  0
  152.5858  138.4819  157.7512 H   0  0  0  0  0  0  0  0  0  0  0  0
  148.9110  133.3760  156.1786 H   0  0  0  0  0  0  0  0  0  0  0  0
  150.5693  133.5841  155.6222 H   0  0  0  0  0  0  0  0  0  0  0  0
  149.2489  134.4383  154.8139 H   0  0  0  0  0  0  0  0  0  0  0  0
  148.4388  134.5996  158.1412 H   0  0  0  0  0  0  0  0  0  0  0  0
  149.1137  136.8779  160.8200 H   0  0  0  0  0  0  0  0  0  0  0  0
  147.8118  134.4247  159.5879 H   0  0  0  0  0  0  0  0  0  0  0  0
  148.6311  134.5779  161.1478 H   0  0  0  0  0  0  0  0  0  0  0  0
  146.7599  135.7299  162.1199 H   0  0  0  0  0  0  0  0  0  0  0  0
  144.8869  134.6082  161.3858 H   0  0  0  0  0  0  0  0  0  0  0  0
  145.6913  136.2516  159.3137 H   0  0  0  0  0  0  0  0  0  0  0  0
  145.6891  137.9515  161.8779 H   0  0  0  0  0  0  0  0  0  0  0  0
  144.9350  138.4263  160.3643 H   0  0  0  0  0  0  0  0  0  0  0  0
  143.3539  137.0471  160.7711 H   0  0  0  0  0  0  0  0  0  0  0  0
  152.9629  139.8324  158.8705 H   0  0  0  0  0  0  0  0  0  0  0  0
  153.4977  141.7557  160.3014 H   0  0  0  0  0  0  0  0  0  0  0  0
  152.4578  143.9735  159.8810 H   0  0  0  0  0  0  0  0  0  0  0  0
  150.8619  144.2627  158.0019 H   0  0  0  0  0  0  0  0  0  0  0  0
  149.7193  143.2834  156.1867 H   0  0  0  0  0  0  0  0  0  0  0  0
  1  2  1  0  0  0  0
  1 30  1  0  0  0  0
  1 31  1  0  0  0  0
  1 32  1  0  0  0  0
  2 29  1  0  0  0  0
  2  3  2  0  0  0  0
  3  4  1  0  0  0  0
  3 33  1  0  0  0  0
  4  5  1  0  0  0  0
  4 23  2  0  0  0  0
  5  6  1  0  0  0  0
  5 34  1  0  0  0  0
  5 35  1  0  0  0  0
  6 21  1  0  0  0  0
  6  7  1  0  0  0  0
  7  8  2  0  0  0  0
  7  9  1  0  0  0  0
  9 10  1  0  0  0  0
  9 11  2  0  0  0  0
 10 36  1  0  0  0  0
 10 37  1  0  0  0  0
 10 38  1  0  0  0  0
 11 12  1  0  0  0  0
 11 39  1  0  0  0  0
 12 13  1  0  0  0  0
 12 21  1  0  0  0  0
 13 20  1  0  0  0  0
 13 14  1  0  0  0  0
 13 40  1  0  0  0  0
 14 15  1  0  0  0  0
 14 41  1  0  0  0  0
 14 42  1  0  0  0  0
 15 16  1  0  0  0  0
 15 17  1  0  0  0  0
 15 43  1  0  0  0  0
 16 44  1  0  0  0  0
 17 18  1  0  0  0  0
 17 20  1  0  0  0  0
 17 45  1  0  0  0  0
 18 19  1  0  0  0  0
 18 46  1  0  0  0  0
 18 47  1  0  0  0  0
 19 48  1  0  0  0  0
 21 22  2  0  0  0  0
 23 28  1  0  0  0  0
 23 24  1  0  0  0  0
 24 25  2  0  0  0  0
 24 49  1  0  0  0  0
 25 26  1  0  0  0  0
 25 50  1  0  0  0  0
 26 27  2  0  0  0  0
 26 51  1  0  0  0  0
 27 28  1  0  0  0  0
 27 52  1  0  0  0  0
 28 29  2  0  0  0  0
 29 53  1  0  0  0  0
M  CHG  1  29   1
M  END
> <s_m_source_file>
AV-unprocessed.smi

> <i_m_source_file_index>
113

> <i_lp_mmshare_version>
43012

> <i_f3d_flags>
0

> <s_epik_input>
W2NIXTFbY0hdW2NIXVtjSF1jKGMxMiluYyhbQ0gzXSlbY0hdYzJbQ0gyXW4zYyg9TyljKFtDSDNdKVtjSF1uKGMzPU8pW0NAQEhdNFtDSDJdW0NAQEhdKFtPSF0pW0NASF0oTzQpW0NIMl1bT0hd

> <s_epik_cmdline>
J2VwaWtfcHl0aG9uJywgJy1waCcsICc3LjAnLCAnLXRuJywgJzgnLCAnLW1hJywgJzIwMCcsICctbWV0YWxfYmluZGluZycsICctaW1hZScsICc8aW5maWxlLm1hZT4nLCAnLW9tYWUnLCAnPG91dGZpbGUubWFlPic=

> <r_lp_tautomer_probability>
1

> <r_epik_Ionization_Penalty>
0.705471

> <r_epik_Ionization_Penalty_Charging>
0.70547

> <r_epik_Ionization_Penalty_Neutral>
1.19947e-07

> <r_epik_State_Penalty>
0.728574

> <r_epik_Charging_Adjusted_Penalty>
1.43404

> <i_epik_Tot_Q>
1

> <i_epik_Tot_abs_Q>
1

> <r_epik_Metal_State_Penalty>
4.61665

> <b_epik_Metal_Only>
0

> <s_epik_Chemistry_Notes>
This compound contains an acetal/aminal-like group ( X-CH(R)-Y where X, Y are N, S, or O) that may be acid/base labile, releasing an aldehyde.

> <s_lp_Force_Field>
OPLS_2005

> <r_lp_Energy>
36.4748

> <b_lp_Chiralities_Consistent>
1

> <s_lp_Variant>
AV-unprocessed.smi:113-11

> <Gold.Version>
5.8.1

> <Gold.Id.Protein>
6NUR|6NUR_protein|mol2

> <Gold.PLP.Fitness>
54.5299

> <Gold.PLP.PLP>
-43.9395

> <Gold.PLP.part.hbond>
-4.0000

> <Gold.PLP.part.metal>
0.0000

> <Gold.PLP.part.buried>
-5.5690

> <Gold.PLP.part.nonpolar>
-36.0648

> <Gold.PLP.part.repulsive>
0.2079

> <Gold.PLP.ligand.clash>
0.0000

> <Gold.PLP.ligand.torsion>
0.6152

> <Gold.PLP.Chemscore.Hbond>
3.9280

> <Gold.PLP.Chemscore.CHOScore>
0.0000

> <Gold.PLP.Chemscore.Metal>
0.0000

> <Gold.Chemscore.Hbonds>
donor molecule, donor type, donor heavy atom, donor atom, acceptor molecule, acceptor atom, score
      L1  H    29    53       P1  8028  2.00
      P1  H  6934  6947       L1    20  0.96
      P1  H 10752 10764       L1     8  1.00

> <Gold.PLP.Chemscore.Internal.Correction>
0.0368

> <Gold.Rescore>
     Score         DG    S(hbond)    S(metal)    S(lipo)     H(rot)  DE(clash)    DE(int)     intcor
     19.22     -20.10       2.60        0.00     116.81       3.01       0.05       0.84       ----

> <Gold.Chemscore.Fitness>
19.2171

> <Gold.Chemscore.DG>
-20.1033

> <Gold.Chemscore.ZeroCoef>
-5.4800

> <Gold.Chemscore.Hbond>
2.5950

> <Gold.Chemscore.Metal>
0.0000

> <Gold.Chemscore.Lipo>
116.8093

> <Gold.Chemscore.Internal_Hbond>
0.0000

> <Gold.Chemscore.DEClash>
0.0456

> <Gold.Chemscore.DEInternal>
0.8406

> <Gold.Chemscore.Rot>
3.0120

> <Gold.Chemscore.Internal.Correction>
   9.000000E+99

> <Gold.Chemscore.Hbonds>
donor molecule, donor type, donor heavy atom, donor atom, acceptor molecule, acceptor atom, score
      L1  H    29    53       P1  8028  1.00
      P1  H  6934  6947       L1    20  0.35
      P1  H 10752 10764       L1     8  1.00

> <Gold.Chemscore.Hbond.Weighted>
-8.6674

> <Gold.Chemscore.Metal.Weighted>
-0.0000

> <Gold.Chemscore.Lipo.Weighted>
-13.6667

> <Gold.Chemscore.Internal_Hbond.Weighted>
0.0000

> <Gold.Chemscore.DEClash.Weighted>
0.0456

> <Gold.Chemscore.DEInternal.Weighted>
0.8406

> <Gold.Chemscore.Rot.Weighted>
7.7108

> <Gold.Chemscore.Internal.Correction.Weighted>
   9.000000E+99

> <Gold.Protein.RotatedTorsions>
[ 6907 6896 6895 6894 ] final   36.52 input  -60.11 | X-H torsion
[ 7974 7965 7964 7962 ] final  -15.70 input  175.53 | X-H torsion
[ 8008 7997 7996 7995 ] final  140.28 input   59.86 | X-H torsion
[ 10167 10162 10161 10158 ] final   99.68 input  -65.29 | X-H torsion
[ 10718 10713 10712 10709 ] final -124.53 input   66.30 | X-H torsion
[ 10763 10752 10751 10750 ] final  -51.47 input  -60.55 | X-H torsion
[ 11005 11000 10999 10996 ] final -160.15 input  -57.11 | X-H torsion

> <Gold.Protein.ActiveResidues>
 VAL166  LYS551  ARG553  GLY616  TRP617  ASP618  TYR619  PRO620  LYS621  CYS622 
 ASP623  PHE694  ASN695  SER759  ASP760  ASP761  ALA762  ILE779  LEU786  VAL792 
 PHE793  MET794  SER795  GLU796  ALA797  LYS798  CYS799  TRP800  GLU811  SER814 

> <Gold.Protein.RotatedAtoms>
  152.1308  134.9136  160.0558 H   0  0  0  0  0  0  0  0  0  0  0  0  # atno 6907 bound_to 6896
  152.0241  133.3906  159.4278 H   0  0  0  0  0  0  0  0  0  0  0  0  # atno 6908 bound_to 6896
  150.6856  134.3514  159.4954 H   0  0  0  0  0  0  0  0  0  0  0  0  # atno 6909 bound_to 6896
  146.2020  140.3530  142.8420 H   0  0  0  0  0  0  0  0  0  0  0  0  # atno 7974 bound_to 7965
  156.2981  140.2345  156.4375 H   0  0  0  0  0  0  0  0  0  0  0  0  # atno 8008 bound_to 7997
  154.8215  140.0437  157.1434 H   0  0  0  0  0  0  0  0  0  0  0  0  # atno 8009 bound_to 7997
  154.9310  140.3016  155.5171 H   0  0  0  0  0  0  0  0  0  0  0  0  # atno 8010 bound_to 7997
  139.7595  144.6959  151.0313 H   0  0  0  0  0  0  0  0  0  0  0  0  # atno 10167 bound_to 10162
  156.1595  130.6592  151.0030 H   0  0  0  0  0  0  0  0  0  0  0  0  # atno 10718 bound_to 10713
  154.1271  135.6526  153.4914 H   0  0  0  0  0  0  0  0  0  0  0  0  # atno 10763 bound_to 10752
  153.0207  135.5284  154.7038 H   0  0  0  0  0  0  0  0  0  0  0  0  # atno 10764 bound_to 10752
  154.6262  135.2970  155.0239 H   0  0  0  0  0  0  0  0  0  0  0  0  # atno 10765 bound_to 10752
  140.6347  134.4615  157.5231 H   0  0  0  0  0  0  0  0  0  0  0  0  # atno 11005 bound_to 11000
  144.8706  140.7267  143.6049 LP  0  0  0  0  0  0  0  0  0  0  0  0  # atno 17320 bound_to 7965
  145.3450  139.1722  143.4465 LP  0  0  0  0  0  0  0  0  0  0  0  0  # atno 17321 bound_to 7965
  140.7806  143.4714  151.0142 LP  0  0  0  0  0  0  0  0  0  0  0  0  # atno 17342 bound_to 10162
  139.8400  143.7577  152.3180 LP  0  0  0  0  0  0  0  0  0  0  0  0  # atno 17343 bound_to 10162
  157.6722  131.0859  150.7585 LP  0  0  0  0  0  0  0  0  0  0  0  0  # atno 17370 bound_to 10713
  156.7648  130.4810  149.5430 LP  0  0  0  0  0  0  0  0  0  0  0  0  # atno 17371 bound_to 10713
  139.9103  134.8360  156.1554 LP  0  0  0  0  0  0  0  0  0  0  0  0  # atno 17394 bound_to 11000
  141.0650  133.6823  156.2027 LP  0  0  0  0  0  0  0  0  0  0  0  0  # atno 17395 bound_to 11000

$$$$
