#       Name:                AV-unprocessed.smi:249
#       Creating user name   scv26
#       Creation time:       Thu Mar 26 21:04:27 2020


#       File generated by GOLD software.
#

@<TRIPOS>MOLECULE
AV-unprocessed.smi:249
    71    74     1
SMALL
NO_CHARGES


@<TRIPOS>ATOM
      1 ****        -5.6914  -2.7631   3.4158 C.3            1 S1                 0.0000
      2 ****        -5.3846  -1.9662   2.1383 C.3            1 S1                 0.0000
      3 ****        -4.2880  -2.5628   1.3196 N.4            1 S1                 1.0000
      4 ****        -2.9690  -2.6150   2.0114 C.3            1 S1                 0.0000
      5 ****        -2.3246  -1.2207   2.1272 C.3            1 S1                 0.0000
      6 ****        -2.1829  -0.5660   0.7388 C.3            1 S1                 0.0000
      7 ****        -1.5729   0.7666   0.8067 N.pl3          1 S1                 0.0000
      8 ****        -2.2530   1.8449   1.5238 C.3            1 S1                 0.0000
      9 ****        -0.2160   0.7740   0.8541 C.ar           1 S1                 0.0000
     10 ****         0.4163   1.2560   1.9570 N.ar           1 S1                 0.0000
     11 ****         1.7502   1.2451   2.0272 C.ar           1 S1                 0.0000
     12 ****         2.6285   0.8117   1.1216 N.ar           1 S1                 0.0000
     13 ****         2.0033   0.3433   0.0038 C.ar           1 S1                 0.0000
     14 ****         0.5963   0.2790  -0.2049 C.ar           1 S1                 0.0000
     15 ****         0.3267  -0.2730  -1.4511 N.2            1 S1                 0.0000
     16 ****         1.5062  -0.5270  -1.9474 C.2            1 S1                 0.0000
     17 ****         2.5721  -0.1572  -1.1570 N.pl3          1 S1                 0.0000
     18 ****         3.9825  -0.3377  -1.4735 C.3            1 S1                 0.0000
     19 ****         4.8557   0.9463  -1.3631 C.3            1 S1                 0.0000
     20 ****         6.3242   0.5284  -1.1076 C.3            1 S1                 0.0000
     21 ****         6.4798  -0.0236   0.1838 O.3            1 S1                 0.0000
     22 ****         4.7812   1.8955  -2.6003 C.3            1 S1                 0.0000
     23 ****         3.3944   2.2988  -3.0828 C.3            1 S1                 0.0000
     24 ****         2.9973   3.4097  -2.1165 C.3            1 S1                 0.0000
     25 ****         4.2225   4.0256  -1.7359 O.3            1 S1                 0.0000
     26 ****         5.3169   3.3033  -2.2921 C.3            1 S1                 0.0000
     27 ****        -3.5378  -0.5627   0.0032 C.3            1 S1                 0.0000
     28 ****        -4.1336  -1.9854  -0.0514 C.3            1 S1                 0.0000
     29 ****        -5.4171  -2.0551  -0.8983 C.3            1 S1                 0.0000
     30 ****        -6.5949  -2.3833   3.8930 H              1 S1                 0.0000
     31 ****        -4.8913  -2.6867   4.1515 H              1 S1                 0.0000
     32 ****        -5.8546  -3.8185   3.1957 H              1 S1                 0.0000
     33 ****        -6.3055  -1.9498   1.5586 H              1 S1                 0.0000
     34 ****        -5.1650  -0.9289   2.3903 H              1 S1                 0.0000
     35 ****        -3.0504  -3.0816   2.9915 H              1 S1                 0.0000
     36 ****        -2.3083  -3.2671   1.4385 H              1 S1                 0.0000
     37 ****        -2.9182  -0.5924   2.7909 H              1 S1                 0.0000
     38 ****        -1.3438  -1.3137   2.5950 H              1 S1                 0.0000
     39 ****        -1.5263  -1.2144   0.1589 H              1 S1                 0.0000
     40 ****        -1.7562   2.7994   1.3450 H              1 S1                 0.0000
     41 ****        -2.2588   1.6604   2.5984 H              1 S1                 0.0000
     42 ****        -3.2839   1.9540   1.1908 H              1 S1                 0.0000
     43 ****         2.1753   1.6404   2.9380 H              1 S1                 0.0000
     44 ****         1.6321  -0.9774  -2.9215 H              1 S1                 0.0000
     45 ****         4.3440  -1.1054  -0.7892 H              1 S1                 0.0000
     46 ****         4.0732  -0.7659  -2.4724 H              1 S1                 0.0000
     47 ****         4.5373   1.5199  -0.4938 H              1 S1                 0.0000
     48 ****         6.6529  -0.1974  -1.8523 H              1 S1                 0.0000
     49 ****         7.0075   1.3727  -1.1756 H              1 S1                 0.0000
     50 ****         7.3881  -0.2545   0.3050 H              1 S1                 0.0000
     51 ****         5.3374   1.4415  -3.4216 H              1 S1                 0.0000
     52 ****         3.4778   2.7186  -4.0865 H              1 S1                 0.0000
     53 ****         2.6686   1.4960  -3.1552 H              1 S1                 0.0000
     54 ****         2.3140   4.1279  -2.5699 H              1 S1                 0.0000
     55 ****         2.5184   2.9988  -1.2272 H              1 S1                 0.0000
     56 ****         6.1741   3.3296  -1.6217 H              1 S1                 0.0000
     57 ****         5.6164   3.7985  -3.2171 H              1 S1                 0.0000
     58 ****        -4.2458   0.1100   0.4863 H              1 S1                 0.0000
     59 ****        -3.3973  -0.1832  -1.0098 H              1 S1                 0.0000
     60 ****        -3.4094  -2.6211  -0.5639 H              1 S1                 0.0000
     61 ****        -5.2005  -1.8196  -1.9408 H              1 S1                 0.0000
     62 ****        -6.1718  -1.3429  -0.5645 H              1 S1                 0.0000
     63 ****        -5.8543  -3.0538  -0.8742 H              1 S1                 0.0000
     64 ****        -4.5615  -3.5248   1.1776 H              1 S1                 0.0000
     65 ****        -0.1195   1.6202   2.7188 LP             1 S1                 0.0000
     66 ****         3.6205   0.8282   1.2467 LP             1 S1                 0.0000
     67 ****        -0.5659  -0.4376  -1.8709 LP             1 S1                 0.0000
     68 ****         5.9097  -0.8404   0.2721 LP             1 S1                 0.0000
     69 ****         6.2081   0.6486   0.8726 LP             1 S1                 0.0000
     70 ****         4.2978   4.0272  -0.7387 LP             1 S1                 0.0000
     71 ****         4.2399   4.9669  -2.0730 LP             1 S1                 0.0000
@<TRIPOS>BOND
    1    1    2 1     
    2    1   30 1     
    3    1   31 1     
    4    1   32 1     
    5    2    3 1     
    6    2   33 1     
    7    2   34 1     
    8    3   28 1     
    9    3    4 1     
   10    3   64 1     
   11    4    5 1     
   12    4   35 1     
   13    4   36 1     
   14    5    6 1     
   15    5   37 1     
   16    5   38 1     
   17    6    7 1     
   18    6   27 1     
   19    6   39 1     
   20    7    8 1     
   21    7    9 1     
   22    8   40 1     
   23    8   41 1     
   24    8   42 1     
   25    9   14 ar    
   26    9   10 ar    
   27   10   11 ar    
   28   11   12 ar    
   29   11   43 1     
   30   12   13 ar    
   31   13   17 1     
   32   13   14 ar    
   33   14   15 1     
   34   15   16 2     
   35   16   17 1     
   36   16   44 1     
   37   17   18 1     
   38   18   19 1     
   39   18   45 1     
   40   18   46 1     
   41   19   20 1     
   42   19   22 1     
   43   19   47 1     
   44   20   21 1     
   45   20   48 1     
   46   20   49 1     
   47   21   50 1     
   48   22   26 1     
   49   22   23 1     
   50   22   51 1     
   51   23   24 1     
   52   23   52 1     
   53   23   53 1     
   54   24   25 1     
   55   24   54 1     
   56   24   55 1     
   57   25   26 1     
   58   26   56 1     
   59   26   57 1     
   60   27   28 1     
   61   27   58 1     
   62   27   59 1     
   63   28   29 1     
   64   28   60 1     
   65   29   61 1     
   66   29   62 1     
   67   29   63 1     
   68   10   65 1     
   69   12   66 1     
   70   15   67 1     
   71   21   68 1     
   72   21   69 1     
   73   25   70 1     
   74   25   71 1     
@<TRIPOS>SUBSTRUCTURE
      1 S1             1
@<TRIPOS>SET
LONE_PAIRS      STATIC     ATOMS    <user>   **** ""
7 65 66 67 68 69 70 71
DONOR_HYDROGENS      STATIC     ATOMS    <user>   **** ""
2 64 50
ATOM$BLUE        STATIC     ATOMS    COLORGROUP SYSTEM
7 65 66 67 68 69 70 71
ATOM$RED        STATIC     ATOMS    COLORGROUP SYSTEM
2 64 50
