AV-unprocessed.smi:1419|AV-procd|sdf|5784|dock9
  -GOLD-   22720 5433D 1   1.00000     0.00000
 Structure written by MMmdl.
 41 42  0  0  0  0  0  0  0  0  1 V2000
  148.6925  141.1380  157.5132 C   0  0  0  0  0  0  0  0  0  0  0  0
  149.5295  142.1262  156.6896 C   0  0  2  0  0  0  0  0  0  0  0  0
  150.2594  141.4111  155.5325 C   0  0  0  0  0  0  0  0  0  0  0  0
  149.3695  140.6086  154.7128 N   0  0  0  0  0  0  0  0  0  0  0  0
  149.4858  139.2553  154.4226 C   0  0  0  0  0  0  0  0  0  0  0  0
  148.4161  138.9319  153.6192 C   0  0  0  0  0  0  0  0  0  0  0  0
  147.6429  140.0672  153.3885 N   0  0  0  0  0  0  0  0  0  0  0  0
  148.2735  141.0206  154.0613 C   0  0  0  0  0  0  0  0  0  0  0  0
  150.4830  142.7918  157.5763 N   0  0  0  0  0  0  0  0  0  0  0  0
  151.4564  142.1938  158.2859 C   0  0  0  0  0  0  0  0  0  0  0  0
  151.6485  140.9780  158.2455 O   0  0  0  0  0  0  0  0  0  0  0  0
  152.1836  143.0324  159.0645 N   0  0  0  0  0  0  0  0  0  0  0  0
  152.2090  144.5001  159.0038 C   0  0  0  0  0  0  0  0  0  0  0  0
  151.5804  145.0691  160.2927 C   0  0  1  0  0  0  0  0  0  0  0  0
  150.0579  144.8660  160.3853 C   0  0  0  0  0  0  0  0  0  0  0  0
  152.2503  144.5280  161.4362 O   0  0  0  0  0  0  0  0  0  0  0  0
  152.3288  143.1009  161.4939 C   0  0  2  0  0  0  0  0  0  0  0  0
  153.1319  142.7217  162.7427 C   0  0  0  0  0  0  0  0  0  0  0  0
  152.9785  142.5669  160.2023 C   0  0  0  0  0  0  0  0  0  0  0  0
  147.9475  140.6422  156.8904 H   0  0  0  0  0  0  0  0  0  0  0  0
  148.1611  141.6471  158.3180 H   0  0  0  0  0  0  0  0  0  0  0  0
  149.3173  140.3649  157.9623 H   0  0  0  0  0  0  0  0  0  0  0  0
  148.8383  142.8593  156.2704 H   0  0  0  0  0  0  0  0  0  0  0  0
  150.7691  142.1365  154.8963 H   0  0  0  0  0  0  0  0  0  0  0  0
  151.0296  140.7482  155.9289 H   0  0  0  0  0  0  0  0  0  0  0  0
  150.2910  138.6492  154.8108 H   0  0  0  0  0  0  0  0  0  0  0  0
  148.1483  137.9780  153.1894 H   0  0  0  0  0  0  0  0  0  0  0  0
  147.9261  142.0429  154.0845 H   0  0  0  0  0  0  0  0  0  0  0  0
  150.3879  143.7925  157.6702 H   0  0  0  0  0  0  0  0  0  0  0  0
  153.2473  144.8266  158.9282 H   0  0  0  0  0  0  0  0  0  0  0  0
  151.7140  144.9203  158.1284 H   0  0  0  0  0  0  0  0  0  0  0  0
  151.7627  146.1439  160.3088 H   0  0  0  0  0  0  0  0  0  0  0  0
  149.5504  145.3501  159.5506 H   0  0  0  0  0  0  0  0  0  0  0  0
  149.6645  145.2969  161.3060 H   0  0  0  0  0  0  0  0  0  0  0  0
  149.7809  143.8132  160.3675 H   0  0  0  0  0  0  0  0  0  0  0  0
  151.3262  142.6843  161.5969 H   0  0  0  0  0  0  0  0  0  0  0  0
  153.2160  141.6392  162.8416 H   0  0  0  0  0  0  0  0  0  0  0  0
  152.6511  143.1012  163.6446 H   0  0  0  0  0  0  0  0  0  0  0  0
  154.1405  143.1340  162.7039 H   0  0  0  0  0  0  0  0  0  0  0  0
  153.0547  141.4796  160.2474 H   0  0  0  0  0  0  0  0  0  0  0  0
  154.0009  142.9358  160.1076 H   0  0  0  0  0  0  0  0  0  0  0  0
  1  2  1  0  0  0  0
  1 20  1  0  0  0  0
  1 21  1  0  0  0  0
  1 22  1  0  0  0  0
  2  3  1  0  0  0  0
  2  9  1  0  0  0  0
  2 23  1  0  0  0  0
  3  4  1  0  0  0  0
  3 24  1  0  0  0  0
  3 25  1  0  0  0  0
  4  8  1  0  0  0  0
  4  5  1  0  0  0  0
  5  6  2  0  0  0  0
  5 26  1  0  0  0  0
  6  7  1  0  0  0  0
  6 27  1  0  0  0  0
  7  8  2  0  0  0  0
  8 28  1  0  0  0  0
  9 10  1  0  0  0  0
  9 29  1  0  0  0  0
 10 11  2  0  0  0  0
 10 12  1  0  0  0  0
 12 19  1  0  0  0  0
 12 13  1  0  0  0  0
 13 14  1  0  0  0  0
 13 30  1  0  0  0  0
 13 31  1  0  0  0  0
 14 15  1  0  0  0  0
 14 16  1  0  0  0  0
 14 32  1  0  0  0  0
 15 33  1  0  0  0  0
 15 34  1  0  0  0  0
 15 35  1  0  0  0  0
 16 17  1  0  0  0  0
 17 18  1  0  0  0  0
 17 19  1  0  0  0  0
 17 36  1  0  0  0  0
 18 37  1  0  0  0  0
 18 38  1  0  0  0  0
 18 39  1  0  0  0  0
 19 40  1  0  0  0  0
 19 41  1  0  0  0  0
M  END
> <s_m_source_file>
AV-unprocessed.smi

> <i_m_source_file_index>
1419

> <i_lp_mmshare_version>
43012

> <i_f3d_flags>
0

> <s_epik_input>
W2NIXTFuW2NIXVtjSF1uMVtDSDJdW0NAQEhdKFtDSDNdKVtOSF1DKD1PKU4yW0NIMl1bQ0BASF0oW0NIM10pT1tDQEBIXShbQ0gzXSlbQ0gyXTI=

> <s_epik_cmdline>
J2VwaWtfcHl0aG9uJywgJy1waCcsICc3LjAnLCAnLXRuJywgJzgnLCAnLW1hJywgJzIwMCcsICctbWV0YWxfYmluZGluZycsICctaW1hZScsICc8aW5maWxlLm1hZT4nLCAnLW9tYWUnLCAnPG91dGZpbGUubWFlPic=

> <r_lp_tautomer_probability>
1

> <r_epik_Ionization_Penalty>
0.625124

> <r_epik_Ionization_Penalty_Charging>
0.625093

> <r_epik_Ionization_Penalty_Neutral>
3.17415e-05

> <r_epik_State_Penalty>
0.641455

> <r_epik_Charging_Adjusted_Penalty>
1.26655

> <i_epik_Tot_Q>
0

> <i_epik_Tot_abs_Q>
0

> <r_epik_Metal_State_Penalty>
0.307717

> <b_epik_Metal_Only>
0

> <s_lp_Force_Field>
OPLS_2005

> <r_lp_Energy>
30.2714

> <b_lp_Chiralities_Consistent>
1

> <s_lp_Variant>
AV-unprocessed.smi:1419-11

> <Gold.Version>
5.8.1

> <Gold.Id.Protein>
6NUR|6NUR_protein|mol2

> <Gold.PLP.Fitness>
45.2003

> <Gold.PLP.PLP>
-42.5106

> <Gold.PLP.part.hbond>
-0.3752

> <Gold.PLP.part.metal>
0.0000

> <Gold.PLP.part.buried>
-2.1460

> <Gold.PLP.part.nonpolar>
-40.7525

> <Gold.PLP.part.repulsive>
1.3552

> <Gold.PLP.ligand.clash>
0.0000

> <Gold.PLP.ligand.torsion>
0.1634

> <Gold.PLP.Chemscore.Hbond>
0.0000

> <Gold.PLP.Chemscore.CHOScore>
1.0000

> <Gold.PLP.Chemscore.Metal>
0.0000

> <Gold.Chemscore.Hbonds>
donor molecule, donor type, donor heavy atom, donor atom, acceptor molecule, acceptor atom, score
      L1  C     6    27       P1  7948  1.00

> <Gold.PLP.Chemscore.Internal.Correction>
0.0165

> <Gold.Rescore>
     Score         DG    S(hbond)    S(metal)    S(lipo)     H(rot)  DE(clash)    DE(int)     intcor
     10.00     -12.70       0.00        0.00      96.23       1.58       1.67       1.03       ----

> <Gold.Chemscore.Fitness>
10.0016

> <Gold.Chemscore.DG>
-12.7023

> <Gold.Chemscore.ZeroCoef>
-5.4800

> <Gold.Chemscore.Hbond>
0.0000

> <Gold.Chemscore.Metal>
0.0000

> <Gold.Chemscore.Lipo>
96.2325

> <Gold.Chemscore.Internal_Hbond>
0.0000

> <Gold.Chemscore.DEClash>
1.6721

> <Gold.Chemscore.DEInternal>
1.0286

> <Gold.Chemscore.Rot>
1.5769

> <Gold.Chemscore.Internal.Correction>
   9.000000E+99

> <Gold.Chemscore.Hbond.Weighted>
-0.0000

> <Gold.Chemscore.Metal.Weighted>
-0.0000

> <Gold.Chemscore.Lipo.Weighted>
-11.2592

> <Gold.Chemscore.Internal_Hbond.Weighted>
0.0000

> <Gold.Chemscore.DEClash.Weighted>
1.6721

> <Gold.Chemscore.DEInternal.Weighted>
1.0286

> <Gold.Chemscore.Rot.Weighted>
4.0369

> <Gold.Chemscore.Internal.Correction.Weighted>
   9.000000E+99

> <Gold.Protein.RotatedTorsions>
[ 6907 6896 6895 6894 ] final  -35.20 input  -60.11 | X-H torsion
[ 7974 7965 7964 7962 ] final  121.19 input  175.53 | X-H torsion
[ 8008 7997 7996 7995 ] final -153.12 input   59.86 | X-H torsion
[ 10167 10162 10161 10158 ] final -114.22 input  -65.29 | X-H torsion
[ 10718 10713 10712 10709 ] final -123.71 input   66.30 | X-H torsion
[ 10763 10752 10751 10750 ] final  100.71 input  -60.55 | X-H torsion
[ 11005 11000 10999 10996 ] final -124.75 input  -57.11 | X-H torsion

> <Gold.Protein.ActiveResidues>
 VAL166  LYS551  ARG553  GLY616  TRP617  ASP618  TYR619  PRO620  LYS621  CYS622 
 ASP623  PHE694  ASN695  SER759  ASP760  ASP761  ALA762  ILE779  LEU786  VAL792 
 PHE793  MET794  SER795  GLU796  ALA797  LYS798  CYS799  TRP800  GLU811  SER814 

> <Gold.Protein.RotatedAtoms>
  151.0428  134.9619  159.8170 H   0  0  0  0  0  0  0  0  0  0  0  0  # atno 6907 bound_to 6896
  152.5367  134.2636  159.8955 H   0  0  0  0  0  0  0  0  0  0  0  0  # atno 6908 bound_to 6896
  151.2649  133.4241  159.2652 H   0  0  0  0  0  0  0  0  0  0  0  0  # atno 6909 bound_to 6896
  145.1223  139.3381  143.4708 H   0  0  0  0  0  0  0  0  0  0  0  0  # atno 7974 bound_to 7965
  155.6659  140.0728  157.2537 H   0  0  0  0  0  0  0  0  0  0  0  0  # atno 8008 bound_to 7997
  154.4133  140.1708  156.1877 H   0  0  0  0  0  0  0  0  0  0  0  0  # atno 8009 bound_to 7997
  155.9658  140.3366  155.6534 H   0  0  0  0  0  0  0  0  0  0  0  0  # atno 8010 bound_to 7997
  140.1033  143.4593  152.1798 H   0  0  0  0  0  0  0  0  0  0  0  0  # atno 10167 bound_to 10162
  156.1525  130.6545  150.9935 H   0  0  0  0  0  0  0  0  0  0  0  0  # atno 10718 bound_to 10713
  153.3174  135.4069  155.1388 H   0  0  0  0  0  0  0  0  0  0  0  0  # atno 10763 bound_to 10752
  154.8592  135.3579  154.5642 H   0  0  0  0  0  0  0  0  0  0  0  0  # atno 10764 bound_to 10752
  153.6073  135.7069  153.5419 H   0  0  0  0  0  0  0  0  0  0  0  0  # atno 10765 bound_to 10752
  140.9816  134.0665  157.3758 H   0  0  0  0  0  0  0  0  0  0  0  0  # atno 11005 bound_to 11000
  146.3520  140.1187  142.8601 LP  0  0  0  0  0  0  0  0  0  0  0  0  # atno 17320 bound_to 7965
  145.0727  140.9166  143.4872 LP  0  0  0  0  0  0  0  0  0  0  0  0  # atno 17321 bound_to 7965
  139.5659  144.7435  151.4024 LP  0  0  0  0  0  0  0  0  0  0  0  0  # atno 17342 bound_to 10162
  140.6966  143.7734  150.7336 LP  0  0  0  0  0  0  0  0  0  0  0  0  # atno 17343 bound_to 10162
  157.6669  131.0870  150.7707 LP  0  0  0  0  0  0  0  0  0  0  0  0  # atno 17370 bound_to 10713
  156.7775  130.4848  149.5407 LP  0  0  0  0  0  0  0  0  0  0  0  0  # atno 17371 bound_to 10713
  139.8953  135.0140  156.6993 LP  0  0  0  0  0  0  0  0  0  0  0  0  # atno 17394 bound_to 11000
  140.7177  133.9167  155.8126 LP  0  0  0  0  0  0  0  0  0  0  0  0  # atno 17395 bound_to 11000

$$$$
