#       Name:                AV-unprocessed.smi:1982
#       Creating user name   scv26
#       Creation time:       Fri Mar 27 10:22:03 2020


#       File generated by GOLD software.
#

@<TRIPOS>MOLECULE
AV-unprocessed.smi:1982
    41    42     1
SMALL
NO_CHARGES


@<TRIPOS>ATOM
      1 ****        -3.0535  -0.5839   1.9353 C.3            1 S1                 0.0000
      2 ****        -2.4461   0.0749   0.6856 C.3            1 S1                 0.0000
      3 ****        -3.0050  -0.5398  -0.6136 C.3            1 S1                 0.0000
      4 ****        -2.4753   0.1934  -1.8557 C.3            1 S1                 0.0000
      5 ****        -0.9405   0.2384  -1.8704 C.3            1 S1                 0.0000
      6 ****        -0.3856   0.8561  -0.5724 C.3            1 S1                 0.0000
      7 ****         1.0724   0.9010  -0.6364 N.am           1 S1                 0.0000
      8 ****         1.8609   1.7088   0.0907 C.2            1 S1                 0.0000
      9 ****         1.4285   2.5628   0.8638 O.2            1 S1                 0.0000
     10 ****         3.3700   1.5201  -0.0731 C.3            1 S1                 0.0000
     11 ****         3.7763   0.1743   0.2897 N.pl3          1 S1                 0.0000
     12 ****         4.0134  -0.9022  -0.4626 C.2            1 S1                 0.0000
     13 ****         4.3439  -1.9511   0.2747 N.2            1 S1                 0.0000
     14 ****         4.3016  -1.4534   1.5665 N.2            1 S1                 0.0000
     15 ****         3.9659  -0.1926   1.5819 N.2            1 S1                 0.0000
     16 ****        -0.8942   0.0997   0.6870 C.3            1 S1                 0.0000
     17 ****        -0.2513  -1.2969   0.8610 C.3            1 S1                 0.0000
     18 ****        -2.8714  -1.6583   1.9574 H              1 S1                 0.0000
     19 ****        -4.1338  -0.4386   1.9630 H              1 S1                 0.0000
     20 ****        -2.6412  -0.1526   2.8479 H              1 S1                 0.0000
     21 ****        -2.7731   1.1158   0.7077 H              1 S1                 0.0000
     22 ****        -2.7462  -1.5974  -0.6721 H              1 S1                 0.0000
     23 ****        -4.0945  -0.4937  -0.6068 H              1 S1                 0.0000
     24 ****        -2.8421  -0.2933  -2.7600 H              1 S1                 0.0000
     25 ****        -2.8681   1.2107  -1.8724 H              1 S1                 0.0000
     26 ****        -0.5467  -0.7692  -2.0086 H              1 S1                 0.0000
     27 ****        -0.6043   0.8175  -2.7312 H              1 S1                 0.0000
     28 ****        -0.7493   1.8845  -0.5235 H              1 S1                 0.0000
     29 ****         1.5164   0.2344  -1.2509 H              1 S1                 0.0000
     30 ****         3.6534   1.7097  -1.1090 H              1 S1                 0.0000
     31 ****         3.9116   2.2347   0.5486 H              1 S1                 0.0000
     32 ****         3.9365  -0.9189  -1.5398 H              1 S1                 0.0000
     33 ****        -0.5896   0.6830   1.5575 H              1 S1                 0.0000
     34 ****        -0.5094  -1.9721   0.0460 H              1 S1                 0.0000
     35 ****        -0.5650  -1.7684   1.7916 H              1 S1                 0.0000
     36 ****         0.8363  -1.2361   0.9043 H              1 S1                 0.0000
     37 ****         0.4420   2.6826   0.9754 LP             1 S1                 0.0000
     38 ****         2.0635   3.1370   1.3804 LP             1 S1                 0.0000
     39 ****         4.5693  -2.8773  -0.0276 LP             1 S1                 0.0000
     40 ****         4.5030  -1.9925   2.3843 LP             1 S1                 0.0000
     41 ****         3.8677   0.3897   2.3889 LP             1 S1                 0.0000
@<TRIPOS>BOND
    1    1    2 1     
    2    1   18 1     
    3    1   19 1     
    4    1   20 1     
    5    2   16 1     
    6    2    3 1     
    7    2   21 1     
    8    3    4 1     
    9    3   22 1     
   10    3   23 1     
   11    4    5 1     
   12    4   24 1     
   13    4   25 1     
   14    5    6 1     
   15    5   26 1     
   16    5   27 1     
   17    6    7 1     
   18    6   16 1     
   19    6   28 1     
   20    7    8 am    
   21    7   29 1     
   22    8    9 2     
   23    8   10 1     
   24   10   11 1     
   25   10   30 1     
   26   10   31 1     
   27   11   15 1     
   28   11   12 1     
   29   12   13 2     
   30   12   32 1     
   31   13   14 1     
   32   14   15 2     
   33   16   17 1     
   34   16   33 1     
   35   17   34 1     
   36   17   35 1     
   37   17   36 1     
   38    9   37 1     
   39    9   38 1     
   40   13   39 1     
   41   14   40 1     
   42   15   41 1     
@<TRIPOS>SUBSTRUCTURE
      1 S1             1
@<TRIPOS>SET
LONE_PAIRS      STATIC     ATOMS    <user>   **** ""
5 37 38 39 40 41
DONOR_HYDROGENS      STATIC     ATOMS    <user>   **** ""
1 29
ATOM$BLUE        STATIC     ATOMS    COLORGROUP SYSTEM
5 37 38 39 40 41
ATOM$RED        STATIC     ATOMS    COLORGROUP SYSTEM
1 29
