AV-unprocessed.smi:2966|AV-procd|sdf|11324|dock3
  -GOLD-   2272016233D 1   1.00000     0.00000
 Structure written by MMmdl.
 40 42  0  0  0  0  0  0  0  0  1 V2000
  151.1514  138.9668  154.6368 C   0  0  0  0  0  0  0  0  0  0  0  0
  150.5387  140.2379  154.7585 O   0  0  0  0  0  0  0  0  0  0  0  0
  151.0179  140.9699  155.8745 C   0  0  0  0  0  0  0  0  0  0  0  0
  150.8672  140.1319  157.1518 C   0  0  0  0  0  0  0  0  0  0  0  0
  151.7636  140.5784  158.2084 N   0  0  0  0  0  0  0  0  0  0  0  0
  152.6852  139.8546  158.8909 C   0  0  0  0  0  0  0  0  0  0  0  0
  152.9602  138.1444  158.5788 S   0  0  0  0  0  0  0  0  0  0  0  0
  154.5422  137.9948  159.4599 C   0  0  0  0  0  0  0  0  0  0  0  0
  154.5849  136.8636  160.4895 C   0  0  0  0  0  0  0  0  0  0  0  0
  154.2602  135.7152  160.1849 O   0  0  0  0  0  0  0  0  0  0  0  0
  154.9892  137.2117  161.7200 N   0  0  0  0  0  0  0  0  0  0  0  0
  155.1008  136.3287  162.8361 C   0  0  0  0  0  0  0  0  0  0  0  0
  154.1198  136.5065  163.9748 C   0  0  0  0  0  0  0  0  0  0  0  0
  155.5557  136.9150  164.1552 C   0  0  0  0  0  0  0  0  0  0  0  0
  153.3755  140.5208  159.8159 N   0  0  0  0  0  0  0  0  0  0  0  0
  152.8603  141.7986  159.7190 C   0  0  0  0  0  0  0  0  0  0  0  0
  153.1816  142.9759  160.4323 C   0  0  0  0  0  0  0  0  0  0  0  0
  152.5119  144.1852  160.1525 C   0  0  0  0  0  0  0  0  0  0  0  0
  151.5127  144.2345  159.1588 C   0  0  0  0  0  0  0  0  0  0  0  0
  151.1761  143.0730  158.4376 C   0  0  0  0  0  0  0  0  0  0  0  0
  151.8481  141.8687  158.7205 C   0  0  0  0  0  0  0  0  0  0  0  0
  150.7450  138.4469  153.7693 H   0  0  0  0  0  0  0  0  0  0  0  0
  150.9620  138.3519  155.5175 H   0  0  0  0  0  0  0  0  0  0  0  0
  152.2294  139.0602  154.4991 H   0  0  0  0  0  0  0  0  0  0  0  0
  152.0660  141.2338  155.7242 H   0  0  0  0  0  0  0  0  0  0  0  0
  150.4591  141.9010  155.9779 H   0  0  0  0  0  0  0  0  0  0  0  0
  149.8423  140.1961  157.5185 H   0  0  0  0  0  0  0  0  0  0  0  0
  151.0470  139.0782  156.9393 H   0  0  0  0  0  0  0  0  0  0  0  0
  155.3358  137.8428  158.7276 H   0  0  0  0  0  0  0  0  0  0  0  0
  154.7494  138.9370  159.9684 H   0  0  0  0  0  0  0  0  0  0  0  0
  155.2362  138.1777  161.8791 H   0  0  0  0  0  0  0  0  0  0  0  0
  155.4183  135.3063  162.6353 H   0  0  0  0  0  0  0  0  0  0  0  0
  153.3792  137.2996  163.8904 H   0  0  0  0  0  0  0  0  0  0  0  0
  153.7836  135.6093  164.4906 H   0  0  0  0  0  0  0  0  0  0  0  0
  156.1796  136.2910  164.7921 H   0  0  0  0  0  0  0  0  0  0  0  0
  155.7737  137.9807  164.1915 H   0  0  0  0  0  0  0  0  0  0  0  0
  153.9461  142.9488  161.1947 H   0  0  0  0  0  0  0  0  0  0  0  0
  152.7672  145.0794  160.7020 H   0  0  0  0  0  0  0  0  0  0  0  0
  151.0055  145.1651  158.9499 H   0  0  0  0  0  0  0  0  0  0  0  0
  150.4121  143.1077  157.6751 H   0  0  0  0  0  0  0  0  0  0  0  0
  1  2  1  0  0  0  0
  1 22  1  0  0  0  0
  1 23  1  0  0  0  0
  1 24  1  0  0  0  0
  2  3  1  0  0  0  0
  3  4  1  0  0  0  0
  3 25  1  0  0  0  0
  3 26  1  0  0  0  0
  4  5  1  0  0  0  0
  4 27  1  0  0  0  0
  4 28  1  0  0  0  0
  5 21  1  0  0  0  0
  5  6  1  0  0  0  0
  6  7  1  0  0  0  0
  6 15  2  0  0  0  0
  7  8  1  0  0  0  0
  8  9  1  0  0  0  0
  8 29  1  0  0  0  0
  8 30  1  0  0  0  0
  9 10  2  0  0  0  0
  9 11  1  0  0  0  0
 11 12  1  0  0  0  0
 11 31  1  0  0  0  0
 12 14  1  0  0  0  0
 12 13  1  0  0  0  0
 12 32  1  0  0  0  0
 13 14  1  0  0  0  0
 13 33  1  0  0  0  0
 13 34  1  0  0  0  0
 14 35  1  0  0  0  0
 14 36  1  0  0  0  0
 15 16  1  0  0  0  0
 16 21  2  0  0  0  0
 16 17  1  0  0  0  0
 17 18  2  0  0  0  0
 17 37  1  0  0  0  0
 18 19  1  0  0  0  0
 18 38  1  0  0  0  0
 19 20  2  0  0  0  0
 19 39  1  0  0  0  0
 20 21  1  0  0  0  0
 20 40  1  0  0  0  0
M  END
> <s_m_source_file>
AV-unprocessed.smi

> <i_m_source_file_index>
2966

> <i_lp_mmshare_version>
43012

> <i_f3d_flags>
0

> <s_epik_input>
W2NIXTFbY0hdW2NIXVtjSF1jKGMxMiluKFtDSDJdW0NIMl1PW0NIM10pYyhuMilTW0NIMl1DKD1PKVtOSF1bQ0hdM1tDSDJdW0NIMl0z

> <s_epik_cmdline>
J2VwaWtfcHl0aG9uJywgJy1waCcsICc3LjAnLCAnLXRuJywgJzgnLCAnLW1hJywgJzIwMCcsICctbWV0YWxfYmluZGluZycsICctaW1hZScsICc8aW5maWxlLm1hZT4nLCAnLW9tYWUnLCAnPG91dGZpbGUubWFlPic=

> <r_epik_Ionization_Penalty>
0.0369383

> <r_epik_Ionization_Penalty_Charging>
0

> <r_epik_Ionization_Penalty_Neutral>
0.0369383

> <r_epik_State_Penalty>
0.0308874

> <r_epik_Charging_Adjusted_Penalty>
0.0308874

> <i_epik_Tot_Q>
0

> <i_epik_Tot_abs_Q>
0

> <r_epik_Metal_State_Penalty>
0.0290633

> <b_epik_Metal_Only>
0

> <s_lp_Force_Field>
OPLS_2005

> <r_lp_Energy>
20.8616

> <b_lp_Chiralities_Consistent>
1

> <s_lp_Variant>
AV-unprocessed.smi:2966-1

> <Gold.Version>
5.8.1

> <Gold.Id.Protein>
6NUR|6NUR_protein|mol2

> <Gold.PLP.Fitness>
51.1685

> <Gold.PLP.PLP>
-46.6001

> <Gold.PLP.part.hbond>
-2.0000

> <Gold.PLP.part.metal>
0.0000

> <Gold.PLP.part.buried>
-6.7351

> <Gold.PLP.part.nonpolar>
-37.1047

> <Gold.PLP.part.repulsive>
0.0727

> <Gold.PLP.ligand.clash>
0.0000

> <Gold.PLP.ligand.torsion>
0.7854

> <Gold.PLP.Chemscore.Hbond>
2.0000

> <Gold.PLP.Chemscore.CHOScore>
0.0000

> <Gold.PLP.Chemscore.Metal>
0.0000

> <Gold.Chemscore.Hbonds>
donor molecule, donor type, donor heavy atom, donor atom, acceptor molecule, acceptor atom, score
      P1  H  6896  6908       L1    10  0.84
      P1  H  7989  7998       L1     2  0.50

> <Gold.PLP.Chemscore.Internal.Correction>
0.1392

> <Gold.Rescore>
     Score         DG    S(hbond)    S(metal)    S(lipo)     H(rot)  DE(clash)    DE(int)     intcor
     17.05     -17.79       1.08        0.00     121.21       2.13       0.05       0.69       ----

> <Gold.Chemscore.Fitness>
17.0516

> <Gold.Chemscore.DG>
-17.7905

> <Gold.Chemscore.ZeroCoef>
-5.4800

> <Gold.Chemscore.Hbond>
1.0753

> <Gold.Chemscore.Metal>
0.0000

> <Gold.Chemscore.Lipo>
121.2087

> <Gold.Chemscore.Internal_Hbond>
0.0000

> <Gold.Chemscore.DEClash>
0.0504

> <Gold.Chemscore.DEInternal>
0.6885

> <Gold.Chemscore.Rot>
2.1338

> <Gold.Chemscore.Internal.Correction>
   9.000000E+99

> <Gold.Chemscore.Hbonds>
donor molecule, donor type, donor heavy atom, donor atom, acceptor molecule, acceptor atom, score
      P1  H  6896  6908       L1    10  0.82
      P1  H  7989  7998       L1     2  0.01

> <Gold.Chemscore.Hbond.Weighted>
-3.5917

> <Gold.Chemscore.Metal.Weighted>
-0.0000

> <Gold.Chemscore.Lipo.Weighted>
-14.1814

> <Gold.Chemscore.Internal_Hbond.Weighted>
0.0000

> <Gold.Chemscore.DEClash.Weighted>
0.0504

> <Gold.Chemscore.DEInternal.Weighted>
0.6885

> <Gold.Chemscore.Rot.Weighted>
5.4626

> <Gold.Chemscore.Internal.Correction.Weighted>
   9.000000E+99

> <Gold.Protein.RotatedTorsions>
[ 6907 6896 6895 6894 ] final  -57.17 input  -60.11 | X-H torsion
[ 7974 7965 7964 7962 ] final   48.26 input  175.53 | X-H torsion
[ 8008 7997 7996 7995 ] final -143.87 input   59.86 | X-H torsion
[ 10167 10162 10161 10158 ] final   32.17 input  -65.29 | X-H torsion
[ 10718 10713 10712 10709 ] final  -73.56 input   66.30 | X-H torsion
[ 10763 10752 10751 10750 ] final   91.97 input  -60.55 | X-H torsion
[ 11005 11000 10999 10996 ] final   91.77 input  -57.11 | X-H torsion

> <Gold.Protein.ActiveResidues>
 VAL166  LYS551  ARG553  GLY616  TRP617  ASP618  TYR619  PRO620  LYS621  CYS622 
 ASP623  PHE694  ASN695  SER759  ASP760  ASP761  ALA762  ILE779  LEU786  VAL792 
 PHE793  MET794  SER795  GLU796  ALA797  LYS798  CYS799  TRP800  GLU811  SER814 

> <Gold.Protein.RotatedAtoms>
  150.8107  134.7261  159.6685 H   0  0  0  0  0  0  0  0  0  0  0  0  # atno 6907 bound_to 6896
  152.4227  134.5922  159.9987 H   0  0  0  0  0  0  0  0  0  0  0  0  # atno 6908 bound_to 6896
  151.6132  133.3308  159.3108 H   0  0  0  0  0  0  0  0  0  0  0  0  # atno 6909 bound_to 6896
  146.0221  139.4663  142.9890 H   0  0  0  0  0  0  0  0  0  0  0  0  # atno 7974 bound_to 7965
  155.5176  140.0588  157.2912 H   0  0  0  0  0  0  0  0  0  0  0  0  # atno 8008 bound_to 7997
  154.4529  140.1958  156.0412 H   0  0  0  0  0  0  0  0  0  0  0  0  # atno 8009 bound_to 7997
  156.0741  140.3256  155.7616 H   0  0  0  0  0  0  0  0  0  0  0  0  # atno 8010 bound_to 7997
  140.4522  144.1031  150.6194 H   0  0  0  0  0  0  0  0  0  0  0  0  # atno 10167 bound_to 10162
  156.0276  130.4397  150.2760 H   0  0  0  0  0  0  0  0  0  0  0  0  # atno 10718 bound_to 10713
  153.2141  135.4378  155.0414 H   0  0  0  0  0  0  0  0  0  0  0  0  # atno 10763 bound_to 10752
  154.8216  135.3340  154.7025 H   0  0  0  0  0  0  0  0  0  0  0  0  # atno 10764 bound_to 10752
  153.7461  135.7001  153.5012 H   0  0  0  0  0  0  0  0  0  0  0  0  # atno 10765 bound_to 10752
  139.8833  134.8694  156.3476 H   0  0  0  0  0  0  0  0  0  0  0  0  # atno 11005 bound_to 11000
  145.7176  141.0085  143.1419 LP  0  0  0  0  0  0  0  0  0  0  0  0  # atno 17320 bound_to 7965
  144.6994  139.8832  143.7448 LP  0  0  0  0  0  0  0  0  0  0  0  0  # atno 17321 bound_to 7965
  140.4193  143.2619  151.9735 LP  0  0  0  0  0  0  0  0  0  0  0  0  # atno 17342 bound_to 10162
  139.4798  144.5845  151.7877 LP  0  0  0  0  0  0  0  0  0  0  0  0  # atno 17343 bound_to 10162
  157.0863  131.0157  151.3138 LP  0  0  0  0  0  0  0  0  0  0  0  0  # atno 17370 bound_to 10713
  157.4888  130.7809  149.7487 LP  0  0  0  0  0  0  0  0  0  0  0  0  # atno 17371 bound_to 10713
  140.9616  133.7385  156.0409 LP  0  0  0  0  0  0  0  0  0  0  0  0  # atno 17394 bound_to 11000
  140.7983  134.3539  157.5446 LP  0  0  0  0  0  0  0  0  0  0  0  0  # atno 17395 bound_to 11000

$$$$
