AV-unprocessed.smi:2402|AV-procd|sdf|9505|dock10
  -GOLD-   2272013133D 1   1.00000     0.00000
 Structure written by MMmdl.
 38 39  0  0  0  0  0  0  0  0  1 V2000
  152.0393  145.9132  160.4097 C   0  0  0  0  0  0  0  0  0  0  0  0
  152.0370  144.5370  159.7780 C   0  0  0  0  0  0  0  0  0  0  0  0
  152.8093  143.4918  160.3198 C   0  0  0  0  0  0  0  0  0  0  0  0
  152.7638  142.2343  159.6864 C   0  0  0  0  0  0  0  0  0  0  0  0
  153.5738  141.0680  160.2124 C   0  0  0  0  0  0  0  0  0  0  0  0
  152.0171  141.9891  158.5884 N   0  0  0  0  0  0  0  0  0  0  0  0
  151.2688  142.9880  158.0579 C   0  0  0  0  0  0  0  0  0  0  0  0
  150.4558  142.8355  156.9030 N   0  0  0  0  0  0  0  0  0  0  0  0
  150.2359  141.7215  156.1824 C   0  0  0  0  0  0  0  0  0  0  0  0
  150.6848  140.6042  156.4408 O   0  0  0  0  0  0  0  0  0  0  0  0
  149.4498  141.9741  155.1259 N   0  0  0  0  0  0  0  0  0  0  0  0
  149.0258  140.9789  154.1473 C   0  0  2  0  0  0  0  0  0  0  0  0
  147.8336  141.4711  153.3738 C   0  0  0  0  0  0  0  0  0  0  0  0
  146.8095  140.6215  153.4128 C   0  0  0  0  0  0  0  0  0  0  0  0
  147.1023  139.3890  154.2274 C   0  0  2  0  0  0  0  0  0  0  0  0
  146.0271  139.1328  155.2963 C   0  0  0  0  0  0  0  0  0  0  0  0
  144.7702  138.9308  154.6861 O   0  0  0  0  0  0  0  0  0  0  0  0
  148.5145  139.6705  154.8054 C   0  0  0  0  0  0  0  0  0  0  0  0
  151.2576  144.2791  158.6323 C   0  0  0  0  0  0  0  0  0  0  0  0
  149.8297  140.7715  153.4386 H   0  0  0  0  0  0  0  0  0  0  0  0
  147.1435  138.5464  153.5356 H   0  0  0  0  0  0  0  0  0  0  0  0
  152.7988  145.9907  161.1883 H   0  0  0  0  0  0  0  0  0  0  0  0
  151.0678  146.1240  160.8573 H   0  0  0  0  0  0  0  0  0  0  0  0
  152.2450  146.6754  159.6577 H   0  0  0  0  0  0  0  0  0  0  0  0
  153.4211  143.6495  161.1962 H   0  0  0  0  0  0  0  0  0  0  0  0
  153.9780  141.2823  161.2020 H   0  0  0  0  0  0  0  0  0  0  0  0
  154.4066  140.8554  159.5416 H   0  0  0  0  0  0  0  0  0  0  0  0
  152.9540  140.1738  160.2858 H   0  0  0  0  0  0  0  0  0  0  0  0
  150.0016  143.6761  156.5788 H   0  0  0  0  0  0  0  0  0  0  0  0
  149.1213  142.9186  154.9880 H   0  0  0  0  0  0  0  0  0  0  0  0
  147.8421  142.4086  152.8375 H   0  0  0  0  0  0  0  0  0  0  0  0
  145.8628  140.7688  152.9140 H   0  0  0  0  0  0  0  0  0  0  0  0
  146.2791  138.2631  155.9045 H   0  0  0  0  0  0  0  0  0  0  0  0
  145.9496  139.9867  155.9700 H   0  0  0  0  0  0  0  0  0  0  0  0
  144.6529  139.5847  154.0141 H   0  0  0  0  0  0  0  0  0  0  0  0
  149.1930  138.8404  154.6058 H   0  0  0  0  0  0  0  0  0  0  0  0
  148.4667  139.7785  155.8903 H   0  0  0  0  0  0  0  0  0  0  0  0
  150.6577  145.0670  158.1996 H   0  0  0  0  0  0  0  0  0  0  0  0
  1  2  1  0  0  0  0
  1 22  1  0  0  0  0
  1 23  1  0  0  0  0
  1 24  1  0  0  0  0
  2 19  1  0  0  0  0
  2  3  2  0  0  0  0
  3  4  1  0  0  0  0
  3 25  1  0  0  0  0
  4  5  1  0  0  0  0
  4  6  2  0  0  0  0
  5 26  1  0  0  0  0
  5 27  1  0  0  0  0
  5 28  1  0  0  0  0
  6  7  1  0  0  0  0
  7  8  1  0  0  0  0
  7 19  2  0  0  0  0
  8  9  1  0  0  0  0
  8 29  1  0  0  0  0
  9 10  2  0  0  0  0
  9 11  1  0  0  0  0
 11 12  1  0  0  0  0
 11 30  1  0  0  0  0
 12 20  1  0  0  0  0
 12 18  1  0  0  0  0
 12 13  1  0  0  0  0
 13 14  2  0  0  0  0
 13 31  1  0  0  0  0
 14 15  1  0  0  0  0
 14 32  1  0  0  0  0
 15 21  1  0  0  0  0
 15 16  1  0  0  0  0
 15 18  1  0  0  0  0
 16 17  1  0  0  0  0
 16 33  1  0  0  0  0
 16 34  1  0  0  0  0
 17 35  1  0  0  0  0
 18 36  1  0  0  0  0
 18 37  1  0  0  0  0
 19 38  1  0  0  0  0
M  END
> <s_m_source_file>
AV-unprocessed.smi

> <i_m_source_file_index>
2402

> <i_lp_mmshare_version>
43012

> <i_f3d_flags>
0

> <s_epik_input>
W0NIM11jMVtjSF1jKFtDSDNdKW5jKFtjSF0xKVtOSF1DKD1PKVtOSF1bQ0BASF0yW0NIXT1bQ0hdW0NAQEhdKFtDSDJdMilbQ0gyXVtPSF0=

> <s_epik_cmdline>
J2VwaWtfcHl0aG9uJywgJy1waCcsICc3LjAnLCAnLXRuJywgJzgnLCAnLW1hJywgJzIwMCcsICctbWV0YWxfYmluZGluZycsICctaW1hZScsICc8aW5maWxlLm1hZT4nLCAnLW9tYWUnLCAnPG91dGZpbGUubWFlPic=

> <r_lp_tautomer_probability>
1

> <r_epik_Ionization_Penalty>
0.000257495

> <r_epik_Ionization_Penalty_Charging>
0

> <r_epik_Ionization_Penalty_Neutral>
0.000257495

> <r_epik_State_Penalty>
-0

> <r_epik_Charging_Adjusted_Penalty>
0

> <i_epik_Tot_Q>
0

> <i_epik_Tot_abs_Q>
0

> <r_epik_Metal_State_Penalty>
-0

> <b_epik_Metal_Only>
0

> <s_lp_Force_Field>
OPLS_2005

> <r_lp_Energy>
18.4158

> <b_lp_Chiralities_Consistent>
1

> <s_lp_Variant>
AV-unprocessed.smi:2402-1

> <Gold.Version>
5.8.1

> <Gold.Id.Protein>
6NUR|6NUR_protein|mol2

> <Gold.PLP.Fitness>
46.6773

> <Gold.PLP.PLP>
-38.0751

> <Gold.PLP.part.hbond>
-3.0000

> <Gold.PLP.part.metal>
0.0000

> <Gold.PLP.part.buried>
-3.3216

> <Gold.PLP.part.nonpolar>
-32.4058

> <Gold.PLP.part.repulsive>
0.2570

> <Gold.PLP.ligand.clash>
0.0000

> <Gold.PLP.ligand.torsion>
0.2058

> <Gold.PLP.Chemscore.Hbond>
3.0000

> <Gold.PLP.Chemscore.CHOScore>
0.0000

> <Gold.PLP.Chemscore.Metal>
0.0000

> <Gold.Chemscore.Hbonds>
donor molecule, donor type, donor heavy atom, donor atom, acceptor molecule, acceptor atom, score
      L1  H     8    29       P1  8028  1.00
      L1  H    11    30       P1  8028  1.00
      L1  H    17    35       P1 10175  1.00

> <Gold.PLP.Chemscore.Internal.Correction>
0.0137

> <Gold.Rescore>
     Score         DG    S(hbond)    S(metal)    S(lipo)     H(rot)  DE(clash)    DE(int)     intcor
     18.97     -22.57       2.91        0.00     102.16       1.78       0.85       2.75       ----

> <Gold.Chemscore.Fitness>
18.9738

> <Gold.Chemscore.DG>
-22.5692

> <Gold.Chemscore.ZeroCoef>
-5.4800

> <Gold.Chemscore.Hbond>
2.9056

> <Gold.Chemscore.Metal>
0.0000

> <Gold.Chemscore.Lipo>
102.1596

> <Gold.Chemscore.Internal_Hbond>
0.0000

> <Gold.Chemscore.DEClash>
0.8485

> <Gold.Chemscore.DEInternal>
2.7468

> <Gold.Chemscore.Rot>
1.7844

> <Gold.Chemscore.Internal.Correction>
   9.000000E+99

> <Gold.Chemscore.Hbonds>
donor molecule, donor type, donor heavy atom, donor atom, acceptor molecule, acceptor atom, score
      L1  H     8    29       P1  8028  1.00
      L1  H    11    30       P1  8028  0.95
      L1  H    17    35       P1 10175  0.92

> <Gold.Chemscore.Hbond.Weighted>
-9.7047

> <Gold.Chemscore.Metal.Weighted>
-0.0000

> <Gold.Chemscore.Lipo.Weighted>
-11.9527

> <Gold.Chemscore.Internal_Hbond.Weighted>
0.0000

> <Gold.Chemscore.DEClash.Weighted>
0.8485

> <Gold.Chemscore.DEInternal.Weighted>
2.7468

> <Gold.Chemscore.Rot.Weighted>
4.5681

> <Gold.Chemscore.Internal.Correction.Weighted>
   9.000000E+99

> <Gold.Protein.RotatedTorsions>
[ 6907 6896 6895 6894 ] final   -4.29 input  -60.11 | X-H torsion
[ 7974 7965 7964 7962 ] final  140.68 input  175.53 | X-H torsion
[ 8008 7997 7996 7995 ] final -146.54 input   59.86 | X-H torsion
[ 10167 10162 10161 10158 ] final  144.27 input  -65.29 | X-H torsion
[ 10718 10713 10712 10709 ] final   82.95 input   66.30 | X-H torsion
[ 10763 10752 10751 10750 ] final   48.84 input  -60.55 | X-H torsion
[ 11005 11000 10999 10996 ] final  168.00 input  -57.11 | X-H torsion

> <Gold.Protein.ActiveResidues>
 VAL166  LYS551  ARG553  GLY616  TRP617  ASP618  TYR619  PRO620  LYS621  CYS622 
 ASP623  PHE694  ASN695  SER759  ASP760  ASP761  ALA762  ILE779  LEU786  VAL792 
 PHE793  MET794  SER795  GLU796  ALA797  LYS798  CYS799  TRP800  GLU811  SER814 

> <Gold.Protein.RotatedAtoms>
  151.5001  135.1061  159.9826 H   0  0  0  0  0  0  0  0  0  0  0  0  # atno 6907 bound_to 6896
  152.4705  133.8015  159.6966 H   0  0  0  0  0  0  0  0  0  0  0  0  # atno 6908 bound_to 6896
  150.8712  133.7440  159.2986 H   0  0  0  0  0  0  0  0  0  0  0  0  # atno 6909 bound_to 6896
  144.9165  139.5224  143.5684 H   0  0  0  0  0  0  0  0  0  0  0  0  # atno 7974 bound_to 7965
  155.5610  140.0625  157.2829 H   0  0  0  0  0  0  0  0  0  0  0  0  # atno 8008 bound_to 7997
  154.4390  140.1885  156.0828 H   0  0  0  0  0  0  0  0  0  0  0  0  # atno 8009 bound_to 7997
  156.0446  140.3291  155.7286 H   0  0  0  0  0  0  0  0  0  0  0  0  # atno 8010 bound_to 7997
  139.4951  144.5983  151.6535 H   0  0  0  0  0  0  0  0  0  0  0  0  # atno 10167 bound_to 10162
  157.6868  131.0070  150.2451 H   0  0  0  0  0  0  0  0  0  0  0  0  # atno 10718 bound_to 10713
  152.9789  135.5931  154.3992 H   0  0  0  0  0  0  0  0  0  0  0  0  # atno 10763 bound_to 10752
  154.3639  135.2767  155.2306 H   0  0  0  0  0  0  0  0  0  0  0  0  # atno 10764 bound_to 10752
  154.4291  135.6040  153.6112 H   0  0  0  0  0  0  0  0  0  0  0  0  # atno 10765 bound_to 10752
  140.2827  134.7737  157.3771 H   0  0  0  0  0  0  0  0  0  0  0  0  # atno 11005 bound_to 11000
  146.3184  139.8012  142.8965 LP  0  0  0  0  0  0  0  0  0  0  0  0  # atno 17320 bound_to 7965
  145.3367  141.0279  143.3415 LP  0  0  0  0  0  0  0  0  0  0  0  0  # atno 17321 bound_to 7965
  140.5627  144.0242  150.6177 LP  0  0  0  0  0  0  0  0  0  0  0  0  # atno 17342 bound_to 10162
  140.3333  143.3064  152.0665 LP  0  0  0  0  0  0  0  0  0  0  0  0  # atno 17343 bound_to 10162
  156.3058  130.3765  149.7707 LP  0  0  0  0  0  0  0  0  0  0  0  0  # atno 17370 bound_to 10713
  156.5323  130.8263  151.3241 LP  0  0  0  0  0  0  0  0  0  0  0  0  # atno 17371 bound_to 10713
  140.1269  134.5146  155.8137 LP  0  0  0  0  0  0  0  0  0  0  0  0  # atno 17394 bound_to 11000
  141.2160  133.6776  156.6968 LP  0  0  0  0  0  0  0  0  0  0  0  0  # atno 17395 bound_to 11000

$$$$
