AV-unprocessed.smi:282|AV-procd|sdf|2123|dock1
  -GOLD-   2262021423D 1   1.00000     0.00000
 Structure written by MMmdl.
 65 69  0  0  0  0  0  0  0  0  2 V2000
  151.6197  144.5084  160.5415 C   0  0  0  0  0  0  0  0  0  0  0  0
  152.3979  143.6121  159.5641 C   0  0  0  0  0  0  0  0  0  0  0  0
  152.5508  142.1319  160.0036 C   0  0  2  0  0  0  0  0  0  0  0  0
  153.8522  141.9208  160.8080 C   0  0  0  0  0  0  0  0  0  0  0  0
  154.0264  140.5071  161.2205 N   0  3  2  0  0  0  0  0  0  0  0  0
  155.2429  140.3211  162.0531 C   0  0  0  0  0  0  0  0  0  0  0  0
  155.3658  138.8726  162.5500 C   0  0  0  0  0  0  0  0  0  0  0  0
  155.3645  137.8943  161.3703 C   0  0  0  0  0  0  0  0  0  0  0  0
  154.1082  138.1110  160.5178 C   0  0  0  0  0  0  0  0  0  0  0  0
  153.9809  139.5773  160.0570 C   0  0  1  0  0  0  0  0  0  0  0  0
  152.6816  139.7796  159.2570 C   0  0  0  0  0  0  0  0  0  0  0  0
  152.4751  141.1771  158.8890 N   0  0  0  0  0  0  0  0  0  0  0  0
  151.4108  141.2801  158.0584 C   0  0  0  0  0  0  0  0  0  0  0  0
  150.3376  142.0370  158.4094 N   0  0  0  0  0  0  0  0  0  0  0  0
  149.2843  142.1200  157.5910 C   0  0  0  0  0  0  0  0  0  0  0  0
  149.1006  141.5355  156.4049 N   0  0  0  0  0  0  0  0  0  0  0  0
  150.1738  140.7689  156.0562 C   0  0  0  0  0  0  0  0  0  0  0  0
  151.3563  140.5819  156.8240 C   0  0  0  0  0  0  0  0  0  0  0  0
  152.2262  139.7247  156.1640 N   0  0  0  0  0  0  0  0  0  0  0  0
  151.5930  139.4216  155.0634 C   0  0  0  0  0  0  0  0  0  0  0  0
  150.3613  140.0191  154.9073 N   0  0  0  0  0  0  0  0  0  0  0  0
  149.4515  139.8598  153.7813 C   0  0  0  0  0  0  0  0  0  0  0  0
  148.1654  139.0360  154.0898 C   0  0  0  0  0  0  0  0  0  0  0  0
  147.2183  139.0040  152.8559 C   0  0  0  0  0  0  0  0  0  0  0  0
  147.7795  138.2982  151.7672 O   0  0  0  0  0  0  0  0  0  0  0  0
  148.5902  137.6066  154.5111 C   0  0  0  0  0  0  0  0  0  0  0  0
  147.4350  136.7891  155.1167 C   0  0  0  0  0  0  0  0  0  0  0  0
  146.8806  137.4823  156.2272 O   0  0  0  0  0  0  0  0  0  0  0  0
  146.3252  138.7410  155.8701 C   0  0  0  0  0  0  0  0  0  0  0  0
  147.4205  139.6593  155.2972 C   0  0  0  0  0  0  0  0  0  0  0  0
  151.5983  145.5368  160.1808 H   0  0  0  0  0  0  0  0  0  0  0  0
  152.0792  144.5203  161.5298 H   0  0  0  0  0  0  0  0  0  0  0  0
  150.5855  144.1851  160.6541 H   0  0  0  0  0  0  0  0  0  0  0  0
  151.9033  143.6430  158.5927 H   0  0  0  0  0  0  0  0  0  0  0  0
  153.3789  144.0555  159.3939 H   0  0  0  0  0  0  0  0  0  0  0  0
  151.7226  141.9048  160.6769 H   0  0  0  0  0  0  0  0  0  0  0  0
  154.7199  142.2128  160.2154 H   0  0  0  0  0  0  0  0  0  0  0  0
  153.8440  142.5582  161.6932 H   0  0  0  0  0  0  0  0  0  0  0  0
  156.1269  140.5924  161.4738 H   0  0  0  0  0  0  0  0  0  0  0  0
  155.2062  140.9961  162.9091 H   0  0  0  0  0  0  0  0  0  0  0  0
  156.2803  138.7535  163.1317 H   0  0  0  0  0  0  0  0  0  0  0  0
  154.5383  138.6417  163.2223 H   0  0  0  0  0  0  0  0  0  0  0  0
  156.2566  138.0458  160.7610 H   0  0  0  0  0  0  0  0  0  0  0  0
  155.4025  136.8664  161.7320 H   0  0  0  0  0  0  0  0  0  0  0  0
  154.1341  137.4480  159.6520 H   0  0  0  0  0  0  0  0  0  0  0  0
  153.2275  137.8278  161.0960 H   0  0  0  0  0  0  0  0  0  0  0  0
  154.8259  139.8125  159.4069 H   0  0  0  0  0  0  0  0  0  0  0  0
  152.7099  139.1604  158.3588 H   0  0  0  0  0  0  0  0  0  0  0  0
  151.8277  139.4408  159.8466 H   0  0  0  0  0  0  0  0  0  0  0  0
  148.4722  142.7432  157.9354 H   0  0  0  0  0  0  0  0  0  0  0  0
  152.0137  138.7545  154.3250 H   0  0  0  0  0  0  0  0  0  0  0  0
  149.1857  140.8551  153.4225 H   0  0  0  0  0  0  0  0  0  0  0  0
  150.0089  139.3964  152.9659 H   0  0  0  0  0  0  0  0  0  0  0  0
  146.2647  138.5348  153.0916 H   0  0  0  0  0  0  0  0  0  0  0  0
  146.9768  140.0141  152.5250 H   0  0  0  0  0  0  0  0  0  0  0  0
  148.2223  137.5331  152.1017 H   0  0  0  0  0  0  0  0  0  0  0  0
  149.0229  137.0672  153.6681 H   0  0  0  0  0  0  0  0  0  0  0  0
  149.3820  137.6704  155.2588 H   0  0  0  0  0  0  0  0  0  0  0  0
  146.6619  136.5762  154.3781 H   0  0  0  0  0  0  0  0  0  0  0  0
  147.8073  135.8245  155.4622 H   0  0  0  0  0  0  0  0  0  0  0  0
  145.5041  138.6051  155.1655 H   0  0  0  0  0  0  0  0  0  0  0  0
  145.8940  139.1949  156.7625 H   0  0  0  0  0  0  0  0  0  0  0  0
  148.1345  139.8662  156.0953 H   0  0  0  0  0  0  0  0  0  0  0  0
  146.9819  140.6200  155.0258 H   0  0  0  0  0  0  0  0  0  0  0  0
  153.2355  140.2764  161.8047 H   0  0  0  0  0  0  0  0  0  0  0  0
  1  2  1  0  0  0  0
  1 31  1  0  0  0  0
  1 32  1  0  0  0  0
  1 33  1  0  0  0  0
  2  3  1  0  0  0  0
  2 34  1  0  0  0  0
  2 35  1  0  0  0  0
  3 12  1  0  0  0  0
  3  4  1  0  0  0  0
  3 36  1  0  0  0  0
  4  5  1  0  0  0  0
  4 37  1  0  0  0  0
  4 38  1  0  0  0  0
  5 10  1  0  0  0  0
  5  6  1  0  0  0  0
  5 65  1  0  0  0  0
  6  7  1  0  0  0  0
  6 39  1  0  0  0  0
  6 40  1  0  0  0  0
  7  8  1  0  0  0  0
  7 41  1  0  0  0  0
  7 42  1  0  0  0  0
  8  9  1  0  0  0  0
  8 43  1  0  0  0  0
  8 44  1  0  0  0  0
  9 10  1  0  0  0  0
  9 45  1  0  0  0  0
  9 46  1  0  0  0  0
 10 11  1  0  0  0  0
 10 47  1  0  0  0  0
 11 12  1  0  0  0  0
 11 48  1  0  0  0  0
 11 49  1  0  0  0  0
 12 13  1  0  0  0  0
 13 18  1  0  0  0  0
 13 14  2  0  0  0  0
 14 15  1  0  0  0  0
 15 16  2  0  0  0  0
 15 50  1  0  0  0  0
 16 17  1  0  0  0  0
 17 21  1  0  0  0  0
 17 18  2  0  0  0  0
 18 19  1  0  0  0  0
 19 20  2  0  0  0  0
 20 21  1  0  0  0  0
 20 51  1  0  0  0  0
 21 22  1  0  0  0  0
 22 23  1  0  0  0  0
 22 52  1  0  0  0  0
 22 53  1  0  0  0  0
 23 30  1  0  0  0  0
 23 24  1  0  0  0  0
 23 26  1  0  0  0  0
 24 25  1  0  0  0  0
 24 54  1  0  0  0  0
 24 55  1  0  0  0  0
 25 56  1  0  0  0  0
 26 27  1  0  0  0  0
 26 57  1  0  0  0  0
 26 58  1  0  0  0  0
 27 28  1  0  0  0  0
 27 59  1  0  0  0  0
 27 60  1  0  0  0  0
 28 29  1  0  0  0  0
 29 30  1  0  0  0  0
 29 61  1  0  0  0  0
 29 62  1  0  0  0  0
 30 63  1  0  0  0  0
 30 64  1  0  0  0  0
M  CHG  1   5   1
M  END
> <s_m_source_file>
AV-unprocessed.smi

> <i_m_source_file_index>
282

> <i_lp_mmshare_version>
43012

> <i_f3d_flags>
0

> <s_epik_input>
W0NIMl0xW0NIMl1bQ0gyXVtDSDJdW0NAQEhdKE4xMilbQ0gyXU4oW0NAQEhdKFtDSDJdMilbQ0gyXVtDSDNdKWMobltjSF1uMyljKGMzNCluW2NIXW40W0NIMl1DNShbQ0gyXVtPSF0pW0NIMl1bQ0gyXU9bQ0gyXVtDSDJdNQ==

> <s_epik_cmdline>
J2VwaWtfcHl0aG9uJywgJy1waCcsICc3LjAnLCAnLXRuJywgJzgnLCAnLW1hJywgJzIwMCcsICctbWV0YWxfYmluZGluZycsICctaW1hZScsICc8aW5maWxlLm1hZT4nLCAnLW9tYWUnLCAnPG91dGZpbGUubWFlPic=

> <r_lp_tautomer_probability>
1

> <r_epik_Ionization_Penalty>
0.00308583

> <r_epik_Ionization_Penalty_Charging>
0.00300384

> <r_epik_Ionization_Penalty_Neutral>
8.19894e-05

> <r_epik_State_Penalty>
-0

> <r_epik_Charging_Adjusted_Penalty>
0.00300384

> <i_epik_Tot_Q>
1

> <i_epik_Tot_abs_Q>
1

> <r_epik_Metal_State_Penalty>
-0

> <b_epik_Metal_Only>
0

> <s_lp_Force_Field>
OPLS_2005

> <r_lp_Energy>
57.4125

> <b_lp_Chiralities_Consistent>
1

> <s_lp_Variant>
AV-unprocessed.smi:282-7

> <Gold.Version>
5.8.1

> <Gold.Id.Protein>
6NUR|6NUR_protein|mol2

> <Gold.PLP.Fitness>
52.0561

> <Gold.PLP.PLP>
-46.4157

> <Gold.PLP.part.hbond>
-3.2701

> <Gold.PLP.part.metal>
0.0000

> <Gold.PLP.part.buried>
2.2567

> <Gold.PLP.part.nonpolar>
-43.1751

> <Gold.PLP.part.repulsive>
0.1945

> <Gold.PLP.ligand.clash>
0.0000

> <Gold.PLP.ligand.torsion>
0.7372

> <Gold.PLP.Chemscore.Hbond>
2.1674

> <Gold.PLP.Chemscore.CHOScore>
0.1082

> <Gold.PLP.Chemscore.Metal>
0.0000

> <Gold.Chemscore.Hbonds>
donor molecule, donor type, donor heavy atom, donor atom, acceptor molecule, acceptor atom, score
      L1  H    25    56       P1  7948  0.87
      P1  H  7954  7966       L1    25  0.70
      P1  H  7997  8009       L1    19  0.70

> <Gold.PLP.Chemscore.Internal.Correction>
0.2882

> <Gold.Rescore>
     Score         DG    S(hbond)    S(metal)    S(lipo)     H(rot)  DE(clash)    DE(int)     intcor
     13.98     -18.18       1.79        0.00     111.13       2.46       0.51       3.68       ----

> <Gold.Chemscore.Fitness>
13.9816

> <Gold.Chemscore.DG>
-18.1774

> <Gold.Chemscore.ZeroCoef>
-5.4800

> <Gold.Chemscore.Hbond>
1.7925

> <Gold.Chemscore.Metal>
0.0000

> <Gold.Chemscore.Lipo>
111.1272

> <Gold.Chemscore.Internal_Hbond>
0.0000

> <Gold.Chemscore.DEClash>
0.5109

> <Gold.Chemscore.DEInternal>
3.6849

> <Gold.Chemscore.Rot>
2.4576

> <Gold.Chemscore.Internal.Correction>
   9.000000E+99

> <Gold.Chemscore.Hbonds>
donor molecule, donor type, donor heavy atom, donor atom, acceptor molecule, acceptor atom, score
      L1  H    25    56       P1  7948  0.79
      P1  H  7954  7966       L1    25  0.07
      P1  H  7997  8009       L1    19  0.65

> <Gold.Chemscore.Hbond.Weighted>
-5.9870

> <Gold.Chemscore.Metal.Weighted>
-0.0000

> <Gold.Chemscore.Lipo.Weighted>
-13.0019

> <Gold.Chemscore.Internal_Hbond.Weighted>
0.0000

> <Gold.Chemscore.DEClash.Weighted>
0.5109

> <Gold.Chemscore.DEInternal.Weighted>
3.6849

> <Gold.Chemscore.Rot.Weighted>
6.2915

> <Gold.Chemscore.Internal.Correction.Weighted>
   9.000000E+99

> <Gold.Protein.RotatedTorsions>
[ 6907 6896 6895 6894 ] final   74.52 input  -60.11 | X-H torsion
[ 7974 7965 7964 7962 ] final  -16.64 input  175.53 | X-H torsion
[ 8008 7997 7996 7995 ] final -165.61 input   59.86 | X-H torsion
[ 10167 10162 10161 10158 ] final  178.03 input  -65.29 | X-H torsion
[ 10718 10713 10712 10709 ] final -147.00 input   66.30 | X-H torsion
[ 10763 10752 10751 10750 ] final   68.86 input  -60.55 | X-H torsion
[ 11005 11000 10999 10996 ] final   84.42 input  -57.11 | X-H torsion

> <Gold.Protein.ActiveResidues>
 VAL166  LYS551  ARG553  GLY616  TRP617  ASP618  TYR619  PRO620  LYS621  CYS622 
 ASP623  PHE694  ASN695  SER759  ASP760  ASP761  ALA762  ILE779  LEU786  VAL792 
 PHE793  MET794  SER795  GLU796  ALA797  LYS798  CYS799  TRP800  GLU811  SER814 

> <Gold.Protein.RotatedAtoms>
  152.4980  134.4259  159.9495 H   0  0  0  0  0  0  0  0  0  0  0  0  # atno 6907 bound_to 6896
  151.4234  133.3685  159.2767 H   0  0  0  0  0  0  0  0  0  0  0  0  # atno 6908 bound_to 6896
  150.9206  134.8646  159.7546 H   0  0  0  0  0  0  0  0  0  0  0  0  # atno 6909 bound_to 6896
  146.1978  140.3665  142.8434 H   0  0  0  0  0  0  0  0  0  0  0  0  # atno 7974 bound_to 7965
  155.8522  140.0965  157.1667 H   0  0  0  0  0  0  0  0  0  0  0  0  # atno 8008 bound_to 7997
  154.3986  140.1381  156.3920 H   0  0  0  0  0  0  0  0  0  0  0  0  # atno 8009 bound_to 7997
  155.7948  140.3454  155.5372 H   0  0  0  0  0  0  0  0  0  0  0  0  # atno 8010 bound_to 7997
  139.5277  144.2729  152.0613 H   0  0  0  0  0  0  0  0  0  0  0  0  # atno 10167 bound_to 10162
  156.4019  130.7938  151.2149 H   0  0  0  0  0  0  0  0  0  0  0  0  # atno 10718 bound_to 10713
  153.0257  135.5232  154.7199 H   0  0  0  0  0  0  0  0  0  0  0  0  # atno 10763 bound_to 10752
  154.6257  135.2894  155.0277 H   0  0  0  0  0  0  0  0  0  0  0  0  # atno 10764 bound_to 10752
  154.1247  135.6602  153.4962 H   0  0  0  0  0  0  0  0  0  0  0  0  # atno 10765 bound_to 10752
  139.9001  134.8215  156.2443 H   0  0  0  0  0  0  0  0  0  0  0  0  # atno 11005 bound_to 11000
  144.8618  140.7150  143.6102 LP  0  0  0  0  0  0  0  0  0  0  0  0  # atno 17320 bound_to 7965
  145.3585  139.1688  143.4396 LP  0  0  0  0  0  0  0  0  0  0  0  0  # atno 17321 bound_to 7965
  140.2187  144.4488  150.6352 LP  0  0  0  0  0  0  0  0  0  0  0  0  # atno 17342 bound_to 10162
  140.6432  143.2208  151.6243 LP  0  0  0  0  0  0  0  0  0  0  0  0  # atno 17343 bound_to 10162
  157.7504  131.0284  150.4047 LP  0  0  0  0  0  0  0  0  0  0  0  0  # atno 17370 bound_to 10713
  156.4328  130.3975  149.6749 LP  0  0  0  0  0  0  0  0  0  0  0  0  # atno 17371 bound_to 10713
  141.0265  133.7012  156.1356 LP  0  0  0  0  0  0  0  0  0  0  0  0  # atno 17394 bound_to 11000
  140.7159  134.4411  157.5578 LP  0  0  0  0  0  0  0  0  0  0  0  0  # atno 17395 bound_to 11000

$$$$
