AV-unprocessed.smi:1149|AV-procd|sdf|4891|dock1
  -GOLD-   22720 3463D 1   1.00000     0.00000
 Structure written by MMmdl.
 51 52  0  0  0  0  0  0  0  0  2 V2000
  136.4539  142.6503  154.1518 C   0  0  0  0  0  0  0  0  0  0  0  0
  136.5198  141.2286  154.1289 O   0  0  0  0  0  0  0  0  0  0  0  0
  137.7517  140.6331  153.9504 C   0  0  0  0  0  0  0  0  0  0  0  0
  137.8031  139.2431  153.7254 C   0  0  0  0  0  0  0  0  0  0  0  0
  139.0562  138.6277  153.5426 C   0  0  0  0  0  0  0  0  0  0  0  0
  140.2235  139.4277  153.5819 C   0  0  0  0  0  0  0  0  0  0  0  0
  141.5462  138.9300  153.4295 N   0  0  0  0  0  0  0  0  0  0  0  0
  141.9733  137.6558  153.4526 C   0  0  0  0  0  0  0  0  0  0  0  0
  141.2574  136.6648  153.5927 O   0  0  0  0  0  0  0  0  0  0  0  0
  143.3006  137.5878  153.2734 N   0  0  0  0  0  0  0  0  0  0  0  0
  144.0924  136.3585  153.2339 C   0  0  0  0  0  0  0  0  0  0  0  0
  145.6025  136.6020  152.9331 C   0  0  0  0  0  0  0  0  0  0  0  0
  145.7735  137.7615  151.9190 C   0  0  0  0  0  0  0  0  0  0  0  0
  146.3234  137.0568  154.2269 C   0  0  0  0  0  0  0  0  0  0  0  0
  146.2622  135.3575  152.3945 N   0  3  0  0  0  0  0  0  0  0  0  0
  145.6523  134.7778  151.1631 C   0  0  0  0  0  0  0  0  0  0  0  0
  146.5409  133.6549  150.5883 C   0  0  0  0  0  0  0  0  0  0  0  0
  146.7823  132.5872  151.5577 N   0  0  0  0  0  0  0  0  0  0  0  0
  145.6028  131.7677  151.8147 C   0  0  0  0  0  0  0  0  0  0  0  0
  147.3713  133.1511  152.7719 C   0  0  0  0  0  0  0  0  0  0  0  0
  146.4969  134.2661  153.3833 C   0  0  0  0  0  0  0  0  0  0  0  0
  140.0639  140.8075  153.8261 C   0  0  0  0  0  0  0  0  0  0  0  0
  138.8662  141.4034  154.0026 N   0  0  0  0  0  0  0  0  0  0  0  0
  135.4192  142.9612  154.2949 H   0  0  0  0  0  0  0  0  0  0  0  0
  136.8016  143.0815  153.2119 H   0  0  0  0  0  0  0  0  0  0  0  0
  137.0400  143.0633  154.9740 H   0  0  0  0  0  0  0  0  0  0  0  0
  136.8963  138.6571  153.6984 H   0  0  0  0  0  0  0  0  0  0  0  0
  139.0930  137.5605  153.3909 H   0  0  0  0  0  0  0  0  0  0  0  0
  142.2466  139.6287  153.2288 H   0  0  0  0  0  0  0  0  0  0  0  0
  143.8055  138.4548  153.1599 H   0  0  0  0  0  0  0  0  0  0  0  0
  143.9696  135.8909  154.2102 H   0  0  0  0  0  0  0  0  0  0  0  0
  143.6566  135.6630  152.5161 H   0  0  0  0  0  0  0  0  0  0  0  0
  145.5075  138.7249  152.3549 H   0  0  0  0  0  0  0  0  0  0  0  0
  145.1369  137.6427  151.0424 H   0  0  0  0  0  0  0  0  0  0  0  0
  146.8062  137.8434  151.5778 H   0  0  0  0  0  0  0  0  0  0  0  0
  146.0078  138.0545  154.5345 H   0  0  0  0  0  0  0  0  0  0  0  0
  147.4047  137.0932  154.0884 H   0  0  0  0  0  0  0  0  0  0  0  0
  146.1143  136.4019  155.0722 H   0  0  0  0  0  0  0  0  0  0  0  0
  144.6491  134.4048  151.3669 H   0  0  0  0  0  0  0  0  0  0  0  0
  145.5504  135.5292  150.3830 H   0  0  0  0  0  0  0  0  0  0  0  0
  146.0890  133.2353  149.6888 H   0  0  0  0  0  0  0  0  0  0  0  0
  147.5022  134.0712  150.2835 H   0  0  0  0  0  0  0  0  0  0  0  0
  145.8502  130.9550  152.4982 H   0  0  0  0  0  0  0  0  0  0  0  0
  145.2459  131.3204  150.8863 H   0  0  0  0  0  0  0  0  0  0  0  0
  144.7822  132.3359  152.2510 H   0  0  0  0  0  0  0  0  0  0  0  0
  147.5370  132.3558  153.4997 H   0  0  0  0  0  0  0  0  0  0  0  0
  148.3554  133.5527  152.5264 H   0  0  0  0  0  0  0  0  0  0  0  0
  147.0209  134.6387  154.2609 H   0  0  0  0  0  0  0  0  0  0  0  0
  145.5522  133.8546  153.7372 H   0  0  0  0  0  0  0  0  0  0  0  0
  140.9249  141.4579  153.8777 H   0  0  0  0  0  0  0  0  0  0  0  0
  147.1838  135.6592  152.1119 H   0  0  0  0  0  0  0  0  0  0  0  0
  1  2  1  0  0  0  0
  1 24  1  0  0  0  0
  1 25  1  0  0  0  0
  1 26  1  0  0  0  0
  2  3  1  0  0  0  0
  3 23  1  0  0  0  0
  3  4  2  0  0  0  0
  4  5  1  0  0  0  0
  4 27  1  0  0  0  0
  5  6  2  0  0  0  0
  5 28  1  0  0  0  0
  6  7  1  0  0  0  0
  6 22  1  0  0  0  0
  7  8  1  0  0  0  0
  7 29  1  0  0  0  0
  8  9  2  0  0  0  0
  8 10  1  0  0  0  0
 10 11  1  0  0  0  0
 10 30  1  0  0  0  0
 11 12  1  0  0  0  0
 11 31  1  0  0  0  0
 11 32  1  0  0  0  0
 12 13  1  0  0  0  0
 12 14  1  0  0  0  0
 12 15  1  0  0  0  0
 13 33  1  0  0  0  0
 13 34  1  0  0  0  0
 13 35  1  0  0  0  0
 14 36  1  0  0  0  0
 14 37  1  0  0  0  0
 14 38  1  0  0  0  0
 15 21  1  0  0  0  0
 15 16  1  0  0  0  0
 15 51  1  0  0  0  0
 16 17  1  0  0  0  0
 16 39  1  0  0  0  0
 16 40  1  0  0  0  0
 17 18  1  0  0  0  0
 17 41  1  0  0  0  0
 17 42  1  0  0  0  0
 18 19  1  0  0  0  0
 18 20  1  0  0  0  0
 19 43  1  0  0  0  0
 19 44  1  0  0  0  0
 19 45  1  0  0  0  0
 20 21  1  0  0  0  0
 20 46  1  0  0  0  0
 20 47  1  0  0  0  0
 21 48  1  0  0  0  0
 21 49  1  0  0  0  0
 22 23  2  0  0  0  0
 22 50  1  0  0  0  0
M  CHG  1  15   1
M  END
> <s_m_source_file>
AV-unprocessed.smi

> <i_m_source_file_index>
1149

> <i_lp_mmshare_version>
43012

> <i_f3d_flags>
0

> <s_epik_input>
W0NIM11PYzFbY0hdW2NIXWMoW2NIXW4xKVtOSF1DKD1PKVtOSF1bQ0gyXUMoW0NIM10pKFtDSDNdKU4yW0NIMl1bQ0gyXU4oW0NIM10pW0NIMl1bQ0gyXTI=

> <s_epik_cmdline>
J2VwaWtfcHl0aG9uJywgJy1waCcsICc3LjAnLCAnLXRuJywgJzgnLCAnLW1hJywgJzIwMCcsICctbWV0YWxfYmluZGluZycsICctaW1hZScsICc8aW5maWxlLm1hZT4nLCAnLW9tYWUnLCAnPG91dGZpbGUubWFlPic=

> <r_epik_Ionization_Penalty>
0.0907124

> <r_epik_Ionization_Penalty_Charging>
0.0886444

> <r_epik_Ionization_Penalty_Neutral>
0.00206799

> <r_epik_State_Penalty>
1.00524

> <r_epik_Charging_Adjusted_Penalty>
1.09388

> <i_epik_Tot_Q>
1

> <i_epik_Tot_abs_Q>
1

> <r_epik_Metal_State_Penalty>
1.00525

> <b_epik_Metal_Only>
0

> <s_lp_Force_Field>
OPLS_2005

> <r_lp_Energy>
30.5246

> <b_lp_Chiralities_Consistent>
1

> <s_lp_Variant>
AV-unprocessed.smi:1149-2

> <Gold.Version>
5.8.1

> <Gold.Id.Protein>
6NUR|6NUR_protein|mol2

> <Gold.PLP.Fitness>
42.3568

> <Gold.PLP.PLP>
-28.6030

> <Gold.PLP.part.hbond>
-3.6777

> <Gold.PLP.part.metal>
0.0000

> <Gold.PLP.part.buried>
0.6750

> <Gold.PLP.part.nonpolar>
-26.2883

> <Gold.PLP.part.repulsive>
0.5577

> <Gold.PLP.ligand.clash>
0.0000

> <Gold.PLP.ligand.torsion>
0.5985

> <Gold.PLP.Chemscore.Hbond>
3.9280

> <Gold.PLP.Chemscore.CHOScore>
1.0000

> <Gold.PLP.Chemscore.Metal>
0.0000

> <Gold.Chemscore.Hbonds>
donor molecule, donor type, donor heavy atom, donor atom, acceptor molecule, acceptor atom, score
      L1  H     7    29       P1 10175  1.00
      L1  H    10    30       P1 10175  0.70
      L1  H    15    51       P1  7948  2.00
      L1  C    22    50       P1 10174  0.77

> <Gold.PLP.Chemscore.Internal.Correction>
0.1668

> <Gold.Rescore>
     Score         DG    S(hbond)    S(metal)    S(lipo)     H(rot)  DE(clash)    DE(int)     intcor
     16.28     -18.49       2.71        0.00      71.39       1.72       0.64       1.57       ----

> <Gold.Chemscore.Fitness>
16.2842

> <Gold.Chemscore.DG>
-18.4936

> <Gold.Chemscore.ZeroCoef>
-5.4800

> <Gold.Chemscore.Hbond>
2.7147

> <Gold.Chemscore.Metal>
0.0000

> <Gold.Chemscore.Lipo>
71.3938

> <Gold.Chemscore.Internal_Hbond>
0.0000

> <Gold.Chemscore.DEClash>
0.6436

> <Gold.Chemscore.DEInternal>
1.5657

> <Gold.Chemscore.Rot>
1.7213

> <Gold.Chemscore.Internal.Correction>
   9.000000E+99

> <Gold.Chemscore.Hbonds>
donor molecule, donor type, donor heavy atom, donor atom, acceptor molecule, acceptor atom, score
      L1  H     7    29       P1 10175  0.92
      L1  H    10    30       P1 10175  0.68
      L1  H    15    51       P1  7948  1.00

> <Gold.Chemscore.Hbond.Weighted>
-9.0670

> <Gold.Chemscore.Metal.Weighted>
-0.0000

> <Gold.Chemscore.Lipo.Weighted>
-8.3531

> <Gold.Chemscore.Internal_Hbond.Weighted>
0.0000

> <Gold.Chemscore.DEClash.Weighted>
0.6436

> <Gold.Chemscore.DEInternal.Weighted>
1.5657

> <Gold.Chemscore.Rot.Weighted>
4.4066

> <Gold.Chemscore.Internal.Correction.Weighted>
   9.000000E+99

> <Gold.Protein.RotatedTorsions>
[ 6907 6896 6895 6894 ] final    9.89 input  -60.11 | X-H torsion
[ 7974 7965 7964 7962 ] final   -3.06 input  175.53 | X-H torsion
[ 8008 7997 7996 7995 ] final   55.76 input   59.86 | X-H torsion
[ 10167 10162 10161 10158 ] final -173.84 input  -65.29 | X-H torsion
[ 10718 10713 10712 10709 ] final    4.76 input   66.30 | X-H torsion
[ 10763 10752 10751 10750 ] final  144.78 input  -60.55 | X-H torsion
[ 11005 11000 10999 10996 ] final   10.50 input  -57.11 | X-H torsion

> <Gold.Protein.ActiveResidues>
 VAL166  LYS551  ARG553  GLY616  TRP617  ASP618  TYR619  PRO620  LYS621  CYS622 
 ASP623  PHE694  ASN695  SER759  ASP760  ASP761  ALA762  ILE779  LEU786  VAL792 
 PHE793  MET794  SER795  GLU796  ALA797  LYS798  CYS799  TRP800  GLU811  SER814 

> <Gold.Protein.RotatedAtoms>
  151.7294  135.0878  160.0297 H   0  0  0  0  0  0  0  0  0  0  0  0  # atno 6907 bound_to 6896
  152.3551  133.6222  159.5981 H   0  0  0  0  0  0  0  0  0  0  0  0  # atno 6908 bound_to 6896
  150.7565  133.9429  159.3503 H   0  0  0  0  0  0  0  0  0  0  0  0  # atno 6909 bound_to 6896
  146.2395  140.1664  142.8332 H   0  0  0  0  0  0  0  0  0  0  0  0  # atno 7974 bound_to 7965
  155.5064  140.3476  155.4380 H   0  0  0  0  0  0  0  0  0  0  0  0  # atno 8008 bound_to 7997
  156.0879  140.1403  156.9657 H   0  0  0  0  0  0  0  0  0  0  0  0  # atno 8009 bound_to 7997
  154.4617  140.0932  156.6889 H   0  0  0  0  0  0  0  0  0  0  0  0  # atno 8010 bound_to 7997
  139.5666  144.1741  152.1322 H   0  0  0  0  0  0  0  0  0  0  0  0  # atno 10167 bound_to 10162
  156.8974  130.5709  149.5648 H   0  0  0  0  0  0  0  0  0  0  0  0  # atno 10718 bound_to 10713
  153.9946  135.2929  155.3408 H   0  0  0  0  0  0  0  0  0  0  0  0  # atno 10763 bound_to 10752
  154.7195  135.5115  153.8792 H   0  0  0  0  0  0  0  0  0  0  0  0  # atno 10764 bound_to 10752
  153.0794  135.6674  154.0194 H   0  0  0  0  0  0  0  0  0  0  0  0  # atno 10765 bound_to 10752
  140.5137  134.0626  155.7825 H   0  0  0  0  0  0  0  0  0  0  0  0  # atno 11005 bound_to 11000
  145.0047  140.8662  143.5260 LP  0  0  0  0  0  0  0  0  0  0  0  0  # atno 17320 bound_to 7965
  145.1689  139.2416  143.5352 LP  0  0  0  0  0  0  0  0  0  0  0  0  # atno 17321 bound_to 7965
  140.1265  144.5327  150.6829 LP  0  0  0  0  0  0  0  0  0  0  0  0  # atno 17342 bound_to 10162
  140.6950  143.2398  151.5027 LP  0  0  0  0  0  0  0  0  0  0  0  0  # atno 17343 bound_to 10162
  156.0599  130.5653  150.9170 LP  0  0  0  0  0  0  0  0  0  0  0  0  # atno 17370 bound_to 10713
  157.6047  131.0939  150.8900 LP  0  0  0  0  0  0  0  0  0  0  0  0  # atno 17371 bound_to 10713
  141.1371  133.9202  157.2408 LP  0  0  0  0  0  0  0  0  0  0  0  0  # atno 17394 bound_to 11000
  139.9644  135.0146  156.9348 LP  0  0  0  0  0  0  0  0  0  0  0  0  # atno 17395 bound_to 11000

$$$$
