AV-unprocessed.smi:1721|AV-procd|sdf|6937|dock3
  -GOLD-   22720 8143D 1   1.00000     0.00000
 Structure written by MMmdl.
 44 46  0  0  0  0  0  0  0  0  2 V2000
  151.9796  138.6529  154.7147 C   0  0  0  0  0  0  0  0  0  0  0  0
  150.6333  138.2998  154.4158 O   0  0  0  0  0  0  0  0  0  0  0  0
  149.6802  139.3000  154.3796 C   0  0  0  0  0  0  0  0  0  0  0  0
  150.0601  140.5622  154.7005 N   0  0  0  0  0  0  0  0  0  0  0  0
  149.1337  141.5411  154.6646 C   0  0  0  0  0  0  0  0  0  0  0  0
  147.7915  141.3168  154.3103 C   0  0  0  0  0  0  0  0  0  0  0  0
  147.3943  140.0086  153.9771 C   0  0  0  0  0  0  0  0  0  0  0  0
  148.3550  138.9669  154.0105 C   0  0  0  0  0  0  0  0  0  0  0  0
  148.0832  137.6047  153.6936 N   0  0  0  0  0  0  0  0  0  0  0  0
  147.0034  136.8534  153.9705 C   0  0  0  0  0  0  0  0  0  0  0  0
  146.0028  137.2271  154.5804 O   0  0  0  0  0  0  0  0  0  0  0  0
  147.1469  135.6106  153.4886 N   0  0  0  0  0  0  0  0  0  0  0  0
  146.1621  134.5403  153.6185 C   0  0  2  0  0  0  0  0  0  0  0  0
  146.6765  133.3485  154.4447 C   0  0  0  0  0  0  0  0  0  0  0  0
  146.0871  132.0962  153.7658 C   0  0  0  0  0  0  0  0  0  0  0  0
  145.2321  132.6065  152.6770 N   0  3  2  0  0  0  0  0  0  0  0  0
  144.9849  131.7026  151.5326 C   0  0  0  0  0  0  0  0  0  0  0  0
  144.0056  132.3796  150.5528 C   0  0  0  0  0  0  0  0  0  0  0  0
  144.4907  133.7835  150.1372 C   0  0  0  0  0  0  0  0  0  0  0  0
  144.8211  134.6462  151.3704 C   0  0  0  0  0  0  0  0  0  0  0  0
  145.8142  133.8959  152.2741 C   0  0  1  0  0  0  0  0  0  0  0  0
  152.5978  137.7554  154.7034 H   0  0  0  0  0  0  0  0  0  0  0  0
  152.0647  139.1003  155.7060 H   0  0  0  0  0  0  0  0  0  0  0  0
  152.3852  139.3433  153.9736 H   0  0  0  0  0  0  0  0  0  0  0  0
  149.4730  142.5330  154.9248 H   0  0  0  0  0  0  0  0  0  0  0  0
  147.0819  142.1306  154.2927 H   0  0  0  0  0  0  0  0  0  0  0  0
  146.3647  139.8453  153.7041 H   0  0  0  0  0  0  0  0  0  0  0  0
  148.8224  137.1370  153.1892 H   0  0  0  0  0  0  0  0  0  0  0  0
  148.0021  135.3876  153.0002 H   0  0  0  0  0  0  0  0  0  0  0  0
  145.2500  134.9137  154.0895 H   0  0  0  0  0  0  0  0  0  0  0  0
  147.7662  133.2951  154.4297 H   0  0  0  0  0  0  0  0  0  0  0  0
  146.3676  133.4299  155.4873 H   0  0  0  0  0  0  0  0  0  0  0  0
  146.8890  131.4785  153.3580 H   0  0  0  0  0  0  0  0  0  0  0  0
  145.5057  131.4848  154.4566 H   0  0  0  0  0  0  0  0  0  0  0  0
  145.9261  131.4688  151.0325 H   0  0  0  0  0  0  0  0  0  0  0  0
  144.5672  130.7618  151.8927 H   0  0  0  0  0  0  0  0  0  0  0  0
  143.8680  131.7550  149.6697 H   0  0  0  0  0  0  0  0  0  0  0  0
  143.0257  132.4646  151.0245 H   0  0  0  0  0  0  0  0  0  0  0  0
  145.3797  133.6890  149.5122 H   0  0  0  0  0  0  0  0  0  0  0  0
  143.7346  134.2770  149.5258 H   0  0  0  0  0  0  0  0  0  0  0  0
  145.2415  135.6003  151.0519 H   0  0  0  0  0  0  0  0  0  0  0  0
  143.9078  134.8736  151.9218 H   0  0  0  0  0  0  0  0  0  0  0  0
  146.7360  133.7039  151.7195 H   0  0  0  0  0  0  0  0  0  0  0  0
  144.3358  132.8176  153.0922 H   0  0  0  0  0  0  0  0  0  0  0  0
  1  2  1  0  0  0  0
  1 22  1  0  0  0  0
  1 23  1  0  0  0  0
  1 24  1  0  0  0  0
  2  3  1  0  0  0  0
  3  8  1  0  0  0  0
  3  4  2  0  0  0  0
  4  5  1  0  0  0  0
  5  6  2  0  0  0  0
  5 25  1  0  0  0  0
  6  7  1  0  0  0  0
  6 26  1  0  0  0  0
  7  8  2  0  0  0  0
  7 27  1  0  0  0  0
  8  9  1  0  0  0  0
  9 10  1  0  0  0  0
  9 28  1  0  0  0  0
 10 11  2  0  0  0  0
 10 12  1  0  0  0  0
 12 13  1  0  0  0  0
 12 29  1  0  0  0  0
 13 21  1  0  0  0  0
 13 14  1  0  0  0  0
 13 30  1  0  0  0  0
 14 15  1  0  0  0  0
 14 31  1  0  0  0  0
 14 32  1  0  0  0  0
 15 16  1  0  0  0  0
 15 33  1  0  0  0  0
 15 34  1  0  0  0  0
 16 21  1  0  0  0  0
 16 17  1  0  0  0  0
 16 44  1  0  0  0  0
 17 18  1  0  0  0  0
 17 35  1  0  0  0  0
 17 36  1  0  0  0  0
 18 19  1  0  0  0  0
 18 37  1  0  0  0  0
 18 38  1  0  0  0  0
 19 20  1  0  0  0  0
 19 39  1  0  0  0  0
 19 40  1  0  0  0  0
 20 21  1  0  0  0  0
 20 41  1  0  0  0  0
 20 42  1  0  0  0  0
 21 43  1  0  0  0  0
M  CHG  1  16   1
M  END
> <s_m_source_file>
AV-unprocessed.smi

> <i_m_source_file_index>
1721

> <i_lp_mmshare_version>
43012

> <i_f3d_flags>
0

> <s_epik_input>
W0NIM11PYzFuW2NIXVtjSF1bY0hdYzFbTkhdQyg9TylbTkhdW0NASF0oW0NIMl1bQ0gyXTIpW0NAQEhdKE4yMylbQ0gyXVtDSDJdW0NIMl1bQ0gyXTM=

> <s_epik_cmdline>
J2VwaWtfcHl0aG9uJywgJy1waCcsICc3LjAnLCAnLXRuJywgJzgnLCAnLW1hJywgJzIwMCcsICctbWV0YWxfYmluZGluZycsICctaW1hZScsICc8aW5maWxlLm1hZT4nLCAnLW9tYWUnLCAnPG91dGZpbGUubWFlPic=

> <r_lp_tautomer_probability>
1

> <r_epik_Ionization_Penalty>
0.00104793

> <r_epik_Ionization_Penalty_Charging>
0.000974069

> <r_epik_Ionization_Penalty_Neutral>
7.38649e-05

> <r_epik_State_Penalty>
0.000633842

> <r_epik_Charging_Adjusted_Penalty>
0.00160791

> <i_epik_Tot_Q>
1

> <i_epik_Tot_abs_Q>
1

> <r_epik_Metal_State_Penalty>
-0

> <b_epik_Metal_Only>
0

> <s_lp_Force_Field>
OPLS_2005

> <r_lp_Energy>
37.3571

> <b_lp_Chiralities_Consistent>
1

> <s_lp_Variant>
AV-unprocessed.smi:1721-3

> <Gold.Version>
5.8.1

> <Gold.Id.Protein>
6NUR|6NUR_protein|mol2

> <Gold.PLP.Fitness>
42.3588

> <Gold.PLP.PLP>
-32.5785

> <Gold.PLP.part.hbond>
-3.0658

> <Gold.PLP.part.metal>
0.0000

> <Gold.PLP.part.buried>
-4.7577

> <Gold.PLP.part.nonpolar>
-26.0152

> <Gold.PLP.part.repulsive>
0.3800

> <Gold.PLP.ligand.clash>
0.0000

> <Gold.PLP.ligand.torsion>
0.3347

> <Gold.PLP.Chemscore.Hbond>
2.4800

> <Gold.PLP.Chemscore.CHOScore>
1.0000

> <Gold.PLP.Chemscore.Metal>
0.0000

> <Gold.Chemscore.Hbonds>
donor molecule, donor type, donor heavy atom, donor atom, acceptor molecule, acceptor atom, score
      L1  H     9    28       P1  7948  0.77
      L1  H    12    29       P1  7948  0.69
      P1  H  7989  7998       L1     4  0.88
      L1  C     5    25       P1  8028  1.00

> <Gold.PLP.Chemscore.Internal.Correction>
0.0097

> <Gold.Rescore>
     Score         DG    S(hbond)    S(metal)    S(lipo)     H(rot)  DE(clash)    DE(int)     intcor
     19.12     -19.59       2.70        0.00      70.76       1.25       0.07       0.40       ----

> <Gold.Chemscore.Fitness>
19.1226

> <Gold.Chemscore.DG>
-19.5915

> <Gold.Chemscore.ZeroCoef>
-5.4800

> <Gold.Chemscore.Hbond>
2.7025

> <Gold.Chemscore.Metal>
0.0000

> <Gold.Chemscore.Lipo>
70.7560

> <Gold.Chemscore.Internal_Hbond>
0.0000

> <Gold.Chemscore.DEClash>
0.0731

> <Gold.Chemscore.DEInternal>
0.3958

> <Gold.Chemscore.Rot>
1.2474

> <Gold.Chemscore.Internal.Correction>
   9.000000E+99

> <Gold.Chemscore.Hbonds>
donor molecule, donor type, donor heavy atom, donor atom, acceptor molecule, acceptor atom, score
      L1  H     9    28       P1  7948  0.75
      L1  H    12    29       P1  7948  0.70
      P1  H  7989  7998       L1     4  0.28

> <Gold.Chemscore.Hbond.Weighted>
-9.0265

> <Gold.Chemscore.Metal.Weighted>
-0.0000

> <Gold.Chemscore.Lipo.Weighted>
-8.2784

> <Gold.Chemscore.Internal_Hbond.Weighted>
0.0000

> <Gold.Chemscore.DEClash.Weighted>
0.0731

> <Gold.Chemscore.DEInternal.Weighted>
0.3958

> <Gold.Chemscore.Rot.Weighted>
3.1934

> <Gold.Chemscore.Internal.Correction.Weighted>
   9.000000E+99

> <Gold.Protein.RotatedTorsions>
[ 6907 6896 6895 6894 ] final   63.79 input  -60.11 | X-H torsion
[ 7974 7965 7964 7962 ] final -147.46 input  175.53 | X-H torsion
[ 8008 7997 7996 7995 ] final  120.27 input   59.86 | X-H torsion
[ 10167 10162 10161 10158 ] final   59.39 input  -65.29 | X-H torsion
[ 10718 10713 10712 10709 ] final  -93.94 input   66.30 | X-H torsion
[ 10763 10752 10751 10750 ] final  -14.35 input  -60.55 | X-H torsion
[ 11005 11000 10999 10996 ] final   32.14 input  -57.11 | X-H torsion

> <Gold.Protein.ActiveResidues>
 VAL166  LYS551  ARG553  GLY616  TRP617  ASP618  TYR619  PRO620  LYS621  CYS622 
 ASP623  PHE694  ASN695  SER759  ASP760  ASP761  ALA762  ILE779  LEU786  VAL792 
 PHE793  MET794  SER795  GLU796  ALA797  LYS798  CYS799  TRP800  GLU811  SER814 

> <Gold.Protein.RotatedAtoms>
  152.4281  134.5830  159.9952 H   0  0  0  0  0  0  0  0  0  0  0  0  # atno 6907 bound_to 6896
  151.5961  133.3355  159.3045 H   0  0  0  0  0  0  0  0  0  0  0  0  # atno 6908 bound_to 6896
  150.8172  134.7396  159.6805 H   0  0  0  0  0  0  0  0  0  0  0  0  # atno 6909 bound_to 6896
  144.8092  140.5323  143.5654 H   0  0  0  0  0  0  0  0  0  0  0  0  # atno 7974 bound_to 7965
  156.2635  140.2834  156.1123 H   0  0  0  0  0  0  0  0  0  0  0  0  # atno 8008 bound_to 7997
  155.1244  140.0393  157.2776 H   0  0  0  0  0  0  0  0  0  0  0  0  # atno 8009 bound_to 7997
  154.6646  140.2574  155.7078 H   0  0  0  0  0  0  0  0  0  0  0  0  # atno 8010 bound_to 7997
  140.1769  144.4221  150.6634 H   0  0  0  0  0  0  0  0  0  0  0  0  # atno 10167 bound_to 10162
  156.0020  130.5047  150.5852 H   0  0  0  0  0  0  0  0  0  0  0  0  # atno 10718 bound_to 10713
  153.5270  135.7015  153.5703 H   0  0  0  0  0  0  0  0  0  0  0  0  # atno 10763 bound_to 10752
  153.3727  135.3940  155.1800 H   0  0  0  0  0  0  0  0  0  0  0  0  # atno 10764 bound_to 10752
  154.8689  135.3816  154.4763 H   0  0  0  0  0  0  0  0  0  0  0  0  # atno 10765 bound_to 10752
  140.2765  134.3021  155.7812 H   0  0  0  0  0  0  0  0  0  0  0  0  # atno 11005 bound_to 11000
  145.5365  139.1475  143.3470 LP  0  0  0  0  0  0  0  0  0  0  0  0  # atno 17320 bound_to 7965
  146.2388  140.5505  142.8943 LP  0  0  0  0  0  0  0  0  0  0  0  0  # atno 17321 bound_to 7965
  140.6545  143.2234  151.6000 LP  0  0  0  0  0  0  0  0  0  0  0  0  # atno 17342 bound_to 10162
  139.5313  144.2908  152.1154 LP  0  0  0  0  0  0  0  0  0  0  0  0  # atno 17343 bound_to 10162
  157.3726  131.0768  151.1545 LP  0  0  0  0  0  0  0  0  0  0  0  0  # atno 17370 bound_to 10713
  157.2293  130.6518  149.5843 LP  0  0  0  0  0  0  0  0  0  0  0  0  # atno 17371 bound_to 10713
  141.2169  133.7499  156.9416 LP  0  0  0  0  0  0  0  0  0  0  0  0  # atno 17394 bound_to 11000
  140.1323  134.9348  157.2354 LP  0  0  0  0  0  0  0  0  0  0  0  0  # atno 17395 bound_to 11000

$$$$
