AV-unprocessed.smi:2001|AV-procd|sdf|8107|dock8
  -GOLD-   2272010333D 1   1.00000     0.00000
 Structure written by MMmdl.
 51 52  0  0  0  0  0  0  0  0  2 V2000
  152.2362  144.3704  159.1443 C   0  0  0  0  0  0  0  0  0  0  0  0
  151.7159  143.0577  159.2577 O   0  0  0  0  0  0  0  0  0  0  0  0
  151.4438  142.4678  157.9973 C   0  0  0  0  0  0  0  0  0  0  0  0
  150.8863  141.0482  158.1929 C   0  0  0  0  0  0  0  0  0  0  0  0
  150.7950  140.3192  156.9227 N   0  0  0  0  0  0  0  0  0  0  0  0
  149.6269  140.5635  156.2189 N   0  0  0  0  0  0  0  0  0  0  0  0
  149.4242  139.9918  155.0760 C   0  0  0  0  0  0  0  0  0  0  0  0
  148.1795  140.2252  154.2916 C   0  0  0  0  0  0  0  0  0  0  0  0
  147.4109  141.1535  154.5480 O   0  0  0  0  0  0  0  0  0  0  0  0
  147.9592  139.3592  153.2876 N   0  0  0  0  0  0  0  0  0  0  0  0
  146.8194  139.4186  152.3837 C   0  0  0  0  0  0  0  0  0  0  0  0
  146.8215  138.2072  151.4377 C   0  0  0  0  0  0  0  0  0  0  0  0
  145.5801  137.4007  151.5432 N   0  3  1  0  0  0  0  0  0  0  0  0
  145.6495  136.1561  150.7434 C   0  0  0  0  0  0  0  0  0  0  0  0
  144.3053  135.4086  150.7909 C   0  0  1  0  0  0  0  0  0  0  0  0
  144.3680  134.0720  150.0434 C   0  0  0  0  0  0  0  0  0  0  0  0
  143.9619  135.1391  152.1477 O   0  0  0  0  0  0  0  0  0  0  0  0
  143.8694  136.2925  152.9841 C   0  0  2  0  0  0  0  0  0  0  0  0
  142.6250  137.1425  152.6712 C   0  0  0  0  0  0  0  0  0  0  0  0
  145.1871  137.0919  152.9404 C   0  0  0  0  0  0  0  0  0  0  0  0
  150.4114  139.0883  154.5102 C   0  0  0  0  0  0  0  0  0  0  0  0
  151.5460  138.8604  155.2074 C   0  0  0  0  0  0  0  0  0  0  0  0
  151.8015  139.4946  156.5016 C   0  0  0  0  0  0  0  0  0  0  0  0
  152.8292  139.3040  157.1511 O   0  0  0  0  0  0  0  0  0  0  0  0
  152.4267  144.7750  160.1384 H   0  0  0  0  0  0  0  0  0  0  0  0
  151.5305  145.0324  158.6407 H   0  0  0  0  0  0  0  0  0  0  0  0
  153.1769  144.3754  158.5923 H   0  0  0  0  0  0  0  0  0  0  0  0
  150.7097  143.0750  157.4656 H   0  0  0  0  0  0  0  0  0  0  0  0
  152.3464  142.4413  157.3842 H   0  0  0  0  0  0  0  0  0  0  0  0
  151.4840  140.5060  158.9278 H   0  0  0  0  0  0  0  0  0  0  0  0
  149.8895  141.1167  158.6321 H   0  0  0  0  0  0  0  0  0  0  0  0
  148.6321  138.6202  153.1403 H   0  0  0  0  0  0  0  0  0  0  0  0
  145.9072  139.4497  152.9798 H   0  0  0  0  0  0  0  0  0  0  0  0
  146.8622  140.3442  151.8073 H   0  0  0  0  0  0  0  0  0  0  0  0
  146.9169  138.5773  150.4155 H   0  0  0  0  0  0  0  0  0  0  0  0
  147.6910  137.5736  151.6200 H   0  0  0  0  0  0  0  0  0  0  0  0
  145.8959  136.3951  149.7081 H   0  0  0  0  0  0  0  0  0  0  0  0
  146.4517  135.5221  151.1253 H   0  0  0  0  0  0  0  0  0  0  0  0
  143.5294  136.0184  150.3276 H   0  0  0  0  0  0  0  0  0  0  0  0
  144.6209  134.2208  148.9932 H   0  0  0  0  0  0  0  0  0  0  0  0
  143.4074  133.5576  150.0832 H   0  0  0  0  0  0  0  0  0  0  0  0
  145.1182  133.4106  150.4778 H   0  0  0  0  0  0  0  0  0  0  0  0
  143.7442  135.9167  154.0000 H   0  0  0  0  0  0  0  0  0  0  0  0
  142.5026  137.9341  153.4110 H   0  0  0  0  0  0  0  0  0  0  0  0
  141.7223  136.5316  152.6923 H   0  0  0  0  0  0  0  0  0  0  0  0
  142.6833  137.6204  151.6937 H   0  0  0  0  0  0  0  0  0  0  0  0
  145.9815  136.5121  153.4131 H   0  0  0  0  0  0  0  0  0  0  0  0
  145.0763  138.0050  153.5243 H   0  0  0  0  0  0  0  0  0  0  0  0
  150.2500  138.6064  153.5568 H   0  0  0  0  0  0  0  0  0  0  0  0
  152.2885  138.1907  154.7991 H   0  0  0  0  0  0  0  0  0  0  0  0
  144.8382  137.9560  151.1407 H   0  0  0  0  0  0  0  0  0  0  0  0
  1  2  1  0  0  0  0
  1 25  1  0  0  0  0
  1 26  1  0  0  0  0
  1 27  1  0  0  0  0
  2  3  1  0  0  0  0
  3  4  1  0  0  0  0
  3 28  1  0  0  0  0
  3 29  1  0  0  0  0
  4  5  1  0  0  0  0
  4 30  1  0  0  0  0
  4 31  1  0  0  0  0
  5 23  1  0  0  0  0
  5  6  1  0  0  0  0
  6  7  2  0  0  0  0
  7  8  1  0  0  0  0
  7 21  1  0  0  0  0
  8  9  2  0  0  0  0
  8 10  1  0  0  0  0
 10 11  1  0  0  0  0
 10 32  1  0  0  0  0
 11 12  1  0  0  0  0
 11 33  1  0  0  0  0
 11 34  1  0  0  0  0
 12 13  1  0  0  0  0
 12 35  1  0  0  0  0
 12 36  1  0  0  0  0
 13 20  1  0  0  0  0
 13 14  1  0  0  0  0
 13 51  1  0  0  0  0
 14 15  1  0  0  0  0
 14 37  1  0  0  0  0
 14 38  1  0  0  0  0
 15 16  1  0  0  0  0
 15 17  1  0  0  0  0
 15 39  1  0  0  0  0
 16 40  1  0  0  0  0
 16 41  1  0  0  0  0
 16 42  1  0  0  0  0
 17 18  1  0  0  0  0
 18 19  1  0  0  0  0
 18 20  1  0  0  0  0
 18 43  1  0  0  0  0
 19 44  1  0  0  0  0
 19 45  1  0  0  0  0
 19 46  1  0  0  0  0
 20 47  1  0  0  0  0
 20 48  1  0  0  0  0
 21 22  2  0  0  0  0
 21 49  1  0  0  0  0
 22 23  1  0  0  0  0
 22 50  1  0  0  0  0
 23 24  2  0  0  0  0
M  CHG  1  13   1
M  END
> <s_m_source_file>
AV-unprocessed.smi

> <i_m_source_file_index>
2001

> <i_lp_mmshare_version>
43012

> <i_f3d_flags>
0

> <s_epik_input>
W0NIM11PW0NIMl1bQ0gyXW4xbmMoW2NIXVtjSF1jMT1PKUMoPU8pW05IXVtDSDJdW0NIMl1OMltDSDJdW0NAQEhdKFtDSDNdKU9bQ0BASF0oW0NIM10pW0NIMl0y

> <s_epik_cmdline>
J2VwaWtfcHl0aG9uJywgJy1waCcsICc3LjAnLCAnLXRuJywgJzgnLCAnLW1hJywgJzIwMCcsICctbWV0YWxfYmluZGluZycsICctaW1hZScsICc8aW5maWxlLm1hZT4nLCAnLW9tYWUnLCAnPG91dGZpbGUubWFlPic=

> <r_lp_tautomer_probability>
1

> <r_epik_Ionization_Penalty>
0.724354

> <r_epik_Ionization_Penalty_Charging>
0.724348

> <r_epik_Ionization_Penalty_Neutral>
6.1656e-06

> <r_epik_State_Penalty>
0.749058

> <r_epik_Charging_Adjusted_Penalty>
1.47341

> <i_epik_Tot_Q>
1

> <i_epik_Tot_abs_Q>
1

> <r_epik_Metal_State_Penalty>
0.750779

> <b_epik_Metal_Only>
0

> <s_lp_Force_Field>
OPLS_2005

> <r_lp_Energy>
40.2428

> <b_lp_Chiralities_Consistent>
1

> <s_lp_Variant>
AV-unprocessed.smi:2001-6

> <Gold.Version>
5.8.1

> <Gold.Id.Protein>
6NUR|6NUR_protein|mol2

> <Gold.PLP.Fitness>
49.9477

> <Gold.PLP.PLP>
-45.5064

> <Gold.PLP.part.hbond>
-3.0000

> <Gold.PLP.part.metal>
0.0000

> <Gold.PLP.part.buried>
-2.8768

> <Gold.PLP.part.nonpolar>
-40.4120

> <Gold.PLP.part.repulsive>
0.4391

> <Gold.PLP.ligand.clash>
0.0000

> <Gold.PLP.ligand.torsion>
0.9009

> <Gold.PLP.Chemscore.Hbond>
2.0000

> <Gold.PLP.Chemscore.CHOScore>
0.0000

> <Gold.PLP.Chemscore.Metal>
0.0000

> <Gold.Chemscore.Hbonds>
donor molecule, donor type, donor heavy atom, donor atom, acceptor molecule, acceptor atom, score
      L1  H    13    51       P1 10171  1.00
      P1  H  7997  8008       L1    24  1.00

> <Gold.PLP.Chemscore.Internal.Correction>
0.2431

> <Gold.Rescore>
     Score         DG    S(hbond)    S(metal)    S(lipo)     H(rot)  DE(clash)    DE(int)     intcor
     16.87     -18.27       1.95        0.00      98.89       2.07       0.47       0.94       ----

> <Gold.Chemscore.Fitness>
16.8652

> <Gold.Chemscore.DG>
-18.2704

> <Gold.Chemscore.ZeroCoef>
-5.4800

> <Gold.Chemscore.Hbond>
1.9537

> <Gold.Chemscore.Metal>
0.0000

> <Gold.Chemscore.Lipo>
98.8861

> <Gold.Chemscore.Internal_Hbond>
0.0000

> <Gold.Chemscore.DEClash>
0.4669

> <Gold.Chemscore.DEInternal>
0.9384

> <Gold.Chemscore.Rot>
2.0721

> <Gold.Chemscore.Internal.Correction>
   9.000000E+99

> <Gold.Chemscore.Hbonds>
donor molecule, donor type, donor heavy atom, donor atom, acceptor molecule, acceptor atom, score
      L1  H    13    51       P1 10171  0.98
      P1  H  7997  8008       L1    24  0.96

> <Gold.Chemscore.Hbond.Weighted>
-6.5254

> <Gold.Chemscore.Metal.Weighted>
-0.0000

> <Gold.Chemscore.Lipo.Weighted>
-11.5697

> <Gold.Chemscore.Internal_Hbond.Weighted>
0.0000

> <Gold.Chemscore.DEClash.Weighted>
0.4669

> <Gold.Chemscore.DEInternal.Weighted>
0.9384

> <Gold.Chemscore.Rot.Weighted>
5.3047

> <Gold.Chemscore.Internal.Correction.Weighted>
   9.000000E+99

> <Gold.Protein.RotatedTorsions>
[ 6907 6896 6895 6894 ] final  124.80 input  -60.11 | X-H torsion
[ 7974 7965 7964 7962 ] final  -95.24 input  175.53 | X-H torsion
[ 8008 7997 7996 7995 ] final  -56.47 input   59.86 | X-H torsion
[ 10167 10162 10161 10158 ] final  -54.33 input  -65.29 | X-H torsion
[ 10718 10713 10712 10709 ] final  -15.53 input   66.30 | X-H torsion
[ 10763 10752 10751 10750 ] final  170.87 input  -60.55 | X-H torsion
[ 11005 11000 10999 10996 ] final  117.60 input  -57.11 | X-H torsion

> <Gold.Protein.ActiveResidues>
 VAL166  LYS551  ARG553  GLY616  TRP617  ASP618  TYR619  PRO620  LYS621  CYS622 
 ASP623  PHE694  ASN695  SER759  ASP760  ASP761  ALA762  ILE779  LEU786  VAL792 
 PHE793  MET794  SER795  GLU796  ALA797  LYS798  CYS799  TRP800  GLU811  SER814 

> <Gold.Protein.RotatedAtoms>
  152.4047  133.6870  159.6345 H   0  0  0  0  0  0  0  0  0  0  0  0  # atno 6907 bound_to 6896
  150.7933  133.8730  159.3273 H   0  0  0  0  0  0  0  0  0  0  0  0  # atno 6908 bound_to 6896
  151.6487  135.1006  160.0208 H   0  0  0  0  0  0  0  0  0  0  0  0  # atno 6909 bound_to 6896
  145.3626  140.9494  143.2492 H   0  0  0  0  0  0  0  0  0  0  0  0  # atno 7974 bound_to 7965
  154.4231  140.1129  156.5643 H   0  0  0  0  0  0  0  0  0  0  0  0  # atno 8008 bound_to 7997
  155.6279  140.3495  155.4654 H   0  0  0  0  0  0  0  0  0  0  0  0  # atno 8009 bound_to 7997
  155.9972  140.1191  157.0572 H   0  0  0  0  0  0  0  0  0  0  0  0  # atno 8010 bound_to 7997
  140.6436  143.2522  151.4920 H   0  0  0  0  0  0  0  0  0  0  0  0  # atno 10167 bound_to 10162
  156.6004  130.4822  149.6242 H   0  0  0  0  0  0  0  0  0  0  0  0  # atno 10718 bound_to 10713
  154.4038  135.2755  155.2080 H   0  0  0  0  0  0  0  0  0  0  0  0  # atno 10763 bound_to 10752
  154.4094  135.6026  153.5947 H   0  0  0  0  0  0  0  0  0  0  0  0  # atno 10764 bound_to 10752
  152.9831  135.5946  154.4310 H   0  0  0  0  0  0  0  0  0  0  0  0  # atno 10765 bound_to 10752
  139.9080  134.9612  156.7375 H   0  0  0  0  0  0  0  0  0  0  0  0  # atno 11005 bound_to 11000
  144.8635  139.5142  143.6801 LP  0  0  0  0  0  0  0  0  0  0  0  0  # atno 17320 bound_to 7965
  146.2920  139.7168  142.9154 LP  0  0  0  0  0  0  0  0  0  0  0  0  # atno 17321 bound_to 7965
  139.5646  144.2073  152.1745 LP  0  0  0  0  0  0  0  0  0  0  0  0  # atno 17342 bound_to 10162
  140.1351  144.5253  150.6778 LP  0  0  0  0  0  0  0  0  0  0  0  0  # atno 17343 bound_to 10162
  156.2474  130.6887  151.1613 LP  0  0  0  0  0  0  0  0  0  0  0  0  # atno 17370 bound_to 10713
  157.7281  131.0634  150.5836 LP  0  0  0  0  0  0  0  0  0  0  0  0  # atno 17371 bound_to 10713
  140.6876  133.9419  155.7947 LP  0  0  0  0  0  0  0  0  0  0  0  0  # atno 17394 bound_to 11000
  141.0465  134.0546  157.3837 LP  0  0  0  0  0  0  0  0  0  0  0  0  # atno 17395 bound_to 11000

$$$$
