#       Name:                AV-unprocessed.smi:2895
#       Creating user name   scv26
#       Creation time:       Fri Mar 27 16:00:15 2020


#       File generated by GOLD software.
#

@<TRIPOS>MOLECULE
AV-unprocessed.smi:2895
    56    59     1
SMALL
NO_CHARGES


@<TRIPOS>ATOM
      1 ****         1.6675   1.3730  -1.7666 O.2            1 S1                 0.0000
      2 ****         1.2381   0.4265  -1.1048 C.2            1 S1                 0.0000
      3 ****         2.0552  -0.5265  -0.6214 N.am           1 S1                 0.0000
      4 ****         3.5010  -0.5725  -0.8074 C.3            1 S1                 0.0000
      5 ****         3.8750  -1.1911  -2.1633 C.3            1 S1                 0.0000
      6 ****         5.3764  -1.2783  -2.3552 C.ar           1 S1                 0.0000
      7 ****         6.0793  -0.2511  -3.0176 C.ar           1 S1                 0.0000
      8 ****         7.4748  -0.3807  -3.1664 C.ar           1 S1                 0.0000
      9 ****         8.1753  -1.4393  -2.7050 N.ar           1 S1                 0.0000
     10 ****         7.4952  -2.4179  -2.0699 C.ar           1 S1                 0.0000
     11 ****         6.1005  -2.3864  -1.8691 C.ar           1 S1                 0.0000
     12 ****        -0.0763   0.2754  -0.7872 N.am           1 S1                 0.0000
     13 ****        -0.5841  -0.8459   0.0381 C.3            1 S1                 0.0000
     14 ****        -2.0824  -1.1432  -0.1426 C.3            1 S1                 0.0000
     15 ****        -2.9109   0.0830  -0.0923 N.4            1 S1                 1.0000
     16 ****        -2.9702   0.7696   1.2371 C.3            1 S1                 0.0000
     17 ****        -4.0215   1.9108   1.2655 C.3            1 S1                 0.0000
     18 ****        -4.8908   1.5725   2.4876 C.3            1 S1                 0.0000
     19 ****        -4.0758   1.7709   3.7771 C.3            1 S1                 0.0000
     20 ****        -3.1011   0.5809   3.7422 C.3            1 S1                 0.0000
     21 ****        -3.4581  -0.1187   2.4157 C.3            1 S1                 0.0000
     22 ****        -4.9722   0.0561   2.3835 C.3            1 S1                 0.0000
     23 ****        -2.4976   0.9686  -1.2063 C.3            1 S1                 0.0000
     24 ****        -1.0118   1.3696  -1.1266 C.3            1 S1                 0.0000
     25 ****         1.6444  -1.2716  -0.0780 H              1 S1                 0.0000
     26 ****         3.9266   0.4281  -0.7123 H              1 S1                 0.0000
     27 ****         3.9253  -1.1669   0.0022 H              1 S1                 0.0000
     28 ****         3.4496  -2.1919  -2.2490 H              1 S1                 0.0000
     29 ****         3.4476  -0.6048  -2.9780 H              1 S1                 0.0000
     30 ****         5.5649   0.6170  -3.4029 H              1 S1                 0.0000
     31 ****         8.0439   0.3870  -3.6696 H              1 S1                 0.0000
     32 ****         8.0799  -3.2517  -1.7102 H              1 S1                 0.0000
     33 ****         5.6023  -3.1938  -1.3529 H              1 S1                 0.0000
     34 ****        -0.0553  -1.7753  -0.1780 H              1 S1                 0.0000
     35 ****        -0.3802  -0.6136   1.0842 H              1 S1                 0.0000
     36 ****        -2.2305  -1.6074  -1.1188 H              1 S1                 0.0000
     37 ****        -2.4160  -1.8957   0.5683 H              1 S1                 0.0000
     38 ****        -1.9819   1.1668   1.4709 H              1 S1                 0.0000
     39 ****        -3.5621   2.8972   1.3407 H              1 S1                 0.0000
     40 ****        -4.6527   1.9078   0.3760 H              1 S1                 0.0000
     41 ****        -5.8527   2.0859   2.4944 H              1 S1                 0.0000
     42 ****        -3.5609   2.7322   3.7972 H              1 S1                 0.0000
     43 ****        -4.7178   1.7151   4.6573 H              1 S1                 0.0000
     44 ****        -2.0572   0.8938   3.7854 H              1 S1                 0.0000
     45 ****        -3.2818  -0.0833   4.5884 H              1 S1                 0.0000
     46 ****        -3.1206  -1.1525   2.4112 H              1 S1                 0.0000
     47 ****        -5.4801  -0.4084   3.2305 H              1 S1                 0.0000
     48 ****        -5.4299  -0.2924   1.4562 H              1 S1                 0.0000
     49 ****        -2.6706   0.4366  -2.1430 H              1 S1                 0.0000
     50 ****        -3.1212   1.8600  -1.2639 H              1 S1                 0.0000
     51 ****        -0.8891   2.1513  -0.3757 H              1 S1                 0.0000
     52 ****        -0.7509   1.8300  -2.0812 H              1 S1                 0.0000
     53 ****        -3.8576  -0.2069  -0.2923 H              1 S1                 0.0000
     54 ****         2.6465   1.4469  -1.9567 LP             1 S1                 0.0000
     55 ****         1.0370   2.0673  -2.1137 LP             1 S1                 0.0000
     56 ****         9.1658  -1.4965  -2.8297 LP             1 S1                 0.0000
@<TRIPOS>BOND
    1    1    2 2     
    2    2    3 am    
    3    2   12 am    
    4    3    4 1     
    5    3   25 1     
    6    4    5 1     
    7    4   26 1     
    8    4   27 1     
    9    5    6 1     
   10    5   28 1     
   11    5   29 1     
   12    6   11 ar    
   13    6    7 ar    
   14    7    8 ar    
   15    7   30 1     
   16    8    9 ar    
   17    8   31 1     
   18    9   10 ar    
   19   10   11 ar    
   20   10   32 1     
   21   11   33 1     
   22   12   24 1     
   23   12   13 1     
   24   13   14 1     
   25   13   34 1     
   26   13   35 1     
   27   14   15 1     
   28   14   36 1     
   29   14   37 1     
   30   15   16 1     
   31   15   23 1     
   32   15   53 1     
   33   16   21 1     
   34   16   17 1     
   35   16   38 1     
   36   17   18 1     
   37   17   39 1     
   38   17   40 1     
   39   18   22 1     
   40   18   19 1     
   41   18   41 1     
   42   19   20 1     
   43   19   42 1     
   44   19   43 1     
   45   20   21 1     
   46   20   44 1     
   47   20   45 1     
   48   21   22 1     
   49   21   46 1     
   50   22   47 1     
   51   22   48 1     
   52   23   24 1     
   53   23   49 1     
   54   23   50 1     
   55   24   51 1     
   56   24   52 1     
   57    1   54 1     
   58    1   55 1     
   59    9   56 1     
@<TRIPOS>SUBSTRUCTURE
      1 S1             1
@<TRIPOS>SET
LONE_PAIRS      STATIC     ATOMS    <user>   **** ""
3 54 55 56
DONOR_HYDROGENS      STATIC     ATOMS    <user>   **** ""
2 25 53
ATOM$BLUE        STATIC     ATOMS    COLORGROUP SYSTEM
3 54 55 56
ATOM$RED        STATIC     ATOMS    COLORGROUP SYSTEM
2 25 53
