AV-unprocessed.smi:1601|AV-procd|sdf|6433|dock3
  -GOLD-   22720 7 73D 1   1.00000     0.00000
 Structure written by MMmdl.
 41 42  0  0  0  0  0  0  0  0  1 V2000
  148.8582  140.3002  154.4166 C   0  0  0  0  0  0  0  0  0  0  0  0
  149.7569  140.2917  155.6809 C   0  0  2  0  0  0  0  0  0  0  0  0
  150.2609  141.7365  155.9484 C   0  0  0  0  0  0  0  0  0  0  0  0
  150.7517  141.9048  157.3107 N   0  0  0  0  0  0  0  0  0  0  0  0
  151.8560  141.3276  157.8078 C   0  0  0  0  0  0  0  0  0  0  0  0
  152.5493  140.5424  157.1600 O   0  0  0  0  0  0  0  0  0  0  0  0
  152.2192  141.6947  159.2579 C   0  0  1  0  0  0  0  0  0  0  0  0
  153.6890  141.3870  159.6113 C   0  0  0  0  0  0  0  0  0  0  0  0
  151.8733  143.0844  159.5405 N   0  0  0  0  0  0  0  0  0  0  0  0
  152.1442  144.1997  158.7732 C   0  0  0  0  0  0  0  0  0  0  0  0
  151.6702  145.2878  159.4480 C   0  0  0  0  0  0  0  0  0  0  0  0
  151.1250  144.7349  160.6399 C   0  0  0  0  0  0  0  0  0  0  0  0
  151.2530  143.4195  160.6959 N   0  0  0  0  0  0  0  0  0  0  0  0
  150.8505  139.2953  155.5988 N   0  0  0  0  0  0  0  0  0  0  0  0
  150.3680  137.9446  155.2874 C   0  0  0  0  0  0  0  0  0  0  0  0
  151.5055  136.9151  155.1702 C   0  0  0  0  0  0  0  0  0  0  0  0
  152.4379  137.3402  154.1863 O   0  0  0  0  0  0  0  0  0  0  0  0
  152.9920  138.6121  154.4924 C   0  0  0  0  0  0  0  0  0  0  0  0
  151.8656  139.6543  154.6015 C   0  0  0  0  0  0  0  0  0  0  0  0
  148.0880  141.0701  154.4525 H   0  0  0  0  0  0  0  0  0  0  0  0
  148.3152  139.3645  154.2903 H   0  0  0  0  0  0  0  0  0  0  0  0
  149.4481  140.4727  153.5155 H   0  0  0  0  0  0  0  0  0  0  0  0
  149.1179  140.0182  156.5221 H   0  0  0  0  0  0  0  0  0  0  0  0
  151.0956  142.0004  155.3009 H   0  0  0  0  0  0  0  0  0  0  0  0
  149.4591  142.4497  155.7480 H   0  0  0  0  0  0  0  0  0  0  0  0
  150.2342  142.5334  157.9077 H   0  0  0  0  0  0  0  0  0  0  0  0
  151.5958  141.0723  159.9018 H   0  0  0  0  0  0  0  0  0  0  0  0
  153.9155  140.3293  159.4732 H   0  0  0  0  0  0  0  0  0  0  0  0
  153.8957  141.6296  160.6539 H   0  0  0  0  0  0  0  0  0  0  0  0
  154.3846  141.9578  158.9951 H   0  0  0  0  0  0  0  0  0  0  0  0
  152.6480  144.1267  157.8206 H   0  0  0  0  0  0  0  0  0  0  0  0
  151.7099  146.3219  159.1391 H   0  0  0  0  0  0  0  0  0  0  0  0
  150.6462  145.2464  161.4618 H   0  0  0  0  0  0  0  0  0  0  0  0
  149.6985  137.5849  156.0661 H   0  0  0  0  0  0  0  0  0  0  0  0
  149.7970  137.9605  154.3578 H   0  0  0  0  0  0  0  0  0  0  0  0
  152.0094  136.7847  156.1292 H   0  0  0  0  0  0  0  0  0  0  0  0
  151.1063  135.9420  154.8839 H   0  0  0  0  0  0  0  0  0  0  0  0
  153.5597  138.5573  155.4227 H   0  0  0  0  0  0  0  0  0  0  0  0
  153.6927  138.8930  153.7061 H   0  0  0  0  0  0  0  0  0  0  0  0
  151.3957  139.7828  153.6250 H   0  0  0  0  0  0  0  0  0  0  0  0
  152.3342  140.6034  154.8550 H   0  0  0  0  0  0  0  0  0  0  0  0
  1  2  1  0  0  0  0
  1 20  1  0  0  0  0
  1 21  1  0  0  0  0
  1 22  1  0  0  0  0
  2  3  1  0  0  0  0
  2 14  1  0  0  0  0
  2 23  1  0  0  0  0
  3  4  1  0  0  0  0
  3 24  1  0  0  0  0
  3 25  1  0  0  0  0
  4  5  1  0  0  0  0
  4 26  1  0  0  0  0
  5  6  2  0  0  0  0
  5  7  1  0  0  0  0
  7  8  1  0  0  0  0
  7  9  1  0  0  0  0
  7 27  1  0  0  0  0
  8 28  1  0  0  0  0
  8 29  1  0  0  0  0
  8 30  1  0  0  0  0
  9 13  1  0  0  0  0
  9 10  1  0  0  0  0
 10 11  2  0  0  0  0
 10 31  1  0  0  0  0
 11 12  1  0  0  0  0
 11 32  1  0  0  0  0
 12 13  2  0  0  0  0
 12 33  1  0  0  0  0
 14 19  1  0  0  0  0
 14 15  1  0  0  0  0
 15 16  1  0  0  0  0
 15 34  1  0  0  0  0
 15 35  1  0  0  0  0
 16 17  1  0  0  0  0
 16 36  1  0  0  0  0
 16 37  1  0  0  0  0
 17 18  1  0  0  0  0
 18 19  1  0  0  0  0
 18 38  1  0  0  0  0
 18 39  1  0  0  0  0
 19 40  1  0  0  0  0
 19 41  1  0  0  0  0
M  END
> <s_m_source_file>
AV-unprocessed.smi

> <i_m_source_file_index>
1601

> <i_lp_mmshare_version>
43012

> <i_f3d_flags>
0

> <s_epik_input>
W0NIMl0xW0NIMl1PW0NIMl1bQ0gyXU4xW0NASF0oW0NIM10pW0NIMl1bTkhdQyg9TylbQ0BIXShbQ0gzXSluMltjSF1bY0hdW2NIXW4y

> <s_epik_cmdline>
J2VwaWtfcHl0aG9uJywgJy1waCcsICc3LjAnLCAnLXRuJywgJzgnLCAnLW1hJywgJzIwMCcsICctbWV0YWxfYmluZGluZycsICctaW1hZScsICc8aW5maWxlLm1hZT4nLCAnLW9tYWUnLCAnPG91dGZpbGUubWFlPic=

> <r_lp_tautomer_probability>
1

> <r_epik_Ionization_Penalty>
0.203323

> <r_epik_Ionization_Penalty_Charging>
0

> <r_epik_Ionization_Penalty_Neutral>
0.203323

> <r_epik_State_Penalty>
0.193192

> <r_epik_Charging_Adjusted_Penalty>
0.193192

> <i_epik_Tot_Q>
0

> <i_epik_Tot_abs_Q>
0

> <r_epik_Metal_State_Penalty>
0.193187

> <b_epik_Metal_Only>
0

> <s_lp_Force_Field>
OPLS_2005

> <r_lp_Energy>
33.4287

> <b_lp_Chiralities_Consistent>
1

> <s_lp_Variant>
AV-unprocessed.smi:1601-3

> <Gold.Version>
5.8.1

> <Gold.Id.Protein>
6NUR|6NUR_protein|mol2

> <Gold.PLP.Fitness>
44.3595

> <Gold.PLP.PLP>
-40.7461

> <Gold.PLP.part.hbond>
-2.0000

> <Gold.PLP.part.metal>
0.0000

> <Gold.PLP.part.buried>
-3.0719

> <Gold.PLP.part.nonpolar>
-35.7590

> <Gold.PLP.part.repulsive>
0.2825

> <Gold.PLP.ligand.clash>
0.0000

> <Gold.PLP.ligand.torsion>
1.2651

> <Gold.PLP.Chemscore.Hbond>
1.9920

> <Gold.PLP.Chemscore.CHOScore>
0.0000

> <Gold.PLP.Chemscore.Metal>
0.0000

> <Gold.Chemscore.Hbonds>
donor molecule, donor type, donor heavy atom, donor atom, acceptor molecule, acceptor atom, score
      P1  H  7997  8010       L1     6  0.85

> <Gold.PLP.Chemscore.Internal.Correction>
0.1676

> <Gold.Rescore>
     Score         DG    S(hbond)    S(metal)    S(lipo)     H(rot)  DE(clash)    DE(int)     intcor
     13.79     -16.64       1.34        0.00      96.26       1.79       0.42       2.43       ----

> <Gold.Chemscore.Fitness>
13.7886

> <Gold.Chemscore.DG>
-16.6366

> <Gold.Chemscore.ZeroCoef>
-5.4800

> <Gold.Chemscore.Hbond>
1.3383

> <Gold.Chemscore.Metal>
0.0000

> <Gold.Chemscore.Lipo>
96.2568

> <Gold.Chemscore.Internal_Hbond>
0.0000

> <Gold.Chemscore.DEClash>
0.4200

> <Gold.Chemscore.DEInternal>
2.4280

> <Gold.Chemscore.Rot>
1.7872

> <Gold.Chemscore.Internal.Correction>
   9.000000E+99

> <Gold.Chemscore.Hbonds>
donor molecule, donor type, donor heavy atom, donor atom, acceptor molecule, acceptor atom, score
      P1  H  7997  8010       L1     6  0.82

> <Gold.Chemscore.Hbond.Weighted>
-4.4698

> <Gold.Chemscore.Metal.Weighted>
-0.0000

> <Gold.Chemscore.Lipo.Weighted>
-11.2620

> <Gold.Chemscore.Internal_Hbond.Weighted>
0.0000

> <Gold.Chemscore.DEClash.Weighted>
0.4200

> <Gold.Chemscore.DEInternal.Weighted>
2.4280

> <Gold.Chemscore.Rot.Weighted>
4.5752

> <Gold.Chemscore.Internal.Correction.Weighted>
   9.000000E+99

> <Gold.Protein.RotatedTorsions>
[ 6907 6896 6895 6894 ] final   34.14 input  -60.11 | X-H torsion
[ 7974 7965 7964 7962 ] final   96.42 input  175.53 | X-H torsion
[ 8008 7997 7996 7995 ] final   58.86 input   59.86 | X-H torsion
[ 10167 10162 10161 10158 ] final -135.57 input  -65.29 | X-H torsion
[ 10718 10713 10712 10709 ] final  161.14 input   66.30 | X-H torsion
[ 10763 10752 10751 10750 ] final  173.90 input  -60.55 | X-H torsion
[ 11005 11000 10999 10996 ] final -121.28 input  -57.11 | X-H torsion

> <Gold.Protein.ActiveResidues>
 VAL166  LYS551  ARG553  GLY616  TRP617  ASP618  TYR619  PRO620  LYS621  CYS622 
 ASP623  PHE694  ASN695  SER759  ASP760  ASP761  ALA762  ILE779  LEU786  VAL792 
 PHE793  MET794  SER795  GLU796  ALA797  LYS798  CYS799  TRP800  GLU811  SER814 

> <Gold.Protein.RotatedAtoms>
  152.0983  134.9359  160.0570 H   0  0  0  0  0  0  0  0  0  0  0  0  # atno 6907 bound_to 6896
  152.0584  133.4046  159.4415 H   0  0  0  0  0  0  0  0  0  0  0  0  # atno 6908 bound_to 6896
  150.6838  134.3149  159.4805 H   0  0  0  0  0  0  0  0  0  0  0  0  # atno 6909 bound_to 6896
  145.4391  139.2303  143.3102 H   0  0  0  0  0  0  0  0  0  0  0  0  # atno 7974 bound_to 7965
  155.5568  140.3487  155.4482 H   0  0  0  0  0  0  0  0  0  0  0  0  # atno 8008 bound_to 7997
  156.0543  140.1325  157.0040 H   0  0  0  0  0  0  0  0  0  0  0  0  # atno 8009 bound_to 7997
  154.4449  140.0998  156.6407 H   0  0  0  0  0  0  0  0  0  0  0  0  # atno 8010 bound_to 7997
  139.8766  143.6891  152.2633 H   0  0  0  0  0  0  0  0  0  0  0  0  # atno 10167 bound_to 10162
  157.1407  131.0540  151.2328 H   0  0  0  0  0  0  0  0  0  0  0  0  # atno 10718 bound_to 10713
  154.4464  135.2763  155.1812 H   0  0  0  0  0  0  0  0  0  0  0  0  # atno 10763 bound_to 10752
  154.3656  135.6120  153.5717 H   0  0  0  0  0  0  0  0  0  0  0  0  # atno 10764 bound_to 10752
  152.9844  135.5845  154.4801 H   0  0  0  0  0  0  0  0  0  0  0  0  # atno 10765 bound_to 10752
  141.0082  134.0304  157.3449 H   0  0  0  0  0  0  0  0  0  0  0  0  # atno 11005 bound_to 11000
  146.2566  140.5137  142.8871 LP  0  0  0  0  0  0  0  0  0  0  0  0  # atno 17320 bound_to 7965
  144.8133  140.6424  143.6401 LP  0  0  0  0  0  0  0  0  0  0  0  0  # atno 17321 bound_to 7965
  139.7235  144.7598  151.0917 LP  0  0  0  0  0  0  0  0  0  0  0  0  # atno 17342 bound_to 10162
  140.7752  143.5178  150.9573 LP  0  0  0  0  0  0  0  0  0  0  0  0  # atno 17343 bound_to 10162
  157.4310  130.7490  149.6990 LP  0  0  0  0  0  0  0  0  0  0  0  0  # atno 17370 bound_to 10713
  155.9789  130.4046  150.3619 LP  0  0  0  0  0  0  0  0  0  0  0  0  # atno 17371 bound_to 10713
  139.9075  135.0183  156.7549 LP  0  0  0  0  0  0  0  0  0  0  0  0  # atno 17394 bound_to 11000
  140.6778  133.9502  155.7893 LP  0  0  0  0  0  0  0  0  0  0  0  0  # atno 17395 bound_to 11000

$$$$
