AV-unprocessed.smi:13|AV-procd|sdf|73|dock1
  -GOLD-   2262015193D 1   1.00000     0.00000
 Structure written by MMmdl.
 54 58  0  0  0  0  0  0  0  0  1 V2000
  143.9973  133.1375  150.7569 C   0  0  0  0  0  0  0  0  0  0  0  0
  144.7136  134.4656  151.0385 C   0  0  0  0  0  0  0  0  0  0  0  0
  144.8285  135.1927  149.6989 C   0  0  0  0  0  0  0  0  0  0  0  0
  144.1201  135.2873  152.1933 C   0  0  0  0  0  0  0  0  0  0  0  0
  145.1515  134.7144  153.0400 N   0  0  0  0  0  0  0  0  0  0  0  0
  145.6440  135.6022  154.0412 C   0  0  0  0  0  0  0  0  0  0  0  0
  145.5746  135.2677  155.3575 N   0  0  0  0  0  0  0  0  0  0  0  0
  146.0162  136.0963  156.3072 C   0  0  0  0  0  0  0  0  0  0  0  0
  146.5603  137.3053  156.1696 N   0  0  0  0  0  0  0  0  0  0  0  0
  146.6334  137.6608  154.8560 C   0  0  0  0  0  0  0  0  0  0  0  0
  146.1992  136.8806  153.7461 C   0  0  0  0  0  0  0  0  0  0  0  0
  146.4220  137.5792  152.5655 N   0  0  0  0  0  0  0  0  0  0  0  0
  146.9610  138.7021  152.9538 C   0  0  0  0  0  0  0  0  0  0  0  0
  147.1331  138.8321  154.3131 N   0  0  0  0  0  0  0  0  0  0  0  0
  147.7015  139.9739  155.0141 C   0  0  0  0  0  0  0  0  0  0  0  0
  149.1016  140.3878  154.4998 C   0  0  1  0  0  0  0  0  0  0  0  0
  148.9597  140.9963  153.2289 O   0  0  0  0  0  0  0  0  0  0  0  0
  149.8033  141.3660  155.4449 C   0  0  0  0  0  0  0  0  0  0  0  0
  150.9114  140.5268  156.0698 C   0  0  0  0  0  0  0  0  0  0  0  0
  151.2930  139.6770  155.0031 O   0  0  0  0  0  0  0  0  0  0  0  0
  150.0973  139.2147  154.3916 C   0  0  0  0  0  0  0  0  0  0  0  0
  146.0042  134.4253  151.8917 C   0  0  1  0  0  0  0  0  0  0  0  0
  146.8140  133.1346  152.0650 C   0  0  1  0  0  0  0  0  0  0  0  0
  147.9361  133.2407  153.1015 C   0  0  0  0  0  0  0  0  0  0  0  0
  148.0626  131.8320  153.6653 C   0  0  0  0  0  0  0  0  0  0  0  0
  146.8828  131.0769  153.0532 C   0  0  0  0  0  0  0  0  0  0  0  0
  146.0083  132.0990  152.6051 O   0  0  0  0  0  0  0  0  0  0  0  0
  142.9794  133.3043  150.4043 H   0  0  0  0  0  0  0  0  0  0  0  0
  143.9256  132.5185  151.6517 H   0  0  0  0  0  0  0  0  0  0  0  0
  144.5106  132.5507  149.9954 H   0  0  0  0  0  0  0  0  0  0  0  0
  145.3052  136.1665  149.8128 H   0  0  0  0  0  0  0  0  0  0  0  0
  143.8493  135.3644  149.2504 H   0  0  0  0  0  0  0  0  0  0  0  0
  145.4254  134.6238  148.9853 H   0  0  0  0  0  0  0  0  0  0  0  0
  144.2277  136.3658  152.0611 H   0  0  0  0  0  0  0  0  0  0  0  0
  143.1070  135.0045  152.4808 H   0  0  0  0  0  0  0  0  0  0  0  0
  145.9181  135.7385  157.3215 H   0  0  0  0  0  0  0  0  0  0  0  0
  147.2524  139.4715  152.2534 H   0  0  0  0  0  0  0  0  0  0  0  0
  147.0040  140.8080  154.9252 H   0  0  0  0  0  0  0  0  0  0  0  0
  147.7514  139.7323  156.0767 H   0  0  0  0  0  0  0  0  0  0  0  0
  149.0237  140.3238  152.5679 H   0  0  0  0  0  0  0  0  0  0  0  0
  150.2538  142.1922  154.8918 H   0  0  0  0  0  0  0  0  0  0  0  0
  149.1395  141.7999  156.1935 H   0  0  0  0  0  0  0  0  0  0  0  0
  151.7472  141.1284  156.4269 H   0  0  0  0  0  0  0  0  0  0  0  0
  150.5319  139.9302  156.9011 H   0  0  0  0  0  0  0  0  0  0  0  0
  149.7543  138.3512  154.9616 H   0  0  0  0  0  0  0  0  0  0  0  0
  150.2747  138.8832  153.3675 H   0  0  0  0  0  0  0  0  0  0  0  0
  146.6315  135.2837  151.6422 H   0  0  0  0  0  0  0  0  0  0  0  0
  147.2275  132.7947  151.1135 H   0  0  0  0  0  0  0  0  0  0  0  0
  148.8701  133.5989  152.6697 H   0  0  0  0  0  0  0  0  0  0  0  0
  147.6522  133.9284  153.8993 H   0  0  0  0  0  0  0  0  0  0  0  0
  149.0106  131.3643  153.3983 H   0  0  0  0  0  0  0  0  0  0  0  0
  147.9919  131.8526  154.7533 H   0  0  0  0  0  0  0  0  0  0  0  0
  147.2068  130.4813  152.1982 H   0  0  0  0  0  0  0  0  0  0  0  0
  146.3907  130.4147  153.7657 H   0  0  0  0  0  0  0  0  0  0  0  0
  1  2  1  0  0  0  0
  1 28  1  0  0  0  0
  1 29  1  0  0  0  0
  1 30  1  0  0  0  0
  2 22  1  0  0  0  0
  2  3  1  0  0  0  0
  2  4  1  0  0  0  0
  3 31  1  0  0  0  0
  3 32  1  0  0  0  0
  3 33  1  0  0  0  0
  4  5  1  0  0  0  0
  4 34  1  0  0  0  0
  4 35  1  0  0  0  0
  5  6  1  0  0  0  0
  5 22  1  0  0  0  0
  6 11  1  0  0  0  0
  6  7  2  0  0  0  0
  7  8  1  0  0  0  0
  8  9  2  0  0  0  0
  8 36  1  0  0  0  0
  9 10  1  0  0  0  0
 10 14  1  0  0  0  0
 10 11  2  0  0  0  0
 11 12  1  0  0  0  0
 12 13  2  0  0  0  0
 13 14  1  0  0  0  0
 13 37  1  0  0  0  0
 14 15  1  0  0  0  0
 15 16  1  0  0  0  0
 15 38  1  0  0  0  0
 15 39  1  0  0  0  0
 16 21  1  0  0  0  0
 16 17  1  0  0  0  0
 16 18  1  0  0  0  0
 17 40  1  0  0  0  0
 18 19  1  0  0  0  0
 18 41  1  0  0  0  0
 18 42  1  0  0  0  0
 19 20  1  0  0  0  0
 19 43  1  0  0  0  0
 19 44  1  0  0  0  0
 20 21  1  0  0  0  0
 21 45  1  0  0  0  0
 21 46  1  0  0  0  0
 22 23  1  0  0  0  0
 22 47  1  0  0  0  0
 23 27  1  0  0  0  0
 23 24  1  0  0  0  0
 23 48  1  0  0  0  0
 24 25  1  0  0  0  0
 24 49  1  0  0  0  0
 24 50  1  0  0  0  0
 25 26  1  0  0  0  0
 25 51  1  0  0  0  0
 25 52  1  0  0  0  0
 26 27  1  0  0  0  0
 26 53  1  0  0  0  0
 26 54  1  0  0  0  0
M  END
> <s_m_source_file>
AV-unprocessed.smi

> <i_m_source_file_index>
13

> <i_lp_mmshare_version>
43012

> <i_f3d_flags>
0

> <s_epik_input>
TzFbQ0gyXVtDSDJdW0NIMl1bQ0BIXTFbQ0BASF0yTihbQ0gyXUMyKFtDSDNdKVtDSDNdKWMobltjSF1uMyljKGMzNCluW2NIXW40W0NIMl1bQ0BAXTUoW09IXSlbQ0gyXVtDSDJdT1tDSDJdNQ==

> <s_epik_cmdline>
J2VwaWtfcHl0aG9uJywgJy1waCcsICc3LjAnLCAnLXRuJywgJzgnLCAnLW1hJywgJzIwMCcsICctbWV0YWxfYmluZGluZycsICctaW1hZScsICc8aW5maWxlLm1hZT4nLCAnLW9tYWUnLCAnPG91dGZpbGUubWFlPic=

> <r_lp_tautomer_probability>
1

> <r_epik_Ionization_Penalty>
0.00202764

> <r_epik_Ionization_Penalty_Charging>
0

> <r_epik_Ionization_Penalty_Neutral>
0.00202764

> <r_epik_State_Penalty>
0.00134017

> <r_epik_Charging_Adjusted_Penalty>
0.00134017

> <i_epik_Tot_Q>
0

> <i_epik_Tot_abs_Q>
0

> <r_epik_Metal_State_Penalty>
-0

> <b_epik_Metal_Only>
0

> <s_lp_Force_Field>
OPLS_2005

> <r_lp_Energy>
61.4884

> <b_lp_Chiralities_Consistent>
1

> <s_lp_Variant>
AV-unprocessed.smi:13-5

> <Gold.Version>
5.8.1

> <Gold.Id.Protein>
6NUR|6NUR_protein|mol2

> <Gold.PLP.Fitness>
45.6678

> <Gold.PLP.PLP>
-36.7256

> <Gold.PLP.part.hbond>
-2.7498

> <Gold.PLP.part.metal>
0.0000

> <Gold.PLP.part.buried>
-1.8293

> <Gold.PLP.part.nonpolar>
-33.2021

> <Gold.PLP.part.repulsive>
1.2408

> <Gold.PLP.ligand.clash>
0.0000

> <Gold.PLP.ligand.torsion>
0.3760

> <Gold.PLP.Chemscore.Hbond>
2.6820

> <Gold.PLP.Chemscore.CHOScore>
0.3952

> <Gold.PLP.Chemscore.Metal>
0.0000

> <Gold.Chemscore.Hbonds>
donor molecule, donor type, donor heavy atom, donor atom, acceptor molecule, acceptor atom, score
      L1  H    17    40       P1  7957  0.83
      P1  H  7989  7998       L1    20  0.55
      P1  H  8011  8017       L1    17  1.00
      L1  C    13    37       P1  7957  0.75

> <Gold.PLP.Chemscore.Internal.Correction>
0.4627

> <Gold.Rescore>
     Score         DG    S(hbond)    S(metal)    S(lipo)     H(rot)  DE(clash)    DE(int)     intcor
     12.21     -14.24       1.31        0.00      87.89       2.30       1.49       0.54       ----

> <Gold.Chemscore.Fitness>
12.2062

> <Gold.Chemscore.DG>
-14.2413

> <Gold.Chemscore.ZeroCoef>
-5.4800

> <Gold.Chemscore.Hbond>
1.3070

> <Gold.Chemscore.Metal>
0.0000

> <Gold.Chemscore.Lipo>
87.8865

> <Gold.Chemscore.Internal_Hbond>
0.0000

> <Gold.Chemscore.DEClash>
1.4939

> <Gold.Chemscore.DEInternal>
0.5412

> <Gold.Chemscore.Rot>
2.2996

> <Gold.Chemscore.Internal.Correction>
   9.000000E+99

> <Gold.Chemscore.Hbonds>
donor molecule, donor type, donor heavy atom, donor atom, acceptor molecule, acceptor atom, score
      L1  H    17    40       P1  7957  0.79
      P1  H  7989  7998       L1    20  0.02
      P1  H  8011  8017       L1    17  0.25

> <Gold.Chemscore.Hbond.Weighted>
-4.3655

> <Gold.Chemscore.Metal.Weighted>
-0.0000

> <Gold.Chemscore.Lipo.Weighted>
-10.2827

> <Gold.Chemscore.Internal_Hbond.Weighted>
0.0000

> <Gold.Chemscore.DEClash.Weighted>
1.4939

> <Gold.Chemscore.DEInternal.Weighted>
0.5412

> <Gold.Chemscore.Rot.Weighted>
5.8869

> <Gold.Chemscore.Internal.Correction.Weighted>
   9.000000E+99

> <Gold.Protein.RotatedTorsions>
[ 6907 6896 6895 6894 ] final -120.13 input  -60.11 | X-H torsion
[ 7974 7965 7964 7962 ] final   21.31 input  175.53 | X-H torsion
[ 8008 7997 7996 7995 ] final  -89.93 input   59.86 | X-H torsion
[ 10167 10162 10161 10158 ] final -110.71 input  -65.29 | X-H torsion
[ 10718 10713 10712 10709 ] final -157.67 input   66.30 | X-H torsion
[ 10763 10752 10751 10750 ] final  141.08 input  -60.55 | X-H torsion
[ 11005 11000 10999 10996 ] final -178.88 input  -57.11 | X-H torsion

> <Gold.Protein.ActiveResidues>
 VAL166  LYS551  ARG553  GLY616  TRP617  ASP618  TYR619  PRO620  LYS621  CYS622 
 ASP623  PHE694  ASN695  SER759  ASP760  ASP761  ALA762  ILE779  LEU786  VAL792 
 PHE793  MET794  SER795  GLU796  ALA797  LYS798  CYS799  TRP800  GLU811  SER814 

> <Gold.Protein.RotatedAtoms>
  150.8365  133.8004  159.3077 H   0  0  0  0  0  0  0  0  0  0  0  0  # atno 6907 bound_to 6896
  151.5718  135.1060  160.0006 H   0  0  0  0  0  0  0  0  0  0  0  0  # atno 6908 bound_to 6896
  152.4437  133.7454  159.6720 H   0  0  0  0  0  0  0  0  0  0  0  0  # atno 6909 bound_to 6896
  146.2076  139.8045  142.8713 H   0  0  0  0  0  0  0  0  0  0  0  0  # atno 7974 bound_to 7965
  154.6925  140.0536  157.0378 H   0  0  0  0  0  0  0  0  0  0  0  0  # atno 8008 bound_to 7997
  155.0797  140.3208  155.4586 H   0  0  0  0  0  0  0  0  0  0  0  0  # atno 8009 bound_to 7997
  156.2733  140.2067  156.5924 H   0  0  0  0  0  0  0  0  0  0  0  0  # atno 8010 bound_to 7997
  140.1415  143.4275  152.1559 H   0  0  0  0  0  0  0  0  0  0  0  0  # atno 10167 bound_to 10162
  156.5435  130.8573  151.2756 H   0  0  0  0  0  0  0  0  0  0  0  0  # atno 10718 bound_to 10713
  153.9333  135.2988  155.3445 H   0  0  0  0  0  0  0  0  0  0  0  0  # atno 10763 bound_to 10752
  154.7515  135.4978  153.9301 H   0  0  0  0  0  0  0  0  0  0  0  0  # atno 10764 bound_to 10752
  153.1080  135.6752  153.9656 H   0  0  0  0  0  0  0  0  0  0  0  0  # atno 10765 bound_to 10752
  140.4248  134.6572  157.4682 H   0  0  0  0  0  0  0  0  0  0  0  0  # atno 11005 bound_to 11000
  145.3261  141.0255  143.3473 LP  0  0  0  0  0  0  0  0  0  0  0  0  # atno 17320 bound_to 7965
  144.8832  139.4875  143.6713 LP  0  0  0  0  0  0  0  0  0  0  0  0  # atno 17321 bound_to 7965
  139.5470  144.7306  151.4554 LP  0  0  0  0  0  0  0  0  0  0  0  0  # atno 17342 bound_to 10162
  140.6757  143.8194  150.7056 LP  0  0  0  0  0  0  0  0  0  0  0  0  # atno 17343 bound_to 10162
  157.7401  130.9844  150.2355 LP  0  0  0  0  0  0  0  0  0  0  0  0  # atno 17370 bound_to 10713
  156.2950  130.3750  149.7805 LP  0  0  0  0  0  0  0  0  0  0  0  0  # atno 17371 bound_to 10713
  140.0175  134.6598  155.9289 LP  0  0  0  0  0  0  0  0  0  0  0  0  # atno 17394 bound_to 11000
  141.1769  133.6541  156.4865 LP  0  0  0  0  0  0  0  0  0  0  0  0  # atno 17395 bound_to 11000

$$$$
