AV-unprocessed.smi:618|AV-procd|sdf|3082|dock1
  -GOLD-   22720 0 03D 1   1.00000     0.00000
 Structure written by MMmdl.
 40 42  0  0  0  0  0  0  0  0  1 V2000
  144.5114  136.5126  152.3223 O   0  0  0  0  0  0  0  0  0  0  0  0
  145.7160  136.4389  152.0813 C   0  0  0  0  0  0  0  0  0  0  0  0
  146.5842  137.4285  152.3341 N   0  0  0  0  0  0  0  0  0  0  0  0
  146.2358  138.7307  152.8930 C   0  0  0  0  0  0  0  0  0  0  0  0
  147.4892  139.5686  153.1967 C   0  0  2  0  0  0  0  0  0  0  0  0
  148.4971  138.7955  154.0781 C   0  0  0  0  0  0  0  0  0  0  0  0
  149.6089  139.6581  154.4282 N   0  0  0  0  0  0  0  0  0  0  0  0
  150.6090  139.1100  155.3143 C   0  0  0  0  0  0  0  0  0  0  0  0
  151.3864  140.3401  155.8151 C   0  0  0  0  0  0  0  0  0  0  0  0
  150.4304  141.5281  155.5670 C   0  0  0  0  0  0  0  0  0  0  0  0
  149.1451  140.8368  155.1089 C   0  0  1  0  0  0  0  0  0  0  0  0
  148.1827  141.6349  154.2181 C   0  0  0  0  0  0  0  0  0  0  0  0
  147.0972  140.7744  153.8657 O   0  0  0  0  0  0  0  0  0  0  0  0
  146.3332  135.3864  151.5179 N   0  0  0  0  0  0  0  0  0  0  0  0
  145.7669  134.1545  151.0924 C   0  0  0  0  0  0  0  0  0  0  0  0
  144.3669  134.0887  150.9368 C   0  0  0  0  0  0  0  0  0  0  0  0
  143.7806  132.8860  150.4996 C   0  0  0  0  0  0  0  0  0  0  0  0
  144.6232  131.7917  150.2252 C   0  0  0  0  0  0  0  0  0  0  0  0
  145.9658  131.8411  150.3540 N   0  0  0  0  0  0  0  0  0  0  0  0
  146.5218  132.9980  150.7750 C   0  0  0  0  0  0  0  0  0  0  0  0
  147.5549  137.2801  152.1013 H   0  0  0  0  0  0  0  0  0  0  0  0
  145.5595  139.2747  152.2313 H   0  0  0  0  0  0  0  0  0  0  0  0
  145.6840  138.5521  153.8163 H   0  0  0  0  0  0  0  0  0  0  0  0
  147.9741  139.8364  152.2560 H   0  0  0  0  0  0  0  0  0  0  0  0
  148.0019  138.4405  154.9832 H   0  0  0  0  0  0  0  0  0  0  0  0
  148.8633  137.9149  153.5494 H   0  0  0  0  0  0  0  0  0  0  0  0
  150.1313  138.6049  156.1554 H   0  0  0  0  0  0  0  0  0  0  0  0
  151.2474  138.3880  154.8044 H   0  0  0  0  0  0  0  0  0  0  0  0
  151.6471  140.2371  156.8687 H   0  0  0  0  0  0  0  0  0  0  0  0
  152.3109  140.4732  155.2521 H   0  0  0  0  0  0  0  0  0  0  0  0
  150.2746  142.1369  156.4580 H   0  0  0  0  0  0  0  0  0  0  0  0
  150.8259  142.1711  154.7796 H   0  0  0  0  0  0  0  0  0  0  0  0
  148.5975  140.5333  156.0040 H   0  0  0  0  0  0  0  0  0  0  0  0
  147.7964  142.5057  154.7479 H   0  0  0  0  0  0  0  0  0  0  0  0
  148.6814  141.9941  153.3166 H   0  0  0  0  0  0  0  0  0  0  0  0
  147.3132  135.5073  151.3091 H   0  0  0  0  0  0  0  0  0  0  0  0
  143.7463  134.9461  151.1534 H   0  0  0  0  0  0  0  0  0  0  0  0
  142.7108  132.8041  150.3772 H   0  0  0  0  0  0  0  0  0  0  0  0
  144.2081  130.8535  149.8881 H   0  0  0  0  0  0  0  0  0  0  0  0
  147.5988  132.9839  150.8323 H   0  0  0  0  0  0  0  0  0  0  0  0
  1  2  2  0  0  0  0
  2  3  1  0  0  0  0
  2 14  1  0  0  0  0
  3  4  1  0  0  0  0
  3 21  1  0  0  0  0
  4  5  1  0  0  0  0
  4 22  1  0  0  0  0
  4 23  1  0  0  0  0
  5 13  1  0  0  0  0
  5  6  1  0  0  0  0
  5 24  1  0  0  0  0
  6  7  1  0  0  0  0
  6 25  1  0  0  0  0
  6 26  1  0  0  0  0
  7 11  1  0  0  0  0
  7  8  1  0  0  0  0
  8  9  1  0  0  0  0
  8 27  1  0  0  0  0
  8 28  1  0  0  0  0
  9 10  1  0  0  0  0
  9 29  1  0  0  0  0
  9 30  1  0  0  0  0
 10 11  1  0  0  0  0
 10 31  1  0  0  0  0
 10 32  1  0  0  0  0
 11 12  1  0  0  0  0
 11 33  1  0  0  0  0
 12 13  1  0  0  0  0
 12 34  1  0  0  0  0
 12 35  1  0  0  0  0
 14 15  1  0  0  0  0
 14 36  1  0  0  0  0
 15 20  1  0  0  0  0
 15 16  2  0  0  0  0
 16 17  1  0  0  0  0
 16 37  1  0  0  0  0
 17 18  2  0  0  0  0
 17 38  1  0  0  0  0
 18 19  1  0  0  0  0
 18 39  1  0  0  0  0
 19 20  2  0  0  0  0
 20 40  1  0  0  0  0
M  END
> <s_m_source_file>
AV-unprocessed.smi

> <i_m_source_file_index>
618

> <i_lp_mmshare_version>
43012

> <i_f3d_flags>
0

> <s_epik_input>
W2NIXTFuW2NIXVtjSF1bY0hdYzFbTkhdQyg9TylbTkhdW0NIMl1bQ0BIXShbQ0gyXTIpT1tDSDJdW0NAQEhdKE4yMylbQ0gyXVtDSDJdW0NIMl0z

> <s_epik_cmdline>
J2VwaWtfcHl0aG9uJywgJy1waCcsICc3LjAnLCAnLXRuJywgJzgnLCAnLW1hJywgJzIwMCcsICctbWV0YWxfYmluZGluZycsICctaW1hZScsICc8aW5maWxlLm1hZT4nLCAnLW9tYWUnLCAnPG91dGZpbGUubWFlPic=

> <r_epik_Ionization_Penalty>
1.07277

> <r_epik_Ionization_Penalty_Charging>
0

> <r_epik_Ionization_Penalty_Neutral>
1.07277

> <r_epik_State_Penalty>
1.13623

> <r_epik_Charging_Adjusted_Penalty>
1.13623

> <i_epik_Tot_Q>
0

> <i_epik_Tot_abs_Q>
0

> <r_epik_Metal_State_Penalty>
1.13277

> <b_epik_Metal_Only>
0

> <s_lp_Force_Field>
OPLS_2005

> <r_lp_Energy>
50.2081

> <b_lp_Chiralities_Consistent>
1

> <s_lp_Variant>
AV-unprocessed.smi:618-9

> <Gold.Version>
5.8.1

> <Gold.Id.Protein>
6NUR|6NUR_protein|mol2

> <Gold.PLP.Fitness>
43.0438

> <Gold.PLP.PLP>
-35.0290

> <Gold.PLP.part.hbond>
-2.0000

> <Gold.PLP.part.metal>
0.0000

> <Gold.PLP.part.buried>
-3.3334

> <Gold.PLP.part.nonpolar>
-31.1893

> <Gold.PLP.part.repulsive>
0.7282

> <Gold.PLP.ligand.clash>
0.0000

> <Gold.PLP.ligand.torsion>
0.0914

> <Gold.PLP.Chemscore.Hbond>
1.9920

> <Gold.PLP.Chemscore.CHOScore>
0.7397

> <Gold.PLP.Chemscore.Metal>
0.0000

> <Gold.Chemscore.Hbonds>
donor molecule, donor type, donor heavy atom, donor atom, acceptor molecule, acceptor atom, score
      L1  H     3    21       P1  7948  1.00
      L1  H    14    36       P1  7948  0.98
      L1  C    20    40       P1 10747  0.74

> <Gold.PLP.Chemscore.Internal.Correction>
0.0026

> <Gold.Rescore>
     Score         DG    S(hbond)    S(metal)    S(lipo)     H(rot)  DE(clash)    DE(int)     intcor
     17.40     -18.93       1.83        0.00      90.01       1.25       0.05       1.48       ----

> <Gold.Chemscore.Fitness>
17.4036

> <Gold.Chemscore.DG>
-18.9339

> <Gold.Chemscore.ZeroCoef>
-5.4800

> <Gold.Chemscore.Hbond>
1.8300

> <Gold.Chemscore.Metal>
0.0000

> <Gold.Chemscore.Lipo>
90.0143

> <Gold.Chemscore.Internal_Hbond>
0.0000

> <Gold.Chemscore.DEClash>
0.0476

> <Gold.Chemscore.DEInternal>
1.4827

> <Gold.Chemscore.Rot>
1.2461

> <Gold.Chemscore.Internal.Correction>
   9.000000E+99

> <Gold.Chemscore.Hbonds>
donor molecule, donor type, donor heavy atom, donor atom, acceptor molecule, acceptor atom, score
      L1  H     3    21       P1  7948  0.97
      L1  H    14    36       P1  7948  0.82

> <Gold.Chemscore.Hbond.Weighted>
-6.1123

> <Gold.Chemscore.Metal.Weighted>
-0.0000

> <Gold.Chemscore.Lipo.Weighted>
-10.5317

> <Gold.Chemscore.Internal_Hbond.Weighted>
0.0000

> <Gold.Chemscore.DEClash.Weighted>
0.0476

> <Gold.Chemscore.DEInternal.Weighted>
1.4827

> <Gold.Chemscore.Rot.Weighted>
3.1901

> <Gold.Chemscore.Internal.Correction.Weighted>
   9.000000E+99

> <Gold.Protein.RotatedTorsions>
[ 6907 6896 6895 6894 ] final   34.76 input  -60.11 | X-H torsion
[ 7974 7965 7964 7962 ] final -129.29 input  175.53 | X-H torsion
[ 8008 7997 7996 7995 ] final -123.32 input   59.86 | X-H torsion
[ 10167 10162 10161 10158 ] final   30.32 input  -65.29 | X-H torsion
[ 10718 10713 10712 10709 ] final  -92.11 input   66.30 | X-H torsion
[ 10763 10752 10751 10750 ] final  -69.59 input  -60.55 | X-H torsion
[ 11005 11000 10999 10996 ] final   16.28 input  -57.11 | X-H torsion

> <Gold.Protein.ActiveResidues>
 VAL166  LYS551  ARG553  GLY616  TRP617  ASP618  TYR619  PRO620  LYS621  CYS622 
 ASP623  PHE694  ASN695  SER759  ASP760  ASP761  ALA762  ILE779  LEU786  VAL792 
 PHE793  MET794  SER795  GLU796  ALA797  LYS798  CYS799  TRP800  GLU811  SER814 

> <Gold.Protein.RotatedAtoms>
  152.1068  134.9302  160.0567 H   0  0  0  0  0  0  0  0  0  0  0  0  # atno 6907 bound_to 6896
  152.0495  133.4008  159.4379 H   0  0  0  0  0  0  0  0  0  0  0  0  # atno 6908 bound_to 6896
  150.6841  134.3244  159.4844 H   0  0  0  0  0  0  0  0  0  0  0  0  # atno 6909 bound_to 6896
  144.9586  140.7423  143.4743 H   0  0  0  0  0  0  0  0  0  0  0  0  # atno 7974 bound_to 7965
  155.1786  140.0410  157.2877 H   0  0  0  0  0  0  0  0  0  0  0  0  # atno 8008 bound_to 7997
  154.6219  140.2503  155.7511 H   0  0  0  0  0  0  0  0  0  0  0  0  # atno 8009 bound_to 7997
  156.2438  140.2893  156.0531 H   0  0  0  0  0  0  0  0  0  0  0  0  # atno 8010 bound_to 7997
  140.4688  144.0794  150.6231 H   0  0  0  0  0  0  0  0  0  0  0  0  # atno 10167 bound_to 10162
  155.9999  130.4974  150.5576 H   0  0  0  0  0  0  0  0  0  0  0  0  # atno 10718 bound_to 10713
  154.4056  135.6021  153.5923 H   0  0  0  0  0  0  0  0  0  0  0  0  # atno 10763 bound_to 10752
  152.9789  135.5917  154.4131 H   0  0  0  0  0  0  0  0  0  0  0  0  # atno 10764 bound_to 10752
  154.3936  135.2842  155.2118 H   0  0  0  0  0  0  0  0  0  0  0  0  # atno 10765 bound_to 10752
  140.4489  134.1244  155.7700 H   0  0  0  0  0  0  0  0  0  0  0  0  # atno 11005 bound_to 11000
  145.2734  139.1946  143.4829 LP  0  0  0  0  0  0  0  0  0  0  0  0  # atno 17320 bound_to 7965
  146.3345  140.2684  142.8605 LP  0  0  0  0  0  0  0  0  0  0  0  0  # atno 17321 bound_to 7965
  140.4003  143.2707  151.9956 LP  0  0  0  0  0  0  0  0  0  0  0  0  # atno 17342 bound_to 10162
  139.4815  144.6003  151.7617 LP  0  0  0  0  0  0  0  0  0  0  0  0  # atno 17343 bound_to 10162
  157.3490  131.0730  151.1728 LP  0  0  0  0  0  0  0  0  0  0  0  0  # atno 17370 bound_to 10713
  157.2551  130.6632  149.5949 LP  0  0  0  0  0  0  0  0  0  0  0  0  # atno 17371 bound_to 10713
  141.1673  133.8678  157.1677 LP  0  0  0  0  0  0  0  0  0  0  0  0  # atno 17394 bound_to 11000
  140.0020  135.0024  157.0210 LP  0  0  0  0  0  0  0  0  0  0  0  0  # atno 17395 bound_to 11000

$$$$
