AV-unprocessed.smi:2260|AV-procd|sdf|9134|dock3
  -GOLD-   2272012343D 1   1.00000     0.00000
 Structure written by MMmdl.
 42 43  0  0  0  0  0  0  0  0  1 V2000
  148.1709  139.6879  154.0531 C   0  0  0  0  0  0  0  0  0  0  0  0
  149.5266  139.1307  154.4519 C   0  0  0  0  0  0  0  0  0  0  0  0
  149.9583  137.8872  154.2166 C   0  0  0  0  0  0  0  0  0  0  0  0
  151.5857  137.6160  154.7929 S   0  0  0  0  0  0  0  0  0  0  0  0
  151.6705  139.3148  155.3835 C   0  0  0  0  0  0  0  0  0  0  0  0
  152.6664  139.7816  155.9343 O   0  0  0  0  0  0  0  0  0  0  0  0
  150.4590  139.9457  155.1065 N   0  0  0  0  0  0  0  0  0  0  0  0
  150.2123  141.3413  155.4768 C   0  0  0  0  0  0  0  0  0  0  0  0
  150.4898  141.5726  156.9697 C   0  0  0  0  0  0  0  0  0  0  0  0
  150.6821  142.9949  157.2068 N   0  0  0  0  0  0  0  0  0  0  0  0
  150.7133  143.3354  158.6270 C   0  0  2  0  0  0  0  0  0  0  0  0
  149.7668  144.5253  158.9146 C   0  0  0  0  0  0  0  0  0  0  0  0
  149.7970  144.9229  160.3966 C   0  0  0  0  0  0  0  0  0  0  0  0
  151.2257  145.2278  160.8609 C   0  0  0  0  0  0  0  0  0  0  0  0
  152.1637  144.0429  160.5757 C   0  0  0  0  0  0  0  0  0  0  0  0
  152.1805  143.6098  159.0868 C   0  0  0  0  0  0  0  0  0  0  0  0
  153.0086  142.3101  158.9880 C   0  0  0  0  0  0  0  0  0  0  0  0
  152.8790  144.6974  158.2336 C   0  0  0  0  0  0  0  0  0  0  0  0
  147.7279  139.0770  153.2658 H   0  0  0  0  0  0  0  0  0  0  0  0
  148.2448  140.7060  153.6716 H   0  0  0  0  0  0  0  0  0  0  0  0
  147.4938  139.6816  154.9074 H   0  0  0  0  0  0  0  0  0  0  0  0
  149.4080  137.1016  153.7202 H   0  0  0  0  0  0  0  0  0  0  0  0
  150.8151  142.0119  154.8642 H   0  0  0  0  0  0  0  0  0  0  0  0
  149.1768  141.6012  155.2499 H   0  0  0  0  0  0  0  0  0  0  0  0
  149.6572  141.1975  157.5644 H   0  0  0  0  0  0  0  0  0  0  0  0
  151.3827  141.0259  157.2744 H   0  0  0  0  0  0  0  0  0  0  0  0
  149.9727  143.5358  156.7329 H   0  0  0  0  0  0  0  0  0  0  0  0
  150.3541  142.4731  159.1915 H   0  0  0  0  0  0  0  0  0  0  0  0
  150.0355  145.3845  158.2995 H   0  0  0  0  0  0  0  0  0  0  0  0
  148.7404  144.2743  158.6483 H   0  0  0  0  0  0  0  0  0  0  0  0
  149.1582  145.7907  160.5633 H   0  0  0  0  0  0  0  0  0  0  0  0
  149.3830  144.1133  160.9990 H   0  0  0  0  0  0  0  0  0  0  0  0
  151.5920  146.1282  160.3676 H   0  0  0  0  0  0  0  0  0  0  0  0
  151.2251  145.4476  161.9289 H   0  0  0  0  0  0  0  0  0  0  0  0
  153.1726  144.2914  160.9076 H   0  0  0  0  0  0  0  0  0  0  0  0
  151.8477  143.2011  161.1940 H   0  0  0  0  0  0  0  0  0  0  0  0
  154.0189  142.4539  159.3727 H   0  0  0  0  0  0  0  0  0  0  0  0
  153.1030  141.9666  157.9572 H   0  0  0  0  0  0  0  0  0  0  0  0
  152.5529  141.5015  159.5603 H   0  0  0  0  0  0  0  0  0  0  0  0
  153.8781  144.9114  158.6143 H   0  0  0  0  0  0  0  0  0  0  0  0
  152.3306  145.6383  158.2250 H   0  0  0  0  0  0  0  0  0  0  0  0
  152.9968  144.3842  157.1959 H   0  0  0  0  0  0  0  0  0  0  0  0
  1  2  1  0  0  0  0
  1 19  1  0  0  0  0
  1 20  1  0  0  0  0
  1 21  1  0  0  0  0
  2  7  1  0  0  0  0
  2  3  2  0  0  0  0
  3  4  1  0  0  0  0
  3 22  1  0  0  0  0
  4  5  1  0  0  0  0
  5  6  2  0  0  0  0
  5  7  1  0  0  0  0
  7  8  1  0  0  0  0
  8  9  1  0  0  0  0
  8 23  1  0  0  0  0
  8 24  1  0  0  0  0
  9 10  1  0  0  0  0
  9 25  1  0  0  0  0
  9 26  1  0  0  0  0
 10 11  1  0  0  0  0
 10 27  1  0  0  0  0
 11 16  1  0  0  0  0
 11 12  1  0  0  0  0
 11 28  1  0  0  0  0
 12 13  1  0  0  0  0
 12 29  1  0  0  0  0
 12 30  1  0  0  0  0
 13 14  1  0  0  0  0
 13 31  1  0  0  0  0
 13 32  1  0  0  0  0
 14 15  1  0  0  0  0
 14 33  1  0  0  0  0
 14 34  1  0  0  0  0
 15 16  1  0  0  0  0
 15 35  1  0  0  0  0
 15 36  1  0  0  0  0
 16 17  1  0  0  0  0
 16 18  1  0  0  0  0
 17 37  1  0  0  0  0
 17 38  1  0  0  0  0
 17 39  1  0  0  0  0
 18 40  1  0  0  0  0
 18 41  1  0  0  0  0
 18 42  1  0  0  0  0
M  END
> <s_m_source_file>
AV-unprocessed.smi

> <i_m_source_file_index>
2260

> <i_lp_mmshare_version>
43012

> <i_f3d_flags>
0

> <s_epik_input>
W0NIM11jMVtjSF1zYyg9TyluMVtDSDJdW0NIMl1bTkhdW0NAQEhdKEMyKFtDSDNdKVtDSDNdKVtDSDJdW0NIMl1bQ0gyXVtDSDJdMg==

> <s_epik_cmdline>
J2VwaWtfcHl0aG9uJywgJy1waCcsICc3LjAnLCAnLXRuJywgJzgnLCAnLW1hJywgJzIwMCcsICctbWV0YWxfYmluZGluZycsICctaW1hZScsICc8aW5maWxlLm1hZT4nLCAnLW9tYWUnLCAnPG91dGZpbGUubWFlPic=

> <r_epik_Ionization_Penalty>
2.34504

> <r_epik_Ionization_Penalty_Charging>
4.7617e-06

> <r_epik_Ionization_Penalty_Neutral>
2.34504

> <r_epik_State_Penalty>
2.49894

> <r_epik_Charging_Adjusted_Penalty>
2.49895

> <i_epik_Tot_Q>
0

> <i_epik_Tot_abs_Q>
0

> <r_epik_Metal_State_Penalty>
2.49894

> <b_epik_Metal_Only>
0

> <s_lp_Force_Field>
OPLS_2005

> <r_lp_Energy>
25.4326

> <b_lp_Chiralities_Consistent>
1

> <s_lp_Variant>
AV-unprocessed.smi:2260-3

> <Gold.Version>
5.8.1

> <Gold.Id.Protein>
6NUR|6NUR_protein|mol2

> <Gold.PLP.Fitness>
46.1889

> <Gold.PLP.PLP>
-38.7936

> <Gold.PLP.part.hbond>
-2.0000

> <Gold.PLP.part.metal>
0.0000

> <Gold.PLP.part.buried>
2.4337

> <Gold.PLP.part.nonpolar>
-39.4410

> <Gold.PLP.part.repulsive>
0.0000

> <Gold.PLP.ligand.clash>
0.0000

> <Gold.PLP.ligand.torsion>
0.8146

> <Gold.PLP.Chemscore.Hbond>
2.0000

> <Gold.PLP.Chemscore.CHOScore>
1.0000

> <Gold.PLP.Chemscore.Metal>
0.0000

> <Gold.Chemscore.Hbonds>
donor molecule, donor type, donor heavy atom, donor atom, acceptor molecule, acceptor atom, score
      L1  H    10    27       P1  8028  1.00
      P1  H  7997  8010       L1     6  1.00
      L1  C     3    22       P1  7948  1.00

> <Gold.PLP.Chemscore.Internal.Correction>
0.0244

> <Gold.Rescore>
     Score         DG    S(hbond)    S(metal)    S(lipo)     H(rot)  DE(clash)    DE(int)     intcor
     20.73     -23.24       1.97        0.00     126.91       1.43       1.72       0.79       ----

> <Gold.Chemscore.Fitness>
20.7348

> <Gold.Chemscore.DG>
-23.2413

> <Gold.Chemscore.ZeroCoef>
-5.4800

> <Gold.Chemscore.Hbond>
1.9671

> <Gold.Chemscore.Metal>
0.0000

> <Gold.Chemscore.Lipo>
126.9056

> <Gold.Chemscore.Internal_Hbond>
0.0000

> <Gold.Chemscore.DEClash>
1.7160

> <Gold.Chemscore.DEInternal>
0.7905

> <Gold.Chemscore.Rot>
1.4285

> <Gold.Chemscore.Internal.Correction>
   9.000000E+99

> <Gold.Chemscore.Hbonds>
donor molecule, donor type, donor heavy atom, donor atom, acceptor molecule, acceptor atom, score
      L1  H    10    27       P1  8028  1.00
      P1  H  7997  8010       L1     6  1.00

> <Gold.Chemscore.Hbond.Weighted>
-6.5702

> <Gold.Chemscore.Metal.Weighted>
-0.0000

> <Gold.Chemscore.Lipo.Weighted>
-14.8480

> <Gold.Chemscore.Internal_Hbond.Weighted>
0.0000

> <Gold.Chemscore.DEClash.Weighted>
1.7160

> <Gold.Chemscore.DEInternal.Weighted>
0.7905

> <Gold.Chemscore.Rot.Weighted>
3.6569

> <Gold.Chemscore.Internal.Correction.Weighted>
   9.000000E+99

> <Gold.Protein.RotatedTorsions>
[ 6907 6896 6895 6894 ] final  129.91 input  -60.11 | X-H torsion
[ 7974 7965 7964 7962 ] final  107.34 input  175.53 | X-H torsion
[ 8008 7997 7996 7995 ] final   75.72 input   59.86 | X-H torsion
[ 10167 10162 10161 10158 ] final   21.33 input  -65.29 | X-H torsion
[ 10718 10713 10712 10709 ] final -170.58 input   66.30 | X-H torsion
[ 10763 10752 10751 10750 ] final  -55.55 input  -60.55 | X-H torsion
[ 11005 11000 10999 10996 ] final  127.85 input  -57.11 | X-H torsion

> <Gold.Protein.ActiveResidues>
 VAL166  LYS551  ARG553  GLY616  TRP617  ASP618  TYR619  PRO620  LYS621  CYS622 
 ASP623  PHE694  ASN695  SER759  ASP760  ASP761  ALA762  ILE779  LEU786  VAL792 
 PHE793  MET794  SER795  GLU796  ALA797  LYS798  CYS799  TRP800  GLU811  SER814 

> <Gold.Protein.RotatedAtoms>
  152.3578  133.6259  159.5992 H   0  0  0  0  0  0  0  0  0  0  0  0  # atno 6907 bound_to 6896
  150.7580  133.9472  159.3483 H   0  0  0  0  0  0  0  0  0  0  0  0  # atno 6908 bound_to 6896
  151.7314  135.0875  160.0352 H   0  0  0  0  0  0  0  0  0  0  0  0  # atno 6909 bound_to 6896
  145.2949  139.2588  143.3845 H   0  0  0  0  0  0  0  0  0  0  0  0  # atno 7974 bound_to 7965
  155.8170  140.3471  155.5491 H   0  0  0  0  0  0  0  0  0  0  0  0  # atno 8008 bound_to 7997
  155.8382  140.0937  157.1771 H   0  0  0  0  0  0  0  0  0  0  0  0  # atno 8009 bound_to 7997
  154.4004  140.1399  156.3683 H   0  0  0  0  0  0  0  0  0  0  0  0  # atno 8010 bound_to 7997
  140.5434  143.9636  150.6533 H   0  0  0  0  0  0  0  0  0  0  0  0  # atno 10167 bound_to 10162
  156.7283  130.9296  151.3102 H   0  0  0  0  0  0  0  0  0  0  0  0  # atno 10718 bound_to 10713
  154.1925  135.6425  153.5064 H   0  0  0  0  0  0  0  0  0  0  0  0  # atno 10763 bound_to 10752
  153.0031  135.5432  154.6400 H   0  0  0  0  0  0  0  0  0  0  0  0  # atno 10764 bound_to 10752
  154.5792  135.2923  155.0723 H   0  0  0  0  0  0  0  0  0  0  0  0  # atno 10765 bound_to 10752
  139.9529  134.9618  156.8915 H   0  0  0  0  0  0  0  0  0  0  0  0  # atno 11005 bound_to 11000
  146.3172  140.3449  142.8651 LP  0  0  0  0  0  0  0  0  0  0  0  0  # atno 17320 bound_to 7965
  144.9142  140.7793  143.5788 LP  0  0  0  0  0  0  0  0  0  0  0  0  # atno 17321 bound_to 7965
  140.3043  143.3240  152.0941 LP  0  0  0  0  0  0  0  0  0  0  0  0  # atno 17342 bound_to 10162
  139.4998  144.6677  151.6317 LP  0  0  0  0  0  0  0  0  0  0  0  0  # atno 17343 bound_to 10162
  157.6869  130.9195  150.0411 LP  0  0  0  0  0  0  0  0  0  0  0  0  # atno 17370 bound_to 10713
  156.1547  130.3643  149.9387 LP  0  0  0  0  0  0  0  0  0  0  0  0  # atno 17371 bound_to 10713
  140.5677  134.0474  155.7419 LP  0  0  0  0  0  0  0  0  0  0  0  0  # atno 17394 bound_to 11000
  141.1195  133.9484  157.2757 LP  0  0  0  0  0  0  0  0  0  0  0  0  # atno 17395 bound_to 11000

$$$$
