#       Name:                AV-unprocessed.smi:276
#       Creating user name   scv26
#       Creation time:       Thu Mar 26 21:33:35 2020


#       File generated by GOLD software.
#

@<TRIPOS>MOLECULE
AV-unprocessed.smi:276
    67    71     1
SMALL
NO_CHARGES


@<TRIPOS>ATOM
      1 ****        -5.4346  -1.3282   4.0764 C.3            1 S1                 0.0000
      2 ****        -4.3197  -1.9362   3.4488 O.3            1 S1                 0.0000
      3 ****        -3.4994  -1.0003   2.7676 C.3            1 S1                 0.0000
      4 ****        -4.0445  -0.5451   1.4077 C.3            1 S1                 0.0000
      5 ****        -2.6081  -0.6306   0.8537 C.3            1 S1                 0.0000
      6 ****        -1.9147   0.6621   0.9546 N.3            1 S1                 0.0000
      7 ****        -2.4193   1.7266   0.0930 C.3            1 S1                 0.0000
      8 ****        -0.5682   0.6073   0.8607 C.ar           1 S1                 0.0000
      9 ****         0.1440   1.2370   1.8278 N.ar           1 S1                 0.0000
     10 ****         1.4797   1.2116   1.7961 C.ar           1 S1                 0.0000
     11 ****         2.2832   0.6343   0.9001 N.ar           1 S1                 0.0000
     12 ****         1.5679   0.0169  -0.0834 C.ar           1 S1                 0.0000
     13 ****         0.1498  -0.0452  -0.1818 C.ar           1 S1                 0.0000
     14 ****        -0.2155  -0.7554  -1.3193 N.2            1 S1                 0.0000
     15 ****         0.9217  -1.0929  -1.8629 C.2            1 S1                 0.0000
     16 ****         2.0431  -0.6612  -1.1916 N.pl3          1 S1                 0.0000
     17 ****         3.4255  -0.8816  -1.5759 C.3            1 S1                 0.0000
     18 ****         4.1699   0.4173  -1.9557 C.3            1 S1                 0.0000
     19 ****         5.4854   0.0492  -2.3192 O.3            1 S1                 0.0000
     20 ****         3.5321   1.2158  -3.1160 C.3            1 S1                 0.0000
     21 ****         4.3415   2.4435  -3.5474 C.3            1 S1                 0.0000
     22 ****         3.2761   3.3378  -4.1365 C.3            1 S1                 0.0000
     23 ****         2.1182   3.0943  -3.1781 C.3            1 S1                 0.0000
     24 ****         2.2587   1.7458  -2.7441 O.3            1 S1                 0.0000
     25 ****        -2.3267  -1.6389   2.0016 C.3            1 S1                 0.0000
     26 ****        -2.3414  -3.1497   1.7020 C.3            1 S1                 0.0000
     27 ****        -1.3711  -3.3367   2.8716 C.3            1 S1                 0.0000
     28 ****        -0.9635  -1.8742   2.6795 C.3            1 S1                 0.0000
     29 ****        -6.0221  -2.0876   4.5920 H              1 S1                 0.0000
     30 ****        -6.0827  -0.8394   3.3481 H              1 S1                 0.0000
     31 ****        -5.1173  -0.5900   4.8138 H              1 S1                 0.0000
     32 ****        -3.1701  -0.1693   3.3953 H              1 S1                 0.0000
     33 ****        -4.7082  -1.2841   0.9555 H              1 S1                 0.0000
     34 ****        -4.5090   0.4405   1.4199 H              1 S1                 0.0000
     35 ****        -2.5743  -1.0781  -0.1399 H              1 S1                 0.0000
     36 ****        -1.7333   2.5745   0.0484 H              1 S1                 0.0000
     37 ****        -3.3711   2.1042   0.4646 H              1 S1                 0.0000
     38 ****        -2.5709   1.3596  -0.9229 H              1 S1                 0.0000
     39 ****         1.9760   1.7279   2.6044 H              1 S1                 0.0000
     40 ****         0.9728  -1.6603  -2.7806 H              1 S1                 0.0000
     41 ****         3.9298  -1.3749  -0.7438 H              1 S1                 0.0000
     42 ****         3.4427  -1.5831  -2.4113 H              1 S1                 0.0000
     43 ****         4.2443   1.0621  -1.0796 H              1 S1                 0.0000
     44 ****         5.4410  -0.5088  -3.0804 H              1 S1                 0.0000
     45 ****         3.3808   0.5678  -3.9810 H              1 S1                 0.0000
     46 ****         4.7938   2.9299  -2.6818 H              1 S1                 0.0000
     47 ****         5.1348   2.2029  -4.2557 H              1 S1                 0.0000
     48 ****         3.5738   4.3854  -4.1896 H              1 S1                 0.0000
     49 ****         3.0145   3.0013  -5.1406 H              1 S1                 0.0000
     50 ****         2.1994   3.7467  -2.3078 H              1 S1                 0.0000
     51 ****         1.1469   3.2654  -3.6427 H              1 S1                 0.0000
     52 ****        -3.3047  -3.6464   1.8208 H              1 S1                 0.0000
     53 ****        -1.8867  -3.3910   0.7396 H              1 S1                 0.0000
     54 ****        -1.8798  -3.5126   3.8209 H              1 S1                 0.0000
     55 ****        -0.5754  -4.0608   2.6956 H              1 S1                 0.0000
     56 ****        -0.1114  -1.7885   2.0049 H              1 S1                 0.0000
     57 ****        -0.8056  -1.3168   3.6031 H              1 S1                 0.0000
     58 ****        -4.6518  -2.6106   2.7894 LP             1 S1                 0.0000
     59 ****        -3.7701  -2.3952   4.1469 LP             1 S1                 0.0000
     60 ****        -2.1465   0.9080   1.8958 LP             1 S1                 0.0000
     61 ****        -0.3299   1.7200   2.5641 LP             1 S1                 0.0000
     62 ****         3.2821   0.6522   0.9443 LP             1 S1                 0.0000
     63 ****        -1.1380  -0.9606  -1.6461 LP             1 S1                 0.0000
     64 ****         5.9186  -0.4436  -1.5645 LP             1 S1                 0.0000
     65 ****         6.0183   0.8682  -2.5319 LP             1 S1                 0.0000
     66 ****         2.1690   1.7120  -1.7487 LP             1 S1                 0.0000
     67 ****         1.5394   1.1914  -3.1626 LP             1 S1                 0.0000
@<TRIPOS>BOND
    1    1    2 1     
    2    1   29 1     
    3    1   30 1     
    4    1   31 1     
    5    2    3 1     
    6    3   25 1     
    7    3    4 1     
    8    3   32 1     
    9    4    5 1     
   10    4   33 1     
   11    4   34 1     
   12    5    6 1     
   13    5   25 1     
   14    5   35 1     
   15    6    7 1     
   16    6    8 1     
   17    7   36 1     
   18    7   37 1     
   19    7   38 1     
   20    8   13 ar    
   21    8    9 ar    
   22    9   10 ar    
   23   10   11 ar    
   24   10   39 1     
   25   11   12 ar    
   26   12   16 1     
   27   12   13 ar    
   28   13   14 1     
   29   14   15 2     
   30   15   16 1     
   31   15   40 1     
   32   16   17 1     
   33   17   18 1     
   34   17   41 1     
   35   17   42 1     
   36   18   19 1     
   37   18   20 1     
   38   18   43 1     
   39   19   44 1     
   40   20   24 1     
   41   20   21 1     
   42   20   45 1     
   43   21   22 1     
   44   21   46 1     
   45   21   47 1     
   46   22   23 1     
   47   22   48 1     
   48   22   49 1     
   49   23   24 1     
   50   23   50 1     
   51   23   51 1     
   52   25   28 1     
   53   25   26 1     
   54   26   27 1     
   55   26   52 1     
   56   26   53 1     
   57   27   28 1     
   58   27   54 1     
   59   27   55 1     
   60   28   56 1     
   61   28   57 1     
   62    2   58 1     
   63    2   59 1     
   64    6   60 1     
   65    9   61 1     
   66   11   62 1     
   67   14   63 1     
   68   19   64 1     
   69   19   65 1     
   70   24   66 1     
   71   24   67 1     
@<TRIPOS>SUBSTRUCTURE
      1 S1             1
@<TRIPOS>SET
LONE_PAIRS      STATIC     ATOMS    <user>   **** ""
10 58 59 60 61 62 63 64 65 66 67
DONOR_HYDROGENS      STATIC     ATOMS    <user>   **** ""
1 44
ATOM$BLUE        STATIC     ATOMS    COLORGROUP SYSTEM
10 58 59 60 61 62 63 64 65 66 67
ATOM$RED        STATIC     ATOMS    COLORGROUP SYSTEM
1 44
