AV-unprocessed.smi:2997|AV-procd|sdf|11415|dock4
  -GOLD-   2272016333D 1   1.00000     0.00000
 Structure written by MMmdl.
 39 41  0  0  0  0  0  0  0  0  2 V2000
  152.2377  144.4252  161.0980 C   0  0  0  0  0  0  0  0  0  0  0  0
  152.0888  143.4089  159.9785 C   0  0  0  0  0  0  0  0  0  0  0  0
  151.3409  143.7702  158.8348 C   0  0  0  0  0  0  0  0  0  0  0  0
  151.2203  142.8183  157.8294 C   0  0  0  0  0  0  0  0  0  0  0  0
  150.5592  142.8630  156.5999 N   0  3  0  0  0  0  0  0  0  0  0  0
  150.7224  141.6757  155.9527 C   0  0  0  0  0  0  0  0  0  0  0  0
  151.4790  140.8746  156.7510 N   0  0  0  0  0  0  0  0  0  0  0  0
  151.9442  139.4972  156.5431 C   0  0  0  0  0  0  0  0  0  0  0  0
  151.6449  138.9778  155.1240 C   0  0  1  0  0  0  0  0  0  0  0  0
  152.6660  138.0824  154.7235 O   0  0  0  0  0  0  0  0  0  0  0  0
  150.2724  138.2831  155.0408 C   0  0  0  0  0  0  0  0  0  0  0  0
  149.1666  139.2224  155.1013 N   0  0  0  0  0  0  0  0  0  0  0  0
  148.8081  140.1868  154.1832 C   0  0  0  0  0  0  0  0  0  0  0  0
  147.7028  140.8220  154.6723 C   0  0  0  0  0  0  0  0  0  0  0  0
  147.4559  140.1653  155.9105 C   0  0  0  0  0  0  0  0  0  0  0  0
  148.3314  139.2057  156.1627 N   0  0  0  0  0  0  0  0  0  0  0  0
  151.8129  141.5451  157.9321 C   0  0  0  0  0  0  0  0  0  0  0  0
  152.5531  141.1724  159.0511 C   0  0  0  0  0  0  0  0  0  0  0  0
  152.6871  142.1264  160.0850 C   0  0  0  0  0  0  0  0  0  0  0  0
  153.4873  141.7481  161.3200 C   0  0  0  0  0  0  0  0  0  0  0  0
  151.7475  145.3670  160.8495 H   0  0  0  0  0  0  0  0  0  0  0  0
  153.2902  144.6381  161.2862 H   0  0  0  0  0  0  0  0  0  0  0  0
  151.7897  144.0478  162.0175 H   0  0  0  0  0  0  0  0  0  0  0  0
  150.8815  144.7439  158.7474 H   0  0  0  0  0  0  0  0  0  0  0  0
  150.3200  141.4152  154.9844 H   0  0  0  0  0  0  0  0  0  0  0  0
  153.0174  139.4783  156.7378 H   0  0  0  0  0  0  0  0  0  0  0  0
  151.4811  138.8609  157.2982 H   0  0  0  0  0  0  0  0  0  0  0  0
  151.6559  139.8185  154.4293 H   0  0  0  0  0  0  0  0  0  0  0  0
  152.9081  138.2810  153.8321 H   0  0  0  0  0  0  0  0  0  0  0  0
  150.1906  137.7078  154.1176 H   0  0  0  0  0  0  0  0  0  0  0  0
  150.1601  137.5726  155.8611 H   0  0  0  0  0  0  0  0  0  0  0  0
  149.3637  140.3408  153.2699 H   0  0  0  0  0  0  0  0  0  0  0  0
  147.1542  141.6324  154.2157 H   0  0  0  0  0  0  0  0  0  0  0  0
  146.6710  140.3553  156.6277 H   0  0  0  0  0  0  0  0  0  0  0  0
  153.0058  140.1951  159.1322 H   0  0  0  0  0  0  0  0  0  0  0  0
  153.8782  140.7328  161.2467 H   0  0  0  0  0  0  0  0  0  0  0  0
  152.8621  141.8001  162.2117 H   0  0  0  0  0  0  0  0  0  0  0  0
  154.3344  142.4219  161.4496 H   0  0  0  0  0  0  0  0  0  0  0  0
  150.0323  143.6432  156.2287 H   0  0  0  0  0  0  0  0  0  0  0  0
  1  2  1  0  0  0  0
  1 21  1  0  0  0  0
  1 22  1  0  0  0  0
  1 23  1  0  0  0  0
  2 19  1  0  0  0  0
  2  3  2  0  0  0  0
  3  4  1  0  0  0  0
  3 24  1  0  0  0  0
  4 17  2  0  0  0  0
  4  5  1  0  0  0  0
  5  6  2  0  0  0  0
  5 39  1  0  0  0  0
  6  7  1  0  0  0  0
  6 25  1  0  0  0  0
  7  8  1  0  0  0  0
  7 17  1  0  0  0  0
  8  9  1  0  0  0  0
  8 26  1  0  0  0  0
  8 27  1  0  0  0  0
  9 10  1  0  0  0  0
  9 11  1  0  0  0  0
  9 28  1  0  0  0  0
 10 29  1  0  0  0  0
 11 12  1  0  0  0  0
 11 30  1  0  0  0  0
 11 31  1  0  0  0  0
 12 16  1  0  0  0  0
 12 13  1  0  0  0  0
 13 14  2  0  0  0  0
 13 32  1  0  0  0  0
 14 15  1  0  0  0  0
 14 33  1  0  0  0  0
 15 16  2  0  0  0  0
 15 34  1  0  0  0  0
 17 18  1  0  0  0  0
 18 19  2  0  0  0  0
 18 35  1  0  0  0  0
 19 20  1  0  0  0  0
 20 36  1  0  0  0  0
 20 37  1  0  0  0  0
 20 38  1  0  0  0  0
M  CHG  1   5   1
M  END
> <s_m_source_file>
AV-unprocessed.smi

> <i_m_source_file_index>
2997

> <i_lp_mmshare_version>
43012

> <i_f3d_flags>
0

> <s_epik_input>
W0NIM11jKFtjSF0xKWMoW0NIM10pW2NIXWMoYzEyKW4oW2NIXW4yKVtDSDJdW0NASF0oW09IXSlbQ0gyXW4zW2NIXVtjSF1bY0hdbjM=

> <s_epik_cmdline>
J2VwaWtfcHl0aG9uJywgJy1waCcsICc3LjAnLCAnLXRuJywgJzgnLCAnLW1hJywgJzIwMCcsICctbWV0YWxfYmluZGluZycsICctaW1hZScsICc8aW5maWxlLm1hZT4nLCAnLW9tYWUnLCAnPG91dGZpbGUubWFlPic=

> <r_lp_tautomer_probability>
1

> <r_epik_Ionization_Penalty>
1.09215

> <r_epik_Ionization_Penalty_Charging>
1.09214

> <r_epik_Ionization_Penalty_Neutral>
1.42327e-05

> <r_epik_State_Penalty>
1.14852

> <r_epik_Charging_Adjusted_Penalty>
2.24066

> <i_epik_Tot_Q>
1

> <i_epik_Tot_abs_Q>
1

> <r_epik_Metal_State_Penalty>
1.23686

> <b_epik_Metal_Only>
0

> <s_lp_Force_Field>
OPLS_2005

> <r_lp_Energy>
12.1799

> <b_lp_Chiralities_Consistent>
1

> <s_lp_Variant>
AV-unprocessed.smi:2997-4

> <Gold.Version>
5.8.1

> <Gold.Id.Protein>
6NUR|6NUR_protein|mol2

> <Gold.PLP.Fitness>
51.1350

> <Gold.PLP.PLP>
-43.2966

> <Gold.PLP.part.hbond>
-1.5338

> <Gold.PLP.part.metal>
0.0000

> <Gold.PLP.part.buried>
-5.1509

> <Gold.PLP.part.nonpolar>
-36.0673

> <Gold.PLP.part.repulsive>
0.0647

> <Gold.PLP.ligand.clash>
0.0000

> <Gold.PLP.ligand.torsion>
0.5930

> <Gold.PLP.Chemscore.Hbond>
2.0000

> <Gold.PLP.Chemscore.CHOScore>
1.0000

> <Gold.PLP.Chemscore.Metal>
0.0000

> <Gold.Chemscore.Hbonds>
donor molecule, donor type, donor heavy atom, donor atom, acceptor molecule, acceptor atom, score
      L1  H     5    39       P1  8028  2.00
      L1  C    13    32       P1  7957  1.00

> <Gold.PLP.Chemscore.Internal.Correction>
0.0243

> <Gold.Rescore>
     Score         DG    S(hbond)    S(metal)    S(lipo)     H(rot)  DE(clash)    DE(int)     intcor
     15.76     -16.63       1.00        0.00     115.17       2.21       0.23       0.64       ----

> <Gold.Chemscore.Fitness>
15.7584

> <Gold.Chemscore.DG>
-16.6275

> <Gold.Chemscore.ZeroCoef>
-5.4800

> <Gold.Chemscore.Hbond>
0.9992

> <Gold.Chemscore.Metal>
0.0000

> <Gold.Chemscore.Lipo>
115.1725

> <Gold.Chemscore.Internal_Hbond>
0.0000

> <Gold.Chemscore.DEClash>
0.2334

> <Gold.Chemscore.DEInternal>
0.6356

> <Gold.Chemscore.Rot>
2.2129

> <Gold.Chemscore.Internal.Correction>
   9.000000E+99

> <Gold.Chemscore.Hbonds>
donor molecule, donor type, donor heavy atom, donor atom, acceptor molecule, acceptor atom, score
      L1  H     5    39       P1  8028  1.00

> <Gold.Chemscore.Hbond.Weighted>
-3.3372

> <Gold.Chemscore.Metal.Weighted>
-0.0000

> <Gold.Chemscore.Lipo.Weighted>
-13.4752

> <Gold.Chemscore.Internal_Hbond.Weighted>
0.0000

> <Gold.Chemscore.DEClash.Weighted>
0.2334

> <Gold.Chemscore.DEInternal.Weighted>
0.6356

> <Gold.Chemscore.Rot.Weighted>
5.6649

> <Gold.Chemscore.Internal.Correction.Weighted>
   9.000000E+99

> <Gold.Protein.RotatedTorsions>
[ 6907 6896 6895 6894 ] final  100.00 input  -60.11 | X-H torsion
[ 7974 7965 7964 7962 ] final  -92.09 input  175.53 | X-H torsion
[ 8008 7997 7996 7995 ] final   -0.97 input   59.86 | X-H torsion
[ 10167 10162 10161 10158 ] final   -0.48 input  -65.29 | X-H torsion
[ 10718 10713 10712 10709 ] final -172.14 input   66.30 | X-H torsion
[ 10763 10752 10751 10750 ] final  -33.93 input  -60.55 | X-H torsion
[ 11005 11000 10999 10996 ] final  178.75 input  -57.11 | X-H torsion

> <Gold.Protein.ActiveResidues>
 VAL166  LYS551  ARG553  GLY616  TRP617  ASP618  TYR619  PRO620  LYS621  CYS622 
 ASP623  PHE694  ASN695  SER759  ASP760  ASP761  ALA762  ILE779  LEU786  VAL792 
 PHE793  MET794  SER795  GLU796  ALA797  LYS798  CYS799  TRP800  GLU811  SER814 

> <Gold.Protein.RotatedAtoms>
  152.5381  134.0343  159.8038 H   0  0  0  0  0  0  0  0  0  0  0  0  # atno 6907 bound_to 6896
  151.0509  133.5617  159.2649 H   0  0  0  0  0  0  0  0  0  0  0  0  # atno 6908 bound_to 6896
  151.2552  135.0643  159.9131 H   0  0  0  0  0  0  0  0  0  0  0  0  # atno 6909 bound_to 6896
  145.4044  140.9540  143.2269 H   0  0  0  0  0  0  0  0  0  0  0  0  # atno 7974 bound_to 7965
  154.6520  140.2571  155.7203 H   0  0  0  0  0  0  0  0  0  0  0  0  # atno 8008 bound_to 7997
  156.2579  140.2866  156.0879 H   0  0  0  0  0  0  0  0  0  0  0  0  # atno 8009 bound_to 7997
  155.1436  140.0381  157.2794 H   0  0  0  0  0  0  0  0  0  0  0  0  # atno 8010 bound_to 7997
  140.6769  143.6890  150.8043 H   0  0  0  0  0  0  0  0  0  0  0  0  # atno 10167 bound_to 10162
  156.7511  130.9378  151.3114 H   0  0  0  0  0  0  0  0  0  0  0  0  # atno 10718 bound_to 10713
  153.8383  135.6860  153.4806 H   0  0  0  0  0  0  0  0  0  0  0  0  # atno 10763 bound_to 10752
  153.1469  135.4634  154.9577 H   0  0  0  0  0  0  0  0  0  0  0  0  # atno 10764 bound_to 10752
  154.7856  135.3283  154.7839 H   0  0  0  0  0  0  0  0  0  0  0  0  # atno 10765 bound_to 10752
  140.3985  134.6798  157.4548 H   0  0  0  0  0  0  0  0  0  0  0  0  # atno 11005 bound_to 11000
  144.8352  139.5562  143.6925 LP  0  0  0  0  0  0  0  0  0  0  0  0  # atno 17320 bound_to 7965
  146.2736  139.6696  142.9279 LP  0  0  0  0  0  0  0  0  0  0  0  0  # atno 17321 bound_to 7965
  140.0584  143.5179  152.2640 LP  0  0  0  0  0  0  0  0  0  0  0  0  # atno 17342 bound_to 10162
  139.6067  144.7598  151.3046 LP  0  0  0  0  0  0  0  0  0  0  0  0  # atno 17343 bound_to 10162
  157.6776  130.9109  150.0189 LP  0  0  0  0  0  0  0  0  0  0  0  0  # atno 17370 bound_to 10713
  156.1400  130.3642  149.9597 LP  0  0  0  0  0  0  0  0  0  0  0  0  # atno 17371 bound_to 10713
  140.0354  134.6345  155.9051 LP  0  0  0  0  0  0  0  0  0  0  0  0  # atno 17394 bound_to 11000
  141.1865  133.6557  156.5243 LP  0  0  0  0  0  0  0  0  0  0  0  0  # atno 17395 bound_to 11000

$$$$
