AV-unprocessed.smi:229|AV-procd|sdf|1760|dock8
  -GOLD-   2262020293D 1   1.00000     0.00000
 Structure written by MMmdl.
 58 62  0  0  0  0  0  0  0  0  1 V2000
  152.0218  131.4244  156.7468 C   0  0  0  0  0  0  0  0  0  0  0  0
  150.9934  132.0103  157.7223 C   0  0  0  0  0  0  0  0  0  0  0  0
  150.2468  133.2231  157.1473 C   0  0  1  0  0  0  0  0  0  0  0  0
  151.2029  134.3843  156.8271 C   0  0  0  0  0  0  0  0  0  0  0  0
  150.4665  135.4689  156.1877 N   0  0  0  0  0  0  0  0  0  0  0  0
  151.0487  136.6924  156.1161 C   0  0  0  0  0  0  0  0  0  0  0  0
  151.9203  136.9733  155.1104 N   0  0  0  0  0  0  0  0  0  0  0  0
  152.4985  138.1757  155.0330 C   0  0  0  0  0  0  0  0  0  0  0  0
  152.3541  139.2252  155.8445 N   0  0  0  0  0  0  0  0  0  0  0  0
  151.4867  138.9476  156.8591 C   0  0  0  0  0  0  0  0  0  0  0  0
  150.7954  137.7207  157.0677 C   0  0  0  0  0  0  0  0  0  0  0  0
  150.0111  137.8103  158.2124 N   0  0  0  0  0  0  0  0  0  0  0  0
  150.2190  139.0225  158.6490 C   0  0  0  0  0  0  0  0  0  0  0  0
  151.0961  139.7721  157.8986 N   0  0  0  0  0  0  0  0  0  0  0  0
  151.5192  141.1370  158.1579 C   0  0  0  0  0  0  0  0  0  0  0  0
  150.3685  142.1501  157.9971 C   0  0  2  0  0  0  0  0  0  0  0  0
  150.0543  142.2830  156.6230 O   0  0  0  0  0  0  0  0  0  0  0  0
  150.7180  143.5227  158.6087 C   0  0  1  0  0  0  0  0  0  0  0  0
  151.5567  143.5259  159.8915 C   0  0  0  0  0  0  0  0  0  0  0  0
  152.1967  144.8941  159.8219 C   0  0  0  0  0  0  0  0  0  0  0  0
  152.4748  145.0293  158.3271 C   0  0  0  0  0  0  0  0  0  0  0  0
  151.4125  144.3420  157.6715 O   0  0  0  0  0  0  0  0  0  0  0  0
  149.7595  135.0414  154.9865 C   0  0  0  0  0  0  0  0  0  0  0  0
  148.8323  133.8433  155.2942 C   0  0  2  0  0  0  0  0  0  0  0  0
  148.2576  133.2512  154.0108 C   0  0  0  0  0  0  0  0  0  0  0  0
  146.8963  133.9196  153.8947 C   0  0  0  0  0  0  0  0  0  0  0  0
  146.4494  133.9244  155.2372 O   0  0  0  0  0  0  0  0  0  0  0  0
  147.5564  134.2483  156.0701 C   0  0  0  0  0  0  0  0  0  0  0  0
  149.5821  132.8155  155.9494 O   0  0  0  0  0  0  0  0  0  0  0  0
  152.5223  130.5602  157.1836 H   0  0  0  0  0  0  0  0  0  0  0  0
  152.7874  132.1570  156.4908 H   0  0  0  0  0  0  0  0  0  0  0  0
  151.5455  131.1001  155.8213 H   0  0  0  0  0  0  0  0  0  0  0  0
  150.2745  131.2318  157.9800 H   0  0  0  0  0  0  0  0  0  0  0  0
  151.4896  132.2898  158.6523 H   0  0  0  0  0  0  0  0  0  0  0  0
  149.5179  133.5613  157.8842 H   0  0  0  0  0  0  0  0  0  0  0  0
  151.6704  134.7371  157.7475 H   0  0  0  0  0  0  0  0  0  0  0  0
  152.0002  134.0465  156.1633 H   0  0  0  0  0  0  0  0  0  0  0  0
  153.1743  138.3167  154.2024 H   0  0  0  0  0  0  0  0  0  0  0  0
  149.7433  139.4025  159.5415 H   0  0  0  0  0  0  0  0  0  0  0  0
  151.9232  141.1819  159.1699 H   0  0  0  0  0  0  0  0  0  0  0  0
  152.3416  141.3797  157.4837 H   0  0  0  0  0  0  0  0  0  0  0  0
  149.4869  141.7582  158.5061 H   0  0  0  0  0  0  0  0  0  0  0  0
  149.9172  143.1988  156.4353 H   0  0  0  0  0  0  0  0  0  0  0  0
  149.7877  144.0550  158.8141 H   0  0  0  0  0  0  0  0  0  0  0  0
  150.9581  143.3794  160.7908 H   0  0  0  0  0  0  0  0  0  0  0  0
  152.3335  142.7612  159.8714 H   0  0  0  0  0  0  0  0  0  0  0  0
  151.4872  145.6578  160.1438 H   0  0  0  0  0  0  0  0  0  0  0  0
  153.0953  144.9805  160.4334 H   0  0  0  0  0  0  0  0  0  0  0  0
  152.5379  146.0689  158.0050 H   0  0  0  0  0  0  0  0  0  0  0  0
  153.4142  144.5375  158.0709 H   0  0  0  0  0  0  0  0  0  0  0  0
  149.1834  135.8525  154.5427 H   0  0  0  0  0  0  0  0  0  0  0  0
  150.5057  134.7517  154.2451 H   0  0  0  0  0  0  0  0  0  0  0  0
  148.8857  133.4082  153.1334 H   0  0  0  0  0  0  0  0  0  0  0  0
  148.1142  132.1757  154.1245 H   0  0  0  0  0  0  0  0  0  0  0  0
  146.9878  134.9436  153.5294 H   0  0  0  0  0  0  0  0  0  0  0  0
  146.2117  133.3765  153.2432 H   0  0  0  0  0  0  0  0  0  0  0  0
  147.4471  133.7218  157.0178 H   0  0  0  0  0  0  0  0  0  0  0  0
  147.5423  135.3181  156.2830 H   0  0  0  0  0  0  0  0  0  0  0  0
  1  2  1  0  0  0  0
  1 30  1  0  0  0  0
  1 31  1  0  0  0  0
  1 32  1  0  0  0  0
  2  3  1  0  0  0  0
  2 33  1  0  0  0  0
  2 34  1  0  0  0  0
  3 29  1  0  0  0  0
  3  4  1  0  0  0  0
  3 35  1  0  0  0  0
  4  5  1  0  0  0  0
  4 36  1  0  0  0  0
  4 37  1  0  0  0  0
  5  6  1  0  0  0  0
  5 23  1  0  0  0  0
  6 11  1  0  0  0  0
  6  7  2  0  0  0  0
  7  8  1  0  0  0  0
  8  9  2  0  0  0  0
  8 38  1  0  0  0  0
  9 10  1  0  0  0  0
 10 14  1  0  0  0  0
 10 11  2  0  0  0  0
 11 12  1  0  0  0  0
 12 13  2  0  0  0  0
 13 14  1  0  0  0  0
 13 39  1  0  0  0  0
 14 15  1  0  0  0  0
 15 16  1  0  0  0  0
 15 40  1  0  0  0  0
 15 41  1  0  0  0  0
 16 17  1  0  0  0  0
 16 18  1  0  0  0  0
 16 42  1  0  0  0  0
 17 43  1  0  0  0  0
 18 22  1  0  0  0  0
 18 19  1  0  0  0  0
 18 44  1  0  0  0  0
 19 20  1  0  0  0  0
 19 45  1  0  0  0  0
 19 46  1  0  0  0  0
 20 21  1  0  0  0  0
 20 47  1  0  0  0  0
 20 48  1  0  0  0  0
 21 22  1  0  0  0  0
 21 49  1  0  0  0  0
 21 50  1  0  0  0  0
 23 24  1  0  0  0  0
 23 51  1  0  0  0  0
 23 52  1  0  0  0  0
 24 28  1  0  0  0  0
 24 25  1  0  0  0  0
 24 29  1  0  0  0  0
 25 26  1  0  0  0  0
 25 53  1  0  0  0  0
 25 54  1  0  0  0  0
 26 27  1  0  0  0  0
 26 55  1  0  0  0  0
 26 56  1  0  0  0  0
 27 28  1  0  0  0  0
 28 57  1  0  0  0  0
 28 58  1  0  0  0  0
M  END
> <s_m_source_file>
AV-unprocessed.smi

> <i_m_source_file_index>
229

> <i_lp_mmshare_version>
43012

> <i_f3d_flags>
0

> <s_epik_input>
W0NIMl0xT1tDSDJdW0NIMl1bQ0BdMTJbQ0gyXU4oW0NIMl1bQ0BIXShPMilbQ0gyXVtDSDNdKWMobltjSF1uMyljKGMzNCluW2NIXW40W0NIMl1bQ0BIXShbT0hdKVtDQEBIXTVbQ0gyXVtDSDJdW0NIMl1PNQ==

> <s_epik_cmdline>
J2VwaWtfcHl0aG9uJywgJy1waCcsICc3LjAnLCAnLXRuJywgJzgnLCAnLW1hJywgJzIwMCcsICctbWV0YWxfYmluZGluZycsICctaW1hZScsICc8aW5maWxlLm1hZT4nLCAnLW9tYWUnLCAnPG91dGZpbGUubWFlPic=

> <r_lp_tautomer_probability>
1

> <r_epik_Ionization_Penalty>
0.00318402

> <r_epik_Ionization_Penalty_Charging>
0

> <r_epik_Ionization_Penalty_Neutral>
0.00318402

> <r_epik_State_Penalty>
0.00215642

> <r_epik_Charging_Adjusted_Penalty>
0.00215642

> <i_epik_Tot_Q>
0

> <i_epik_Tot_abs_Q>
0

> <r_epik_Metal_State_Penalty>
-0

> <b_epik_Metal_Only>
0

> <s_lp_Force_Field>
OPLS_2005

> <r_lp_Energy>
56.4449

> <b_lp_Chiralities_Consistent>
1

> <s_lp_Variant>
AV-unprocessed.smi:229-14

> <Gold.Version>
5.8.1

> <Gold.Id.Protein>
6NUR|6NUR_protein|mol2

> <Gold.PLP.Fitness>
49.3128

> <Gold.PLP.PLP>
-43.1901

> <Gold.PLP.part.hbond>
-2.9997

> <Gold.PLP.part.metal>
0.0000

> <Gold.PLP.part.buried>
-6.5000

> <Gold.PLP.part.nonpolar>
-34.4109

> <Gold.PLP.part.repulsive>
0.3499

> <Gold.PLP.ligand.clash>
0.0000

> <Gold.PLP.ligand.torsion>
1.0229

> <Gold.PLP.Chemscore.Hbond>
2.5919

> <Gold.PLP.Chemscore.CHOScore>
0.0000

> <Gold.PLP.Chemscore.Metal>
0.0000

> <Gold.Chemscore.Hbonds>
donor molecule, donor type, donor heavy atom, donor atom, acceptor molecule, acceptor atom, score
      L1  H    17    43       P1  8028  1.00
      P1  H  7997  8008       L1     9  0.29
      P1  H 10752 10765       L1     7  0.99

> <Gold.PLP.Chemscore.Internal.Correction>
0.3929

> <Gold.Rescore>
     Score         DG    S(hbond)    S(metal)    S(lipo)     H(rot)  DE(clash)    DE(int)     intcor
     16.24     -17.53       1.79        0.00     105.72       2.46       0.11       1.17       ----

> <Gold.Chemscore.Fitness>
16.2415

> <Gold.Chemscore.DG>
-17.5288

> <Gold.Chemscore.ZeroCoef>
-5.4800

> <Gold.Chemscore.Hbond>
1.7888

> <Gold.Chemscore.Metal>
0.0000

> <Gold.Chemscore.Lipo>
105.7214

> <Gold.Chemscore.Internal_Hbond>
0.0000

> <Gold.Chemscore.DEClash>
0.1128

> <Gold.Chemscore.DEInternal>
1.1745

> <Gold.Chemscore.Rot>
2.4591

> <Gold.Chemscore.Internal.Correction>
   9.000000E+99

> <Gold.Chemscore.Hbonds>
donor molecule, donor type, donor heavy atom, donor atom, acceptor molecule, acceptor atom, score
      L1  H    17    43       P1  8028  0.94
      P1  H  7997  8008       L1     9  0.12
      P1  H 10752 10765       L1     7  0.69

> <Gold.Chemscore.Hbond.Weighted>
-5.9747

> <Gold.Chemscore.Metal.Weighted>
-0.0000

> <Gold.Chemscore.Lipo.Weighted>
-12.3694

> <Gold.Chemscore.Internal_Hbond.Weighted>
0.0000

> <Gold.Chemscore.DEClash.Weighted>
0.1128

> <Gold.Chemscore.DEInternal.Weighted>
1.1745

> <Gold.Chemscore.Rot.Weighted>
6.2953

> <Gold.Chemscore.Internal.Correction.Weighted>
   9.000000E+99

> <Gold.Protein.RotatedTorsions>
[ 6907 6896 6895 6894 ] final  -50.25 input  -60.11 | X-H torsion
[ 7974 7965 7964 7962 ] final    8.20 input  175.53 | X-H torsion
[ 8008 7997 7996 7995 ] final  -14.62 input   59.86 | X-H torsion
[ 10167 10162 10161 10158 ] final   21.14 input  -65.29 | X-H torsion
[ 10718 10713 10712 10709 ] final  -25.99 input   66.30 | X-H torsion
[ 10763 10752 10751 10750 ] final -169.11 input  -60.55 | X-H torsion
[ 11005 11000 10999 10996 ] final -107.83 input  -57.11 | X-H torsion

> <Gold.Protein.ActiveResidues>
 VAL166  LYS551  ARG553  GLY616  TRP617  ASP618  TYR619  PRO620  LYS621  CYS622 
 ASP623  PHE694  ASN695  SER759  ASP760  ASP761  ALA762  ILE779  LEU786  VAL792 
 PHE793  MET794  SER795  GLU796  ALA797  LYS798  CYS799  TRP800  GLU811  SER814 

> <Gold.Protein.RotatedAtoms>
  150.8726  134.8102  159.7165 H   0  0  0  0  0  0  0  0  0  0  0  0  # atno 6907 bound_to 6896
  152.4724  134.4923  159.9709 H   0  0  0  0  0  0  0  0  0  0  0  0  # atno 6908 bound_to 6896
  151.5009  133.3466  159.2904 H   0  0  0  0  0  0  0  0  0  0  0  0  # atno 6909 bound_to 6896
  146.2419  139.9968  142.8420 H   0  0  0  0  0  0  0  0  0  0  0  0  # atno 7974 bound_to 7965
  154.5196  140.2218  155.9002 H   0  0  0  0  0  0  0  0  0  0  0  0  # atno 8008 bound_to 7997
  156.1646  140.3135  155.8832 H   0  0  0  0  0  0  0  0  0  0  0  0  # atno 8009 bound_to 7997
  155.3682  140.0465  157.3036 H   0  0  0  0  0  0  0  0  0  0  0  0  # atno 8010 bound_to 7997
  140.5450  143.9611  150.6542 H   0  0  0  0  0  0  0  0  0  0  0  0  # atno 10167 bound_to 10162
  156.4571  130.4496  149.6952 H   0  0  0  0  0  0  0  0  0  0  0  0  # atno 10718 bound_to 10713
  154.6558  135.2918  154.9930 H   0  0  0  0  0  0  0  0  0  0  0  0  # atno 10763 bound_to 10752
  154.1007  135.6577  153.4871 H   0  0  0  0  0  0  0  0  0  0  0  0  # atno 10764 bound_to 10752
  153.0401  135.5242  154.7486 H   0  0  0  0  0  0  0  0  0  0  0  0  # atno 10765 bound_to 10752
  141.0933  133.9015  157.2022 H   0  0  0  0  0  0  0  0  0  0  0  0  # atno 11005 bound_to 11000
  145.1452  140.9593  143.4465 LP  0  0  0  0  0  0  0  0  0  0  0  0  # atno 17320 bound_to 7965
  145.0258  139.3384  143.6049 LP  0  0  0  0  0  0  0  0  0  0  0  0  # atno 17321 bound_to 7965
  140.3021  143.3253  152.0961 LP  0  0  0  0  0  0  0  0  0  0  0  0  # atno 17342 bound_to 10162
  139.5003  144.6690  151.6288 LP  0  0  0  0  0  0  0  0  0  0  0  0  # atno 17343 bound_to 10162
  156.3755  130.7552  151.2540 LP  0  0  0  0  0  0  0  0  0  0  0  0  # atno 17370 bound_to 10713
  157.7500  131.0311  150.4165 LP  0  0  0  0  0  0  0  0  0  0  0  0  # atno 17371 bound_to 10713
  139.9764  135.0112  156.9642 LP  0  0  0  0  0  0  0  0  0  0  0  0  # atno 17394 bound_to 11000
  140.5199  134.0918  155.7289 LP  0  0  0  0  0  0  0  0  0  0  0  0  # atno 17395 bound_to 11000

$$$$
