AV-unprocessed.smi:27|AV-procd|sdf|187|dock3
  -GOLD-   2262015453D 1   1.00000     0.00000
 Structure written by MMmdl.
 53 56  0  0  0  0  0  0  0  0  1 V2000
  148.6386  136.5217  156.4800 O   0  0  0  0  0  0  0  0  0  0  0  0
  149.0766  136.5612  155.3312 C   0  0  0  0  0  0  0  0  0  0  0  0
  150.2742  137.4739  155.0054 C   0  0  0  0  0  0  0  0  0  0  0  0
  150.0102  138.9193  155.2071 N   0  0  0  0  0  0  0  0  0  0  0  0
  149.0256  139.5483  154.4063 C   0  0  0  0  0  0  0  0  0  0  0  0
  148.3740  138.9124  153.5769 O   0  0  0  0  0  0  0  0  0  0  0  0
  148.8601  140.9804  154.6233 C   0  0  0  0  0  0  0  0  0  0  0  0
  147.9322  141.6552  153.9237 F   0  0  0  0  0  0  0  0  0  0  0  0
  149.6279  141.6443  155.5122 C   0  0  0  0  0  0  0  0  0  0  0  0
  150.6028  141.0229  156.2745 N   0  0  0  0  0  0  0  0  0  0  0  0
  151.5278  141.7731  157.2121 C   0  0  2  0  0  0  0  0  0  0  0  0
  151.4376  141.3847  158.6903 C   0  0  0  0  0  0  0  0  0  0  0  0
  152.0286  142.6260  159.3174 C   0  0  0  0  0  0  0  0  0  0  0  0
  151.4282  143.7255  158.4415 C   0  0  0  0  0  0  0  0  0  0  0  0
  151.1913  143.1280  157.1673 O   0  0  0  0  0  0  0  0  0  0  0  0
  150.8015  139.6307  156.1409 C   0  0  0  0  0  0  0  0  0  0  0  0
  151.6606  139.0512  156.8092 O   0  0  0  0  0  0  0  0  0  0  0  0
  148.5584  135.8407  154.3239 N   0  0  0  0  0  0  0  0  0  0  0  0
  147.4459  134.8992  154.3911 C   0  0  0  0  0  0  0  0  0  0  0  0
  147.9431  133.4666  154.5586 C   0  0  0  0  0  0  0  0  0  0  0  0
  147.0479  132.4027  154.8243 C   0  0  0  0  0  0  0  0  0  0  0  0
  147.5291  131.0879  154.9737 C   0  0  0  0  0  0  0  0  0  0  0  0
  148.9074  130.8248  154.8642 C   0  0  0  0  0  0  0  0  0  0  0  0
  149.8051  131.8786  154.6092 C   0  0  0  0  0  0  0  0  0  0  0  0
  149.3247  133.1940  154.4584 C   0  0  0  0  0  0  0  0  0  0  0  0
  146.5159  135.0146  153.1881 C   0  0  0  0  0  0  0  0  0  0  0  0
  146.2824  133.9092  152.3376 C   0  0  0  0  0  0  0  0  0  0  0  0
  145.4167  134.0322  151.2337 C   0  0  0  0  0  0  0  0  0  0  0  0
  144.7745  135.2579  150.9741 C   0  0  0  0  0  0  0  0  0  0  0  0
  144.9963  136.3602  151.8212 C   0  0  0  0  0  0  0  0  0  0  0  0
  145.8630  136.2383  152.9246 C   0  0  0  0  0  0  0  0  0  0  0  0
  151.1277  137.1409  155.5977 H   0  0  0  0  0  0  0  0  0  0  0  0
  150.5787  137.2795  153.9759 H   0  0  0  0  0  0  0  0  0  0  0  0
  149.4358  142.6992  155.6174 H   0  0  0  0  0  0  0  0  0  0  0  0
  152.5343  141.6181  156.8171 H   0  0  0  0  0  0  0  0  0  0  0  0
  150.4016  141.2984  159.0166 H   0  0  0  0  0  0  0  0  0  0  0  0
  151.9828  140.4651  158.9038 H   0  0  0  0  0  0  0  0  0  0  0  0
  151.7782  142.7371  160.3728 H   0  0  0  0  0  0  0  0  0  0  0  0
  153.1152  142.6150  159.2215 H   0  0  0  0  0  0  0  0  0  0  0  0
  150.4751  144.0640  158.8484 H   0  0  0  0  0  0  0  0  0  0  0  0
  152.0869  144.5902  158.3576 H   0  0  0  0  0  0  0  0  0  0  0  0
  148.9925  135.9436  153.4184 H   0  0  0  0  0  0  0  0  0  0  0  0
  146.8673  135.1384  155.2857 H   0  0  0  0  0  0  0  0  0  0  0  0
  145.9869  132.5825  154.9187 H   0  0  0  0  0  0  0  0  0  0  0  0
  146.8396  130.2815  155.1746 H   0  0  0  0  0  0  0  0  0  0  0  0
  149.2763  129.8163  154.9790 H   0  0  0  0  0  0  0  0  0  0  0  0
  150.8635  131.6783  154.5293 H   0  0  0  0  0  0  0  0  0  0  0  0
  150.0221  133.9956  154.2637 H   0  0  0  0  0  0  0  0  0  0  0  0
  146.7625  132.9603  152.5275 H   0  0  0  0  0  0  0  0  0  0  0  0
  145.2444  133.1849  150.5865 H   0  0  0  0  0  0  0  0  0  0  0  0
  144.1106  135.3517  150.1275 H   0  0  0  0  0  0  0  0  0  0  0  0
  144.5010  137.2998  151.6250 H   0  0  0  0  0  0  0  0  0  0  0  0
  146.0260  137.0898  153.5692 H   0  0  0  0  0  0  0  0  0  0  0  0
  1  2  2  0  0  0  0
  2  3  1  0  0  0  0
  2 18  1  0  0  0  0
  3  4  1  0  0  0  0
  3 32  1  0  0  0  0
  3 33  1  0  0  0  0
  4 16  1  0  0  0  0
  4  5  1  0  0  0  0
  5  6  2  0  0  0  0
  5  7  1  0  0  0  0
  7  8  1  0  0  0  0
  7  9  2  0  0  0  0
  9 10  1  0  0  0  0
  9 34  1  0  0  0  0
 10 11  1  0  0  0  0
 10 16  1  0  0  0  0
 11 15  1  0  0  0  0
 11 12  1  0  0  0  0
 11 35  1  0  0  0  0
 12 13  1  0  0  0  0
 12 36  1  0  0  0  0
 12 37  1  0  0  0  0
 13 14  1  0  0  0  0
 13 38  1  0  0  0  0
 13 39  1  0  0  0  0
 14 15  1  0  0  0  0
 14 40  1  0  0  0  0
 14 41  1  0  0  0  0
 16 17  2  0  0  0  0
 18 19  1  0  0  0  0
 18 42  1  0  0  0  0
 19 20  1  0  0  0  0
 19 26  1  0  0  0  0
 19 43  1  0  0  0  0
 20 25  1  0  0  0  0
 20 21  2  0  0  0  0
 21 22  1  0  0  0  0
 21 44  1  0  0  0  0
 22 23  2  0  0  0  0
 22 45  1  0  0  0  0
 23 24  1  0  0  0  0
 23 46  1  0  0  0  0
 24 25  2  0  0  0  0
 24 47  1  0  0  0  0
 25 48  1  0  0  0  0
 26 31  1  0  0  0  0
 26 27  2  0  0  0  0
 27 28  1  0  0  0  0
 27 49  1  0  0  0  0
 28 29  2  0  0  0  0
 28 50  1  0  0  0  0
 29 30  1  0  0  0  0
 29 51  1  0  0  0  0
 30 31  2  0  0  0  0
 30 52  1  0  0  0  0
 31 53  1  0  0  0  0
M  END
> <s_m_source_file>
AV-unprocessed.smi

> <i_m_source_file_index>
27

> <i_lp_mmshare_version>
43012

> <i_f3d_flags>
0

> <s_epik_input>
W2NIXTFbY0hdW2NIXVtjSF1bY0hdYzFbQ0hdKGMyW2NIXVtjSF1bY0hdW2NIXVtjSF0yKVtOSF1DKD1PKVtDSDJdbjNjKD1PKWMoRilbY0hdbihjMz1PKVtDQEBIXTRbQ0gyXVtDSDJdW0NIMl1PNA==

> <s_epik_cmdline>
J2VwaWtfcHl0aG9uJywgJy1waCcsICc3LjAnLCAnLXRuJywgJzgnLCAnLW1hJywgJzIwMCcsICctbWV0YWxfYmluZGluZycsICctaW1hZScsICc8aW5maWxlLm1hZT4nLCAnLW9tYWUnLCAnPG91dGZpbGUubWFlPic=

> <r_lp_tautomer_probability>
1

> <r_epik_Ionization_Penalty>
5.29953e-08

> <r_epik_Ionization_Penalty_Charging>
3.6115e-09

> <r_epik_Ionization_Penalty_Neutral>
4.93838e-08

> <r_epik_State_Penalty>
-0

> <r_epik_Charging_Adjusted_Penalty>
3.6115e-09

> <i_epik_Tot_Q>
0

> <i_epik_Tot_abs_Q>
0

> <r_epik_Metal_State_Penalty>
-0

> <b_epik_Metal_Only>
0

> <s_epik_Chemistry_Notes>
This compound contains an acetal/aminal-like group ( X-CH(R)-Y where X, Y are N, S, or O) that may be acid/base labile, releasing an aldehyde.

> <s_lp_Force_Field>
OPLS_2005

> <r_lp_Energy>
32.38

> <b_lp_Chiralities_Consistent>
1

> <s_lp_Variant>
AV-unprocessed.smi:27-1

> <Gold.Version>
5.8.1

> <Gold.Id.Protein>
6NUR|6NUR_protein|mol2

> <Gold.PLP.Fitness>
51.1284

> <Gold.PLP.PLP>
-45.7344

> <Gold.PLP.part.hbond>
-0.8716

> <Gold.PLP.part.metal>
0.0000

> <Gold.PLP.part.buried>
-5.2365

> <Gold.PLP.part.nonpolar>
-41.4516

> <Gold.PLP.part.repulsive>
1.3051

> <Gold.PLP.ligand.clash>
0.0000

> <Gold.PLP.ligand.torsion>
0.4230

> <Gold.PLP.Chemscore.Hbond>
0.9913

> <Gold.PLP.Chemscore.CHOScore>
1.0000

> <Gold.PLP.Chemscore.Metal>
0.0000

> <Gold.Chemscore.Hbonds>
donor molecule, donor type, donor heavy atom, donor atom, acceptor molecule, acceptor atom, score
      L1  H    18    42       P1  7948  1.00
      L1  C     9    34       P1  8028  1.00

> <Gold.PLP.Chemscore.Internal.Correction>
0.2662

> <Gold.Rescore>
     Score         DG    S(hbond)    S(metal)    S(lipo)     H(rot)  DE(clash)    DE(int)     intcor
     12.63     -14.44       0.99        0.00      95.80       2.16       0.01       1.80       ----

> <Gold.Chemscore.Fitness>
12.6330

> <Gold.Chemscore.DG>
-14.4404

> <Gold.Chemscore.ZeroCoef>
-5.4800

> <Gold.Chemscore.Hbond>
0.9857

> <Gold.Chemscore.Metal>
0.0000

> <Gold.Chemscore.Lipo>
95.7996

> <Gold.Chemscore.Internal_Hbond>
0.0000

> <Gold.Chemscore.DEClash>
0.0092

> <Gold.Chemscore.DEInternal>
1.7982

> <Gold.Chemscore.Rot>
2.1642

> <Gold.Chemscore.Internal.Correction>
   9.000000E+99

> <Gold.Chemscore.Hbonds>
donor molecule, donor type, donor heavy atom, donor atom, acceptor molecule, acceptor atom, score
      L1  H    18    42       P1  7948  0.88

> <Gold.Chemscore.Hbond.Weighted>
-3.2923

> <Gold.Chemscore.Metal.Weighted>
-0.0000

> <Gold.Chemscore.Lipo.Weighted>
-11.2086

> <Gold.Chemscore.Internal_Hbond.Weighted>
0.0000

> <Gold.Chemscore.DEClash.Weighted>
0.0092

> <Gold.Chemscore.DEInternal.Weighted>
1.7982

> <Gold.Chemscore.Rot.Weighted>
5.5404

> <Gold.Chemscore.Internal.Correction.Weighted>
   9.000000E+99

> <Gold.Protein.RotatedTorsions>
[ 6907 6896 6895 6894 ] final   14.17 input  -60.11 | X-H torsion
[ 7974 7965 7964 7962 ] final   29.82 input  175.53 | X-H torsion
[ 8008 7997 7996 7995 ] final   75.24 input   59.86 | X-H torsion
[ 10167 10162 10161 10158 ] final  -16.30 input  -65.29 | X-H torsion
[ 10718 10713 10712 10709 ] final  -83.34 input   66.30 | X-H torsion
[ 10763 10752 10751 10750 ] final   94.01 input  -60.55 | X-H torsion
[ 11005 11000 10999 10996 ] final -179.23 input  -57.11 | X-H torsion

> <Gold.Protein.ActiveResidues>
 VAL166  LYS551  ARG553  GLY616  TRP617  ASP618  TYR619  PRO620  LYS621  CYS622 
 ASP623  PHE694  ASN695  SER759  ASP760  ASP761  ALA762  ILE779  LEU786  VAL792 
 PHE793  MET794  SER795  GLU796  ALA797  LYS798  CYS799  TRP800  GLU811  SER814 

> <Gold.Protein.RotatedAtoms>
  151.7979  135.0717  160.0396 H   0  0  0  0  0  0  0  0  0  0  0  0  # atno 6907 bound_to 6896
  152.3110  133.5748  159.5689 H   0  0  0  0  0  0  0  0  0  0  0  0  # atno 6908 bound_to 6896
  150.7320  134.0069  159.3698 H   0  0  0  0  0  0  0  0  0  0  0  0  # atno 6909 bound_to 6896
  146.1649  139.6871  142.9008 H   0  0  0  0  0  0  0  0  0  0  0  0  # atno 7974 bound_to 7965
  155.8100  140.3473  155.5452 H   0  0  0  0  0  0  0  0  0  0  0  0  # atno 8008 bound_to 7997
  155.8450  140.0947  157.1731 H   0  0  0  0  0  0  0  0  0  0  0  0  # atno 8009 bound_to 7997
  154.4006  140.1387  156.3762 H   0  0  0  0  0  0  0  0  0  0  0  0  # atno 8010 bound_to 7997
  140.7231  143.5130  150.9726 H   0  0  0  0  0  0  0  0  0  0  0  0  # atno 10167 bound_to 10162
  156.0020  130.4662  150.4243 H   0  0  0  0  0  0  0  0  0  0  0  0  # atno 10718 bound_to 10713
  153.2368  135.4305  155.0655 H   0  0  0  0  0  0  0  0  0  0  0  0  # atno 10763 bound_to 10752
  154.8322  135.3393  154.6707 H   0  0  0  0  0  0  0  0  0  0  0  0  # atno 10764 bound_to 10752
  153.7132  135.7021  153.5088 H   0  0  0  0  0  0  0  0  0  0  0  0  # atno 10765 bound_to 10752
  140.4210  134.6606  157.4664 H   0  0  0  0  0  0  0  0  0  0  0  0  # atno 11005 bound_to 11000
  145.4493  141.0427  143.2813 LP  0  0  0  0  0  0  0  0  0  0  0  0  # atno 17320 bound_to 7965
  144.8078  139.6018  143.7043 LP  0  0  0  0  0  0  0  0  0  0  0  0  # atno 17321 bound_to 7965
  139.8844  143.7031  152.3153 LP  0  0  0  0  0  0  0  0  0  0  0  0  # atno 17342 bound_to 10162
  139.7325  144.7579  151.0780 LP  0  0  0  0  0  0  0  0  0  0  0  0  # atno 17343 bound_to 10162
  157.2296  131.0501  151.2500 LP  0  0  0  0  0  0  0  0  0  0  0  0  # atno 17370 bound_to 10713
  157.3723  130.7188  149.6573 LP  0  0  0  0  0  0  0  0  0  0  0  0  # atno 17371 bound_to 10713
  140.0200  134.6561  155.9253 LP  0  0  0  0  0  0  0  0  0  0  0  0  # atno 17394 bound_to 11000
  141.1784  133.6543  156.4920 LP  0  0  0  0  0  0  0  0  0  0  0  0  # atno 17395 bound_to 11000

$$$$
