AV-unprocessed.smi:1437|AV-procd|sdf|5866|dock3
  -GOLD-   22720 5543D 1   1.00000     0.00000
 Structure written by MMmdl.
 35 36  0  0  0  0  0  0  0  0  3 V2000
  152.6066  141.3911  159.0338 C   0  0  0  0  0  0  0  0  0  0  0  0
  152.2004  140.8641  157.7000 C   0  0  0  0  0  0  0  0  0  0  0  0
  151.1621  141.1595  156.8628 C   0  0  0  0  0  0  0  0  0  0  0  0
  151.3723  140.2831  155.7631 C   0  0  0  0  0  0  0  0  0  0  0  0
  150.6110  140.2029  154.6610 N   0  5  0  0  0  0  0  0  0  0  0  0
  149.3133  140.5813  154.7011 C   0  0  0  0  0  0  0  0  0  0  0  0
  148.6756  140.9101  155.7037 O   0  0  0  0  0  0  0  0  0  0  0  0
  148.7204  140.5849  153.4989 N   0  0  0  0  0  0  0  0  0  0  0  0
  147.3364  140.9635  153.2162 C   0  0  2  0  0  0  0  0  0  0  0  0
  146.3851  140.2775  154.2126 C   0  0  0  0  0  0  0  0  0  0  0  0
  146.2946  138.7597  153.9671 C   0  0  0  0  0  0  0  0  0  0  0  0
  145.9010  138.4652  152.5666 N   0  3  2  0  0  0  0  0  0  0  0  0
  145.6981  137.0194  152.3329 C   0  0  0  0  0  0  0  0  0  0  0  0
  146.8342  139.0693  151.5834 C   0  0  0  0  0  0  0  0  0  0  0  0
  146.9286  140.5930  151.7759 C   0  0  0  0  0  0  0  0  0  0  0  0
  152.4522  139.5345  155.9123 N   0  0  0  0  0  0  0  0  0  0  0  0
  152.9861  139.8969  157.1547 O   0  0  0  0  0  0  0  0  0  0  0  0
  153.0324  142.3899  158.9397 H   0  0  0  0  0  0  0  0  0  0  0  0
  153.3531  140.7477  159.5001 H   0  0  0  0  0  0  0  0  0  0  0  0
  151.7480  141.4504  159.7027 H   0  0  0  0  0  0  0  0  0  0  0  0
  150.3758  141.8841  157.0131 H   0  0  0  0  0  0  0  0  0  0  0  0
  149.2842  140.2967  152.7128 H   0  0  0  0  0  0  0  0  0  0  0  0
  147.2463  142.0434  153.3463 H   0  0  0  0  0  0  0  0  0  0  0  0
  146.7051  140.4734  155.2369 H   0  0  0  0  0  0  0  0  0  0  0  0
  145.3902  140.7146  154.1180 H   0  0  0  0  0  0  0  0  0  0  0  0
  147.2510  138.2821  154.1862 H   0  0  0  0  0  0  0  0  0  0  0  0
  145.5629  138.3258  154.6496 H   0  0  0  0  0  0  0  0  0  0  0  0
  146.6286  136.4672  152.4709 H   0  0  0  0  0  0  0  0  0  0  0  0
  145.3405  136.8398  151.3185 H   0  0  0  0  0  0  0  0  0  0  0  0
  144.9553  136.6177  153.0230 H   0  0  0  0  0  0  0  0  0  0  0  0
  147.8203  138.6123  151.6825 H   0  0  0  0  0  0  0  0  0  0  0  0
  146.4879  138.8537  150.5721 H   0  0  0  0  0  0  0  0  0  0  0  0
  145.9596  141.0413  151.5527 H   0  0  0  0  0  0  0  0  0  0  0  0
  147.6282  141.0174  151.0551 H   0  0  0  0  0  0  0  0  0  0  0  0
  145.0053  138.9085  152.4212 H   0  0  0  0  0  0  0  0  0  0  0  0
  1  2  1  0  0  0  0
  1 18  1  0  0  0  0
  1 19  1  0  0  0  0
  1 20  1  0  0  0  0
  2 17  1  0  0  0  0
  2  3  2  0  0  0  0
  3  4  1  0  0  0  0
  3 21  1  0  0  0  0
  4  5  1  0  0  0  0
  4 16  2  0  0  0  0
  5  6  1  0  0  0  0
  6  7  2  0  0  0  0
  6  8  1  0  0  0  0
  8  9  1  0  0  0  0
  8 22  1  0  0  0  0
  9 15  1  0  0  0  0
  9 10  1  0  0  0  0
  9 23  1  0  0  0  0
 10 11  1  0  0  0  0
 10 24  1  0  0  0  0
 10 25  1  0  0  0  0
 11 12  1  0  0  0  0
 11 26  1  0  0  0  0
 11 27  1  0  0  0  0
 12 13  1  0  0  0  0
 12 14  1  0  0  0  0
 12 35  1  0  0  0  0
 13 28  1  0  0  0  0
 13 29  1  0  0  0  0
 13 30  1  0  0  0  0
 14 15  1  0  0  0  0
 14 31  1  0  0  0  0
 14 32  1  0  0  0  0
 15 33  1  0  0  0  0
 15 34  1  0  0  0  0
 16 17  1  0  0  0  0
M  CHG  1   5  -1
M  CHG  1  12   1
M  END
> <s_m_source_file>
AV-unprocessed.smi

> <i_m_source_file_index>
1437

> <i_lp_mmshare_version>
43012

> <i_f3d_flags>
0

> <s_epik_input>
W0NIM11jMVtjSF1jKG5vMSlbTkhdQyg9TylbTkhdW0NIXTJbQ0gyXVtDSDJdTihbQ0gzXSlbQ0gyXVtDSDJdMg==

> <s_epik_cmdline>
J2VwaWtfcHl0aG9uJywgJy1waCcsICc3LjAnLCAnLXRuJywgJzgnLCAnLW1hJywgJzIwMCcsICctbWV0YWxfYmluZGluZycsICctaW1hZScsICc8aW5maWxlLm1hZT4nLCAnLW9tYWUnLCAnPG91dGZpbGUubWFlPic=

> <r_epik_Ionization_Penalty>
6.28535

> <r_epik_Ionization_Penalty_Charging>
6.28525

> <r_epik_Ionization_Penalty_Neutral>
9.66055e-05

> <r_epik_State_Penalty>
6.28414

> <r_epik_Charging_Adjusted_Penalty>
12.5694

> <i_epik_Tot_Q>
0

> <i_epik_Tot_abs_Q>
2

> <r_epik_Metal_State_Penalty>
2.21724

> <b_epik_Metal_Only>
1

> <s_lp_Force_Field>
OPLS_2005

> <r_lp_Energy>
2.0091

> <b_lp_Chiralities_Consistent>
1

> <s_lp_Variant>
AV-unprocessed.smi:1437-4

> <Gold.Version>
5.8.1

> <Gold.Id.Protein>
6NUR|6NUR_protein|mol2

> <Gold.PLP.Fitness>
40.6342

> <Gold.PLP.PLP>
-26.1430

> <Gold.PLP.part.hbond>
-4.8773

> <Gold.PLP.part.metal>
0.0000

> <Gold.PLP.part.buried>
0.8746

> <Gold.PLP.part.nonpolar>
-21.8967

> <Gold.PLP.part.repulsive>
0.3102

> <Gold.PLP.ligand.clash>
0.0000

> <Gold.PLP.ligand.torsion>
0.2605

> <Gold.PLP.Chemscore.Hbond>
5.0000

> <Gold.PLP.Chemscore.CHOScore>
0.0000

> <Gold.PLP.Chemscore.Metal>
0.0000

> <Gold.Chemscore.Hbonds>
donor molecule, donor type, donor heavy atom, donor atom, acceptor molecule, acceptor atom, score
      L1  H     8    22       P1  7957  1.00
      L1  H    12    35       P1 10175  1.95
      P1  H  7989  7998       L1     5  1.00
      P1  H  7997  8009       L1    17  0.93

> <Gold.PLP.Chemscore.Internal.Correction>
0.0122

> <Gold.Rescore>
     Score         DG    S(hbond)    S(metal)    S(lipo)     H(rot)  DE(clash)    DE(int)     intcor
     14.80     -20.18       2.95        0.00      63.34       1.00       2.27       3.10       ----

> <Gold.Chemscore.Fitness>
14.8024

> <Gold.Chemscore.DG>
-20.1751

> <Gold.Chemscore.ZeroCoef>
-5.4800

> <Gold.Chemscore.Hbond>
2.9473

> <Gold.Chemscore.Metal>
0.0000

> <Gold.Chemscore.Lipo>
63.3424

> <Gold.Chemscore.Internal_Hbond>
0.0000

> <Gold.Chemscore.DEClash>
2.2730

> <Gold.Chemscore.DEInternal>
3.0997

> <Gold.Chemscore.Rot>
1.0000

> <Gold.Chemscore.Internal.Correction>
   9.000000E+99

> <Gold.Chemscore.Hbonds>
donor molecule, donor type, donor heavy atom, donor atom, acceptor molecule, acceptor atom, score
      L1  H     8    22       P1  7957  0.97
      L1  H    12    35       P1 10175  0.91
      P1  H  7989  7998       L1     5  0.33
      P1  H  7997  8009       L1    17  0.47

> <Gold.Chemscore.Hbond.Weighted>
-9.8440

> <Gold.Chemscore.Metal.Weighted>
-0.0000

> <Gold.Chemscore.Lipo.Weighted>
-7.4111

> <Gold.Chemscore.Internal_Hbond.Weighted>
0.0000

> <Gold.Chemscore.DEClash.Weighted>
2.2730

> <Gold.Chemscore.DEInternal.Weighted>
3.0997

> <Gold.Chemscore.Rot.Weighted>
2.5600

> <Gold.Chemscore.Internal.Correction.Weighted>
   9.000000E+99

> <Gold.Protein.RotatedTorsions>
[ 6907 6896 6895 6894 ] final -154.62 input  -60.11 | X-H torsion
[ 7974 7965 7964 7962 ] final   44.13 input  175.53 | X-H torsion
[ 8008 7997 7996 7995 ] final  158.79 input   59.86 | X-H torsion
[ 10167 10162 10161 10158 ] final  -27.58 input  -65.29 | X-H torsion
[ 10718 10713 10712 10709 ] final  -62.13 input   66.30 | X-H torsion
[ 10763 10752 10751 10750 ] final -149.98 input  -60.55 | X-H torsion
[ 11005 11000 10999 10996 ] final  141.32 input  -57.11 | X-H torsion

> <Gold.Protein.ActiveResidues>
 VAL166  LYS551  ARG553  GLY616  TRP617  ASP618  TYR619  PRO620  LYS621  CYS622 
 ASP623  PHE694  ASN695  SER759  ASP760  ASP761  ALA762  ILE779  LEU786  VAL792 
 PHE793  MET794  SER795  GLU796  ALA797  LYS798  CYS799  TRP800  GLU811  SER814 

> <Gold.Protein.RotatedAtoms>
  151.2603  133.4305  159.2615 H   0  0  0  0  0  0  0  0  0  0  0  0  # atno 6907 bound_to 6896
  151.0537  134.9690  159.8235 H   0  0  0  0  0  0  0  0  0  0  0  0  # atno 6908 bound_to 6896
  152.5387  134.2556  159.8968 H   0  0  0  0  0  0  0  0  0  0  0  0  # atno 6909 bound_to 6896
  146.0596  139.5109  142.9667 H   0  0  0  0  0  0  0  0  0  0  0  0  # atno 7974 bound_to 7965
  156.2280  140.1849  156.7313 H   0  0  0  0  0  0  0  0  0  0  0  0  # atno 8008 bound_to 7997
  154.5974  140.0641  156.9350 H   0  0  0  0  0  0  0  0  0  0  0  0  # atno 8009 bound_to 7997
  155.2232  140.3309  155.4315 H   0  0  0  0  0  0  0  0  0  0  0  0  # atno 8010 bound_to 7997
  140.7276  143.4081  151.1151 H   0  0  0  0  0  0  0  0  0  0  0  0  # atno 10167 bound_to 10162
  156.0875  130.4205  150.1092 H   0  0  0  0  0  0  0  0  0  0  0  0  # atno 10718 bound_to 10713
  154.8146  135.3296  154.7211 H   0  0  0  0  0  0  0  0  0  0  0  0  # atno 10763 bound_to 10752
  153.7855  135.6915  153.4885 H   0  0  0  0  0  0  0  0  0  0  0  0  # atno 10764 bound_to 10752
  153.1952  135.4536  155.0146 H   0  0  0  0  0  0  0  0  0  0  0  0  # atno 10765 bound_to 10752
  140.0393  134.9313  157.0812 H   0  0  0  0  0  0  0  0  0  0  0  0  # atno 11005 bound_to 11000
  145.6584  141.0246  143.1722 LP  0  0  0  0  0  0  0  0  0  0  0  0  # atno 17320 bound_to 7965
  144.7167  139.8172  143.7396 LP  0  0  0  0  0  0  0  0  0  0  0  0  # atno 17321 bound_to 7965
  139.7711  143.8493  152.3120 LP  0  0  0  0  0  0  0  0  0  0  0  0  # atno 17342 bound_to 10162
  139.8412  144.7209  150.9329 LP  0  0  0  0  0  0  0  0  0  0  0  0  # atno 17343 bound_to 10162
  156.9109  130.9651  151.3563 LP  0  0  0  0  0  0  0  0  0  0  0  0  # atno 17370 bound_to 10713
  157.6014  130.8515  149.8809 LP  0  0  0  0  0  0  0  0  0  0  0  0  # atno 17371 bound_to 10713
  140.4096  134.1995  155.7163 LP  0  0  0  0  0  0  0  0  0  0  0  0  # atno 17394 bound_to 11000
  141.1874  133.8281  157.1032 LP  0  0  0  0  0  0  0  0  0  0  0  0  # atno 17395 bound_to 11000

$$$$
