AV-unprocessed.smi:2157|AV-procd|sdf|8786|dock10
  -GOLD-   2272011563D 1   1.00000     0.00000
 Structure written by MMmdl.
 41 42  0  0  0  0  0  0  0  0  1 V2000
  149.2574  138.4790  154.0572 C   0  0  0  0  0  0  0  0  0  0  0  0
  148.9506  139.8765  154.6138 C   0  0  1  0  0  0  0  0  0  0  0  0
  148.0075  140.6596  153.6805 C   0  0  0  0  0  0  0  0  0  0  0  0
  147.6967  142.0586  154.2353 C   0  0  0  0  0  0  0  0  0  0  0  0
  147.1131  141.9814  155.6567 C   0  0  0  0  0  0  0  0  0  0  0  0
  148.0219  141.1898  156.6169 C   0  0  2  0  0  0  0  0  0  0  0  0
  149.2329  141.9540  156.9120 N   0  0  0  0  0  0  0  0  0  0  0  0
  150.2973  141.4987  157.5895 C   0  0  0  0  0  0  0  0  0  0  0  0
  150.3729  140.3549  158.0409 O   0  0  0  0  0  0  0  0  0  0  0  0
  151.4584  142.4883  157.7558 C   0  0  0  0  0  0  0  0  0  0  0  0
  152.2238  142.2804  158.9918 N   0  0  0  0  0  0  0  0  0  0  0  0
  152.1612  143.2228  160.0022 C   0  0  0  0  0  0  0  0  0  0  0  0
  152.8446  143.1172  161.1625 C   0  0  0  0  0  0  0  0  0  0  0  0
  153.7057  141.9700  161.4215 C   0  0  0  0  0  0  0  0  0  0  0  0
  154.3644  141.8422  162.4545 O   0  0  0  0  0  0  0  0  0  0  0  0
  153.7391  141.0129  160.3799 N   0  0  0  0  0  0  0  0  0  0  0  0
  154.5902  139.8541  160.5552 C   0  0  0  0  0  0  0  0  0  0  0  0
  153.0377  141.1393  159.1590 C   0  0  0  0  0  0  0  0  0  0  0  0
  153.1279  140.2985  158.2608 O   0  0  0  0  0  0  0  0  0  0  0  0
  148.3581  139.7984  156.0365 C   0  0  0  0  0  0  0  0  0  0  0  0
  148.3516  137.8777  153.9734 H   0  0  0  0  0  0  0  0  0  0  0  0
  149.9541  137.9437  154.7030 H   0  0  0  0  0  0  0  0  0  0  0  0
  149.7086  138.5416  153.0666 H   0  0  0  0  0  0  0  0  0  0  0  0
  149.8961  140.4180  154.6684 H   0  0  0  0  0  0  0  0  0  0  0  0
  148.4543  140.7513  152.6897 H   0  0  0  0  0  0  0  0  0  0  0  0
  147.0762  140.1070  153.5486 H   0  0  0  0  0  0  0  0  0  0  0  0
  148.6061  142.6604  154.2406 H   0  0  0  0  0  0  0  0  0  0  0  0
  146.9955  142.5704  153.5758 H   0  0  0  0  0  0  0  0  0  0  0  0
  146.9357  142.9854  156.0443 H   0  0  0  0  0  0  0  0  0  0  0  0
  146.1361  141.4981  155.6122 H   0  0  0  0  0  0  0  0  0  0  0  0
  147.4755  141.0527  157.5519 H   0  0  0  0  0  0  0  0  0  0  0  0
  149.2614  142.9047  156.5731 H   0  0  0  0  0  0  0  0  0  0  0  0
  152.1153  142.3878  156.8908 H   0  0  0  0  0  0  0  0  0  0  0  0
  151.0789  143.5113  157.7189 H   0  0  0  0  0  0  0  0  0  0  0  0
  151.5396  144.0940  159.8558 H   0  0  0  0  0  0  0  0  0  0  0  0
  152.7556  143.8935  161.9080 H   0  0  0  0  0  0  0  0  0  0  0  0
  154.1704  139.0060  160.0131 H   0  0  0  0  0  0  0  0  0  0  0  0
  154.6310  139.5882  161.6124 H   0  0  0  0  0  0  0  0  0  0  0  0
  155.5753  140.1248  160.1724 H   0  0  0  0  0  0  0  0  0  0  0  0
  147.4467  139.1993  156.0111 H   0  0  0  0  0  0  0  0  0  0  0  0
  149.0435  139.2694  156.6999 H   0  0  0  0  0  0  0  0  0  0  0  0
  1  2  1  0  0  0  0
  1 21  1  0  0  0  0
  1 22  1  0  0  0  0
  1 23  1  0  0  0  0
  2 20  1  0  0  0  0
  2  3  1  0  0  0  0
  2 24  1  0  0  0  0
  3  4  1  0  0  0  0
  3 25  1  0  0  0  0
  3 26  1  0  0  0  0
  4  5  1  0  0  0  0
  4 27  1  0  0  0  0
  4 28  1  0  0  0  0
  5  6  1  0  0  0  0
  5 29  1  0  0  0  0
  5 30  1  0  0  0  0
  6  7  1  0  0  0  0
  6 20  1  0  0  0  0
  6 31  1  0  0  0  0
  7  8  1  0  0  0  0
  7 32  1  0  0  0  0
  8  9  2  0  0  0  0
  8 10  1  0  0  0  0
 10 11  1  0  0  0  0
 10 33  1  0  0  0  0
 10 34  1  0  0  0  0
 11 18  1  0  0  0  0
 11 12  1  0  0  0  0
 12 13  2  0  0  0  0
 12 35  1  0  0  0  0
 13 14  1  0  0  0  0
 13 36  1  0  0  0  0
 14 15  2  0  0  0  0
 14 16  1  0  0  0  0
 16 17  1  0  0  0  0
 16 18  1  0  0  0  0
 17 37  1  0  0  0  0
 17 38  1  0  0  0  0
 17 39  1  0  0  0  0
 18 19  2  0  0  0  0
 20 40  1  0  0  0  0
 20 41  1  0  0  0  0
M  END
> <s_m_source_file>
AV-unprocessed.smi

> <i_m_source_file_index>
2157

> <i_lp_mmshare_version>
43012

> <i_f3d_flags>
0

> <s_epik_input>
W0NIM11bQ0BASF0xW0NIMl1bQ0gyXVtDSDJdW0NASF0oW0NIMl0xKVtOSF1DKD1PKVtDSDJdbjJbY0hdW2NIXWMoPU8pbihbQ0gzXSljMj1P

> <s_epik_cmdline>
J2VwaWtfcHl0aG9uJywgJy1waCcsICc3LjAnLCAnLXRuJywgJzgnLCAnLW1hJywgJzIwMCcsICctbWV0YWxfYmluZGluZycsICctaW1hZScsICc8aW5maWxlLm1hZT4nLCAnLW9tYWUnLCAnPG91dGZpbGUubWFlPic=

> <r_lp_tautomer_probability>
1

> <r_epik_Ionization_Penalty>
3.1838e-08

> <r_epik_Ionization_Penalty_Charging>
1.27911e-08

> <r_epik_Ionization_Penalty_Neutral>
1.90469e-08

> <r_epik_State_Penalty>
-0

> <r_epik_Charging_Adjusted_Penalty>
1.27911e-08

> <i_epik_Tot_Q>
0

> <i_epik_Tot_abs_Q>
0

> <r_epik_Metal_State_Penalty>
-0

> <b_epik_Metal_Only>
0

> <s_lp_Force_Field>
OPLS_2005

> <r_lp_Energy>
16.1054

> <b_lp_Chiralities_Consistent>
1

> <s_lp_Variant>
AV-unprocessed.smi:2157-4

> <Gold.Version>
5.8.1

> <Gold.Id.Protein>
6NUR|6NUR_protein|mol2

> <Gold.PLP.Fitness>
43.2646

> <Gold.PLP.PLP>
-38.6091

> <Gold.PLP.part.hbond>
-3.0000

> <Gold.PLP.part.metal>
0.0000

> <Gold.PLP.part.buried>
-0.7171

> <Gold.PLP.part.nonpolar>
-33.6590

> <Gold.PLP.part.repulsive>
0.0167

> <Gold.PLP.ligand.clash>
0.0000

> <Gold.PLP.ligand.torsion>
0.5448

> <Gold.PLP.Chemscore.Hbond>
1.9120

> <Gold.PLP.Chemscore.CHOScore>
0.0000

> <Gold.PLP.Chemscore.Metal>
0.0000

> <Gold.Chemscore.Hbonds>
donor molecule, donor type, donor heavy atom, donor atom, acceptor molecule, acceptor atom, score
      L1  H     7    32       P1  8028  0.91
      P1  H  7997  8010       L1    19  0.91

> <Gold.PLP.Chemscore.Internal.Correction>
0.0091

> <Gold.Rescore>
     Score         DG    S(hbond)    S(metal)    S(lipo)     H(rot)  DE(clash)    DE(int)     intcor
     12.27     -16.69       1.85        0.00      76.28       1.52       0.64       3.78       ----

> <Gold.Chemscore.Fitness>
12.2687

> <Gold.Chemscore.DG>
-16.6883

> <Gold.Chemscore.ZeroCoef>
-5.4800

> <Gold.Chemscore.Hbond>
1.8519

> <Gold.Chemscore.Metal>
0.0000

> <Gold.Chemscore.Lipo>
76.2812

> <Gold.Chemscore.Internal_Hbond>
0.0000

> <Gold.Chemscore.DEClash>
0.6424

> <Gold.Chemscore.DEInternal>
3.7772

> <Gold.Chemscore.Rot>
1.5242

> <Gold.Chemscore.Internal.Correction>
   9.000000E+99

> <Gold.Chemscore.Hbonds>
donor molecule, donor type, donor heavy atom, donor atom, acceptor molecule, acceptor atom, score
      L1  H     7    32       P1  8028  0.88
      P1  H  7997  8010       L1    19  0.88

> <Gold.Chemscore.Hbond.Weighted>
-6.1853

> <Gold.Chemscore.Metal.Weighted>
-0.0000

> <Gold.Chemscore.Lipo.Weighted>
-8.9249

> <Gold.Chemscore.Internal_Hbond.Weighted>
0.0000

> <Gold.Chemscore.DEClash.Weighted>
0.6424

> <Gold.Chemscore.DEInternal.Weighted>
3.7772

> <Gold.Chemscore.Rot.Weighted>
3.9019

> <Gold.Chemscore.Internal.Correction.Weighted>
   9.000000E+99

> <Gold.Protein.RotatedTorsions>
[ 6907 6896 6895 6894 ] final   44.81 input  -60.11 | X-H torsion
[ 7974 7965 7964 7962 ] final  -77.21 input  175.53 | X-H torsion
[ 8008 7997 7996 7995 ] final   38.28 input   59.86 | X-H torsion
[ 10167 10162 10161 10158 ] final -122.65 input  -65.29 | X-H torsion
[ 10718 10713 10712 10709 ] final  -81.53 input   66.30 | X-H torsion
[ 10763 10752 10751 10750 ] final -140.24 input  -60.55 | X-H torsion
[ 11005 11000 10999 10996 ] final -130.88 input  -57.11 | X-H torsion

> <Gold.Protein.ActiveResidues>
 VAL166  LYS551  ARG553  GLY616  TRP617  ASP618  TYR619  PRO620  LYS621  CYS622 
 ASP623  PHE694  ASN695  SER759  ASP760  ASP761  ALA762  ILE779  LEU786  VAL792 
 PHE793  MET794  SER795  GLU796  ALA797  LYS798  CYS799  TRP800  GLU811  SER814 

> <Gold.Protein.RotatedAtoms>
  152.2369  134.8267  160.0465 H   0  0  0  0  0  0  0  0  0  0  0  0  # atno 6907 bound_to 6896
  151.8995  133.3529  159.3834 H   0  0  0  0  0  0  0  0  0  0  0  0  # atno 6908 bound_to 6896
  150.7042  134.4768  159.5496 H   0  0  0  0  0  0  0  0  0  0  0  0  # atno 6909 bound_to 6896
  145.6027  140.9405  143.1232 H   0  0  0  0  0  0  0  0  0  0  0  0  # atno 7974 bound_to 7965
  155.2175  140.3328  155.4320 H   0  0  0  0  0  0  0  0  0  0  0  0  # atno 8008 bound_to 7997
  156.2346  140.1866  156.7201 H   0  0  0  0  0  0  0  0  0  0  0  0  # atno 8009 bound_to 7997
  154.6037  140.0619  156.9388 H   0  0  0  0  0  0  0  0  0  0  0  0  # atno 8010 bound_to 7997
  140.0120  143.5432  152.2259 H   0  0  0  0  0  0  0  0  0  0  0  0  # atno 10167 bound_to 10162
  156.0048  130.4607  150.3967 H   0  0  0  0  0  0  0  0  0  0  0  0  # atno 10718 bound_to 10713
  154.8584  135.3559  154.5676 H   0  0  0  0  0  0  0  0  0  0  0  0  # atno 10763 bound_to 10752
  153.6290  135.7003  153.5287 H   0  0  0  0  0  0  0  0  0  0  0  0  # atno 10764 bound_to 10752
  153.3065  135.4191  155.1258 H   0  0  0  0  0  0  0  0  0  0  0  0  # atno 10765 bound_to 10752
  140.9307  134.1323  157.4237 H   0  0  0  0  0  0  0  0  0  0  0  0  # atno 11005 bound_to 11000
  144.7303  139.7746  143.7349 LP  0  0  0  0  0  0  0  0  0  0  0  0  # atno 17320 bound_to 7965
  146.1564  139.4663  143.0016 LP  0  0  0  0  0  0  0  0  0  0  0  0  # atno 17321 bound_to 7965
  139.6198  144.7627  151.2765 LP  0  0  0  0  0  0  0  0  0  0  0  0  # atno 17342 bound_to 10162
  140.7377  143.6669  150.8116 LP  0  0  0  0  0  0  0  0  0  0  0  0  # atno 17343 bound_to 10162
  157.2039  131.0444  151.2636 LP  0  0  0  0  0  0  0  0  0  0  0  0  # atno 17370 bound_to 10713
  157.3951  130.7303  149.6725 LP  0  0  0  0  0  0  0  0  0  0  0  0  # atno 17371 bound_to 10713
  139.8796  135.0004  156.6008 LP  0  0  0  0  0  0  0  0  0  0  0  0  # atno 17394 bound_to 11000
  140.7866  133.8616  155.8611 LP  0  0  0  0  0  0  0  0  0  0  0  0  # atno 17395 bound_to 11000

$$$$
