AV-unprocessed.smi:1433|AV-procd|sdf|5837|dock8
  -GOLD-   22720 5503D 1   1.00000     0.00000
 Structure written by MMmdl.
 44 45  0  0  0  0  0  0  0  0  1 V2000
  154.1719  141.9826  159.7651 C   0  0  0  0  0  0  0  0  0  0  0  0
  152.7295  142.1365  160.2778 C   0  0  2  0  0  0  0  0  0  0  0  0
  151.6701  141.6078  159.2902 C   0  0  0  0  0  0  0  0  0  0  0  0
  151.4623  142.4764  158.1258 N   0  0  0  0  0  0  0  0  0  0  0  0
  150.4169  141.9638  157.2086 C   0  0  1  0  0  0  0  0  0  0  0  0
  150.9032  140.7617  156.3571 C   0  0  0  0  0  0  0  0  0  0  0  0
  149.1036  141.5619  157.9352 C   0  0  0  0  0  0  0  0  0  0  0  0
  148.0480  142.5497  157.7495 N   0  0  0  0  0  0  0  0  0  0  0  0
  146.8601  142.5338  158.3710 C   0  0  0  0  0  0  0  0  0  0  0  0
  146.5438  141.6919  159.2112 O   0  0  0  0  0  0  0  0  0  0  0  0
  145.8756  143.6384  157.9828 C   0  0  0  0  0  0  0  0  0  0  0  0
  145.4250  143.4812  156.6107 N   0  0  0  0  0  0  0  0  0  0  0  0
  144.6600  144.3470  155.8571 C   0  0  0  0  0  0  0  0  0  0  0  0
  144.4782  143.7688  154.6337 C   0  0  0  0  0  0  0  0  0  0  0  0
  145.1776  142.5336  154.7355 C   0  0  0  0  0  0  0  0  0  0  0  0
  145.7441  142.3643  155.9193 N   0  0  0  0  0  0  0  0  0  0  0  0
  151.1669  143.8257  158.6170 C   0  0  0  0  0  0  0  0  0  0  0  0
  152.2564  144.3745  159.5556 C   0  0  1  0  0  0  0  0  0  0  0  0
  151.8873  145.7488  160.1242 C   0  0  0  0  0  0  0  0  0  0  0  0
  152.4368  143.4813  160.6490 O   0  0  0  0  0  0  0  0  0  0  0  0
  154.4154  140.9320  159.6051 H   0  0  0  0  0  0  0  0  0  0  0  0
  154.8855  142.3801  160.4870 H   0  0  0  0  0  0  0  0  0  0  0  0
  154.3293  142.4993  158.8187 H   0  0  0  0  0  0  0  0  0  0  0  0
  152.6557  141.5467  161.1918 H   0  0  0  0  0  0  0  0  0  0  0  0
  151.9895  140.6139  158.9841 H   0  0  0  0  0  0  0  0  0  0  0  0
  150.7244  141.4829  159.8201 H   0  0  0  0  0  0  0  0  0  0  0  0
  150.1613  142.7637  156.5117 H   0  0  0  0  0  0  0  0  0  0  0  0
  150.1171  140.3473  155.7265 H   0  0  0  0  0  0  0  0  0  0  0  0
  151.2715  139.9542  156.9906 H   0  0  0  0  0  0  0  0  0  0  0  0
  151.6985  141.0388  155.6667 H   0  0  0  0  0  0  0  0  0  0  0  0
  148.7701  140.5842  157.5821 H   0  0  0  0  0  0  0  0  0  0  0  0
  149.2432  141.4845  159.0121 H   0  0  0  0  0  0  0  0  0  0  0  0
  148.2192  143.2804  157.0732 H   0  0  0  0  0  0  0  0  0  0  0  0
  145.0065  143.6135  158.6416 H   0  0  0  0  0  0  0  0  0  0  0  0
  146.3447  144.6160  158.1046 H   0  0  0  0  0  0  0  0  0  0  0  0
  144.3114  145.2900  156.2523 H   0  0  0  0  0  0  0  0  0  0  0  0
  143.9276  144.1663  153.7940 H   0  0  0  0  0  0  0  0  0  0  0  0
  145.2895  141.7607  153.9896 H   0  0  0  0  0  0  0  0  0  0  0  0
  151.0850  144.5258  157.7879 H   0  0  0  0  0  0  0  0  0  0  0  0
  150.2040  143.8286  159.1301 H   0  0  0  0  0  0  0  0  0  0  0  0
  153.1935  144.4731  159.0068 H   0  0  0  0  0  0  0  0  0  0  0  0
  151.7481  146.4796  159.3270 H   0  0  0  0  0  0  0  0  0  0  0  0
  152.6721  146.1213  160.7828 H   0  0  0  0  0  0  0  0  0  0  0  0
  150.9632  145.7020  160.7011 H   0  0  0  0  0  0  0  0  0  0  0  0
  1  2  1  0  0  0  0
  1 21  1  0  0  0  0
  1 22  1  0  0  0  0
  1 23  1  0  0  0  0
  2 20  1  0  0  0  0
  2  3  1  0  0  0  0
  2 24  1  0  0  0  0
  3  4  1  0  0  0  0
  3 25  1  0  0  0  0
  3 26  1  0  0  0  0
  4  5  1  0  0  0  0
  4 17  1  0  0  0  0
  5  6  1  0  0  0  0
  5  7  1  0  0  0  0
  5 27  1  0  0  0  0
  6 28  1  0  0  0  0
  6 29  1  0  0  0  0
  6 30  1  0  0  0  0
  7  8  1  0  0  0  0
  7 31  1  0  0  0  0
  7 32  1  0  0  0  0
  8  9  1  0  0  0  0
  8 33  1  0  0  0  0
  9 10  2  0  0  0  0
  9 11  1  0  0  0  0
 11 12  1  0  0  0  0
 11 34  1  0  0  0  0
 11 35  1  0  0  0  0
 12 16  1  0  0  0  0
 12 13  1  0  0  0  0
 13 14  2  0  0  0  0
 13 36  1  0  0  0  0
 14 15  1  0  0  0  0
 14 37  1  0  0  0  0
 15 16  2  0  0  0  0
 15 38  1  0  0  0  0
 17 18  1  0  0  0  0
 17 39  1  0  0  0  0
 17 40  1  0  0  0  0
 18 19  1  0  0  0  0
 18 20  1  0  0  0  0
 18 41  1  0  0  0  0
 19 42  1  0  0  0  0
 19 43  1  0  0  0  0
 19 44  1  0  0  0  0
M  END
> <s_m_source_file>
AV-unprocessed.smi

> <i_m_source_file_index>
1433

> <i_lp_mmshare_version>
43012

> <i_f3d_flags>
0

> <s_epik_input>
W0NIM11bQ0BASF0xW0NIMl1OKFtDSDJdW0NASF0oTzEpW0NIM10pW0NASF0oW0NIM10pW0NIMl1bTkhdQyg9TylbQ0gyXW4yW2NIXVtjSF1bY0hdbjI=

> <s_epik_cmdline>
J2VwaWtfcHl0aG9uJywgJy1waCcsICc3LjAnLCAnLXRuJywgJzgnLCAnLW1hJywgJzIwMCcsICctbWV0YWxfYmluZGluZycsICctaW1hZScsICc8aW5maWxlLm1hZT4nLCAnLW9tYWUnLCAnPG91dGZpbGUubWFlPic=

> <r_lp_tautomer_probability>
1

> <r_epik_Ionization_Penalty>
0.196927

> <r_epik_Ionization_Penalty_Charging>
0

> <r_epik_Ionization_Penalty_Neutral>
0.196927

> <r_epik_State_Penalty>
0.186684

> <r_epik_Charging_Adjusted_Penalty>
0.186684

> <i_epik_Tot_Q>
0

> <i_epik_Tot_abs_Q>
0

> <r_epik_Metal_State_Penalty>
0.186682

> <b_epik_Metal_Only>
0

> <s_lp_Force_Field>
OPLS_2005

> <r_lp_Energy>
30.021

> <b_lp_Chiralities_Consistent>
1

> <s_lp_Variant>
AV-unprocessed.smi:1433-3

> <Gold.Version>
5.8.1

> <Gold.Id.Protein>
6NUR|6NUR_protein|mol2

> <Gold.PLP.Fitness>
41.3970

> <Gold.PLP.PLP>
-36.2679

> <Gold.PLP.part.hbond>
-1.8538

> <Gold.PLP.part.metal>
0.0000

> <Gold.PLP.part.buried>
-5.5084

> <Gold.PLP.part.nonpolar>
-29.5498

> <Gold.PLP.part.repulsive>
0.3141

> <Gold.PLP.ligand.clash>
0.0000

> <Gold.PLP.ligand.torsion>
1.0090

> <Gold.PLP.Chemscore.Hbond>
1.5440

> <Gold.PLP.Chemscore.CHOScore>
0.8222

> <Gold.PLP.Chemscore.Metal>
0.0000

> <Gold.Chemscore.Hbonds>
donor molecule, donor type, donor heavy atom, donor atom, acceptor molecule, acceptor atom, score
      L1  H     8    33       P1  8028  0.61
      P1  H  6934  6946       L1    10  0.80
      L1  C    15    38       P1 10175  0.85

> <Gold.PLP.Chemscore.Internal.Correction>
0.0485

> <Gold.Rescore>
     Score         DG    S(hbond)    S(metal)    S(lipo)     H(rot)  DE(clash)    DE(int)     intcor
     13.69     -14.91       0.99        0.00      91.75       1.80       0.06       1.16       ----

> <Gold.Chemscore.Fitness>
13.6937

> <Gold.Chemscore.DG>
-14.9148

> <Gold.Chemscore.ZeroCoef>
-5.4800

> <Gold.Chemscore.Hbond>
0.9932

> <Gold.Chemscore.Metal>
0.0000

> <Gold.Chemscore.Lipo>
91.7544

> <Gold.Chemscore.Internal_Hbond>
0.0000

> <Gold.Chemscore.DEClash>
0.0593

> <Gold.Chemscore.DEInternal>
1.1617

> <Gold.Chemscore.Rot>
1.8038

> <Gold.Chemscore.Internal.Correction>
   9.000000E+99

> <Gold.Chemscore.Hbonds>
donor molecule, donor type, donor heavy atom, donor atom, acceptor molecule, acceptor atom, score
      L1  H     8    33       P1  8028  0.08
      P1  H  6934  6946       L1    10  0.80

> <Gold.Chemscore.Hbond.Weighted>
-3.3173

> <Gold.Chemscore.Metal.Weighted>
-0.0000

> <Gold.Chemscore.Lipo.Weighted>
-10.7353

> <Gold.Chemscore.Internal_Hbond.Weighted>
0.0000

> <Gold.Chemscore.DEClash.Weighted>
0.0593

> <Gold.Chemscore.DEInternal.Weighted>
1.1617

> <Gold.Chemscore.Rot.Weighted>
4.6178

> <Gold.Chemscore.Internal.Correction.Weighted>
   9.000000E+99

> <Gold.Protein.RotatedTorsions>
[ 6907 6896 6895 6894 ] final   27.26 input  -60.11 | X-H torsion
[ 7974 7965 7964 7962 ] final   90.49 input  175.53 | X-H torsion
[ 8008 7997 7996 7995 ] final   65.06 input   59.86 | X-H torsion
[ 10167 10162 10161 10158 ] final  122.97 input  -65.29 | X-H torsion
[ 10718 10713 10712 10709 ] final   16.30 input   66.30 | X-H torsion
[ 10763 10752 10751 10750 ] final   17.15 input  -60.55 | X-H torsion
[ 11005 11000 10999 10996 ] final -163.63 input  -57.11 | X-H torsion

> <Gold.Protein.ActiveResidues>
 VAL166  LYS551  ARG553  GLY616  TRP617  ASP618  TYR619  PRO620  LYS621  CYS622 
 ASP623  PHE694  ASN695  SER759  ASP760  ASP761  ALA762  ILE779  LEU786  VAL792 
 PHE793  MET794  SER795  GLU796  ALA797  LYS798  CYS799  TRP800  GLU811  SER814 

> <Gold.Protein.RotatedAtoms>
  151.9996  134.9935  160.0564 H   0  0  0  0  0  0  0  0  0  0  0  0  # atno 6907 bound_to 6896
  152.1531  133.4530  159.4832 H   0  0  0  0  0  0  0  0  0  0  0  0  # atno 6908 bound_to 6896
  150.6878  134.2082  159.4392 H   0  0  0  0  0  0  0  0  0  0  0  0  # atno 6909 bound_to 6896
  145.5182  139.2278  143.2686 H   0  0  0  0  0  0  0  0  0  0  0  0  # atno 7974 bound_to 7965
  155.6558  140.3497  155.4764 H   0  0  0  0  0  0  0  0  0  0  0  0  # atno 8008 bound_to 7997
  155.9810  140.1174  157.0750 H   0  0  0  0  0  0  0  0  0  0  0  0  # atno 8009 bound_to 7997
  154.4191  140.1138  156.5421 H   0  0  0  0  0  0  0  0  0  0  0  0  # atno 8010 bound_to 7997
  139.5827  144.6993  151.3488 H   0  0  0  0  0  0  0  0  0  0  0  0  # atno 10167 bound_to 10162
  157.0658  130.6328  149.5795 H   0  0  0  0  0  0  0  0  0  0  0  0  # atno 10718 bound_to 10713
  153.1365  135.6751  153.9094 H   0  0  0  0  0  0  0  0  0  0  0  0  # atno 10763 bound_to 10752
  153.8564  135.3087  155.3436 H   0  0  0  0  0  0  0  0  0  0  0  0  # atno 10764 bound_to 10752
  154.7752  135.4918  153.9813 H   0  0  0  0  0  0  0  0  0  0  0  0  # atno 10765 bound_to 10752
  140.5959  134.4997  157.5199 H   0  0  0  0  0  0  0  0  0  0  0  0  # atno 11005 bound_to 11000
  146.2123  140.5993  142.9054 LP  0  0  0  0  0  0  0  0  0  0  0  0  # atno 17320 bound_to 7965
  144.7690  140.5595  143.6683 LP  0  0  0  0  0  0  0  0  0  0  0  0  # atno 17321 bound_to 7965
  140.7103  143.7408  150.7555 LP  0  0  0  0  0  0  0  0  0  0  0  0  # atno 17342 bound_to 10162
  140.0944  143.4847  152.2460 LP  0  0  0  0  0  0  0  0  0  0  0  0  # atno 17343 bound_to 10162
  155.9965  130.5034  150.7498 LP  0  0  0  0  0  0  0  0  0  0  0  0  # atno 17370 bound_to 10713
  157.4918  131.0911  151.0418 LP  0  0  0  0  0  0  0  0  0  0  0  0  # atno 17371 bound_to 10713
  139.9253  134.8067  156.1086 LP  0  0  0  0  0  0  0  0  0  0  0  0  # atno 17394 bound_to 11000
  141.0904  133.6716  156.2528 LP  0  0  0  0  0  0  0  0  0  0  0  0  # atno 17395 bound_to 11000

$$$$
