AV-unprocessed.smi:792|AV-procd|sdf|3751|dock6
  -GOLD-   22720 1183D 1   1.00000     0.00000
 Structure written by MMmdl.
 47 48  0  0  0  0  0  0  0  0  2 V2000
  151.1820  144.0944  158.7276 C   0  0  0  0  0  0  0  0  0  0  0  0
  151.2199  142.8145  157.9195 C   0  0  0  0  0  0  0  0  0  0  0  0
  152.0986  141.7532  158.2262 C   0  0  0  0  0  0  0  0  0  0  0  0
  152.0786  140.5901  157.4285 C   0  0  0  0  0  0  0  0  0  0  0  0
  151.1801  140.5108  156.3419 C   0  0  0  0  0  0  0  0  0  0  0  0
  151.1358  139.2751  155.4643 C   0  0  0  0  0  0  0  0  0  0  0  0
  151.2523  137.9818  156.2814 C   0  0  0  0  0  0  0  0  0  0  0  0
  150.4502  138.0666  157.4936 N   0  0  0  0  0  0  0  0  0  0  0  0
  150.1302  137.0148  158.2583 C   0  0  0  0  0  0  0  0  0  0  0  0
  150.4965  135.8618  158.0294 O   0  0  0  0  0  0  0  0  0  0  0  0
  149.3622  137.3690  159.2987 N   0  0  0  0  0  0  0  0  0  0  0  0
  148.8617  136.4540  160.3233 C   0  0  0  0  0  0  0  0  0  0  0  0
  147.4161  136.7566  160.7626 C   0  0  0  0  0  0  0  0  0  0  0  0
  146.7525  137.5692  160.1152 O   0  0  0  0  0  0  0  0  0  0  0  0
  146.9129  136.1151  161.8457 N   0  0  0  0  0  0  0  0  0  0  0  0
  147.6660  135.0907  162.5822 C   0  0  0  0  0  0  0  0  0  0  0  0
  147.0024  133.7208  162.3505 C   0  0  0  0  0  0  0  0  0  0  0  0
  145.5159  133.7524  162.7524 C   0  0  0  0  0  0  0  0  0  0  0  0
  144.7799  134.9455  162.1141 C   0  0  0  0  0  0  0  0  0  0  0  0
  145.5449  136.2576  162.3646 C   0  0  0  0  0  0  0  0  0  0  0  0
  150.3261  141.6040  156.0819 C   0  0  0  0  0  0  0  0  0  0  0  0
  150.3761  142.7007  156.8694 N   0  3  0  0  0  0  0  0  0  0  0  0
  151.9048  144.0657  159.5436 H   0  0  0  0  0  0  0  0  0  0  0  0
  150.1907  144.2439  159.1563 H   0  0  0  0  0  0  0  0  0  0  0  0
  151.4169  144.9507  158.0948 H   0  0  0  0  0  0  0  0  0  0  0  0
  152.7805  141.8263  159.0609 H   0  0  0  0  0  0  0  0  0  0  0  0
  152.7464  139.7701  157.6491 H   0  0  0  0  0  0  0  0  0  0  0  0
  150.2052  139.2759  154.8945 H   0  0  0  0  0  0  0  0  0  0  0  0
  151.9441  139.3305  154.7337 H   0  0  0  0  0  0  0  0  0  0  0  0
  150.9161  137.1310  155.6861 H   0  0  0  0  0  0  0  0  0  0  0  0
  152.2938  137.7974  156.5493 H   0  0  0  0  0  0  0  0  0  0  0  0
  150.1123  138.9791  157.7630 H   0  0  0  0  0  0  0  0  0  0  0  0
  149.1188  138.3432  159.4030 H   0  0  0  0  0  0  0  0  0  0  0  0
  148.9020  135.4441  159.9143 H   0  0  0  0  0  0  0  0  0  0  0  0
  149.5261  136.4777  161.1890 H   0  0  0  0  0  0  0  0  0  0  0  0
  148.7167  135.0442  162.2927 H   0  0  0  0  0  0  0  0  0  0  0  0
  147.6628  135.3343  163.6457 H   0  0  0  0  0  0  0  0  0  0  0  0
  147.0914  133.4477  161.2981 H   0  0  0  0  0  0  0  0  0  0  0  0
  147.5254  132.9494  162.9165 H   0  0  0  0  0  0  0  0  0  0  0  0
  145.0295  132.8164  162.4767 H   0  0  0  0  0  0  0  0  0  0  0  0
  145.4430  133.8297  163.8379 H   0  0  0  0  0  0  0  0  0  0  0  0
  144.6768  134.7826  161.0404 H   0  0  0  0  0  0  0  0  0  0  0  0
  143.7688  135.0169  162.5154 H   0  0  0  0  0  0  0  0  0  0  0  0
  145.5893  136.4616  163.4354 H   0  0  0  0  0  0  0  0  0  0  0  0
  144.9959  137.0949  161.9372 H   0  0  0  0  0  0  0  0  0  0  0  0
  149.6100  141.6357  155.2735 H   0  0  0  0  0  0  0  0  0  0  0  0
  149.7485  143.4781  156.6620 H   0  0  0  0  0  0  0  0  0  0  0  0
  1  2  1  0  0  0  0
  1 23  1  0  0  0  0
  1 24  1  0  0  0  0
  1 25  1  0  0  0  0
  2 22  1  0  0  0  0
  2  3  2  0  0  0  0
  3  4  1  0  0  0  0
  3 26  1  0  0  0  0
  4  5  2  0  0  0  0
  4 27  1  0  0  0  0
  5  6  1  0  0  0  0
  5 21  1  0  0  0  0
  6  7  1  0  0  0  0
  6 28  1  0  0  0  0
  6 29  1  0  0  0  0
  7  8  1  0  0  0  0
  7 30  1  0  0  0  0
  7 31  1  0  0  0  0
  8  9  1  0  0  0  0
  8 32  1  0  0  0  0
  9 10  2  0  0  0  0
  9 11  1  0  0  0  0
 11 12  1  0  0  0  0
 11 33  1  0  0  0  0
 12 13  1  0  0  0  0
 12 34  1  0  0  0  0
 12 35  1  0  0  0  0
 13 14  2  0  0  0  0
 13 15  1  0  0  0  0
 15 20  1  0  0  0  0
 15 16  1  0  0  0  0
 16 17  1  0  0  0  0
 16 36  1  0  0  0  0
 16 37  1  0  0  0  0
 17 18  1  0  0  0  0
 17 38  1  0  0  0  0
 17 39  1  0  0  0  0
 18 19  1  0  0  0  0
 18 40  1  0  0  0  0
 18 41  1  0  0  0  0
 19 20  1  0  0  0  0
 19 42  1  0  0  0  0
 19 43  1  0  0  0  0
 20 44  1  0  0  0  0
 20 45  1  0  0  0  0
 21 22  2  0  0  0  0
 21 46  1  0  0  0  0
 22 47  1  0  0  0  0
M  CHG  1  22   1
M  END
> <s_m_source_file>
AV-unprocessed.smi

> <i_m_source_file_index>
792

> <i_lp_mmshare_version>
43012

> <i_f3d_flags>
0

> <s_epik_input>
W0NIM11jMVtjSF1bY0hdYyhbY0hdbjEpW0NIMl1bQ0gyXVtOSF1DKD1PKVtOSF1bQ0gyXUMoPU8pTjJbQ0gyXVtDSDJdW0NIMl1bQ0gyXVtDSDJdMg==

> <s_epik_cmdline>
J2VwaWtfcHl0aG9uJywgJy1waCcsICc3LjAnLCAnLXRuJywgJzgnLCAnLW1hJywgJzIwMCcsICctbWV0YWxfYmluZGluZycsICctaW1hZScsICc8aW5maWxlLm1hZT4nLCAnLW9tYWUnLCAnPG91dGZpbGUubWFlPic=

> <r_epik_Ionization_Penalty>
1.3596

> <r_epik_Ionization_Penalty_Charging>
1.35956

> <r_epik_Ionization_Penalty_Neutral>
4.39183e-05

> <r_epik_State_Penalty>
1.43833

> <r_epik_Charging_Adjusted_Penalty>
2.79788

> <i_epik_Tot_Q>
1

> <i_epik_Tot_abs_Q>
1

> <r_epik_Metal_State_Penalty>
1.49594

> <b_epik_Metal_Only>
0

> <s_lp_Force_Field>
OPLS_2005

> <r_lp_Energy>
23.5444

> <b_lp_Chiralities_Consistent>
1

> <s_lp_Variant>
AV-unprocessed.smi:792-2

> <Gold.Version>
5.8.1

> <Gold.Id.Protein>
6NUR|6NUR_protein|mol2

> <Gold.PLP.Fitness>
51.1395

> <Gold.PLP.PLP>
-41.4036

> <Gold.PLP.part.hbond>
-3.0000

> <Gold.PLP.part.metal>
0.0000

> <Gold.PLP.part.buried>
-5.5906

> <Gold.PLP.part.nonpolar>
-33.3742

> <Gold.PLP.part.repulsive>
0.2653

> <Gold.PLP.ligand.clash>
0.0000

> <Gold.PLP.ligand.torsion>
0.6795

> <Gold.PLP.Chemscore.Hbond>
3.6820

> <Gold.PLP.Chemscore.CHOScore>
0.0000

> <Gold.PLP.Chemscore.Metal>
0.0000

> <Gold.Chemscore.Hbonds>
donor molecule, donor type, donor heavy atom, donor atom, acceptor molecule, acceptor atom, score
      L1  H    22    47       P1  8028  2.00
      P1  H  6896  6909       L1    10  0.69
      P1  H  6934  6947       L1    14  1.00

> <Gold.PLP.Chemscore.Internal.Correction>
0.0489

> <Gold.Rescore>
     Score         DG    S(hbond)    S(metal)    S(lipo)     H(rot)  DE(clash)    DE(int)     intcor
     17.84     -18.63       1.66        0.00     105.87       1.86       0.18       0.61       ----

> <Gold.Chemscore.Fitness>
17.8377

> <Gold.Chemscore.DG>
-18.6275

> <Gold.Chemscore.ZeroCoef>
-5.4800

> <Gold.Chemscore.Hbond>
1.6562

> <Gold.Chemscore.Metal>
0.0000

> <Gold.Chemscore.Lipo>
105.8749

> <Gold.Chemscore.Internal_Hbond>
0.0000

> <Gold.Chemscore.DEClash>
0.1821

> <Gold.Chemscore.DEInternal>
0.6077

> <Gold.Chemscore.Rot>
1.8639

> <Gold.Chemscore.Internal.Correction>
   9.000000E+99

> <Gold.Chemscore.Hbonds>
donor molecule, donor type, donor heavy atom, donor atom, acceptor molecule, acceptor atom, score
      L1  H    22    47       P1  8028  0.99
      P1  H  6896  6909       L1    10  0.62
      P1  H  6934  6947       L1    14  0.30

> <Gold.Chemscore.Hbond.Weighted>
-5.5316

> <Gold.Chemscore.Metal.Weighted>
-0.0000

> <Gold.Chemscore.Lipo.Weighted>
-12.3874

> <Gold.Chemscore.Internal_Hbond.Weighted>
0.0000

> <Gold.Chemscore.DEClash.Weighted>
0.1821

> <Gold.Chemscore.DEInternal.Weighted>
0.6077

> <Gold.Chemscore.Rot.Weighted>
4.7715

> <Gold.Chemscore.Internal.Correction.Weighted>
   9.000000E+99

> <Gold.Protein.RotatedTorsions>
[ 6907 6896 6895 6894 ] final   59.77 input  -60.11 | X-H torsion
[ 7974 7965 7964 7962 ] final  112.17 input  175.53 | X-H torsion
[ 8008 7997 7996 7995 ] final -147.20 input   59.86 | X-H torsion
[ 10167 10162 10161 10158 ] final  121.25 input  -65.29 | X-H torsion
[ 10718 10713 10712 10709 ] final -128.64 input   66.30 | X-H torsion
[ 10763 10752 10751 10750 ] final   75.23 input  -60.55 | X-H torsion
[ 11005 11000 10999 10996 ] final  171.95 input  -57.11 | X-H torsion

> <Gold.Protein.ActiveResidues>
 VAL166  LYS551  ARG553  GLY616  TRP617  ASP618  TYR619  PRO620  LYS621  CYS622 
 ASP623  PHE694  ASN695  SER759  ASP760  ASP761  ALA762  ILE779  LEU786  VAL792 
 PHE793  MET794  SER795  GLU796  ALA797  LYS798  CYS799  TRP800  GLU811  SER814 

> <Gold.Protein.RotatedAtoms>
  152.3944  134.6389  160.0094 H   0  0  0  0  0  0  0  0  0  0  0  0  # atno 6907 bound_to 6896
  151.6613  133.3311  159.3182 H   0  0  0  0  0  0  0  0  0  0  0  0  # atno 6908 bound_to 6896
  150.7854  134.6878  159.6525 H   0  0  0  0  0  0  0  0  0  0  0  0  # atno 6909 bound_to 6896
  145.2329  139.2812  143.4158 H   0  0  0  0  0  0  0  0  0  0  0  0  # atno 7974 bound_to 7965
  155.5718  140.0635  157.2805 H   0  0  0  0  0  0  0  0  0  0  0  0  # atno 8008 bound_to 7997
  154.4359  140.1867  156.0932 H   0  0  0  0  0  0  0  0  0  0  0  0  # atno 8009 bound_to 7997
  156.0371  140.3300  155.7206 H   0  0  0  0  0  0  0  0  0  0  0  0  # atno 8010 bound_to 7997
  139.5931  144.7032  151.3241 H   0  0  0  0  0  0  0  0  0  0  0  0  # atno 10167 bound_to 10162
  156.1970  130.6832  151.0494 H   0  0  0  0  0  0  0  0  0  0  0  0  # atno 10718 bound_to 10713
  153.0640  135.4996  154.8158 H   0  0  0  0  0  0  0  0  0  0  0  0  # atno 10763 bound_to 10752
  154.6926  135.2987  154.9460 H   0  0  0  0  0  0  0  0  0  0  0  0  # atno 10764 bound_to 10752
  154.0210  135.6742  153.4825 H   0  0  0  0  0  0  0  0  0  0  0  0  # atno 10765 bound_to 10752
  140.3245  134.7410  157.4088 H   0  0  0  0  0  0  0  0  0  0  0  0  # atno 11005 bound_to 11000
  146.3348  140.2669  142.8604 LP  0  0  0  0  0  0  0  0  0  0  0  0  # atno 17320 bound_to 7965
  144.9660  140.8322  143.5484 LP  0  0  0  0  0  0  0  0  0  0  0  0  # atno 17321 bound_to 7965
  140.7190  143.7189  150.7711 LP  0  0  0  0  0  0  0  0  0  0  0  0  # atno 17342 bound_to 10162
  140.0749  143.5025  152.2560 LP  0  0  0  0  0  0  0  0  0  0  0  0  # atno 17343 bound_to 10162
  157.6963  131.0792  150.6957 LP  0  0  0  0  0  0  0  0  0  0  0  0  # atno 17370 bound_to 10713
  156.7014  130.4624  149.5572 LP  0  0  0  0  0  0  0  0  0  0  0  0  # atno 17371 bound_to 10713
  140.0913  134.5597  155.8441 LP  0  0  0  0  0  0  0  0  0  0  0  0  # atno 17394 bound_to 11000
  141.2078  133.6668  156.6333 LP  0  0  0  0  0  0  0  0  0  0  0  0  # atno 17395 bound_to 11000

$$$$
