AV-unprocessed.smi:960|AV-procd|sdf|4271|dock7
  -GOLD-   22720 2183D 1   1.00000     0.00000
 Structure written by MMmdl.
 46 47  0  0  0  0  0  0  0  0  2 V2000
  144.0220  131.6625  150.5518 C   0  0  0  0  0  0  0  0  0  0  0  0
  145.2310  132.1729  150.2645 C   0  0  0  0  0  0  0  0  0  0  0  0
  145.9853  131.7875  149.0047 C   0  0  0  0  0  0  0  0  0  0  0  0
  145.9034  133.1936  151.1697 C   0  0  0  0  0  0  0  0  0  0  0  0
  145.0568  134.3896  151.4210 N   0  3  2  0  0  0  0  0  0  0  0  0
  145.8708  135.5477  151.8728 C   0  0  0  0  0  0  0  0  0  0  0  0
  145.0211  136.8235  151.9828 C   0  0  0  0  0  0  0  0  0  0  0  0
  143.8248  136.6130  152.9283 C   0  0  1  0  0  0  0  0  0  0  0  0
  142.9658  137.7933  152.9577 N   0  0  0  0  0  0  0  0  0  0  0  0
  141.7046  137.8180  153.4116 C   0  0  0  0  0  0  0  0  0  0  0  0
  141.1217  136.8298  153.8565 O   0  0  0  0  0  0  0  0  0  0  0  0
  141.1661  139.0415  153.2976 N   0  0  0  0  0  0  0  0  0  0  0  0
  139.8606  139.4350  153.6850 C   0  0  0  0  0  0  0  0  0  0  0  0
  138.6696  138.6568  153.7844 C   0  0  0  0  0  0  0  0  0  0  0  0
  138.4174  137.1986  153.5199 C   0  0  0  0  0  0  0  0  0  0  0  0
  137.6737  139.4122  154.2239 N   0  0  0  0  0  0  0  0  0  0  0  0
  138.2064  140.6903  154.4513 O   0  0  0  0  0  0  0  0  0  0  0  0
  139.5283  140.6773  154.1386 C   0  0  0  0  0  0  0  0  0  0  0  0
  140.2839  141.9479  154.3349 C   0  0  0  0  0  0  0  0  0  0  0  0
  143.0169  135.3926  152.4613 C   0  0  0  0  0  0  0  0  0  0  0  0
  143.9049  134.1433  152.3294 C   0  0  0  0  0  0  0  0  0  0  0  0
  143.5449  130.9464  149.8984 H   0  0  0  0  0  0  0  0  0  0  0  0
  143.4901  131.9533  151.4461 H   0  0  0  0  0  0  0  0  0  0  0  0
  146.0814  132.6537  148.3499 H   0  0  0  0  0  0  0  0  0  0  0  0
  145.4620  131.0060  148.4528 H   0  0  0  0  0  0  0  0  0  0  0  0
  146.9870  131.4261  149.2319 H   0  0  0  0  0  0  0  0  0  0  0  0
  146.1991  132.7296  152.1121 H   0  0  0  0  0  0  0  0  0  0  0  0
  146.8252  133.5085  150.6781 H   0  0  0  0  0  0  0  0  0  0  0  0
  146.3283  135.3179  152.8364 H   0  0  0  0  0  0  0  0  0  0  0  0
  146.6860  135.7220  151.1694 H   0  0  0  0  0  0  0  0  0  0  0  0
  145.6443  137.6452  152.3379 H   0  0  0  0  0  0  0  0  0  0  0  0
  144.6667  137.1108  150.9917 H   0  0  0  0  0  0  0  0  0  0  0  0
  144.1939  136.4169  153.9370 H   0  0  0  0  0  0  0  0  0  0  0  0
  143.3585  138.6531  152.6028 H   0  0  0  0  0  0  0  0  0  0  0  0
  141.7083  139.7345  152.8029 H   0  0  0  0  0  0  0  0  0  0  0  0
  139.2874  136.5951  153.7786 H   0  0  0  0  0  0  0  0  0  0  0  0
  138.1862  137.0252  152.4690 H   0  0  0  0  0  0  0  0  0  0  0  0
  137.5781  136.8250  154.1075 H   0  0  0  0  0  0  0  0  0  0  0  0
  141.3571  141.7862  154.2333 H   0  0  0  0  0  0  0  0  0  0  0  0
  140.0977  142.3593  155.3268 H   0  0  0  0  0  0  0  0  0  0  0  0
  139.9833  142.6919  153.5975 H   0  0  0  0  0  0  0  0  0  0  0  0
  142.2039  135.1925  153.1602 H   0  0  0  0  0  0  0  0  0  0  0  0
  142.5502  135.6040  151.4977 H   0  0  0  0  0  0  0  0  0  0  0  0
  143.2876  133.3341  151.9431 H   0  0  0  0  0  0  0  0  0  0  0  0
  144.2699  133.8317  153.3095 H   0  0  0  0  0  0  0  0  0  0  0  0
  144.6668  134.6501  150.5265 H   0  0  0  0  0  0  0  0  0  0  0  0
  1  2  2  0  0  0  0
  1 22  1  0  0  0  0
  1 23  1  0  0  0  0
  2  3  1  0  0  0  0
  2  4  1  0  0  0  0
  3 24  1  0  0  0  0
  3 25  1  0  0  0  0
  3 26  1  0  0  0  0
  4  5  1  0  0  0  0
  4 27  1  0  0  0  0
  4 28  1  0  0  0  0
  5 21  1  0  0  0  0
  5  6  1  0  0  0  0
  5 46  1  0  0  0  0
  6  7  1  0  0  0  0
  6 29  1  0  0  0  0
  6 30  1  0  0  0  0
  7  8  1  0  0  0  0
  7 31  1  0  0  0  0
  7 32  1  0  0  0  0
  8  9  1  0  0  0  0
  8 20  1  0  0  0  0
  8 33  1  0  0  0  0
  9 10  1  0  0  0  0
  9 34  1  0  0  0  0
 10 11  2  0  0  0  0
 10 12  1  0  0  0  0
 12 13  1  0  0  0  0
 12 35  1  0  0  0  0
 13 18  2  0  0  0  0
 13 14  1  0  0  0  0
 14 15  1  0  0  0  0
 14 16  2  0  0  0  0
 15 36  1  0  0  0  0
 15 37  1  0  0  0  0
 15 38  1  0  0  0  0
 16 17  1  0  0  0  0
 17 18  1  0  0  0  0
 18 19  1  0  0  0  0
 19 39  1  0  0  0  0
 19 40  1  0  0  0  0
 19 41  1  0  0  0  0
 20 21  1  0  0  0  0
 20 42  1  0  0  0  0
 20 43  1  0  0  0  0
 21 44  1  0  0  0  0
 21 45  1  0  0  0  0
M  CHG  1   5   1
M  END
> <s_m_source_file>
AV-unprocessed.smi

> <i_m_source_file_index>
960

> <i_lp_mmshare_version>
43012

> <i_f3d_flags>
0

> <s_epik_input>
W0NIMl09QyhbQ0gzXSlbQ0gyXU4xW0NIMl1bQ0gyXVtDSF0oW0NIMl1bQ0gyXTEpW05IXUMoPU8pW05IXWMyYyhbQ0gzXSlub2MyW0NIM10=

> <s_epik_cmdline>
J2VwaWtfcHl0aG9uJywgJy1waCcsICc3LjAnLCAnLXRuJywgJzgnLCAnLW1hJywgJzIwMCcsICctbWV0YWxfYmluZGluZycsICctaW1hZScsICc8aW5maWxlLm1hZT4nLCAnLW9tYWUnLCAnPG91dGZpbGUubWFlPic=

> <r_epik_Ionization_Penalty>
0.01938

> <r_epik_Ionization_Penalty_Charging>
0.0193505

> <r_epik_Ionization_Penalty_Neutral>
2.94909e-05

> <r_epik_State_Penalty>
0.0154499

> <r_epik_Charging_Adjusted_Penalty>
0.0348004

> <i_epik_Tot_Q>
1

> <i_epik_Tot_abs_Q>
1

> <r_epik_Metal_State_Penalty>
0.0154499

> <b_epik_Metal_Only>
0

> <s_lp_Force_Field>
OPLS_2005

> <r_lp_Energy>
20.2595

> <b_lp_Chiralities_Consistent>
1

> <s_lp_Variant>
AV-unprocessed.smi:960-1

> <Gold.Version>
5.8.1

> <Gold.Id.Protein>
6NUR|6NUR_protein|mol2

> <Gold.PLP.Fitness>
42.2035

> <Gold.PLP.PLP>
-37.2509

> <Gold.PLP.part.hbond>
-3.0000

> <Gold.PLP.part.metal>
0.0000

> <Gold.PLP.part.buried>
-3.1602

> <Gold.PLP.part.nonpolar>
-31.0887

> <Gold.PLP.part.repulsive>
0.2125

> <Gold.PLP.ligand.clash>
0.0000

> <Gold.PLP.ligand.torsion>
0.5755

> <Gold.PLP.Chemscore.Hbond>
1.9280

> <Gold.PLP.Chemscore.CHOScore>
0.0000

> <Gold.PLP.Chemscore.Metal>
0.0000

> <Gold.Chemscore.Hbonds>
donor molecule, donor type, donor heavy atom, donor atom, acceptor molecule, acceptor atom, score
      L1  H     9    34       P1 10175  1.00
      L1  H    12    35       P1 10175  0.91

> <Gold.PLP.Chemscore.Internal.Correction>
0.3195

> <Gold.Rescore>
     Score         DG    S(hbond)    S(metal)    S(lipo)     H(rot)  DE(clash)    DE(int)     intcor
     14.18     -18.38       1.71        0.00      90.81       1.35       0.26       3.94       ----

> <Gold.Chemscore.Fitness>
14.1764

> <Gold.Chemscore.DG>
-18.3802

> <Gold.Chemscore.ZeroCoef>
-5.4800

> <Gold.Chemscore.Hbond>
1.7143

> <Gold.Chemscore.Metal>
0.0000

> <Gold.Chemscore.Lipo>
90.8149

> <Gold.Chemscore.Internal_Hbond>
0.0000

> <Gold.Chemscore.DEClash>
0.2641

> <Gold.Chemscore.DEInternal>
3.9396

> <Gold.Chemscore.Rot>
1.3480

> <Gold.Chemscore.Internal.Correction>
   9.000000E+99

> <Gold.Chemscore.Hbonds>
donor molecule, donor type, donor heavy atom, donor atom, acceptor molecule, acceptor atom, score
      L1  H     9    34       P1 10175  0.99
      L1  H    12    35       P1 10175  0.21

> <Gold.Chemscore.Hbond.Weighted>
-5.7257

> <Gold.Chemscore.Metal.Weighted>
-0.0000

> <Gold.Chemscore.Lipo.Weighted>
-10.6253

> <Gold.Chemscore.Internal_Hbond.Weighted>
0.0000

> <Gold.Chemscore.DEClash.Weighted>
0.2641

> <Gold.Chemscore.DEInternal.Weighted>
3.9396

> <Gold.Chemscore.Rot.Weighted>
3.4509

> <Gold.Chemscore.Internal.Correction.Weighted>
   9.000000E+99

> <Gold.Protein.RotatedTorsions>
[ 6907 6896 6895 6894 ] final   27.95 input  -60.11 | X-H torsion
[ 7974 7965 7964 7962 ] final   57.44 input  175.53 | X-H torsion
[ 8008 7997 7996 7995 ] final  -24.95 input   59.86 | X-H torsion
[ 10167 10162 10161 10158 ] final   80.00 input  -65.29 | X-H torsion
[ 10718 10713 10712 10709 ] final   50.33 input   66.30 | X-H torsion
[ 10763 10752 10751 10750 ] final  -20.91 input  -60.55 | X-H torsion
[ 11005 11000 10999 10996 ] final   85.32 input  -57.11 | X-H torsion

> <Gold.Protein.ActiveResidues>
 VAL166  LYS551  ARG553  GLY616  TRP617  ASP618  TYR619  PRO620  LYS621  CYS622 
 ASP623  PHE694  ASN695  SER759  ASP760  ASP761  ALA762  ILE779  LEU786  VAL792 
 PHE793  MET794  SER795  GLU796  ALA797  LYS798  CYS799  TRP800  GLU811  SER814 

> <Gold.Protein.RotatedAtoms>
  152.0098  134.9882  160.0567 H   0  0  0  0  0  0  0  0  0  0  0  0  # atno 6907 bound_to 6896
  152.1439  133.4476  159.4789 H   0  0  0  0  0  0  0  0  0  0  0  0  # atno 6908 bound_to 6896
  150.6868  134.2189  159.4432 H   0  0  0  0  0  0  0  0  0  0  0  0  # atno 6909 bound_to 6896
  145.9291  139.3792  143.0432 H   0  0  0  0  0  0  0  0  0  0  0  0  # atno 7974 bound_to 7965
  154.4502  140.1940  156.0543 H   0  0  0  0  0  0  0  0  0  0  0  0  # atno 8008 bound_to 7997
  156.0630  140.3294  155.7457 H   0  0  0  0  0  0  0  0  0  0  0  0  # atno 8009 bound_to 7997
  155.5382  140.0584  157.2866 H   0  0  0  0  0  0  0  0  0  0  0  0  # atno 8010 bound_to 7997
  139.9543  144.6004  150.8131 H   0  0  0  0  0  0  0  0  0  0  0  0  # atno 10167 bound_to 10162
  157.4874  130.8354  149.8163 H   0  0  0  0  0  0  0  0  0  0  0  0  # atno 10718 bound_to 10713
  153.6278  135.6990  153.5287 H   0  0  0  0  0  0  0  0  0  0  0  0  # atno 10763 bound_to 10752
  153.2884  135.4164  155.1144 H   0  0  0  0  0  0  0  0  0  0  0  0  # atno 10764 bound_to 10752
  154.8529  135.3619  154.5820 H   0  0  0  0  0  0  0  0  0  0  0  0  # atno 10765 bound_to 10752
  139.8975  134.8278  156.2567 H   0  0  0  0  0  0  0  0  0  0  0  0  # atno 11005 bound_to 11000
  145.8450  140.9560  143.0779 LP  0  0  0  0  0  0  0  0  0  0  0  0  # atno 17320 bound_to 7965
  144.6762  140.0333  143.7482 LP  0  0  0  0  0  0  0  0  0  0  0  0  # atno 17321 bound_to 7965
  140.7573  143.3083  151.2907 LP  0  0  0  0  0  0  0  0  0  0  0  0  # atno 17342 bound_to 10162
  139.6603  144.0201  152.2688 LP  0  0  0  0  0  0  0  0  0  0  0  0  # atno 17343 bound_to 10162
  156.0154  130.3815  150.2126 LP  0  0  0  0  0  0  0  0  0  0  0  0  # atno 17370 bound_to 10713
  157.0314  131.0008  151.3311 LP  0  0  0  0  0  0  0  0  0  0  0  0  # atno 17371 bound_to 10713
  141.0189  133.7052  156.1235 LP  0  0  0  0  0  0  0  0  0  0  0  0  # atno 17394 bound_to 11000
  140.7262  134.4305  157.5570 LP  0  0  0  0  0  0  0  0  0  0  0  0  # atno 17395 bound_to 11000

$$$$
