#       Name:                AV-unprocessed.smi:530
#       Creating user name   scv26
#       Creation time:       Thu Mar 26 23:33:23 2020


#       File generated by GOLD software.
#

@<TRIPOS>MOLECULE
AV-unprocessed.smi:530
    38    40     1
SMALL
NO_CHARGES


@<TRIPOS>ATOM
      1 ****        -2.1589   0.8826  -2.5578 C.3            1 S1                 0.0000
      2 ****        -1.8224   1.5716  -1.2736 C.2            1 S1                 0.0000
      3 ****        -2.1580   2.8407  -1.0389 N.2            1 S1                 0.0000
      4 ****        -1.6674   3.0532   0.2352 C.ar           1 S1                 0.0000
      5 ****        -1.7020   4.2050   1.0535 C.ar           1 S1                 0.0000
      6 ****        -1.1283   4.1829   2.3418 C.ar           1 S1                 0.0000
      7 ****        -0.5138   3.0114   2.8300 C.ar           1 S1                 0.0000
      8 ****        -0.4667   1.8534   2.0303 C.ar           1 S1                 0.0000
      9 ****        -1.0393   1.8816   0.7447 C.ar           1 S1                 0.0000
     10 ****        -1.1574   0.9417  -0.2736 N.pl3          1 S1                 0.0000
     11 ****        -0.6588  -0.4265  -0.2374 C.3            1 S1                 0.0000
     12 ****         0.8646  -0.5045  -0.4606 C.3            1 S1                 0.0000
     13 ****         1.1968   0.0424  -1.7222 O.3            1 S1                 0.0000
     14 ****         1.3764  -1.9270  -0.2962 C.ar           1 S1                 0.0000
     15 ****         2.0050  -2.3136   0.9070 C.ar           1 S1                 0.0000
     16 ****         2.4770  -3.6304   1.0709 C.ar           1 S1                 0.0000
     17 ****         2.3212  -4.5691   0.0332 C.ar           1 S1                 0.0000
     18 ****         1.6903  -4.1911  -1.1673 C.ar           1 S1                 0.0000
     19 ****         1.2176  -2.8745  -1.3314 C.ar           1 S1                 0.0000
     20 ****        -2.6321   1.5773  -3.2525 H              1 S1                 0.0000
     21 ****        -2.8486   0.0591  -2.3725 H              1 S1                 0.0000
     22 ****        -1.2567   0.4905  -3.0270 H              1 S1                 0.0000
     23 ****        -2.1712   5.1069   0.6895 H              1 S1                 0.0000
     24 ****        -1.1604   5.0688   2.9588 H              1 S1                 0.0000
     25 ****        -0.0780   3.0023   3.8183 H              1 S1                 0.0000
     26 ****         0.0041   0.9545   2.3997 H              1 S1                 0.0000
     27 ****        -0.9118  -0.8465   0.7369 H              1 S1                 0.0000
     28 ****        -1.1877  -1.0317  -0.9738 H              1 S1                 0.0000
     29 ****         1.3602   0.1194   0.2843 H              1 S1                 0.0000
     30 ****         2.1384   0.0784  -1.7940 H              1 S1                 0.0000
     31 ****         2.1266  -1.6017   1.7103 H              1 S1                 0.0000
     32 ****         2.9582  -3.9207   1.9932 H              1 S1                 0.0000
     33 ****         2.6837  -5.5789   0.1585 H              1 S1                 0.0000
     34 ****         1.5680  -4.9117  -1.9624 H              1 S1                 0.0000
     35 ****         0.7311  -2.5949  -2.2545 H              1 S1                 0.0000
     36 ****        -2.6435   3.4792  -1.6360 LP             1 S1                 0.0000
     37 ****         0.8168   0.9640  -1.8012 LP             1 S1                 0.0000
     38 ****         0.8247  -0.5350  -2.4490 LP             1 S1                 0.0000
@<TRIPOS>BOND
    1    1    2 1     
    2    1   20 1     
    3    1   21 1     
    4    1   22 1     
    5    2   10 1     
    6    2    3 2     
    7    3    4 1     
    8    4    9 ar    
    9    4    5 ar    
   10    5    6 ar    
   11    5   23 1     
   12    6    7 ar    
   13    6   24 1     
   14    7    8 ar    
   15    7   25 1     
   16    8    9 ar    
   17    8   26 1     
   18    9   10 1     
   19   10   11 1     
   20   11   12 1     
   21   11   27 1     
   22   11   28 1     
   23   12   13 1     
   24   12   14 1     
   25   12   29 1     
   26   13   30 1     
   27   14   19 ar    
   28   14   15 ar    
   29   15   16 ar    
   30   15   31 1     
   31   16   17 ar    
   32   16   32 1     
   33   17   18 ar    
   34   17   33 1     
   35   18   19 ar    
   36   18   34 1     
   37   19   35 1     
   38    3   36 1     
   39   13   37 1     
   40   13   38 1     
@<TRIPOS>SUBSTRUCTURE
      1 S1             1
@<TRIPOS>SET
LONE_PAIRS      STATIC     ATOMS    <user>   **** ""
3 36 37 38
DONOR_HYDROGENS      STATIC     ATOMS    <user>   **** ""
1 30
ATOM$BLUE        STATIC     ATOMS    COLORGROUP SYSTEM
3 36 37 38
ATOM$RED        STATIC     ATOMS    COLORGROUP SYSTEM
1 30
