#       Name:                AV-unprocessed.smi:2085
#       Creating user name   scv26
#       Creation time:       Fri Mar 27 11:23:21 2020


#       File generated by GOLD software.
#

@<TRIPOS>MOLECULE
AV-unprocessed.smi:2085
    37    38     1
SMALL
NO_CHARGES


@<TRIPOS>ATOM
      1 ****        -1.4924   3.9907   1.2339 C.3            1 S1                 0.0000
      2 ****        -0.9533   2.7166   0.8990 O.3            1 S1                 0.0000
      3 ****         0.3898   2.6302   0.5850 C.ar           1 S1                 0.0000
      4 ****         1.1306   3.7669   0.6003 N.ar           1 S1                 0.0000
      5 ****         2.4429   3.6833   0.3002 C.ar           1 S1                 0.0000
      6 ****         3.0843   2.4728  -0.0199 C.ar           1 S1                 0.0000
      7 ****         2.3183   1.2927  -0.0372 C.ar           1 S1                 0.0000
      8 ****         0.9353   1.3667   0.2574 C.ar           1 S1                 0.0000
      9 ****         0.0749   0.2344   0.2837 N.am           1 S1                 0.0000
     10 ****         0.2051  -0.9348  -0.3693 C.2            1 S1                 0.0000
     11 ****         1.1371  -1.2139  -1.1238 O.2            1 S1                 0.0000
     12 ****        -0.9134  -1.9560  -0.1313 C.3            1 S1                 0.0000
     13 ****        -1.3936  -2.6698  -1.4093 C.3            1 S1                 0.0000
     14 ****        -0.9173  -4.0978  -1.2268 C.3            1 S1                 0.0000
     15 ****        -0.9114  -4.2350   0.2888 C.3            1 S1                 0.0000
     16 ****        -0.4042  -2.9820   0.7188 O.3            1 S1                 0.0000
     17 ****        -2.5539   3.8853   1.4574 H              1 S1                 0.0000
     18 ****        -1.3975   4.6948   0.4059 H              1 S1                 0.0000
     19 ****        -1.0083   4.4086   2.1176 H              1 S1                 0.0000
     20 ****         2.9998   4.6083   0.3226 H              1 S1                 0.0000
     21 ****         4.1409   2.4489  -0.2422 H              1 S1                 0.0000
     22 ****         2.8078   0.3573  -0.2599 H              1 S1                 0.0000
     23 ****        -0.7817   0.3558   0.8046 H              1 S1                 0.0000
     24 ****        -1.7631  -1.4789   0.3605 H              1 S1                 0.0000
     25 ****        -2.4830  -2.6430  -1.4558 H              1 S1                 0.0000
     26 ****        -1.0195  -2.2303  -2.3354 H              1 S1                 0.0000
     27 ****        -1.5567  -4.8297  -1.7208 H              1 S1                 0.0000
     28 ****         0.0960  -4.2084  -1.6154 H              1 S1                 0.0000
     29 ****        -1.9234  -4.3730   0.6729 H              1 S1                 0.0000
     30 ****        -0.2912  -5.0609   0.6371 H              1 S1                 0.0000
     31 ****        -1.4636   2.3789   0.1081 LP             1 S1                 0.0000
     32 ****        -1.1129   2.1139   1.6808 LP             1 S1                 0.0000
     33 ****         0.7132   4.6464   0.8289 LP             1 S1                 0.0000
     34 ****         1.8659  -0.5485  -1.2856 LP             1 S1                 0.0000
     35 ****         1.1654  -2.1060  -1.5747 LP             1 S1                 0.0000
     36 ****        -0.6918  -2.8097   1.6610 LP             1 S1                 0.0000
     37 ****         0.5947  -2.9910   0.6716 LP             1 S1                 0.0000
@<TRIPOS>BOND
    1    1    2 1     
    2    1   17 1     
    3    1   18 1     
    4    1   19 1     
    5    2    3 1     
    6    3    8 ar    
    7    3    4 ar    
    8    4    5 ar    
    9    5    6 ar    
   10    5   20 1     
   11    6    7 ar    
   12    6   21 1     
   13    7    8 ar    
   14    7   22 1     
   15    8    9 1     
   16    9   10 am    
   17    9   23 1     
   18   10   11 2     
   19   10   12 1     
   20   12   16 1     
   21   12   13 1     
   22   12   24 1     
   23   13   14 1     
   24   13   25 1     
   25   13   26 1     
   26   14   15 1     
   27   14   27 1     
   28   14   28 1     
   29   15   16 1     
   30   15   29 1     
   31   15   30 1     
   32    2   31 1     
   33    2   32 1     
   34    4   33 1     
   35   11   34 1     
   36   11   35 1     
   37   16   36 1     
   38   16   37 1     
@<TRIPOS>SUBSTRUCTURE
      1 S1             1
@<TRIPOS>SET
LONE_PAIRS      STATIC     ATOMS    <user>   **** ""
7 31 32 33 34 35 36 37
DONOR_HYDROGENS      STATIC     ATOMS    <user>   **** ""
1 23
ATOM$BLUE        STATIC     ATOMS    COLORGROUP SYSTEM
7 31 32 33 34 35 36 37
ATOM$RED        STATIC     ATOMS    COLORGROUP SYSTEM
1 23
