AV-unprocessed.smi:903|AV-procd|sdf|4095|dock9
  -GOLD-   22720 1583D 1   1.00000     0.00000
 Structure written by MMmdl.
 28 29  0  0  0  0  0  0  0  0  2 V2000
  149.3221  135.3872  158.6834 O   0  0  0  0  0  0  0  0  0  0  0  0
  149.4499  136.5600  159.0968 C   0  0  0  0  0  0  0  0  0  0  0  0
  148.8874  136.9362  160.1511 O   0  5  0  0  0  0  0  0  0  0  0  0
  150.2904  137.5605  158.3317 C   0  0  0  0  0  0  0  0  0  0  0  0
  150.3036  138.8142  158.8503 N   0  0  0  0  0  0  0  0  0  0  0  0
  151.0215  139.7903  158.2474 C   0  0  0  0  0  0  0  0  0  0  0  0
  151.0167  141.0572  158.7935 O   0  0  0  0  0  0  0  0  0  0  0  0
  152.0085  141.9845  158.3620 C   0  0  0  0  0  0  0  0  0  0  0  0
  152.7754  142.4943  159.5881 C   0  0  2  0  0  0  0  0  0  0  0  0
  153.2736  141.3788  160.5040 C   0  0  0  0  0  0  0  0  0  0  0  0
  153.4326  142.1123  161.8161 C   0  0  0  0  0  0  0  0  0  0  0  0
  152.2370  143.0614  161.7951 C   0  0  0  0  0  0  0  0  0  0  0  0
  151.9248  143.2782  160.4207 O   0  0  0  0  0  0  0  0  0  0  0  0
  151.7733  139.5598  157.0827 C   0  0  0  0  0  0  0  0  0  0  0  0
  151.7712  138.2676  156.5309 C   0  0  0  0  0  0  0  0  0  0  0  0
  151.0263  137.2440  157.1498 C   0  0  0  0  0  0  0  0  0  0  0  0
  151.0739  135.6781  156.4105 Cl  0  0  0  0  0  0  0  0  0  0  0  0
  152.6980  141.5252  157.6515 H   0  0  0  0  0  0  0  0  0  0  0  0
  151.5227  142.8255  157.8640 H   0  0  0  0  0  0  0  0  0  0  0  0
  153.6236  143.1077  159.2797 H   0  0  0  0  0  0  0  0  0  0  0  0
  152.5202  140.5958  160.6026 H   0  0  0  0  0  0  0  0  0  0  0  0
  154.1994  140.9217  160.1537 H   0  0  0  0  0  0  0  0  0  0  0  0
  153.4373  141.4500  162.6821 H   0  0  0  0  0  0  0  0  0  0  0  0
  154.3635  142.6810  161.8147 H   0  0  0  0  0  0  0  0  0  0  0  0
  151.3734  142.6017  162.2768 H   0  0  0  0  0  0  0  0  0  0  0  0
  152.4490  144.0009  162.3060 H   0  0  0  0  0  0  0  0  0  0  0  0
  152.3377  140.3566  156.6216 H   0  0  0  0  0  0  0  0  0  0  0  0
  152.3393  138.0632  155.6351 H   0  0  0  0  0  0  0  0  0  0  0  0
  1  2  2  0  0  0  0
  2  3  1  0  0  0  0
  2  4  1  0  0  0  0
  4 16  1  0  0  0  0
  4  5  2  0  0  0  0
  5  6  1  0  0  0  0
  6  7  1  0  0  0  0
  6 14  2  0  0  0  0
  7  8  1  0  0  0  0
  8  9  1  0  0  0  0
  8 18  1  0  0  0  0
  8 19  1  0  0  0  0
  9 13  1  0  0  0  0
  9 10  1  0  0  0  0
  9 20  1  0  0  0  0
 10 11  1  0  0  0  0
 10 21  1  0  0  0  0
 10 22  1  0  0  0  0
 11 12  1  0  0  0  0
 11 23  1  0  0  0  0
 11 24  1  0  0  0  0
 12 13  1  0  0  0  0
 12 25  1  0  0  0  0
 12 26  1  0  0  0  0
 14 15  1  0  0  0  0
 14 27  1  0  0  0  0
 15 16  2  0  0  0  0
 15 28  1  0  0  0  0
 16 17  1  0  0  0  0
M  CHG  1   3  -1
M  END
> <s_m_source_file>
AV-unprocessed.smi

> <i_m_source_file_index>
903

> <i_lp_mmshare_version>
43012

> <i_f3d_flags>
0

> <s_epik_input>
Tz1DKFtPSF0pYzFuYyhbY0hdW2NIXWMxQ2wpT1tDSDJdW0NAQEhdMltDSDJdW0NIMl1bQ0gyXU8y

> <s_epik_cmdline>
J2VwaWtfcHl0aG9uJywgJy1waCcsICc3LjAnLCAnLXRuJywgJzgnLCAnLW1hJywgJzIwMCcsICctbWV0YWxfYmluZGluZycsICctaW1hZScsICc8aW5maWxlLm1hZT4nLCAnLW9tYWUnLCAnPG91dGZpbGUubWFlPic=

> <r_lp_tautomer_probability>
1

> <r_epik_Ionization_Penalty>
1.22588e-05

> <r_epik_Ionization_Penalty_Charging>
1.01343e-05

> <r_epik_Ionization_Penalty_Neutral>
2.12445e-06

> <r_epik_State_Penalty>
-0

> <r_epik_Charging_Adjusted_Penalty>
1.01343e-05

> <i_epik_Tot_Q>
-1

> <i_epik_Tot_abs_Q>
1

> <r_epik_Metal_State_Penalty>
-0

> <b_epik_Metal_Only>
0

> <s_lp_Force_Field>
OPLS_2005

> <r_lp_Energy>
26.032

> <b_lp_Chiralities_Consistent>
1

> <s_lp_Variant>
AV-unprocessed.smi:903-1

> <Gold.Version>
5.8.1

> <Gold.Id.Protein>
6NUR|6NUR_protein|mol2

> <Gold.PLP.Fitness>
38.7510

> <Gold.PLP.PLP>
-30.1010

> <Gold.PLP.part.hbond>
-2.5997

> <Gold.PLP.part.metal>
0.0000

> <Gold.PLP.part.buried>
-5.3785

> <Gold.PLP.part.nonpolar>
-22.0631

> <Gold.PLP.part.repulsive>
0.0557

> <Gold.PLP.ligand.clash>
0.0000

> <Gold.PLP.ligand.torsion>
0.5984

> <Gold.PLP.Chemscore.Hbond>
3.2800

> <Gold.PLP.Chemscore.CHOScore>
0.0000

> <Gold.PLP.Chemscore.Metal>
0.0000

> <Gold.Chemscore.Hbonds>
donor molecule, donor type, donor heavy atom, donor atom, acceptor molecule, acceptor atom, score
      P1  H  6896  6908       L1     1  2.00
      P1  H  6931  6943       L1     3  0.81

> <Gold.PLP.Chemscore.Internal.Correction>
0.0069

> <Gold.Rescore>
     Score         DG    S(hbond)    S(metal)    S(lipo)     H(rot)  DE(clash)    DE(int)     intcor
     14.81     -16.59       1.87        0.00      74.71       1.51       0.00       1.78       ----

> <Gold.Chemscore.Fitness>
14.8055

> <Gold.Chemscore.DG>
-16.5898

> <Gold.Chemscore.ZeroCoef>
-5.4800

> <Gold.Chemscore.Hbond>
1.8660

> <Gold.Chemscore.Metal>
0.0000

> <Gold.Chemscore.Lipo>
74.7120

> <Gold.Chemscore.Internal_Hbond>
0.0000

> <Gold.Chemscore.DEClash>
0.0021

> <Gold.Chemscore.DEInternal>
1.7822

> <Gold.Chemscore.Rot>
1.5094

> <Gold.Chemscore.Internal.Correction>
   9.000000E+99

> <Gold.Chemscore.Hbonds>
donor molecule, donor type, donor heavy atom, donor atom, acceptor molecule, acceptor atom, score
      P1  H  6896  6908       L1     1  0.60
      P1  H  6931  6943       L1     3  0.40

> <Gold.Chemscore.Hbond.Weighted>
-6.2326

> <Gold.Chemscore.Metal.Weighted>
-0.0000

> <Gold.Chemscore.Lipo.Weighted>
-8.7413

> <Gold.Chemscore.Internal_Hbond.Weighted>
0.0000

> <Gold.Chemscore.DEClash.Weighted>
0.0021

> <Gold.Chemscore.DEInternal.Weighted>
1.7822

> <Gold.Chemscore.Rot.Weighted>
3.8641

> <Gold.Chemscore.Internal.Correction.Weighted>
   9.000000E+99

> <Gold.Protein.RotatedTorsions>
[ 6907 6896 6895 6894 ] final  156.25 input  -60.11 | X-H torsion
[ 7974 7965 7964 7962 ] final -105.74 input  175.53 | X-H torsion
[ 8008 7997 7996 7995 ] final -126.77 input   59.86 | X-H torsion
[ 10167 10162 10161 10158 ] final  111.87 input  -65.29 | X-H torsion
[ 10718 10713 10712 10709 ] final -145.83 input   66.30 | X-H torsion
[ 10763 10752 10751 10750 ] final  -17.18 input  -60.55 | X-H torsion
[ 11005 11000 10999 10996 ] final   47.69 input  -57.11 | X-H torsion

> <Gold.Protein.ActiveResidues>
 VAL166  LYS551  ARG553  GLY616  TRP617  ASP618  TYR619  PRO620  LYS621  CYS622 
 ASP623  PHE694  ASN695  SER759  ASP760  ASP761  ALA762  ILE779  LEU786  VAL792 
 PHE793  MET794  SER795  GLU796  ALA797  LYS798  CYS799  TRP800  GLU811  SER814 

> <Gold.Protein.RotatedAtoms>
  152.0324  133.3943  159.4302 H   0  0  0  0  0  0  0  0  0  0  0  0  # atno 6907 bound_to 6896
  150.6881  134.3506  159.4916 H   0  0  0  0  0  0  0  0  0  0  0  0  # atno 6908 bound_to 6896
  152.1294  134.9146  160.0610 H   0  0  0  0  0  0  0  0  0  0  0  0  # atno 6909 bound_to 6896
  145.2267  140.9155  143.3228 H   0  0  0  0  0  0  0  0  0  0  0  0  # atno 7974 bound_to 7965
  155.2351  140.0426  157.2967 H   0  0  0  0  0  0  0  0  0  0  0  0  # atno 8008 bound_to 7997
  154.5863  140.2414  155.7952 H   0  0  0  0  0  0  0  0  0  0  0  0  # atno 8009 bound_to 7997
  156.2228  140.2964  156.0003 H   0  0  0  0  0  0  0  0  0  0  0  0  # atno 8010 bound_to 7997
  139.6578  144.7129  151.1923 H   0  0  0  0  0  0  0  0  0  0  0  0  # atno 10167 bound_to 10162
  156.3873  130.7868  151.2066 H   0  0  0  0  0  0  0  0  0  0  0  0  # atno 10718 bound_to 10713
  153.5699  135.7008  153.5509 H   0  0  0  0  0  0  0  0  0  0  0  0  # atno 10763 bound_to 10752
  153.3354  135.4035  155.1529 H   0  0  0  0  0  0  0  0  0  0  0  0  # atno 10764 bound_to 10752
  154.8635  135.3729  154.5221 H   0  0  0  0  0  0  0  0  0  0  0  0  # atno 10765 bound_to 10752
  140.1256  134.4772  155.8562 H   0  0  0  0  0  0  0  0  0  0  0  0  # atno 11005 bound_to 11000
  144.9715  139.3875  143.6307 LP  0  0  0  0  0  0  0  0  0  0  0  0  # atno 17320 bound_to 7965
  146.3363  139.8814  142.8823 LP  0  0  0  0  0  0  0  0  0  0  0  0  # atno 17321 bound_to 7965
  140.7567  143.6043  150.8668 LP  0  0  0  0  0  0  0  0  0  0  0  0  # atno 17342 bound_to 10162
  139.9698  143.6070  152.2977 LP  0  0  0  0  0  0  0  0  0  0  0  0  # atno 17343 bound_to 10162
  157.7497  131.0326  150.4234 LP  0  0  0  0  0  0  0  0  0  0  0  0  # atno 17370 bound_to 10713
  156.4489  130.4007  149.6649 LP  0  0  0  0  0  0  0  0  0  0  0  0  # atno 17371 bound_to 10713
  141.2160  133.6777  156.6972 LP  0  0  0  0  0  0  0  0  0  0  0  0  # atno 17394 bound_to 11000
  140.2908  134.8242  157.4015 LP  0  0  0  0  0  0  0  0  0  0  0  0  # atno 17395 bound_to 11000

$$$$
