AV-unprocessed.smi:1120|AV-procd|sdf|4822|dock10
  -GOLD-   22720 3383D 1   1.00000     0.00000
 Structure written by MMmdl.
 47 48  0  0  0  0  0  0  0  0  2 V2000
  151.5943  144.5719  160.7167 C   0  0  0  0  0  0  0  0  0  0  0  0
  152.2592  143.4253  159.9426 C   0  0  2  0  0  0  0  0  0  0  0  0
  151.2377  142.6330  159.0942 C   0  0  0  0  0  0  0  0  0  0  0  0
  151.8789  141.4409  158.3407 C   0  0  0  0  0  0  0  0  0  0  0  0
  152.6202  140.4518  159.2727 C   0  0  1  0  0  0  0  0  0  0  0  0
  153.2889  139.4350  158.4712 N   0  5  0  0  0  0  0  0  0  0  0  0
  153.1987  137.8704  158.8924 S   0  0  0  0  0  0  0  0  0  0  0  0
  151.8249  137.3468  158.8105 O   0  0  0  0  0  0  0  0  0  0  0  0
  154.2606  137.0520  158.2843 O   0  0  0  0  0  0  0  0  0  0  0  0
  153.6075  137.9822  160.6927 C   0  0  0  0  0  0  0  0  0  0  0  0
  154.1174  136.6434  161.2293 C   0  0  0  0  0  0  0  0  0  0  0  0
  154.1522  135.6566  160.4943 O   0  0  0  0  0  0  0  0  0  0  0  0
  154.5350  136.6267  162.5021 N   0  0  0  0  0  0  0  0  0  0  0  0
  155.0609  135.4621  163.2017 C   0  0  0  0  0  0  0  0  0  0  0  0
  154.0746  134.9657  164.2729 C   0  0  0  0  0  0  0  0  0  0  0  0
  154.4035  133.5776  164.7965 C   0  0  0  0  0  0  0  0  0  0  0  0
  153.5583  132.4825  164.5152 C   0  0  0  0  0  0  0  0  0  0  0  0
  153.8922  131.2225  165.0470 C   0  0  0  0  0  0  0  0  0  0  0  0
  155.0553  131.1048  165.8322 C   0  0  0  0  0  0  0  0  0  0  0  0
  155.8344  132.2583  166.0524 C   0  0  0  0  0  0  0  0  0  0  0  0
  155.5215  133.4722  165.5499 N   0  0  0  0  0  0  0  0  0  0  0  0
  153.6352  141.2500  160.1309 C   0  0  0  0  0  0  0  0  0  0  0  0
  152.9959  142.4443  160.8835 C   0  0  0  0  0  0  0  0  0  0  0  0
  150.8416  144.1974  161.4111 H   0  0  0  0  0  0  0  0  0  0  0  0
  151.1036  145.2699  160.0379 H   0  0  0  0  0  0  0  0  0  0  0  0
  152.3298  145.1337  161.2931 H   0  0  0  0  0  0  0  0  0  0  0  0
  152.9953  143.8623  159.2658 H   0  0  0  0  0  0  0  0  0  0  0  0
  150.4259  142.2776  159.7324 H   0  0  0  0  0  0  0  0  0  0  0  0
  150.7725  143.3022  158.3696 H   0  0  0  0  0  0  0  0  0  0  0  0
  151.1067  140.9113  157.7816 H   0  0  0  0  0  0  0  0  0  0  0  0
  152.5750  141.8340  157.5977 H   0  0  0  0  0  0  0  0  0  0  0  0
  151.8814  140.0072  159.9402 H   0  0  0  0  0  0  0  0  0  0  0  0
  154.3692  138.7510  160.8225 H   0  0  0  0  0  0  0  0  0  0  0  0
  152.7158  138.2950  161.2354 H   0  0  0  0  0  0  0  0  0  0  0  0
  154.4661  137.4846  163.0319 H   0  0  0  0  0  0  0  0  0  0  0  0
  155.2696  134.6597  162.4926 H   0  0  0  0  0  0  0  0  0  0  0  0
  156.0094  135.7348  163.6661 H   0  0  0  0  0  0  0  0  0  0  0  0
  154.0638  135.6653  165.1099 H   0  0  0  0  0  0  0  0  0  0  0  0
  153.0616  134.9644  163.8684 H   0  0  0  0  0  0  0  0  0  0  0  0
  152.6672  132.6063  163.9167 H   0  0  0  0  0  0  0  0  0  0  0  0
  153.2661  130.3631  164.8582 H   0  0  0  0  0  0  0  0  0  0  0  0
  155.3421  130.1544  166.2571 H   0  0  0  0  0  0  0  0  0  0  0  0
  156.7321  132.2049  166.6505 H   0  0  0  0  0  0  0  0  0  0  0  0
  154.1068  140.5921  160.8608 H   0  0  0  0  0  0  0  0  0  0  0  0
  154.4383  141.6241  159.4942 H   0  0  0  0  0  0  0  0  0  0  0  0
  153.7754  142.9794  161.4270 H   0  0  0  0  0  0  0  0  0  0  0  0
  152.3045  142.0766  161.6446 H   0  0  0  0  0  0  0  0  0  0  0  0
  1  2  1  0  0  0  0
  1 24  1  0  0  0  0
  1 25  1  0  0  0  0
  1 26  1  0  0  0  0
  2 23  1  0  0  0  0
  2  3  1  0  0  0  0
  2 27  1  0  0  0  0
  3  4  1  0  0  0  0
  3 28  1  0  0  0  0
  3 29  1  0  0  0  0
  4  5  1  0  0  0  0
  4 30  1  0  0  0  0
  4 31  1  0  0  0  0
  5  6  1  0  0  0  0
  5 22  1  0  0  0  0
  5 32  1  0  0  0  0
  6  7  1  0  0  0  0
  7  8  2  0  0  0  0
  7  9  2  0  0  0  0
  7 10  1  0  0  0  0
 10 11  1  0  0  0  0
 10 33  1  0  0  0  0
 10 34  1  0  0  0  0
 11 12  2  0  0  0  0
 11 13  1  0  0  0  0
 13 14  1  0  0  0  0
 13 35  1  0  0  0  0
 14 15  1  0  0  0  0
 14 36  1  0  0  0  0
 14 37  1  0  0  0  0
 15 16  1  0  0  0  0
 15 38  1  0  0  0  0
 15 39  1  0  0  0  0
 16 21  1  0  0  0  0
 16 17  2  0  0  0  0
 17 18  1  0  0  0  0
 17 40  1  0  0  0  0
 18 19  2  0  0  0  0
 18 41  1  0  0  0  0
 19 20  1  0  0  0  0
 19 42  1  0  0  0  0
 20 21  2  0  0  0  0
 20 43  1  0  0  0  0
 22 23  1  0  0  0  0
 22 44  1  0  0  0  0
 22 45  1  0  0  0  0
 23 46  1  0  0  0  0
 23 47  1  0  0  0  0
M  CHG  1   6  -1
M  END
> <s_m_source_file>
AV-unprocessed.smi

> <i_m_source_file_index>
1120

> <i_lp_mmshare_version>
43012

> <i_f3d_flags>
0

> <s_epik_input>
W0NIM11bQ0BASF0xW0NIMl1bQ0gyXVtDQEhdKFtDSDJdW0NIMl0xKVtOSF1TKD1PKSg9TylbQ0gyXUMoPU8pW05IXVtDSDJdW0NIMl1jMltjSF1bY0hdW2NIXVtjSF1uMg==

> <s_epik_cmdline>
J2VwaWtfcHl0aG9uJywgJy1waCcsICc3LjAnLCAnLXRuJywgJzgnLCAnLW1hJywgJzIwMCcsICctbWV0YWxfYmluZGluZycsICctaW1hZScsICc8aW5maWxlLm1hZT4nLCAnLW9tYWUnLCAnPG91dGZpbGUubWFlPic=

> <r_epik_Ionization_Penalty>
5.68623

> <r_epik_Ionization_Penalty_Charging>
5.66033

> <r_epik_Ionization_Penalty_Neutral>
0.0259005

> <r_epik_State_Penalty>
5.67764

> <r_epik_Charging_Adjusted_Penalty>
11.338

> <i_epik_Tot_Q>
-1

> <i_epik_Tot_abs_Q>
1

> <r_epik_Metal_State_Penalty>
1.68319

> <b_epik_Metal_Only>
1

> <s_lp_Force_Field>
OPLS_2005

> <r_lp_Energy>
8.54043

> <b_lp_Chiralities_Consistent>
1

> <s_lp_Variant>
AV-unprocessed.smi:1120-5

> <Gold.Version>
5.8.1

> <Gold.Id.Protein>
6NUR|6NUR_protein|mol2

> <Gold.PLP.Fitness>
51.4128

> <Gold.PLP.PLP>
-44.1525

> <Gold.PLP.part.hbond>
-2.0000

> <Gold.PLP.part.metal>
0.0000

> <Gold.PLP.part.buried>
-5.8077

> <Gold.PLP.part.nonpolar>
-36.2022

> <Gold.PLP.part.repulsive>
0.1068

> <Gold.PLP.ligand.clash>
0.0000

> <Gold.PLP.ligand.torsion>
1.3983

> <Gold.PLP.Chemscore.Hbond>
3.0000

> <Gold.PLP.Chemscore.CHOScore>
0.0000

> <Gold.PLP.Chemscore.Metal>
0.0000

> <Gold.Chemscore.Hbonds>
donor molecule, donor type, donor heavy atom, donor atom, acceptor molecule, acceptor atom, score
      P1  H  6896  6909       L1    12  0.98
      P1  H  7997  8008       L1     6  1.85

> <Gold.PLP.Chemscore.Internal.Correction>
1.0570

> <Gold.Rescore>
     Score         DG    S(hbond)    S(metal)    S(lipo)     H(rot)  DE(clash)    DE(int)     intcor
     19.56     -22.56       1.91        0.00     132.18       1.86       0.13       2.87       ----

> <Gold.Chemscore.Fitness>
19.5558

> <Gold.Chemscore.DG>
-22.5588

> <Gold.Chemscore.ZeroCoef>
-5.4800

> <Gold.Chemscore.Hbond>
1.9090

> <Gold.Chemscore.Metal>
0.0000

> <Gold.Chemscore.Lipo>
132.1780

> <Gold.Chemscore.Internal_Hbond>
0.0000

> <Gold.Chemscore.DEClash>
0.1289

> <Gold.Chemscore.DEInternal>
2.8740

> <Gold.Chemscore.Rot>
1.8602

> <Gold.Chemscore.Internal.Correction>
   9.000000E+99

> <Gold.Chemscore.Hbonds>
donor molecule, donor type, donor heavy atom, donor atom, acceptor molecule, acceptor atom, score
      P1  H  6896  6909       L1    12  0.85
      P1  H  7997  8008       L1     6  0.81

> <Gold.Chemscore.Hbond.Weighted>
-6.3761

> <Gold.Chemscore.Metal.Weighted>
-0.0000

> <Gold.Chemscore.Lipo.Weighted>
-15.4648

> <Gold.Chemscore.Internal_Hbond.Weighted>
0.0000

> <Gold.Chemscore.DEClash.Weighted>
0.1289

> <Gold.Chemscore.DEInternal.Weighted>
2.8740

> <Gold.Chemscore.Rot.Weighted>
4.7622

> <Gold.Chemscore.Internal.Correction.Weighted>
   9.000000E+99

> <Gold.Protein.RotatedTorsions>
[ 6907 6896 6895 6894 ] final  169.80 input  -60.11 | X-H torsion
[ 7974 7965 7964 7962 ] final  -72.44 input  175.53 | X-H torsion
[ 8008 7997 7996 7995 ] final -102.77 input   59.86 | X-H torsion
[ 10167 10162 10161 10158 ] final -118.44 input  -65.29 | X-H torsion
[ 10718 10713 10712 10709 ] final -121.51 input   66.30 | X-H torsion
[ 10763 10752 10751 10750 ] final  -74.24 input  -60.55 | X-H torsion
[ 11005 11000 10999 10996 ] final  109.33 input  -57.11 | X-H torsion

> <Gold.Protein.ActiveResidues>
 VAL166  LYS551  ARG553  GLY616  TRP617  ASP618  TYR619  PRO620  LYS621  CYS622 
 ASP623  PHE694  ASN695  SER759  ASP760  ASP761  ALA762  ILE779  LEU786  VAL792 
 PHE793  MET794  SER795  GLU796  ALA797  LYS798  CYS799  TRP800  GLU811  SER814 

> <Gold.Protein.RotatedAtoms>
  151.8261  133.3401  159.3598 H   0  0  0  0  0  0  0  0  0  0  0  0  # atno 6907 bound_to 6896
  150.7279  134.5527  159.5812 H   0  0  0  0  0  0  0  0  0  0  0  0  # atno 6908 bound_to 6896
  152.2970  134.7656  160.0417 H   0  0  0  0  0  0  0  0  0  0  0  0  # atno 6909 bound_to 6896
  145.6651  140.9240  143.0913 H   0  0  0  0  0  0  0  0  0  0  0  0  # atno 7974 bound_to 7965
  154.8615  140.0426  157.1668 H   0  0  0  0  0  0  0  0  0  0  0  0  # atno 8008 bound_to 7997
  154.8835  140.2976  155.5390 H   0  0  0  0  0  0  0  0  0  0  0  0  # atno 8009 bound_to 7997
  156.2998  140.2407  156.3841 H   0  0  0  0  0  0  0  0  0  0  0  0  # atno 8010 bound_to 7997
  140.0574  143.5001  152.2050 H   0  0  0  0  0  0  0  0  0  0  0  0  # atno 10167 bound_to 10162
  156.1343  130.6418  150.9671 H   0  0  0  0  0  0  0  0  0  0  0  0  # atno 10718 bound_to 10713
  154.4703  135.5871  153.6317 H   0  0  0  0  0  0  0  0  0  0  0  0  # atno 10763 bound_to 10752
  152.9834  135.6065  154.3374 H   0  0  0  0  0  0  0  0  0  0  0  0  # atno 10764 bound_to 10752
  154.3256  135.2843  155.2477 H   0  0  0  0  0  0  0  0  0  0  0  0  # atno 10765 bound_to 10752
  139.8860  134.9455  156.6109 H   0  0  0  0  0  0  0  0  0  0  0  0  # atno 11005 bound_to 11000
  144.7076  139.8499  143.7425 LP  0  0  0  0  0  0  0  0  0  0  0  0  # atno 17320 bound_to 7965
  146.1093  139.4096  143.0298 LP  0  0  0  0  0  0  0  0  0  0  0  0  # atno 17321 bound_to 7965
  139.5915  144.7551  151.3390 LP  0  0  0  0  0  0  0  0  0  0  0  0  # atno 17342 bound_to 10162
  140.7188  143.7193  150.7708 LP  0  0  0  0  0  0  0  0  0  0  0  0  # atno 17343 bound_to 10162
  157.6517  131.0896  150.8036 LP  0  0  0  0  0  0  0  0  0  0  0  0  # atno 17370 bound_to 10713
  156.8117  130.4955  149.5355 LP  0  0  0  0  0  0  0  0  0  0  0  0  # atno 17371 bound_to 10713
  140.7812  133.8658  155.8569 LP  0  0  0  0  0  0  0  0  0  0  0  0  # atno 17394 bound_to 11000
  140.9758  134.1470  157.4537 LP  0  0  0  0  0  0  0  0  0  0  0  0  # atno 17395 bound_to 11000

$$$$
