AV-unprocessed.smi:2739|AV-procd|sdf|10550|dock8
  -GOLD-   2272015 03D 1   1.00000     0.00000
 Structure written by MMmdl.
 35 35  0  0  0  0  0  0  0  0  1 V2000
  152.4798  144.7735  158.3442 C   0  0  0  0  0  0  0  0  0  0  0  0
  151.4936  144.0472  159.2701 C   0  0  0  0  0  0  0  0  0  0  0  0
  151.7102  142.5237  159.3318 C   0  0  2  0  0  0  0  0  0  0  0  0
  152.9286  142.1605  160.1952 C   0  0  0  0  0  0  0  0  0  0  0  0
  151.8805  141.9810  157.9863 N   0  0  0  0  0  0  0  0  0  0  0  0
  151.0778  141.0781  157.4017 C   0  0  0  0  0  0  0  0  0  0  0  0
  150.0682  140.6171  157.9338 O   0  0  0  0  0  0  0  0  0  0  0  0
  151.4872  140.6086  156.0059 C   0  0  0  0  0  0  0  0  0  0  0  0
  150.3248  140.1901  155.2441 N   0  0  0  0  0  0  0  0  0  0  0  0
  149.9547  138.9131  154.8808 C   0  0  0  0  0  0  0  0  0  0  0  0
  148.8021  139.0163  154.1567 C   0  0  0  0  0  0  0  0  0  0  0  0
  148.5378  140.4167  154.1230 C   0  0  0  0  0  0  0  0  0  0  0  0
  147.3929  141.1401  153.4634 C   0  0  2  0  0  0  0  0  0  0  0  0
  146.5740  141.9439  154.4823 C   0  0  0  0  0  0  0  0  0  0  0  0
  146.5207  140.2548  152.7920 O   0  0  0  0  0  0  0  0  0  0  0  0
  149.4532  141.1130  154.7824 N   0  0  0  0  0  0  0  0  0  0  0  0
  152.2522  145.8387  158.2973 H   0  0  0  0  0  0  0  0  0  0  0  0
  152.4285  144.3788  157.3290 H   0  0  0  0  0  0  0  0  0  0  0  0
  153.5077  144.6717  158.6928 H   0  0  0  0  0  0  0  0  0  0  0  0
  151.5602  144.4720  160.2726 H   0  0  0  0  0  0  0  0  0  0  0  0
  150.4797  144.2499  158.9227 H   0  0  0  0  0  0  0  0  0  0  0  0
  150.8243  142.0804  159.7902 H   0  0  0  0  0  0  0  0  0  0  0  0
  152.8194  142.5449  161.2095 H   0  0  0  0  0  0  0  0  0  0  0  0
  153.8474  142.5752  159.7788 H   0  0  0  0  0  0  0  0  0  0  0  0
  153.0540  141.0795  160.2666 H   0  0  0  0  0  0  0  0  0  0  0  0
  152.6880  142.2968  157.4688 H   0  0  0  0  0  0  0  0  0  0  0  0
  151.9842  141.4199  155.4722 H   0  0  0  0  0  0  0  0  0  0  0  0
  152.1990  139.7838  156.0725 H   0  0  0  0  0  0  0  0  0  0  0  0
  150.5379  138.0484  155.1615 H   0  0  0  0  0  0  0  0  0  0  0  0
  148.2333  138.2123  153.7140 H   0  0  0  0  0  0  0  0  0  0  0  0
  147.7835  141.8276  152.7120 H   0  0  0  0  0  0  0  0  0  0  0  0
  147.1945  142.6839  154.9882 H   0  0  0  0  0  0  0  0  0  0  0  0
  146.1431  141.2941  155.2449 H   0  0  0  0  0  0  0  0  0  0  0  0
  145.7560  142.4772  153.9972 H   0  0  0  0  0  0  0  0  0  0  0  0
  145.6392  140.5850  152.8754 H   0  0  0  0  0  0  0  0  0  0  0  0
  1  2  1  0  0  0  0
  1 17  1  0  0  0  0
  1 18  1  0  0  0  0
  1 19  1  0  0  0  0
  2  3  1  0  0  0  0
  2 20  1  0  0  0  0
  2 21  1  0  0  0  0
  3  4  1  0  0  0  0
  3  5  1  0  0  0  0
  3 22  1  0  0  0  0
  4 23  1  0  0  0  0
  4 24  1  0  0  0  0
  4 25  1  0  0  0  0
  5  6  1  0  0  0  0
  5 26  1  0  0  0  0
  6  7  2  0  0  0  0
  6  8  1  0  0  0  0
  8  9  1  0  0  0  0
  8 27  1  0  0  0  0
  8 28  1  0  0  0  0
  9 16  1  0  0  0  0
  9 10  1  0  0  0  0
 10 11  2  0  0  0  0
 10 29  1  0  0  0  0
 11 12  1  0  0  0  0
 11 30  1  0  0  0  0
 12 13  1  0  0  0  0
 12 16  2  0  0  0  0
 13 14  1  0  0  0  0
 13 15  1  0  0  0  0
 13 31  1  0  0  0  0
 14 32  1  0  0  0  0
 14 33  1  0  0  0  0
 14 34  1  0  0  0  0
 15 35  1  0  0  0  0
M  END
> <s_m_source_file>
AV-unprocessed.smi

> <i_m_source_file_index>
2739

> <i_lp_mmshare_version>
43012

> <i_f3d_flags>
0

> <s_epik_input>
W0NIM11bQ0gyXVtDQEhdKFtDSDNdKVtOSF1DKD1PKVtDSDJdbjFbY0hdW2NIXWMobjEpW0NASF0oW0NIM10pW09IXQ==

> <s_epik_cmdline>
J2VwaWtfcHl0aG9uJywgJy1waCcsICc3LjAnLCAnLXRuJywgJzgnLCAnLW1hJywgJzIwMCcsICctbWV0YWxfYmluZGluZycsICctaW1hZScsICc8aW5maWxlLm1hZT4nLCAnLW9tYWUnLCAnPG91dGZpbGUubWFlPic=

> <r_lp_tautomer_probability>
1

> <r_epik_Ionization_Penalty>
5.22246e-06

> <r_epik_Ionization_Penalty_Charging>
0

> <r_epik_Ionization_Penalty_Neutral>
5.22246e-06

> <r_epik_State_Penalty>
-0

> <r_epik_Charging_Adjusted_Penalty>
0

> <i_epik_Tot_Q>
0

> <i_epik_Tot_abs_Q>
0

> <r_epik_Metal_State_Penalty>
-0

> <b_epik_Metal_Only>
0

> <s_lp_Force_Field>
OPLS_2005

> <r_lp_Energy>
0.862384

> <b_lp_Chiralities_Consistent>
1

> <s_lp_Variant>
AV-unprocessed.smi:2739-1

> <Gold.Version>
5.8.1

> <Gold.Id.Protein>
6NUR|6NUR_protein|mol2

> <Gold.PLP.Fitness>
38.4005

> <Gold.PLP.PLP>
-36.5896

> <Gold.PLP.part.hbond>
-1.3874

> <Gold.PLP.part.metal>
0.0000

> <Gold.PLP.part.buried>
-3.8571

> <Gold.PLP.part.nonpolar>
-32.1568

> <Gold.PLP.part.repulsive>
0.2036

> <Gold.PLP.ligand.clash>
0.0000

> <Gold.PLP.ligand.torsion>
0.6081

> <Gold.PLP.Chemscore.Hbond>
1.0000

> <Gold.PLP.Chemscore.CHOScore>
0.0000

> <Gold.PLP.Chemscore.Metal>
0.0000

> <Gold.Chemscore.Hbonds>
donor molecule, donor type, donor heavy atom, donor atom, acceptor molecule, acceptor atom, score
      L1  H    15    35       P1 10175  1.00

> <Gold.PLP.Chemscore.Internal.Correction>
0.0271

> <Gold.Rescore>
     Score         DG    S(hbond)    S(metal)    S(lipo)     H(rot)  DE(clash)    DE(int)     intcor
     11.90     -12.47       0.90        0.00      85.35       2.34       0.09       0.47       ----

> <Gold.Chemscore.Fitness>
11.8996

> <Gold.Chemscore.DG>
-12.4665

> <Gold.Chemscore.ZeroCoef>
-5.4800

> <Gold.Chemscore.Hbond>
0.8993

> <Gold.Chemscore.Metal>
0.0000

> <Gold.Chemscore.Lipo>
85.3483

> <Gold.Chemscore.Internal_Hbond>
0.0000

> <Gold.Chemscore.DEClash>
0.0943

> <Gold.Chemscore.DEInternal>
0.4726

> <Gold.Chemscore.Rot>
2.3448

> <Gold.Chemscore.Internal.Correction>
   9.000000E+99

> <Gold.Chemscore.Hbonds>
donor molecule, donor type, donor heavy atom, donor atom, acceptor molecule, acceptor atom, score
      L1  H    15    35       P1 10175  0.65

> <Gold.Chemscore.Hbond.Weighted>
-3.0035

> <Gold.Chemscore.Metal.Weighted>
-0.0000

> <Gold.Chemscore.Lipo.Weighted>
-9.9858

> <Gold.Chemscore.Internal_Hbond.Weighted>
0.0000

> <Gold.Chemscore.DEClash.Weighted>
0.0943

> <Gold.Chemscore.DEInternal.Weighted>
0.4726

> <Gold.Chemscore.Rot.Weighted>
6.0027

> <Gold.Chemscore.Internal.Correction.Weighted>
   9.000000E+99

> <Gold.Protein.RotatedTorsions>
[ 6907 6896 6895 6894 ] final   69.64 input  -60.11 | X-H torsion
[ 7974 7965 7964 7962 ] final   -1.79 input  175.53 | X-H torsion
[ 8008 7997 7996 7995 ] final  -97.49 input   59.86 | X-H torsion
[ 10167 10162 10161 10158 ] final  -39.25 input  -65.29 | X-H torsion
[ 10718 10713 10712 10709 ] final  128.67 input   66.30 | X-H torsion
[ 10763 10752 10751 10750 ] final  -50.33 input  -60.55 | X-H torsion
[ 11005 11000 10999 10996 ] final  177.42 input  -57.11 | X-H torsion

> <Gold.Protein.ActiveResidues>
 VAL166  LYS551  ARG553  GLY616  TRP617  ASP618  TYR619  PRO620  LYS621  CYS622 
 ASP623  PHE694  ASN695  SER759  ASP760  ASP761  ALA762  ILE779  LEU786  VAL792 
 PHE793  MET794  SER795  GLU796  ALA797  LYS798  CYS799  TRP800  GLU811  SER814 

> <Gold.Protein.RotatedAtoms>
  152.4699  134.4986  159.9717 H   0  0  0  0  0  0  0  0  0  0  0  0  # atno 6907 bound_to 6896
  151.5015  133.3497  159.2877 H   0  0  0  0  0  0  0  0  0  0  0  0  # atno 6908 bound_to 6896
  150.8703  134.8103  159.7211 H   0  0  0  0  0  0  0  0  0  0  0  0  # atno 6909 bound_to 6896
  146.2413  140.1474  142.8334 H   0  0  0  0  0  0  0  0  0  0  0  0  # atno 7974 bound_to 7965
  154.7885  140.0462  157.1182 H   0  0  0  0  0  0  0  0  0  0  0  0  # atno 8008 bound_to 7997
  154.9619  140.3078  155.5007 H   0  0  0  0  0  0  0  0  0  0  0  0  # atno 8009 bound_to 7997
  156.2946  140.2269  156.4705 H   0  0  0  0  0  0  0  0  0  0  0  0  # atno 8010 bound_to 7997
  140.7069  143.3226  151.2755 H   0  0  0  0  0  0  0  0  0  0  0  0  # atno 10167 bound_to 10162
  157.5223  131.1098  150.9134 H   0  0  0  0  0  0  0  0  0  0  0  0  # atno 10718 bound_to 10713
  154.1086  135.6552  153.4881 H   0  0  0  0  0  0  0  0  0  0  0  0  # atno 10763 bound_to 10752
  153.0264  135.5242  154.7214 H   0  0  0  0  0  0  0  0  0  0  0  0  # atno 10764 bound_to 10752
  154.6388  135.2985  155.0098 H   0  0  0  0  0  0  0  0  0  0  0  0  # atno 10765 bound_to 10752
  140.3839  134.6922  157.4468 H   0  0  0  0  0  0  0  0  0  0  0  0  # atno 11005 bound_to 11000
  145.0196  140.8783  143.5174 LP  0  0  0  0  0  0  0  0  0  0  0  0  # atno 17320 bound_to 7965
  145.1520  139.2509  143.5436 LP  0  0  0  0  0  0  0  0  0  0  0  0  # atno 17321 bound_to 7965
  139.6685  144.0062  152.2738 LP  0  0  0  0  0  0  0  0  0  0  0  0  # atno 17342 bound_to 10162
  139.9653  144.6530  150.8040 LP  0  0  0  0  0  0  0  0  0  0  0  0  # atno 17343 bound_to 10162
  156.9741  130.5502  149.5292 LP  0  0  0  0  0  0  0  0  0  0  0  0  # atno 17370 bound_to 10713
  156.0362  130.5449  150.8660 LP  0  0  0  0  0  0  0  0  0  0  0  0  # atno 17371 bound_to 10713
  140.0457  134.6203  155.8924 LP  0  0  0  0  0  0  0  0  0  0  0  0  # atno 17394 bound_to 11000
  141.1914  133.6571  156.5454 LP  0  0  0  0  0  0  0  0  0  0  0  0  # atno 17395 bound_to 11000

$$$$
