AV-unprocessed.smi:1406|AV-procd|sdf|5719|dock10
  -GOLD-   22720 5353D 1   1.00000     0.00000
 Structure written by MMmdl.
 41 43  0  0  0  0  0  0  0  0  2 V2000
  148.7831  136.4364  157.0207 C   0  0  0  0  0  0  0  0  0  0  0  0
  149.0501  136.4829  155.5026 C   0  0  2  0  0  0  0  0  0  0  0  0
  149.4477  135.1134  154.9306 C   0  0  0  0  0  0  0  0  0  0  0  0
  150.5245  134.5953  155.2283 O   0  0  0  0  0  0  0  0  0  0  0  0
  148.5674  134.5373  154.0972 N   0  0  0  0  0  0  0  0  0  0  0  0
  148.7820  133.2651  153.4162 C   0  0  1  0  0  0  0  0  0  0  0  0
  149.4699  132.1915  154.2818 C   0  0  0  0  0  0  0  0  0  0  0  0
  148.8034  130.8592  153.8856 C   0  0  0  0  0  0  0  0  0  0  0  0
  147.8625  131.2001  152.8010 N   0  3  1  0  0  0  0  0  0  0  0  0
  146.7083  130.2976  152.5990 C   0  0  0  0  0  0  0  0  0  0  0  0
  145.8985  130.7752  151.3763 C   0  0  0  0  0  0  0  0  0  0  0  0
  145.5077  132.2634  151.4919 C   0  0  0  0  0  0  0  0  0  0  0  0
  146.7375  133.1416  151.7953 C   0  0  0  0  0  0  0  0  0  0  0  0
  147.4625  132.5956  153.0360 C   0  0  2  0  0  0  0  0  0  0  0  0
  150.0516  137.4810  155.1489 N   0  0  0  0  0  0  0  0  0  0  0  0
  149.9230  138.6191  154.4632 C   0  0  0  0  0  0  0  0  0  0  0  0
  151.0633  139.2690  154.2783 N   0  0  0  0  0  0  0  0  0  0  0  0
  151.9187  138.4133  154.9123 C   0  0  0  0  0  0  0  0  0  0  0  0
  151.3668  137.3215  155.4408 N   0  0  0  0  0  0  0  0  0  0  0  0
  147.9883  135.7284  157.2581 H   0  0  0  0  0  0  0  0  0  0  0  0
  148.4698  137.4136  157.3893 H   0  0  0  0  0  0  0  0  0  0  0  0
  149.6678  136.1403  157.5858 H   0  0  0  0  0  0  0  0  0  0  0  0
  148.1171  136.7822  155.0217 H   0  0  0  0  0  0  0  0  0  0  0  0
  147.7054  135.0260  153.9026 H   0  0  0  0  0  0  0  0  0  0  0  0
  149.3713  133.4300  152.5116 H   0  0  0  0  0  0  0  0  0  0  0  0
  150.5464  132.1763  154.1069 H   0  0  0  0  0  0  0  0  0  0  0  0
  149.3137  132.3786  155.3452 H   0  0  0  0  0  0  0  0  0  0  0  0
  149.5270  130.1170  153.5473 H   0  0  0  0  0  0  0  0  0  0  0  0
  148.2633  130.4433  154.7376 H   0  0  0  0  0  0  0  0  0  0  0  0
  147.0633  129.2786  152.4415 H   0  0  0  0  0  0  0  0  0  0  0  0
  146.0823  130.2878  153.4925 H   0  0  0  0  0  0  0  0  0  0  0  0
  146.4929  130.6298  150.4733 H   0  0  0  0  0  0  0  0  0  0  0  0
  145.0048  130.1619  151.2573 H   0  0  0  0  0  0  0  0  0  0  0  0
  145.0251  132.5970  150.5729 H   0  0  0  0  0  0  0  0  0  0  0  0
  144.7717  132.3829  152.2882 H   0  0  0  0  0  0  0  0  0  0  0  0
  147.4108  133.1467  150.9370 H   0  0  0  0  0  0  0  0  0  0  0  0
  146.4298  134.1748  151.9593 H   0  0  0  0  0  0  0  0  0  0  0  0
  146.7860  132.6231  153.8937 H   0  0  0  0  0  0  0  0  0  0  0  0
  148.9764  138.9772  154.0863 H   0  0  0  0  0  0  0  0  0  0  0  0
  152.9809  138.5970  154.9803 H   0  0  0  0  0  0  0  0  0  0  0  0
  148.3992  131.1983  151.9454 H   0  0  0  0  0  0  0  0  0  0  0  0
  1  2  1  0  0  0  0
  1 20  1  0  0  0  0
  1 21  1  0  0  0  0
  1 22  1  0  0  0  0
  2  3  1  0  0  0  0
  2 15  1  0  0  0  0
  2 23  1  0  0  0  0
  3  4  2  0  0  0  0
  3  5  1  0  0  0  0
  5  6  1  0  0  0  0
  5 24  1  0  0  0  0
  6 14  1  0  0  0  0
  6  7  1  0  0  0  0
  6 25  1  0  0  0  0
  7  8  1  0  0  0  0
  7 26  1  0  0  0  0
  7 27  1  0  0  0  0
  8  9  1  0  0  0  0
  8 28  1  0  0  0  0
  8 29  1  0  0  0  0
  9 14  1  0  0  0  0
  9 10  1  0  0  0  0
  9 41  1  0  0  0  0
 10 11  1  0  0  0  0
 10 30  1  0  0  0  0
 10 31  1  0  0  0  0
 11 12  1  0  0  0  0
 11 32  1  0  0  0  0
 11 33  1  0  0  0  0
 12 13  1  0  0  0  0
 12 34  1  0  0  0  0
 12 35  1  0  0  0  0
 13 14  1  0  0  0  0
 13 36  1  0  0  0  0
 13 37  1  0  0  0  0
 14 38  1  0  0  0  0
 15 19  1  0  0  0  0
 15 16  1  0  0  0  0
 16 17  2  0  0  0  0
 16 39  1  0  0  0  0
 17 18  1  0  0  0  0
 18 19  2  0  0  0  0
 18 40  1  0  0  0  0
M  CHG  1   9   1
M  END
> <s_m_source_file>
AV-unprocessed.smi

> <i_m_source_file_index>
1406

> <i_lp_mmshare_version>
43012

> <i_f3d_flags>
0

> <s_epik_input>
bjFbY0hdbltjSF1uMVtDQEhdKFtDSDNdKUMoPU8pW05IXVtDQEhdKFtDSDJdW0NIMl0yKVtDQEBIXShOMjMpW0NIMl1bQ0gyXVtDSDJdW0NIMl0z

> <s_epik_cmdline>
J2VwaWtfcHl0aG9uJywgJy1waCcsICc3LjAnLCAnLXRuJywgJzgnLCAnLW1hJywgJzIwMCcsICctbWV0YWxfYmluZGluZycsICctaW1hZScsICc8aW5maWxlLm1hZT4nLCAnLW9tYWUnLCAnPG91dGZpbGUubWFlPic=

> <r_lp_tautomer_probability>
1

> <r_epik_Ionization_Penalty>
0.00197066

> <r_epik_Ionization_Penalty_Charging>
0.00196223

> <r_epik_Ionization_Penalty_Neutral>
8.43107e-06

> <r_epik_State_Penalty>
0.00133866

> <r_epik_Charging_Adjusted_Penalty>
0.00330089

> <i_epik_Tot_Q>
1

> <i_epik_Tot_abs_Q>
1

> <r_epik_Metal_State_Penalty>
-0

> <b_epik_Metal_Only>
0

> <s_lp_Force_Field>
OPLS_2005

> <r_lp_Energy>
39.7149

> <b_lp_Chiralities_Consistent>
1

> <s_lp_Variant>
AV-unprocessed.smi:1406-11

> <Gold.Version>
5.8.1

> <Gold.Id.Protein>
6NUR|6NUR_protein|mol2

> <Gold.PLP.Fitness>
37.4765

> <Gold.PLP.PLP>
-32.3247

> <Gold.PLP.part.hbond>
-3.0000

> <Gold.PLP.part.metal>
0.0000

> <Gold.PLP.part.buried>
-3.9541

> <Gold.PLP.part.nonpolar>
-25.6554

> <Gold.PLP.part.repulsive>
0.3325

> <Gold.PLP.ligand.clash>
0.0000

> <Gold.PLP.ligand.torsion>
0.4741

> <Gold.PLP.Chemscore.Hbond>
2.0000

> <Gold.PLP.Chemscore.CHOScore>
0.0000

> <Gold.PLP.Chemscore.Metal>
0.0000

> <Gold.Chemscore.Hbonds>
donor molecule, donor type, donor heavy atom, donor atom, acceptor molecule, acceptor atom, score
      L1  H     9    41       P1 10747  1.00
      P1  H  7989  7998       L1    17  1.00

> <Gold.PLP.Chemscore.Internal.Correction>
0.0999

> <Gold.Rescore>
     Score         DG    S(hbond)    S(metal)    S(lipo)     H(rot)  DE(clash)    DE(int)     intcor
     10.78     -14.04       1.98        0.00      57.95       1.89       0.27       3.00       ----

> <Gold.Chemscore.Fitness>
10.7758

> <Gold.Chemscore.DG>
-14.0429

> <Gold.Chemscore.ZeroCoef>
-5.4800

> <Gold.Chemscore.Hbond>
1.9797

> <Gold.Chemscore.Metal>
0.0000

> <Gold.Chemscore.Lipo>
57.9498

> <Gold.Chemscore.Internal_Hbond>
0.0000

> <Gold.Chemscore.DEClash>
0.2715

> <Gold.Chemscore.DEInternal>
2.9957

> <Gold.Chemscore.Rot>
1.8865

> <Gold.Chemscore.Internal.Correction>
   9.000000E+99

> <Gold.Chemscore.Hbonds>
donor molecule, donor type, donor heavy atom, donor atom, acceptor molecule, acceptor atom, score
      L1  H     9    41       P1 10747  1.00
      P1  H  7989  7998       L1    17  0.99

> <Gold.Chemscore.Hbond.Weighted>
-6.6123

> <Gold.Chemscore.Metal.Weighted>
-0.0000

> <Gold.Chemscore.Lipo.Weighted>
-6.7801

> <Gold.Chemscore.Internal_Hbond.Weighted>
0.0000

> <Gold.Chemscore.DEClash.Weighted>
0.2715

> <Gold.Chemscore.DEInternal.Weighted>
2.9957

> <Gold.Chemscore.Rot.Weighted>
4.8295

> <Gold.Chemscore.Internal.Correction.Weighted>
   9.000000E+99

> <Gold.Protein.RotatedTorsions>
[ 6907 6896 6895 6894 ] final    7.24 input  -60.11 | X-H torsion
[ 7974 7965 7964 7962 ] final   97.74 input  175.53 | X-H torsion
[ 8008 7997 7996 7995 ] final   -4.27 input   59.86 | X-H torsion
[ 10167 10162 10161 10158 ] final -111.50 input  -65.29 | X-H torsion
[ 10718 10713 10712 10709 ] final -179.14 input   66.30 | X-H torsion
[ 10763 10752 10751 10750 ] final -135.57 input  -60.55 | X-H torsion
[ 11005 11000 10999 10996 ] final  -45.03 input  -57.11 | X-H torsion

> <Gold.Protein.ActiveResidues>
 VAL166  LYS551  ARG553  GLY616  TRP617  ASP618  TYR619  PRO620  LYS621  CYS622 
 ASP623  PHE694  ASN695  SER759  ASP760  ASP761  ALA762  ILE779  LEU786  VAL792 
 PHE793  MET794  SER795  GLU796  ALA797  LYS798  CYS799  TRP800  GLU811  SER814 

> <Gold.Protein.RotatedAtoms>
  151.6867  135.0953  160.0225 H   0  0  0  0  0  0  0  0  0  0  0  0  # atno 6907 bound_to 6896
  152.3803  133.6532  159.6164 H   0  0  0  0  0  0  0  0  0  0  0  0  # atno 6908 bound_to 6896
  150.7741  133.9042  159.3391 H   0  0  0  0  0  0  0  0  0  0  0  0  # atno 6909 bound_to 6896
  145.4215  139.2321  143.3194 H   0  0  0  0  0  0  0  0  0  0  0  0  # atno 7974 bound_to 7965
  154.6161  140.2488  155.7608 H   0  0  0  0  0  0  0  0  0  0  0  0  # atno 8008 bound_to 7997
  156.2399  140.2936  156.0366 H   0  0  0  0  0  0  0  0  0  0  0  0  # atno 8009 bound_to 7997
  155.1973  140.0393  157.2901 H   0  0  0  0  0  0  0  0  0  0  0  0  # atno 8010 bound_to 7997
  140.1329  143.4345  152.1615 H   0  0  0  0  0  0  0  0  0  0  0  0  # atno 10167 bound_to 10162
  156.8547  130.9731  151.3089 H   0  0  0  0  0  0  0  0  0  0  0  0  # atno 10718 bound_to 10713
  154.8700  135.3699  154.4919 H   0  0  0  0  0  0  0  0  0  0  0  0  # atno 10763 bound_to 10752
  153.5566  135.7024  153.5571 H   0  0  0  0  0  0  0  0  0  0  0  0  # atno 10764 bound_to 10752
  153.3666  135.4032  155.1722 H   0  0  0  0  0  0  0  0  0  0  0  0  # atno 10765 bound_to 10752
  141.0489  133.6750  156.2955 H   0  0  0  0  0  0  0  0  0  0  0  0  # atno 11005 bound_to 11000
  146.2654  140.4940  142.8836 LP  0  0  0  0  0  0  0  0  0  0  0  0  # atno 17320 bound_to 7965
  144.8242  140.6601  143.6333 LP  0  0  0  0  0  0  0  0  0  0  0  0  # atno 17321 bound_to 7965
  139.5510  144.7338  151.4434 LP  0  0  0  0  0  0  0  0  0  0  0  0  # atno 17342 bound_to 10162
  140.6806  143.8090  150.7116 LP  0  0  0  0  0  0  0  0  0  0  0  0  # atno 17343 bound_to 10162
  157.6284  130.8709  149.9229 LP  0  0  0  0  0  0  0  0  0  0  0  0  # atno 17370 bound_to 10713
  156.0809  130.3673  150.0583 LP  0  0  0  0  0  0  0  0  0  0  0  0  # atno 17371 bound_to 10713
  140.6094  134.5474  157.5531 LP  0  0  0  0  0  0  0  0  0  0  0  0  # atno 17394 bound_to 11000
  139.9334  134.7921  156.0868 LP  0  0  0  0  0  0  0  0  0  0  0  0  # atno 17395 bound_to 11000

$$$$
