AV-unprocessed.smi:130|AV-procd|sdf|1159|dock1
  -GOLD-   2262018293D 1   1.00000     0.00000
 Structure written by MMmdl.
 44 47  0  0  0  0  0  0  0  0  1 V2000
  152.2650  140.6745  157.8926 O   0  0  0  0  0  0  0  0  0  0  0  0
  151.6308  141.7189  157.7379 C   0  0  0  0  0  0  0  0  0  0  0  0
  151.0001  142.0101  156.3582 C   0  0  0  0  0  0  0  0  0  0  0  0
  150.5254  140.7982  155.6531 N   0  0  0  0  0  0  0  0  0  0  0  0
  151.4722  139.8090  155.2872 C   0  0  0  0  0  0  0  0  0  0  0  0
  152.6710  139.9504  155.5326 O   0  0  0  0  0  0  0  0  0  0  0  0
  150.9277  138.6305  154.6221 C   0  0  0  0  0  0  0  0  0  0  0  0
  151.7519  137.6384  154.2452 F   0  0  0  0  0  0  0  0  0  0  0  0
  149.6052  138.5171  154.3832 C   0  0  0  0  0  0  0  0  0  0  0  0
  148.6929  139.4916  154.7438 N   0  0  0  0  0  0  0  0  0  0  0  0
  147.2145  139.3162  154.4814 C   0  0  2  0  0  0  0  0  0  0  0  0
  146.9575  137.9785  153.7774 C   0  0  0  0  0  0  0  0  0  0  0  0
  146.9027  138.3943  152.3231 C   0  0  0  0  0  0  0  0  0  0  0  0
  146.2656  139.7752  152.4234 C   0  0  0  0  0  0  0  0  0  0  0  0
  146.7795  140.3360  153.6282 O   0  0  0  0  0  0  0  0  0  0  0  0
  149.1388  140.6561  155.4056 C   0  0  0  0  0  0  0  0  0  0  0  0
  148.3379  141.5198  155.7701 O   0  0  0  0  0  0  0  0  0  0  0  0
  151.4547  142.6357  158.7220 N   0  0  0  0  0  0  0  0  0  0  0  0
  150.7079  143.8925  158.5377 C   0  0  0  0  0  0  0  0  0  0  0  0
  150.7759  144.6404  159.8873 C   0  0  0  0  0  0  0  0  0  0  0  0
  151.5620  143.7029  160.7553 C   0  0  0  0  0  0  0  0  0  0  0  0
  151.9057  143.8955  162.1046 C   0  0  0  0  0  0  0  0  0  0  0  0
  152.6521  142.8897  162.7537 C   0  0  0  0  0  0  0  0  0  0  0  0
  153.0388  141.7236  162.0540 C   0  0  0  0  0  0  0  0  0  0  0  0
  152.6856  141.5467  160.6981 C   0  0  0  0  0  0  0  0  0  0  0  0
  151.9378  142.5598  160.0556 C   0  0  0  0  0  0  0  0  0  0  0  0
  150.1796  142.7174  156.4865 H   0  0  0  0  0  0  0  0  0  0  0  0
  151.7240  142.5473  155.7440 H   0  0  0  0  0  0  0  0  0  0  0  0
  149.2571  137.6191  153.8949 H   0  0  0  0  0  0  0  0  0  0  0  0
  146.7156  139.4118  155.4470 H   0  0  0  0  0  0  0  0  0  0  0  0
  147.7246  137.2357  154.0001 H   0  0  0  0  0  0  0  0  0  0  0  0
  145.9893  137.5949  154.1017 H   0  0  0  0  0  0  0  0  0  0  0  0
  147.9103  138.4700  151.9131 H   0  0  0  0  0  0  0  0  0  0  0  0
  146.3311  137.7046  151.7013 H   0  0  0  0  0  0  0  0  0  0  0  0
  146.4873  140.4053  151.5620 H   0  0  0  0  0  0  0  0  0  0  0  0
  145.1821  139.6874  152.5122 H   0  0  0  0  0  0  0  0  0  0  0  0
  151.1507  144.4986  157.7463 H   0  0  0  0  0  0  0  0  0  0  0  0
  149.6702  143.6865  158.2718 H   0  0  0  0  0  0  0  0  0  0  0  0
  151.2920  145.5967  159.7962 H   0  0  0  0  0  0  0  0  0  0  0  0
  149.7848  144.8123  160.3083 H   0  0  0  0  0  0  0  0  0  0  0  0
  151.6058  144.7896  162.6310 H   0  0  0  0  0  0  0  0  0  0  0  0
  152.9291  143.0106  163.7904 H   0  0  0  0  0  0  0  0  0  0  0  0
  153.6094  140.9600  162.5612 H   0  0  0  0  0  0  0  0  0  0  0  0
  152.9944  140.6458  160.1923 H   0  0  0  0  0  0  0  0  0  0  0  0
  1  2  2  0  0  0  0
  2  3  1  0  0  0  0
  2 18  1  0  0  0  0
  3  4  1  0  0  0  0
  3 27  1  0  0  0  0
  3 28  1  0  0  0  0
  4 16  1  0  0  0  0
  4  5  1  0  0  0  0
  5  6  2  0  0  0  0
  5  7  1  0  0  0  0
  7  8  1  0  0  0  0
  7  9  2  0  0  0  0
  9 10  1  0  0  0  0
  9 29  1  0  0  0  0
 10 11  1  0  0  0  0
 10 16  1  0  0  0  0
 11 15  1  0  0  0  0
 11 12  1  0  0  0  0
 11 30  1  0  0  0  0
 12 13  1  0  0  0  0
 12 31  1  0  0  0  0
 12 32  1  0  0  0  0
 13 14  1  0  0  0  0
 13 33  1  0  0  0  0
 13 34  1  0  0  0  0
 14 15  1  0  0  0  0
 14 35  1  0  0  0  0
 14 36  1  0  0  0  0
 16 17  2  0  0  0  0
 18 26  1  0  0  0  0
 18 19  1  0  0  0  0
 19 20  1  0  0  0  0
 19 37  1  0  0  0  0
 19 38  1  0  0  0  0
 20 21  1  0  0  0  0
 20 39  1  0  0  0  0
 20 40  1  0  0  0  0
 21 26  2  0  0  0  0
 21 22  1  0  0  0  0
 22 23  2  0  0  0  0
 22 41  1  0  0  0  0
 23 24  1  0  0  0  0
 23 42  1  0  0  0  0
 24 25  2  0  0  0  0
 24 43  1  0  0  0  0
 25 26  1  0  0  0  0
 25 44  1  0  0  0  0
M  END
> <s_m_source_file>
AV-unprocessed.smi

> <i_m_source_file_index>
130

> <i_lp_mmshare_version>
43012

> <i_f3d_flags>
0

> <s_epik_input>
W2NIXTFbY0hdW2NIXVtjSF1jKGMxMilOKFtDSDJdW0NIMl0yKUMoPU8pW0NIMl1uM2MoPU8pYyhGKVtjSF1uKGMzPU8pW0NAQEhdNFtDSDJdW0NIMl1bQ0gyXU80

> <s_epik_cmdline>
J2VwaWtfcHl0aG9uJywgJy1waCcsICc3LjAnLCAnLXRuJywgJzgnLCAnLW1hJywgJzIwMCcsICctbWV0YWxfYmluZGluZycsICctaW1hZScsICc8aW5maWxlLm1hZT4nLCAnLW9tYWUnLCAnPG91dGZpbGUubWFlPic=

> <r_lp_tautomer_probability>
1

> <r_epik_Ionization_Penalty>
1.67926e-06

> <r_epik_Ionization_Penalty_Charging>
3.62822e-09

> <r_epik_Ionization_Penalty_Neutral>
1.67563e-06

> <r_epik_State_Penalty>
-0

> <r_epik_Charging_Adjusted_Penalty>
3.62822e-09

> <i_epik_Tot_Q>
0

> <i_epik_Tot_abs_Q>
0

> <r_epik_Metal_State_Penalty>
-0

> <b_epik_Metal_Only>
0

> <s_epik_Chemistry_Notes>
This compound contains an acetal/aminal-like group ( X-CH(R)-Y where X, Y are N, S, or O) that may be acid/base labile, releasing an aldehyde.

> <s_lp_Force_Field>
OPLS_2005

> <r_lp_Energy>
53.4857

> <b_lp_Chiralities_Consistent>
1

> <s_lp_Variant>
AV-unprocessed.smi:130-1

> <Gold.Version>
5.8.1

> <Gold.Id.Protein>
6NUR|6NUR_protein|mol2

> <Gold.PLP.Fitness>
57.7892

> <Gold.PLP.PLP>
-52.5190

> <Gold.PLP.part.hbond>
-1.6135

> <Gold.PLP.part.metal>
0.0000

> <Gold.PLP.part.buried>
-1.2677

> <Gold.PLP.part.nonpolar>
-50.8832

> <Gold.PLP.part.repulsive>
1.5142

> <Gold.PLP.ligand.clash>
0.0000

> <Gold.PLP.ligand.torsion>
0.3770

> <Gold.PLP.Chemscore.Hbond>
1.0000

> <Gold.PLP.Chemscore.CHOScore>
1.0000

> <Gold.PLP.Chemscore.Metal>
0.0000

> <Gold.Chemscore.Hbonds>
donor molecule, donor type, donor heavy atom, donor atom, acceptor molecule, acceptor atom, score
      P1  H  7997  8009       L1     6  1.00
      L1  C     9    29       P1  7948  1.00

> <Gold.PLP.Chemscore.Internal.Correction>
0.0241

> <Gold.Rescore>
     Score         DG    S(hbond)    S(metal)    S(lipo)     H(rot)  DE(clash)    DE(int)     intcor
     12.96     -19.98       1.00        0.00     129.73       1.57       2.47       4.55       ----

> <Gold.Chemscore.Fitness>
12.9550

> <Gold.Chemscore.DG>
-19.9780

> <Gold.Chemscore.ZeroCoef>
-5.4800

> <Gold.Chemscore.Hbond>
0.9999

> <Gold.Chemscore.Metal>
0.0000

> <Gold.Chemscore.Lipo>
129.7308

> <Gold.Chemscore.Internal_Hbond>
0.0000

> <Gold.Chemscore.DEClash>
2.4729

> <Gold.Chemscore.DEInternal>
4.5500

> <Gold.Chemscore.Rot>
1.5704

> <Gold.Chemscore.Internal.Correction>
   9.000000E+99

> <Gold.Chemscore.Hbonds>
donor molecule, donor type, donor heavy atom, donor atom, acceptor molecule, acceptor atom, score
      P1  H  7997  8009       L1     6  1.00

> <Gold.Chemscore.Hbond.Weighted>
-3.3398

> <Gold.Chemscore.Metal.Weighted>
-0.0000

> <Gold.Chemscore.Lipo.Weighted>
-15.1785

> <Gold.Chemscore.Internal_Hbond.Weighted>
0.0000

> <Gold.Chemscore.DEClash.Weighted>
2.4729

> <Gold.Chemscore.DEInternal.Weighted>
4.5500

> <Gold.Chemscore.Rot.Weighted>
4.0203

> <Gold.Chemscore.Internal.Correction.Weighted>
   9.000000E+99

> <Gold.Protein.RotatedTorsions>
[ 6907 6896 6895 6894 ] final  101.07 input  -60.11 | X-H torsion
[ 7974 7965 7964 7962 ] final   75.75 input  175.53 | X-H torsion
[ 8008 7997 7996 7995 ] final -144.07 input   59.86 | X-H torsion
[ 10167 10162 10161 10158 ] final -117.89 input  -65.29 | X-H torsion
[ 10718 10713 10712 10709 ] final  158.72 input   66.30 | X-H torsion
[ 10763 10752 10751 10750 ] final -169.64 input  -60.55 | X-H torsion
[ 11005 11000 10999 10996 ] final   95.77 input  -57.11 | X-H torsion

> <Gold.Protein.ActiveResidues>
 VAL166  LYS551  ARG553  GLY616  TRP617  ASP618  TYR619  PRO620  LYS621  CYS622 
 ASP623  PHE694  ASN695  SER759  ASP760  ASP761  ALA762  ILE779  LEU786  VAL792 
 PHE793  MET794  SER795  GLU796  ALA797  LYS798  CYS799  TRP800  GLU811  SER814 

> <Gold.Protein.RotatedAtoms>
  152.5358  134.0181  159.7968 H   0  0  0  0  0  0  0  0  0  0  0  0  # atno 6907 bound_to 6896
  151.0372  133.5730  159.2662 H   0  0  0  0  0  0  0  0  0  0  0  0  # atno 6908 bound_to 6896
  151.2713  135.0693  159.9189 H   0  0  0  0  0  0  0  0  0  0  0  0  # atno 6909 bound_to 6896
  145.7116  139.2616  143.1647 H   0  0  0  0  0  0  0  0  0  0  0  0  # atno 7974 bound_to 7965
  155.5209  140.0591  157.2907 H   0  0  0  0  0  0  0  0  0  0  0  0  # atno 8008 bound_to 7997
  154.4518  140.1952  156.0443 H   0  0  0  0  0  0  0  0  0  0  0  0  # atno 8009 bound_to 7997
  156.0719  140.3259  155.7590 H   0  0  0  0  0  0  0  0  0  0  0  0  # atno 8010 bound_to 7997
  140.0635  143.4945  152.2019 H   0  0  0  0  0  0  0  0  0  0  0  0  # atno 10167 bound_to 10162
  157.1741  131.0617  151.2167 H   0  0  0  0  0  0  0  0  0  0  0  0  # atno 10718 bound_to 10713
  154.6501  135.2910  154.9997 H   0  0  0  0  0  0  0  0  0  0  0  0  # atno 10763 bound_to 10752
  154.1093  135.6565  153.4886 H   0  0  0  0  0  0  0  0  0  0  0  0  # atno 10764 bound_to 10752
  153.0372  135.5261  154.7406 H   0  0  0  0  0  0  0  0  0  0  0  0  # atno 10765 bound_to 10752
  139.8786  134.8916  156.4060 H   0  0  0  0  0  0  0  0  0  0  0  0  # atno 11005 bound_to 11000
  146.0707  140.7872  142.9689 LP  0  0  0  0  0  0  0  0  0  0  0  0  # atno 17320 bound_to 7965
  144.6940  140.3338  143.7211 LP  0  0  0  0  0  0  0  0  0  0  0  0  # atno 17321 bound_to 7965
  139.5879  144.7538  151.3473 LP  0  0  0  0  0  0  0  0  0  0  0  0  # atno 17342 bound_to 10162
  140.7160  143.7264  150.7657 LP  0  0  0  0  0  0  0  0  0  0  0  0  # atno 17343 bound_to 10162
  157.4015  130.7336  149.6771 LP  0  0  0  0  0  0  0  0  0  0  0  0  # atno 17370 bound_to 10713
  155.9734  130.4119  150.4006 LP  0  0  0  0  0  0  0  0  0  0  0  0  # atno 17371 bound_to 10713
  140.9234  133.7629  155.9934 LP  0  0  0  0  0  0  0  0  0  0  0  0  # atno 17394 bound_to 11000
  140.8414  134.3062  157.5312 LP  0  0  0  0  0  0  0  0  0  0  0  0  # atno 17395 bound_to 11000

$$$$
