AV-unprocessed.smi:2124|AV-procd|sdf|8665|dock2
  -GOLD-   2272011413D 1   1.00000     0.00000
 Structure written by MMmdl.
 47 49  0  0  0  0  0  0  0  0  1 V2000
  145.8808  149.8805  160.8664 C   0  0  0  0  0  0  0  0  0  0  0  0
  145.8989  148.3986  160.5611 C   0  0  0  0  0  0  0  0  0  0  0  0
  145.1551  148.0512  159.4456 N   0  0  0  0  0  0  0  0  0  0  0  0
  145.1058  146.7147  159.0910 C   0  0  0  0  0  0  0  0  0  0  0  0
  144.2653  146.4185  157.8608 C   0  0  0  0  0  0  0  0  0  0  0  0
  145.7643  145.7719  159.8118 C   0  0  0  0  0  0  0  0  0  0  0  0
  145.7249  144.2864  159.4578 C   0  0  0  0  0  0  0  0  0  0  0  0
  147.0371  143.5242  159.6574 C   0  0  0  0  0  0  0  0  0  0  0  0
  147.2148  142.8527  160.6738 O   0  0  0  0  0  0  0  0  0  0  0  0
  147.9438  143.6389  158.6744 N   0  0  0  0  0  0  0  0  0  0  0  0
  149.2566  142.9965  158.6300 C   0  0  1  0  0  0  0  0  0  0  0  0
  149.3957  142.2644  157.2864 C   0  0  0  0  0  0  0  0  0  0  0  0
  150.3645  144.0559  158.8477 C   0  0  1  0  0  0  0  0  0  0  0  0
  150.3657  144.7244  160.2427 C   0  0  0  0  0  0  0  0  0  0  0  0
  151.8384  144.6166  160.6793 C   0  0  1  0  0  0  0  0  0  0  0  0
  152.1392  143.1588  161.0723 C   0  0  0  0  0  0  0  0  0  0  0  0
  152.1567  142.4399  159.7113 C   0  0  0  0  0  0  0  0  0  0  0  0
  151.8316  143.5757  158.7189 C   0  0  2  0  0  0  0  0  0  0  0  0
  152.5794  144.7446  159.3535 C   0  0  0  0  0  0  0  0  0  0  0  0
  146.5448  146.2049  160.9951 C   0  0  0  0  0  0  0  0  0  0  0  0
  147.1592  145.3985  161.6922 O   0  0  0  0  0  0  0  0  0  0  0  0
  146.5634  147.5730  161.3111 N   0  0  0  0  0  0  0  0  0  0  0  0
  144.6453  148.7190  158.8853 H   0  0  0  0  0  0  0  0  0  0  0  0
  146.6046  150.1271  161.6443 H   0  0  0  0  0  0  0  0  0  0  0  0
  144.8917  150.1826  161.2117 H   0  0  0  0  0  0  0  0  0  0  0  0
  146.1293  150.4590  159.9759 H   0  0  0  0  0  0  0  0  0  0  0  0
  144.8768  145.9638  157.0813 H   0  0  0  0  0  0  0  0  0  0  0  0
  143.8211  147.3259  157.4494 H   0  0  0  0  0  0  0  0  0  0  0  0
  143.4546  145.7327  158.1083 H   0  0  0  0  0  0  0  0  0  0  0  0
  145.4010  144.1407  158.4270 H   0  0  0  0  0  0  0  0  0  0  0  0
  144.9482  143.8140  160.0603 H   0  0  0  0  0  0  0  0  0  0  0  0
  147.7020  144.2174  157.8830 H   0  0  0  0  0  0  0  0  0  0  0  0
  149.3163  142.2467  159.4192 H   0  0  0  0  0  0  0  0  0  0  0  0
  150.3327  141.7103  157.2309 H   0  0  0  0  0  0  0  0  0  0  0  0
  149.3700  142.9615  156.4482 H   0  0  0  0  0  0  0  0  0  0  0  0
  148.5875  141.5454  157.1476 H   0  0  0  0  0  0  0  0  0  0  0  0
  150.2177  144.8403  158.1027 H   0  0  0  0  0  0  0  0  0  0  0  0
  150.0521  145.7661  160.1678 H   0  0  0  0  0  0  0  0  0  0  0  0
  149.7035  144.2320  160.9556 H   0  0  0  0  0  0  0  0  0  0  0  0
  152.1229  145.3424  161.4415 H   0  0  0  0  0  0  0  0  0  0  0  0
  153.1112  143.0787  161.5605 H   0  0  0  0  0  0  0  0  0  0  0  0
  151.3894  142.7490  161.7501 H   0  0  0  0  0  0  0  0  0  0  0  0
  153.1502  142.0362  159.5125 H   0  0  0  0  0  0  0  0  0  0  0  0
  151.4565  141.6069  159.6641 H   0  0  0  0  0  0  0  0  0  0  0  0
  152.1313  143.3572  157.6937 H   0  0  0  0  0  0  0  0  0  0  0  0
  152.4058  145.6980  158.8512 H   0  0  0  0  0  0  0  0  0  0  0  0
  153.6546  144.5774  159.4402 H   0  0  0  0  0  0  0  0  0  0  0  0
  1 24  1  0  0  0  0
  1 25  1  0  0  0  0
  1 26  1  0  0  0  0
  1  2  1  0  0  0  0
  2  3  1  0  0  0  0
  2 22  2  0  0  0  0
  3  4  1  0  0  0  0
  3 23  1  0  0  0  0
  4  6  2  0  0  0  0
  4  5  1  0  0  0  0
  5 27  1  0  0  0  0
  5 28  1  0  0  0  0
  5 29  1  0  0  0  0
  6 20  1  0  0  0  0
  6  7  1  0  0  0  0
  7  8  1  0  0  0  0
  7 30  1  0  0  0  0
  7 31  1  0  0  0  0
  8  9  2  0  0  0  0
  8 10  1  0  0  0  0
 10 11  1  0  0  0  0
 10 32  1  0  0  0  0
 11 12  1  0  0  0  0
 11 13  1  0  0  0  0
 11 33  1  0  0  0  0
 12 34  1  0  0  0  0
 12 35  1  0  0  0  0
 12 36  1  0  0  0  0
 13 18  1  0  0  0  0
 13 14  1  0  0  0  0
 13 37  1  0  0  0  0
 14 15  1  0  0  0  0
 14 38  1  0  0  0  0
 14 39  1  0  0  0  0
 15 19  1  0  0  0  0
 15 16  1  0  0  0  0
 15 40  1  0  0  0  0
 16 17  1  0  0  0  0
 16 41  1  0  0  0  0
 16 42  1  0  0  0  0
 17 18  1  0  0  0  0
 17 43  1  0  0  0  0
 17 44  1  0  0  0  0
 18 19  1  0  0  0  0
 18 45  1  0  0  0  0
 19 46  1  0  0  0  0
 19 47  1  0  0  0  0
 20 21  2  0  0  0  0
 20 22  1  0  0  0  0
M  END
> <s_m_source_file>
AV-unprocessed.smi

> <i_m_source_file_index>
2124

> <i_lp_mmshare_version>
43012

> <i_f3d_flags>
0

> <s_epik_input>
W0NIM11jMW5jKFtDSDNdKWMoYyg9TylbbkhdMSlbQ0gyXUMoPU8pW05IXVtDQEhdKFtDSDNdKVtDQEhdKFtDSDJdW0NASF0yMylbQ0BIXShbQ0gyXTMpW0NIMl1bQ0gyXTI=

> <s_epik_cmdline>
J2VwaWtfcHl0aG9uJywgJy1waCcsICc3LjAnLCAnLXRuJywgJzgnLCAnLW1hJywgJzIwMCcsICctbWV0YWxfYmluZGluZycsICctaW1hZScsICc8aW5maWxlLm1hZT4nLCAnLW9tYWUnLCAnPG91dGZpbGUubWFlPic=

> <r_lp_tautomer_probability>
0.156392

> <r_epik_Ionization_Penalty>
0.0139374

> <r_epik_Ionization_Penalty_Charging>
0.0138122

> <r_epik_Ionization_Penalty_Neutral>
0.000125146

> <r_epik_State_Penalty>
1.15342

> <r_epik_Charging_Adjusted_Penalty>
1.16723

> <i_epik_Tot_Q>
0

> <i_epik_Tot_abs_Q>
0

> <r_epik_Metal_State_Penalty>
1.3173

> <b_epik_Metal_Only>
0

> <s_lp_Force_Field>
OPLS_2005

> <r_lp_Energy>
55.9992

> <b_lp_Chiralities_Consistent>
1

> <s_lp_Variant>
AV-unprocessed.smi:2124-16

> <Gold.Version>
5.8.1

> <Gold.Id.Protein>
6NUR|6NUR_protein|mol2

> <Gold.PLP.Fitness>
50.5801

> <Gold.PLP.PLP>
-47.8630

> <Gold.PLP.part.hbond>
-6.0568

> <Gold.PLP.part.metal>
0.0000

> <Gold.PLP.part.buried>
-5.9559

> <Gold.PLP.part.nonpolar>
-37.0894

> <Gold.PLP.part.repulsive>
0.6325

> <Gold.PLP.ligand.clash>
0.0000

> <Gold.PLP.ligand.torsion>
0.7349

> <Gold.PLP.Chemscore.Hbond>
1.3888

> <Gold.PLP.Chemscore.CHOScore>
0.0000

> <Gold.PLP.Chemscore.Metal>
0.0000

> <Gold.Chemscore.Hbonds>
donor molecule, donor type, donor heavy atom, donor atom, acceptor molecule, acceptor atom, score
      L1  H    10    32       P1  8029  0.67
      P1  H  6933  6944       L1     9  0.99
      P1  H  6934  6946       L1     9  0.67

> <Gold.PLP.Chemscore.Internal.Correction>
0.0205

> <Gold.Rescore>
     Score         DG    S(hbond)    S(metal)    S(lipo)     H(rot)  DE(clash)    DE(int)     intcor
     12.93     -17.08       1.00        0.00     106.79       1.65       0.19       3.96       ----

> <Gold.Chemscore.Fitness>
12.9284

> <Gold.Chemscore.DG>
-17.0795

> <Gold.Chemscore.ZeroCoef>
-5.4800

> <Gold.Chemscore.Hbond>
0.9995

> <Gold.Chemscore.Metal>
0.0000

> <Gold.Chemscore.Lipo>
106.7853

> <Gold.Chemscore.Internal_Hbond>
0.0000

> <Gold.Chemscore.DEClash>
0.1903

> <Gold.Chemscore.DEInternal>
3.9608

> <Gold.Chemscore.Rot>
1.6534

> <Gold.Chemscore.Internal.Correction>
   9.000000E+99

> <Gold.Chemscore.Hbonds>
donor molecule, donor type, donor heavy atom, donor atom, acceptor molecule, acceptor atom, score
      L1  H    10    32       P1  8029  0.10
      P1  H  6933  6944       L1     9  0.90
      P1  H  6934  6946       L1     9  0.63

> <Gold.Chemscore.Hbond.Weighted>
-3.3382

> <Gold.Chemscore.Metal.Weighted>
-0.0000

> <Gold.Chemscore.Lipo.Weighted>
-12.4939

> <Gold.Chemscore.Internal_Hbond.Weighted>
0.0000

> <Gold.Chemscore.DEClash.Weighted>
0.1903

> <Gold.Chemscore.DEInternal.Weighted>
3.9608

> <Gold.Chemscore.Rot.Weighted>
4.2326

> <Gold.Chemscore.Internal.Correction.Weighted>
   9.000000E+99

> <Gold.Protein.RotatedTorsions>
[ 6907 6896 6895 6894 ] final  -74.27 input  -60.11 | X-H torsion
[ 7974 7965 7964 7962 ] final   60.58 input  175.53 | X-H torsion
[ 8008 7997 7996 7995 ] final   64.65 input   59.86 | X-H torsion
[ 10167 10162 10161 10158 ] final  -58.56 input  -65.29 | X-H torsion
[ 10718 10713 10712 10709 ] final   75.85 input   66.30 | X-H torsion
[ 10763 10752 10751 10750 ] final   25.49 input  -60.55 | X-H torsion
[ 11005 11000 10999 10996 ] final -129.22 input  -57.11 | X-H torsion

> <Gold.Protein.ActiveResidues>
 VAL166  LYS551  ARG553  GLY616  TRP617  ASP618  TYR619  PRO620  LYS621  CYS622 
 ASP623  PHE694  ASN695  SER759  ASP760  ASP761  ALA762  ILE779  LEU786  VAL792 
 PHE793  MET794  SER795  GLU796  ALA797  LYS798  CYS799  TRP800  GLU811  SER814 

> <Gold.Protein.RotatedAtoms>
  150.7099  134.4894  159.5508 H   0  0  0  0  0  0  0  0  0  0  0  0  # atno 6907 bound_to 6896
  152.2515  134.8125  160.0454 H   0  0  0  0  0  0  0  0  0  0  0  0  # atno 6908 bound_to 6896
  151.8871  133.3472  159.3822 H   0  0  0  0  0  0  0  0  0  0  0  0  # atno 6909 bound_to 6896
  145.8945  139.3535  143.0629 H   0  0  0  0  0  0  0  0  0  0  0  0  # atno 7974 bound_to 7965
  155.6494  140.3497  155.4743 H   0  0  0  0  0  0  0  0  0  0  0  0  # atno 8008 bound_to 7997
  155.9860  140.1184  157.0706 H   0  0  0  0  0  0  0  0  0  0  0  0  # atno 8009 bound_to 7997
  154.4205  140.1129  156.5487 H   0  0  0  0  0  0  0  0  0  0  0  0  # atno 8010 bound_to 7997
  140.6189  143.2412  151.5528 H   0  0  0  0  0  0  0  0  0  0  0  0  # atno 10167 bound_to 10162
  157.6650  130.9746  150.1412 H   0  0  0  0  0  0  0  0  0  0  0  0  # atno 10718 bound_to 10713
  153.0688  135.6582  154.0294 H   0  0  0  0  0  0  0  0  0  0  0  0  # atno 10763 bound_to 10752
  153.9944  135.2943  155.3410 H   0  0  0  0  0  0  0  0  0  0  0  0  # atno 10764 bound_to 10752
  154.7055  135.5227  153.8659 H   0  0  0  0  0  0  0  0  0  0  0  0  # atno 10765 bound_to 10752
  140.9450  134.1143  157.4116 H   0  0  0  0  0  0  0  0  0  0  0  0  # atno 11005 bound_to 11000
  145.8868  140.9329  143.0573 LP  0  0  0  0  0  0  0  0  0  0  0  0  # atno 17320 bound_to 7965
  144.6732  140.0852  143.7467 LP  0  0  0  0  0  0  0  0  0  0  0  0  # atno 17321 bound_to 7965
  139.5422  144.2617  152.1373 LP  0  0  0  0  0  0  0  0  0  0  0  0  # atno 17342 bound_to 10162
  140.1832  144.4824  150.6517 LP  0  0  0  0  0  0  0  0  0  0  0  0  # atno 17343 bound_to 10162
  156.2234  130.3676  149.8529 LP  0  0  0  0  0  0  0  0  0  0  0  0  # atno 17370 bound_to 10713
  156.6375  130.8691  151.3507 LP  0  0  0  0  0  0  0  0  0  0  0  0  # atno 17371 bound_to 10713
  139.8831  135.0048  156.6274 LP  0  0  0  0  0  0  0  0  0  0  0  0  # atno 17394 bound_to 11000
  140.7682  133.8760  155.8471 LP  0  0  0  0  0  0  0  0  0  0  0  0  # atno 17395 bound_to 11000

$$$$
