AV-unprocessed.smi:682|AV-procd|sdf|3326|dock9
  -GOLD-   22720 0293D 1   1.00000     0.00000
 Structure written by MMmdl.
 41 42  0  0  0  0  0  0  0  0  1 V2000
  154.3071  137.2376  164.9029 C   0  0  0  0  0  0  0  0  0  0  0  0
  154.0099  137.2888  163.5128 O   0  0  0  0  0  0  0  0  0  0  0  0
  154.8024  136.4760  162.6367 C   0  0  1  0  0  0  0  0  0  0  0  0
  154.9478  135.0608  163.2109 C   0  0  0  0  0  0  0  0  0  0  0  0
  154.3364  136.6531  161.1791 C   0  0  0  0  0  0  0  0  0  0  0  0
  155.2904  137.8425  161.0491 C   0  0  1  0  0  0  0  0  0  0  0  0
  154.6039  139.1043  161.3267 N   0  0  0  0  0  0  0  0  0  0  0  0
  154.0316  139.8834  160.3998 C   0  0  0  0  0  0  0  0  0  0  0  0
  153.9943  139.6021  159.2020 O   0  0  0  0  0  0  0  0  0  0  0  0
  153.5273  141.0000  160.9487 N   0  0  0  0  0  0  0  0  0  0  0  0
  152.8724  142.0637  160.2796 C   0  0  0  0  0  0  0  0  0  0  0  0
  152.2920  142.0900  158.9799 C   0  0  0  0  0  0  0  0  0  0  0  0
  151.7733  143.2800  158.7155 N   0  0  0  0  0  0  0  0  0  0  0  0
  152.0091  144.0216  159.8249 N   0  0  0  0  0  0  0  0  0  0  0  0
  151.5644  145.3984  159.8639 C   0  0  0  0  0  0  0  0  0  0  0  0
  152.6752  143.3071  160.8005 C   0  0  0  0  0  0  0  0  0  0  0  0
  156.0911  137.2745  162.2527 C   0  0  0  0  0  0  0  0  0  0  0  0
  156.6394  138.2600  163.2981 C   0  0  0  0  0  0  0  0  0  0  0  0
  157.2989  136.4264  161.8269 C   0  0  0  0  0  0  0  0  0  0  0  0
  153.5289  137.7686  165.4508 H   0  0  0  0  0  0  0  0  0  0  0  0
  155.2524  137.7299  165.1299 H   0  0  0  0  0  0  0  0  0  0  0  0
  154.3426  136.2178  165.2844 H   0  0  0  0  0  0  0  0  0  0  0  0
  155.6248  134.4486  162.6162 H   0  0  0  0  0  0  0  0  0  0  0  0
  153.9976  134.5276  163.2279 H   0  0  0  0  0  0  0  0  0  0  0  0
  155.3377  135.0845  164.2286 H   0  0  0  0  0  0  0  0  0  0  0  0
  154.6303  135.8167  160.5430 H   0  0  0  0  0  0  0  0  0  0  0  0
  153.2830  136.8924  161.0344 H   0  0  0  0  0  0  0  0  0  0  0  0
  155.8426  137.8348  160.1075 H   0  0  0  0  0  0  0  0  0  0  0  0
  154.5974  139.4171  162.2866 H   0  0  0  0  0  0  0  0  0  0  0  0
  153.6433  141.1093  161.9454 H   0  0  0  0  0  0  0  0  0  0  0  0
  152.2259  141.3126  158.2333 H   0  0  0  0  0  0  0  0  0  0  0  0
  151.8704  145.8645  160.8011 H   0  0  0  0  0  0  0  0  0  0  0  0
  150.4776  145.4376  159.7859 H   0  0  0  0  0  0  0  0  0  0  0  0
  152.0034  145.9520  159.0333 H   0  0  0  0  0  0  0  0  0  0  0  0
  152.9463  143.7368  161.7537 H   0  0  0  0  0  0  0  0  0  0  0  0
  157.4299  138.8844  162.8804 H   0  0  0  0  0  0  0  0  0  0  0  0
  157.0554  137.7356  164.1589 H   0  0  0  0  0  0  0  0  0  0  0  0
  155.8762  138.9366  163.6821 H   0  0  0  0  0  0  0  0  0  0  0  0
  158.0841  137.0441  161.3896 H   0  0  0  0  0  0  0  0  0  0  0  0
  157.0313  135.6814  161.0774 H   0  0  0  0  0  0  0  0  0  0  0  0
  157.7361  135.8932  162.6716 H   0  0  0  0  0  0  0  0  0  0  0  0
  1  2  1  0  0  0  0
  1 20  1  0  0  0  0
  1 21  1  0  0  0  0
  1 22  1  0  0  0  0
  2  3  1  0  0  0  0
  3 17  1  0  0  0  0
  3  4  1  0  0  0  0
  3  5  1  0  0  0  0
  4 23  1  0  0  0  0
  4 24  1  0  0  0  0
  4 25  1  0  0  0  0
  5  6  1  0  0  0  0
  5 26  1  0  0  0  0
  5 27  1  0  0  0  0
  6  7  1  0  0  0  0
  6 17  1  0  0  0  0
  6 28  1  0  0  0  0
  7  8  1  0  0  0  0
  7 29  1  0  0  0  0
  8  9  2  0  0  0  0
  8 10  1  0  0  0  0
 10 11  1  0  0  0  0
 10 30  1  0  0  0  0
 11 16  2  0  0  0  0
 11 12  1  0  0  0  0
 12 13  2  0  0  0  0
 12 31  1  0  0  0  0
 13 14  1  0  0  0  0
 14 15  1  0  0  0  0
 14 16  1  0  0  0  0
 15 32  1  0  0  0  0
 15 33  1  0  0  0  0
 15 34  1  0  0  0  0
 16 35  1  0  0  0  0
 17 18  1  0  0  0  0
 17 19  1  0  0  0  0
 18 36  1  0  0  0  0
 18 37  1  0  0  0  0
 18 38  1  0  0  0  0
 19 39  1  0  0  0  0
 19 40  1  0  0  0  0
 19 41  1  0  0  0  0
M  END
> <s_m_source_file>
AV-unprocessed.smi

> <i_m_source_file_index>
682

> <i_lp_mmshare_version>
43012

> <i_f3d_flags>
0

> <s_epik_input>
W0NIM11PW0NAQF0xKFtDSDNdKVtDSDJdW0NASF0oQzEoW0NIM10pW0NIM10pW05IXUMoPU8pW05IXWMyW2NIXW5uKFtDSDNdKVtjSF0y

> <s_epik_cmdline>
J2VwaWtfcHl0aG9uJywgJy1waCcsICc3LjAnLCAnLXRuJywgJzgnLCAnLW1hJywgJzIwMCcsICctbWV0YWxfYmluZGluZycsICctaW1hZScsICc8aW5maWxlLm1hZT4nLCAnLW9tYWUnLCAnPG91dGZpbGUubWFlPic=

> <r_lp_tautomer_probability>
1

> <r_epik_Ionization_Penalty>
0.000192302

> <r_epik_Ionization_Penalty_Charging>
0

> <r_epik_Ionization_Penalty_Neutral>
0.000192302

> <r_epik_State_Penalty>
-0

> <r_epik_Charging_Adjusted_Penalty>
0

> <i_epik_Tot_Q>
0

> <i_epik_Tot_abs_Q>
0

> <r_epik_Metal_State_Penalty>
-0

> <b_epik_Metal_Only>
0

> <s_lp_Force_Field>
OPLS_2005

> <r_lp_Energy>
26.143

> <b_lp_Chiralities_Consistent>
1

> <s_lp_Variant>
AV-unprocessed.smi:682-1

> <Gold.Version>
5.8.1

> <Gold.Id.Protein>
6NUR|6NUR_protein|mol2

> <Gold.PLP.Fitness>
38.0321

> <Gold.PLP.PLP>
-35.6736

> <Gold.PLP.part.hbond>
-1.0000

> <Gold.PLP.part.metal>
0.0000

> <Gold.PLP.part.buried>
-5.7601

> <Gold.PLP.part.nonpolar>
-28.7337

> <Gold.PLP.part.repulsive>
0.0615

> <Gold.PLP.ligand.clash>
0.0000

> <Gold.PLP.ligand.torsion>
0.5010

> <Gold.PLP.Chemscore.Hbond>
0.9920

> <Gold.PLP.Chemscore.CHOScore>
0.0000

> <Gold.PLP.Chemscore.Metal>
0.0000

> <Gold.Chemscore.Hbonds>
donor molecule, donor type, donor heavy atom, donor atom, acceptor molecule, acceptor atom, score
      P1  H  7997  8009       L1     9  0.63

> <Gold.PLP.Chemscore.Internal.Correction>
0.3846

> <Gold.Rescore>
     Score         DG    S(hbond)    S(metal)    S(lipo)     H(rot)  DE(clash)    DE(int)     intcor
     14.98     -15.72       1.00        0.00      86.02       1.23       0.02       0.71       ----

> <Gold.Chemscore.Fitness>
14.9822

> <Gold.Chemscore.DG>
-15.7192

> <Gold.Chemscore.ZeroCoef>
-5.4800

> <Gold.Chemscore.Hbond>
0.9978

> <Gold.Chemscore.Metal>
0.0000

> <Gold.Chemscore.Lipo>
86.0223

> <Gold.Chemscore.Internal_Hbond>
0.0000

> <Gold.Chemscore.DEClash>
0.0239

> <Gold.Chemscore.DEInternal>
0.7131

> <Gold.Chemscore.Rot>
1.2336

> <Gold.Chemscore.Internal.Correction>
   9.000000E+99

> <Gold.Chemscore.Hbonds>
donor molecule, donor type, donor heavy atom, donor atom, acceptor molecule, acceptor atom, score
      P1  H  7997  8009       L1     9  0.62

> <Gold.Chemscore.Hbond.Weighted>
-3.3326

> <Gold.Chemscore.Metal.Weighted>
-0.0000

> <Gold.Chemscore.Lipo.Weighted>
-10.0646

> <Gold.Chemscore.Internal_Hbond.Weighted>
0.0000

> <Gold.Chemscore.DEClash.Weighted>
0.0239

> <Gold.Chemscore.DEInternal.Weighted>
0.7131

> <Gold.Chemscore.Rot.Weighted>
3.1581

> <Gold.Chemscore.Internal.Correction.Weighted>
   9.000000E+99

> <Gold.Protein.RotatedTorsions>
[ 6907 6896 6895 6894 ] final  -39.64 input  -60.11 | X-H torsion
[ 7974 7965 7964 7962 ] final  -24.55 input  175.53 | X-H torsion
[ 8008 7997 7996 7995 ] final  131.40 input   59.86 | X-H torsion
[ 10167 10162 10161 10158 ] final  104.03 input  -65.29 | X-H torsion
[ 10718 10713 10712 10709 ] final -115.88 input   66.30 | X-H torsion
[ 10763 10752 10751 10750 ] final  -56.27 input  -60.55 | X-H torsion
[ 11005 11000 10999 10996 ] final  -54.89 input  -57.11 | X-H torsion

> <Gold.Protein.ActiveResidues>
 VAL166  LYS551  ARG553  GLY616  TRP617  ASP618  TYR619  PRO620  LYS621  CYS622 
 ASP623  PHE694  ASN695  SER759  ASP760  ASP761  ALA762  ILE779  LEU786  VAL792 
 PHE793  MET794  SER795  GLU796  ALA797  LYS798  CYS799  TRP800  GLU811  SER814 

> <Gold.Protein.RotatedAtoms>
  150.9879  134.9221  159.7882 H   0  0  0  0  0  0  0  0  0  0  0  0  # atno 6907 bound_to 6896
  152.5242  134.3321  159.9196 H   0  0  0  0  0  0  0  0  0  0  0  0  # atno 6908 bound_to 6896
  151.3327  133.3953  159.2698 H   0  0  0  0  0  0  0  0  0  0  0  0  # atno 6909 bound_to 6896
  146.1547  140.4767  142.8596 H   0  0  0  0  0  0  0  0  0  0  0  0  # atno 7974 bound_to 7965
  156.2969  140.2572  156.2919 H   0  0  0  0  0  0  0  0  0  0  0  0  # atno 8008 bound_to 7997
  154.9501  140.0394  157.2158 H   0  0  0  0  0  0  0  0  0  0  0  0  # atno 8009 bound_to 7997
  154.8044  140.2833  155.5903 H   0  0  0  0  0  0  0  0  0  0  0  0  # atno 8010 bound_to 7997
  139.7212  144.7058  151.0870 H   0  0  0  0  0  0  0  0  0  0  0  0  # atno 10167 bound_to 10162
  156.0925  130.6105  150.8963 H   0  0  0  0  0  0  0  0  0  0  0  0  # atno 10718 bound_to 10713
  154.2040  135.6406  153.5095 H   0  0  0  0  0  0  0  0  0  0  0  0  # atno 10763 bound_to 10752
  153.0005  135.5458  154.6285 H   0  0  0  0  0  0  0  0  0  0  0  0  # atno 10764 bound_to 10752
  154.5705  135.2916  155.0805 H   0  0  0  0  0  0  0  0  0  0  0  0  # atno 10765 bound_to 10752
  141.1048  133.6614  156.4388 H   0  0  0  0  0  0  0  0  0  0  0  0  # atno 11005 bound_to 11000
  144.7949  140.6103  143.6517 LP  0  0  0  0  0  0  0  0  0  0  0  0  # atno 17320 bound_to 7965
  145.4737  139.1501  143.3800 LP  0  0  0  0  0  0  0  0  0  0  0  0  # atno 17321 bound_to 7965
  140.7754  143.5164  150.9589 LP  0  0  0  0  0  0  0  0  0  0  0  0  # atno 17342 bound_to 10162
  139.8851  143.7023  152.3152 LP  0  0  0  0  0  0  0  0  0  0  0  0  # atno 17343 bound_to 10162
  157.6078  131.0938  150.8848 LP  0  0  0  0  0  0  0  0  0  0  0  0  # atno 17370 bound_to 10713
  156.8993  130.5241  149.5283 LP  0  0  0  0  0  0  0  0  0  0  0  0  # atno 17371 bound_to 10713
  140.4931  134.6556  157.5219 LP  0  0  0  0  0  0  0  0  0  0  0  0  # atno 17394 bound_to 11000
  139.9913  134.6981  155.9685 LP  0  0  0  0  0  0  0  0  0  0  0  0  # atno 17395 bound_to 11000

$$$$
