AV-unprocessed.smi:2760|AV-procd|sdf|10628|dock8
  -GOLD-   2272015 73D 1   1.00000     0.00000
 Structure written by MMmdl.
 32 33  0  0  0  0  0  0  0  0  1 V2000
  154.5421  139.0237  159.3276 O   0  0  0  0  0  0  0  0  0  0  0  0
  153.6275  139.8443  159.3019 C   0  0  0  0  0  0  0  0  0  0  0  0
  153.7530  141.2261  159.7645 C   0  0  0  0  0  0  0  0  0  0  0  0
  152.6945  142.0735  159.7024 C   0  0  0  0  0  0  0  0  0  0  0  0
  152.7494  143.4947  160.1578 C   0  0  0  0  0  0  0  0  0  0  0  0
  152.0387  143.9716  161.4060 C   0  0  0  0  0  0  0  0  0  0  0  0
  151.5534  144.4151  160.0472 C   0  0  0  0  0  0  0  0  0  0  0  0
  151.4637  141.6358  159.1931 N   0  0  0  0  0  0  0  0  0  0  0  0
  151.3265  140.4146  158.7788 C   0  0  0  0  0  0  0  0  0  0  0  0
  149.8601  139.5940  158.0891 S   0  0  0  0  0  0  0  0  0  0  0  0
  149.8467  138.0392  159.0271 C   0  0  0  0  0  0  0  0  0  0  0  0
  148.4414  137.4330  159.1034 C   0  0  0  0  0  0  0  0  0  0  0  0
  148.0106  137.4077  160.4544 O   0  0  0  0  0  0  0  0  0  0  0  0
  147.4509  136.1590  160.8300 C   0  0  0  0  0  0  0  0  0  0  0  0
  147.0167  136.2123  162.3000 C   0  0  0  0  0  0  0  0  0  0  0  0
  146.5990  135.0051  162.6793 F   0  0  0  0  0  0  0  0  0  0  0  0
  148.0430  136.5714  163.0707 F   0  0  0  0  0  0  0  0  0  0  0  0
  146.0160  137.0790  162.4542 F   0  0  0  0  0  0  0  0  0  0  0  0
  152.4016  139.5211  158.8305 N   0  0  0  0  0  0  0  0  0  0  0  0
  152.2613  138.5783  158.4978 H   0  0  0  0  0  0  0  0  0  0  0  0
  154.7019  141.5591  160.1580 H   0  0  0  0  0  0  0  0  0  0  0  0
  153.7188  143.9513  159.9639 H   0  0  0  0  0  0  0  0  0  0  0  0
  151.4217  143.2623  161.9536 H   0  0  0  0  0  0  0  0  0  0  0  0
  152.5496  144.7099  162.0206 H   0  0  0  0  0  0  0  0  0  0  0  0
  151.7425  145.4468  159.7588 H   0  0  0  0  0  0  0  0  0  0  0  0
  150.6146  143.9985  159.6878 H   0  0  0  0  0  0  0  0  0  0  0  0
  150.2344  138.2199  160.0301 H   0  0  0  0  0  0  0  0  0  0  0  0
  150.5224  137.3338  158.5430 H   0  0  0  0  0  0  0  0  0  0  0  0
  147.7489  138.0148  158.4932 H   0  0  0  0  0  0  0  0  0  0  0  0
  148.4575  136.4183  158.7027 H   0  0  0  0  0  0  0  0  0  0  0  0
  146.5913  135.9294  160.1979 H   0  0  0  0  0  0  0  0  0  0  0  0
  148.1836  135.3633  160.6873 H   0  0  0  0  0  0  0  0  0  0  0  0
  1  2  2  0  0  0  0
  2 19  1  0  0  0  0
  2  3  1  0  0  0  0
  3 21  1  0  0  0  0
  3  4  2  0  0  0  0
  4  5  1  0  0  0  0
  4  8  1  0  0  0  0
  5  7  1  0  0  0  0
  5  6  1  0  0  0  0
  5 22  1  0  0  0  0
  6  7  1  0  0  0  0
  6 23  1  0  0  0  0
  6 24  1  0  0  0  0
  7 25  1  0  0  0  0
  7 26  1  0  0  0  0
  8  9  2  0  0  0  0
  9 10  1  0  0  0  0
  9 19  1  0  0  0  0
 10 11  1  0  0  0  0
 11 12  1  0  0  0  0
 11 27  1  0  0  0  0
 11 28  1  0  0  0  0
 12 13  1  0  0  0  0
 12 29  1  0  0  0  0
 12 30  1  0  0  0  0
 13 14  1  0  0  0  0
 14 15  1  0  0  0  0
 14 31  1  0  0  0  0
 14 32  1  0  0  0  0
 15 16  1  0  0  0  0
 15 17  1  0  0  0  0
 15 18  1  0  0  0  0
 19 20  1  0  0  0  0
M  END
> <s_m_source_file>
AV-unprocessed.smi

> <i_m_source_file_index>
2760

> <i_lp_mmshare_version>
43012

> <i_f3d_flags>
0

> <s_epik_input>
W09IXWMxW2NIXWMoW0NIXTJbQ0gyXVtDSDJdMiluYyhuMSlTW0NIMl1bQ0gyXU9bQ0gyXUMoRikoRilG

> <s_epik_cmdline>
J2VwaWtfcHl0aG9uJywgJy1waCcsICc3LjAnLCAnLXRuJywgJzgnLCAnLW1hJywgJzIwMCcsICctbWV0YWxfYmluZGluZycsICctaW1hZScsICc8aW5maWxlLm1hZT4nLCAnLW9tYWUnLCAnPG91dGZpbGUubWFlPic=

> <r_lp_tautomer_probability>
0.660323

> <r_epik_Ionization_Penalty>
0.00540315

> <r_epik_Ionization_Penalty_Charging>
0.00540219

> <r_epik_Ionization_Penalty_Neutral>
9.53041e-07

> <r_epik_State_Penalty>
0.139188

> <r_epik_Charging_Adjusted_Penalty>
0.14459

> <i_epik_Tot_Q>
0

> <i_epik_Tot_abs_Q>
0

> <r_epik_Metal_State_Penalty>
0.790013

> <b_epik_Metal_Only>
0

> <s_lp_Force_Field>
OPLS_2005

> <r_lp_Energy>
15.5574

> <b_lp_Chiralities_Consistent>
1

> <s_lp_Variant>
AV-unprocessed.smi:2760-1

> <Gold.Version>
5.8.1

> <Gold.Id.Protein>
6NUR|6NUR_protein|mol2

> <Gold.PLP.Fitness>
45.9723

> <Gold.PLP.PLP>
-44.9636

> <Gold.PLP.part.hbond>
-2.0000

> <Gold.PLP.part.metal>
0.0000

> <Gold.PLP.part.buried>
-3.9380

> <Gold.PLP.part.nonpolar>
-38.7440

> <Gold.PLP.part.repulsive>
0.0931

> <Gold.PLP.ligand.clash>
0.0000

> <Gold.PLP.ligand.torsion>
1.1226

> <Gold.PLP.Chemscore.Hbond>
1.0182

> <Gold.PLP.Chemscore.CHOScore>
0.0000

> <Gold.PLP.Chemscore.Metal>
0.0000

> <Gold.Chemscore.Hbonds>
donor molecule, donor type, donor heavy atom, donor atom, acceptor molecule, acceptor atom, score
      P1  H  6931  6943       L1    13  0.64
      P1  H  6934  6947       L1    13  0.70
      P1  H  7997  8009       L1     1  0.08

> <Gold.PLP.Chemscore.Internal.Correction>
0.1992

> <Gold.Rescore>
     Score         DG    S(hbond)    S(metal)    S(lipo)     H(rot)  DE(clash)    DE(int)     intcor
     11.38     -13.03       1.30        0.00      83.64       2.57       0.28       1.37       ----

> <Gold.Chemscore.Fitness>
11.3757

> <Gold.Chemscore.DG>
-13.0269

> <Gold.Chemscore.ZeroCoef>
-5.4800

> <Gold.Chemscore.Hbond>
1.2979

> <Gold.Chemscore.Metal>
0.0000

> <Gold.Chemscore.Lipo>
83.6412

> <Gold.Chemscore.Internal_Hbond>
0.0000

> <Gold.Chemscore.DEClash>
0.2838

> <Gold.Chemscore.DEInternal>
1.3674

> <Gold.Chemscore.Rot>
2.5680

> <Gold.Chemscore.Internal.Correction>
   9.000000E+99

> <Gold.Chemscore.Hbonds>
donor molecule, donor type, donor heavy atom, donor atom, acceptor molecule, acceptor atom, score
      P1  H  6931  6943       L1    13  0.55
      P1  H  6934  6947       L1    13  0.51

> <Gold.Chemscore.Hbond.Weighted>
-4.3350

> <Gold.Chemscore.Metal.Weighted>
-0.0000

> <Gold.Chemscore.Lipo.Weighted>
-9.7860

> <Gold.Chemscore.Internal_Hbond.Weighted>
0.0000

> <Gold.Chemscore.DEClash.Weighted>
0.2838

> <Gold.Chemscore.DEInternal.Weighted>
1.3674

> <Gold.Chemscore.Rot.Weighted>
6.5741

> <Gold.Chemscore.Internal.Correction.Weighted>
   9.000000E+99

> <Gold.Protein.RotatedTorsions>
[ 6907 6896 6895 6894 ] final   98.61 input  -60.11 | X-H torsion
[ 7974 7965 7964 7962 ] final  -45.69 input  175.53 | X-H torsion
[ 8008 7997 7996 7995 ] final  104.29 input   59.86 | X-H torsion
[ 10167 10162 10161 10158 ] final  173.38 input  -65.29 | X-H torsion
[ 10718 10713 10712 10709 ] final   18.49 input   66.30 | X-H torsion
[ 10763 10752 10751 10750 ] final   81.16 input  -60.55 | X-H torsion
[ 11005 11000 10999 10996 ] final -151.79 input  -57.11 | X-H torsion

> <Gold.Protein.ActiveResidues>
 VAL166  LYS551  ARG553  GLY616  TRP617  ASP618  TYR619  PRO620  LYS621  CYS622 
 ASP623  PHE694  ASN695  SER759  ASP760  ASP761  ALA762  ILE779  LEU786  VAL792 
 PHE793  MET794  SER795  GLU796  ALA797  LYS798  CYS799  TRP800  GLU811  SER814 

> <Gold.Protein.RotatedAtoms>
  152.5406  134.0554  159.8128 H   0  0  0  0  0  0  0  0  0  0  0  0  # atno 6907 bound_to 6896
  151.0689  133.5474  159.2636 H   0  0  0  0  0  0  0  0  0  0  0  0  # atno 6908 bound_to 6896
  151.2345  135.0574  159.9054 H   0  0  0  0  0  0  0  0  0  0  0  0  # atno 6909 bound_to 6896
  145.9795  140.7298  142.9370 H   0  0  0  0  0  0  0  0  0  0  0  0  # atno 7974 bound_to 7965
  156.1560  140.3150  155.8726 H   0  0  0  0  0  0  0  0  0  0  0  0  # atno 8008 bound_to 7997
  155.3877  140.0491  157.3059 H   0  0  0  0  0  0  0  0  0  0  0  0  # atno 8009 bound_to 7997
  154.5102  140.2161  155.9183 H   0  0  0  0  0  0  0  0  0  0  0  0  # atno 8010 bound_to 7997
  139.5106  144.3267  152.0151 H   0  0  0  0  0  0  0  0  0  0  0  0  # atno 10167 bound_to 10162
  157.0971  130.6452  149.5863 H   0  0  0  0  0  0  0  0  0  0  0  0  # atno 10718 bound_to 10713
  153.1094  135.4775  154.9008 H   0  0  0  0  0  0  0  0  0  0  0  0  # atno 10763 bound_to 10752
  154.7464  135.3095  154.8639 H   0  0  0  0  0  0  0  0  0  0  0  0  # atno 10764 bound_to 10752
  153.9232  135.6853  153.4800 H   0  0  0  0  0  0  0  0  0  0  0  0  # atno 10765 bound_to 10752
  140.7258  134.3676  157.5175 H   0  0  0  0  0  0  0  0  0  0  0  0  # atno 11005 bound_to 11000
  144.6858  140.2885  143.7281 LP  0  0  0  0  0  0  0  0  0  0  0  0  # atno 17320 bound_to 7965
  145.7790  139.1884  143.2169 LP  0  0  0  0  0  0  0  0  0  0  0  0  # atno 17321 bound_to 7965
  140.2707  144.3967  150.6152 LP  0  0  0  0  0  0  0  0  0  0  0  0  # atno 17342 bound_to 10162
  140.6090  143.2169  151.6923 LP  0  0  0  0  0  0  0  0  0  0  0  0  # atno 17343 bound_to 10162
  155.9883  130.4926  150.7164 LP  0  0  0  0  0  0  0  0  0  0  0  0  # atno 17370 bound_to 10713
  157.4672  131.0889  151.0681 LP  0  0  0  0  0  0  0  0  0  0  0  0  # atno 17371 bound_to 10713
  139.8837  134.8985  156.2747 LP  0  0  0  0  0  0  0  0  0  0  0  0  # atno 17394 bound_to 11000
  140.9964  133.7178  156.0892 LP  0  0  0  0  0  0  0  0  0  0  0  0  # atno 17395 bound_to 11000

$$$$
