AV-unprocessed.smi:1645|AV-procd|sdf|6623|dock10
  -GOLD-   22720 7323D 1   1.00000     0.00000
 Structure written by MMmdl.
 55 58  0  0  0  0  0  0  0  0  4 V2000
  151.0437  135.1584  155.3356 O   0  0  0  0  0  0  0  0  0  0  0  0
  149.8768  135.4979  155.1078 C   0  0  0  0  0  0  0  0  0  0  0  0
  149.4541  136.7328  155.4316 N   0  0  0  0  0  0  0  0  0  0  0  0
  150.1511  137.7622  156.1183 C   0  0  0  0  0  0  0  0  0  0  0  0
  151.2435  137.5290  156.9873 C   0  0  0  0  0  0  0  0  0  0  0  0
  151.8522  138.6161  157.6471 C   0  0  0  0  0  0  0  0  0  0  0  0
  151.3640  139.9320  157.4453 C   0  0  0  0  0  0  0  0  0  0  0  0
  151.9052  141.0786  158.0707 N   0  0  0  0  0  0  0  0  0  0  0  0
  152.6345  140.8527  159.3230 C   0  0  0  0  0  0  0  0  0  0  0  0
  153.5228  142.0558  159.6835 C   0  0  0  0  0  0  0  0  0  0  0  0
  152.7129  143.3594  159.6925 C   0  0  0  0  0  0  0  0  0  0  0  0
  152.0118  143.5447  158.3402 C   0  0  0  0  0  0  0  0  0  0  0  0
  151.1408  142.3252  157.9931 C   0  0  0  0  0  0  0  0  0  0  0  0
  150.3050  140.0967  156.6153 N   0  3  0  0  0  0  0  0  0  0  0  0
  149.6916  139.0846  155.9651 C   0  0  0  0  0  0  0  0  0  0  0  0
  148.8984  134.7580  154.5202 N   0  5  0  0  0  0  0  0  0  0  0  0
  149.1266  133.5263  153.7612 C   0  0  1  0  0  0  0  0  0  0  0  0
  149.8715  132.4655  154.5954 C   0  0  0  0  0  0  0  0  0  0  0  0
  149.2737  131.1104  154.1707 C   0  0  0  0  0  0  0  0  0  0  0  0
  148.2358  131.4312  153.1719 N   0  3  1  0  0  0  0  0  0  0  0  0
  147.1006  130.4903  153.0486 C   0  0  0  0  0  0  0  0  0  0  0  0
  146.1937  130.9372  151.8842 C   0  0  0  0  0  0  0  0  0  0  0  0
  145.7625  132.4121  152.0247 C   0  0  0  0  0  0  0  0  0  0  0  0
  146.9812  133.3328  152.2349 C   0  0  0  0  0  0  0  0  0  0  0  0
  147.8085  132.8159  153.4302 C   0  0  2  0  0  0  0  0  0  0  0  0
  148.5296  136.9738  155.1055 H   0  0  0  0  0  0  0  0  0  0  0  0
  151.6169  136.5332  157.1713 H   0  0  0  0  0  0  0  0  0  0  0  0
  152.6902  138.4128  158.2960 H   0  0  0  0  0  0  0  0  0  0  0  0
  151.9105  140.6745  160.1188 H   0  0  0  0  0  0  0  0  0  0  0  0
  153.2646  139.9654  159.2687 H   0  0  0  0  0  0  0  0  0  0  0  0
  153.9869  141.8968  160.6574 H   0  0  0  0  0  0  0  0  0  0  0  0
  154.3377  142.1374  158.9627 H   0  0  0  0  0  0  0  0  0  0  0  0
  151.9725  143.3310  160.4928 H   0  0  0  0  0  0  0  0  0  0  0  0
  153.3663  144.2078  159.8988 H   0  0  0  0  0  0  0  0  0  0  0  0
  151.4000  144.4469  158.3561 H   0  0  0  0  0  0  0  0  0  0  0  0
  152.7602  143.6917  157.5601 H   0  0  0  0  0  0  0  0  0  0  0  0
  150.7454  142.4650  156.9866 H   0  0  0  0  0  0  0  0  0  0  0  0
  150.2905  142.2649  158.6736 H   0  0  0  0  0  0  0  0  0  0  0  0
  148.8563  139.3649  155.3396 H   0  0  0  0  0  0  0  0  0  0  0  0
  149.6733  133.6958  152.8319 H   0  0  0  0  0  0  0  0  0  0  0  0
  150.9473  132.5099  154.4228 H   0  0  0  0  0  0  0  0  0  0  0  0
  149.7074  132.6113  155.6646 H   0  0  0  0  0  0  0  0  0  0  0  0
  150.0215  130.4439  153.7391 H   0  0  0  0  0  0  0  0  0  0  0  0
  148.8317  130.6075  155.0329 H   0  0  0  0  0  0  0  0  0  0  0  0
  147.4773  129.4831  152.8674 H   0  0  0  0  0  0  0  0  0  0  0  0
  146.5387  130.4628  153.9834 H   0  0  0  0  0  0  0  0  0  0  0  0
  146.7289  130.8091  150.9423 H   0  0  0  0  0  0  0  0  0  0  0  0
  145.3148  130.2944  151.8274 H   0  0  0  0  0  0  0  0  0  0  0  0
  145.2028  132.7257  151.1432 H   0  0  0  0  0  0  0  0  0  0  0  0
  145.0839  132.5113  152.8727 H   0  0  0  0  0  0  0  0  0  0  0  0
  147.5813  133.3528  151.3230 H   0  0  0  0  0  0  0  0  0  0  0  0
  146.6422  134.3554  152.4104 H   0  0  0  0  0  0  0  0  0  0  0  0
  147.1771  132.8120  154.3224 H   0  0  0  0  0  0  0  0  0  0  0  0
  148.7064  131.4524  152.2785 H   0  0  0  0  0  0  0  0  0  0  0  0
  149.9457  141.0409  156.4758 H   0  0  0  0  0  0  0  0  0  0  0  0
  1  2  2  0  0  0  0
  2  3  1  0  0  0  0
  2 16  1  0  0  0  0
  3  4  1  0  0  0  0
  3 26  1  0  0  0  0
  4 15  1  0  0  0  0
  4  5  2  0  0  0  0
  5  6  1  0  0  0  0
  5 27  1  0  0  0  0
  6  7  2  0  0  0  0
  6 28  1  0  0  0  0
  7  8  1  0  0  0  0
  7 14  1  0  0  0  0
  8 13  1  0  0  0  0
  8  9  1  0  0  0  0
  9 10  1  0  0  0  0
  9 29  1  0  0  0  0
  9 30  1  0  0  0  0
 10 11  1  0  0  0  0
 10 31  1  0  0  0  0
 10 32  1  0  0  0  0
 11 12  1  0  0  0  0
 11 33  1  0  0  0  0
 11 34  1  0  0  0  0
 12 13  1  0  0  0  0
 12 35  1  0  0  0  0
 12 36  1  0  0  0  0
 13 37  1  0  0  0  0
 13 38  1  0  0  0  0
 14 15  2  0  0  0  0
 14 55  1  0  0  0  0
 15 39  1  0  0  0  0
 16 17  1  0  0  0  0
 17 25  1  0  0  0  0
 17 18  1  0  0  0  0
 17 40  1  0  0  0  0
 18 19  1  0  0  0  0
 18 41  1  0  0  0  0
 18 42  1  0  0  0  0
 19 20  1  0  0  0  0
 19 43  1  0  0  0  0
 19 44  1  0  0  0  0
 20 25  1  0  0  0  0
 20 21  1  0  0  0  0
 20 54  1  0  0  0  0
 21 22  1  0  0  0  0
 21 45  1  0  0  0  0
 21 46  1  0  0  0  0
 22 23  1  0  0  0  0
 22 47  1  0  0  0  0
 22 48  1  0  0  0  0
 23 24  1  0  0  0  0
 23 49  1  0  0  0  0
 23 50  1  0  0  0  0
 24 25  1  0  0  0  0
 24 51  1  0  0  0  0
 24 52  1  0  0  0  0
 25 53  1  0  0  0  0
M  CHG  1  14   1
M  CHG  1  16  -1
M  CHG  1  20   1
M  END
> <s_m_source_file>
AV-unprocessed.smi

> <i_m_source_file_index>
1645

> <i_lp_mmshare_version>
43012

> <i_f3d_flags>
0

> <s_epik_input>
W0NIMl0xW0NIMl1bQ0gyXVtDSDJdW0NASF0oTjEyKVtDQEBIXShbQ0gyXVtDSDJdMilbTkhdQyg9TylbTkhdYzNbY0hdW2NIXWMobltjSF0zKU40W0NIMl1bQ0gyXVtDSDJdW0NIMl1bQ0gyXTQ=

> <s_epik_cmdline>
J2VwaWtfcHl0aG9uJywgJy1waCcsICc3LjAnLCAnLXRuJywgJzgnLCAnLW1hJywgJzIwMCcsICctbWV0YWxfYmluZGluZycsICctaW1hZScsICc8aW5maWxlLm1hZT4nLCAnLW9tYWUnLCAnPG91dGZpbGUubWFlPic=

> <r_lp_tautomer_probability>
0.999994

> <r_epik_Ionization_Penalty>
8.55589

> <r_epik_Ionization_Penalty_Charging>
8.55589

> <r_epik_Ionization_Penalty_Neutral>
3.8092e-06

> <r_epik_State_Penalty>
8.15703

> <r_epik_Charging_Adjusted_Penalty>
16.7129

> <i_epik_Tot_Q>
1

> <i_epik_Tot_abs_Q>
3

> <r_epik_Metal_State_Penalty>
4.13781

> <b_epik_Metal_Only>
1

> <s_lp_Force_Field>
OPLS_2005

> <r_lp_Energy>
51.9528

> <b_lp_Chiralities_Consistent>
1

> <s_lp_Variant>
AV-unprocessed.smi:1645-24

> <Gold.Version>
5.8.1

> <Gold.Id.Protein>
6NUR|6NUR_protein|mol2

> <Gold.PLP.Fitness>
46.9227

> <Gold.PLP.PLP>
-41.6996

> <Gold.PLP.part.hbond>
-2.0000

> <Gold.PLP.part.metal>
0.0000

> <Gold.PLP.part.buried>
-3.6155

> <Gold.PLP.part.nonpolar>
-36.5522

> <Gold.PLP.part.repulsive>
1.7764

> <Gold.PLP.ligand.clash>
0.0000

> <Gold.PLP.ligand.torsion>
0.3623

> <Gold.PLP.Chemscore.Hbond>
1.8805

> <Gold.PLP.Chemscore.CHOScore>
0.0000

> <Gold.PLP.Chemscore.Metal>
0.0000

> <Gold.Chemscore.Hbonds>
donor molecule, donor type, donor heavy atom, donor atom, acceptor molecule, acceptor atom, score
      L1  H    20    54       P1 10747  0.86
      P1  H 10752 10765       L1     1  0.94

> <Gold.PLP.Chemscore.Internal.Correction>
0.3062

> <Gold.Rescore>
     Score         DG    S(hbond)    S(metal)    S(lipo)     H(rot)  DE(clash)    DE(int)     intcor
     19.99     -22.29       1.76        0.00     115.38       1.00       0.09       2.21       ----

> <Gold.Chemscore.Fitness>
19.9882

> <Gold.Chemscore.DG>
-22.2898

> <Gold.Chemscore.ZeroCoef>
-5.4800

> <Gold.Chemscore.Hbond>
1.7576

> <Gold.Chemscore.Metal>
0.0000

> <Gold.Chemscore.Lipo>
115.3796

> <Gold.Chemscore.Internal_Hbond>
0.0000

> <Gold.Chemscore.DEClash>
0.0892

> <Gold.Chemscore.DEInternal>
2.2123

> <Gold.Chemscore.Rot>
1.0000

> <Gold.Chemscore.Internal.Correction>
   9.000000E+99

> <Gold.Chemscore.Hbonds>
donor molecule, donor type, donor heavy atom, donor atom, acceptor molecule, acceptor atom, score
      L1  H    20    54       P1 10747  0.76
      P1  H 10752 10765       L1     1  0.84

> <Gold.Chemscore.Hbond.Weighted>
-5.8703

> <Gold.Chemscore.Metal.Weighted>
-0.0000

> <Gold.Chemscore.Lipo.Weighted>
-13.4994

> <Gold.Chemscore.Internal_Hbond.Weighted>
0.0000

> <Gold.Chemscore.DEClash.Weighted>
0.0892

> <Gold.Chemscore.DEInternal.Weighted>
2.2123

> <Gold.Chemscore.Rot.Weighted>
2.5600

> <Gold.Chemscore.Internal.Correction.Weighted>
   9.000000E+99

> <Gold.Protein.RotatedTorsions>
[ 6907 6896 6895 6894 ] final  121.85 input  -60.11 | X-H torsion
[ 7974 7965 7964 7962 ] final  -28.99 input  175.53 | X-H torsion
[ 8008 7997 7996 7995 ] final  -37.16 input   59.86 | X-H torsion
[ 10167 10162 10161 10158 ] final  120.87 input  -65.29 | X-H torsion
[ 10718 10713 10712 10709 ] final -156.14 input   66.30 | X-H torsion
[ 10763 10752 10751 10750 ] final -169.53 input  -60.55 | X-H torsion
[ 11005 11000 10999 10996 ] final -179.50 input  -57.11 | X-H torsion

> <Gold.Protein.ActiveResidues>
 VAL166  LYS551  ARG553  GLY616  TRP617  ASP618  TYR619  PRO620  LYS621  CYS622 
 ASP623  PHE694  ASN695  SER759  ASP760  ASP761  ALA762  ILE779  LEU786  VAL792 
 PHE793  MET794  SER795  GLU796  ALA797  LYS798  CYS799  TRP800  GLU811  SER814 

> <Gold.Protein.RotatedAtoms>
  152.4289  133.7243  159.6550 H   0  0  0  0  0  0  0  0  0  0  0  0  # atno 6907 bound_to 6896
  150.8167  133.8314  159.3163 H   0  0  0  0  0  0  0  0  0  0  0  0  # atno 6908 bound_to 6896
  151.6008  135.1049  160.0111 H   0  0  0  0  0  0  0  0  0  0  0  0  # atno 6909 bound_to 6896
  146.1249  140.5354  142.8719 H   0  0  0  0  0  0  0  0  0  0  0  0  # atno 7974 bound_to 7965
  154.4059  140.1611  156.2492 H   0  0  0  0  0  0  0  0  0  0  0  0  # atno 8008 bound_to 7997
  155.9134  140.3426  155.6094 H   0  0  0  0  0  0  0  0  0  0  0  0  # atno 8009 bound_to 7997
  155.7308  140.0780  157.2280 H   0  0  0  0  0  0  0  0  0  0  0  0  # atno 8010 bound_to 7997
  139.5955  144.7040  151.3186 H   0  0  0  0  0  0  0  0  0  0  0  0  # atno 10167 bound_to 10162
  156.5224  130.8484  151.2687 H   0  0  0  0  0  0  0  0  0  0  0  0  # atno 10718 bound_to 10713
  154.6513  135.2912  154.9983 H   0  0  0  0  0  0  0  0  0  0  0  0  # atno 10763 bound_to 10752
  154.1075  135.6567  153.4883 H   0  0  0  0  0  0  0  0  0  0  0  0  # atno 10764 bound_to 10752
  153.0378  135.5257  154.7422 H   0  0  0  0  0  0  0  0  0  0  0  0  # atno 10765 bound_to 10752
  140.4179  134.6632  157.4648 H   0  0  0  0  0  0  0  0  0  0  0  0  # atno 11005 bound_to 11000
  144.7632  140.5471  143.6721 LP  0  0  0  0  0  0  0  0  0  0  0  0  # atno 17320 bound_to 7965
  145.5387  139.1475  143.3459 LP  0  0  0  0  0  0  0  0  0  0  0  0  # atno 17321 bound_to 7965
  140.7208  143.7140  150.7747 LP  0  0  0  0  0  0  0  0  0  0  0  0  # atno 17342 bound_to 10162
  140.0705  143.5065  152.2582 LP  0  0  0  0  0  0  0  0  0  0  0  0  # atno 17343 bound_to 10162
  157.7435  130.9913  150.2595 LP  0  0  0  0  0  0  0  0  0  0  0  0  # atno 17370 bound_to 10713
  156.3136  130.3775  149.7638 LP  0  0  0  0  0  0  0  0  0  0  0  0  # atno 17371 bound_to 10713
  140.0221  134.6532  155.9225 LP  0  0  0  0  0  0  0  0  0  0  0  0  # atno 17394 bound_to 11000
  141.1796  133.6544  156.4964 LP  0  0  0  0  0  0  0  0  0  0  0  0  # atno 17395 bound_to 11000

$$$$
