AV-unprocessed.smi:3290|AV-procd|sdf|12614|dock4
  -GOLD-   2272018543D 1   1.00000     0.00000
 Structure written by MMmdl.
 43 44  0  0  0  0  0  0  0  0  2 V2000
  144.0817  133.2248  149.7420 C   0  0  0  0  0  0  0  0  0  0  0  0
  144.8866  133.0760  151.0456 C   0  0  1  0  0  0  0  0  0  0  0  0
  145.6677  131.7449  151.0172 C   0  0  0  0  0  0  0  0  0  0  0  0
  146.4571  131.5097  152.3116 C   0  0  0  0  0  0  0  0  0  0  0  0
  147.4054  132.6808  152.5901 C   0  0  0  0  0  0  0  0  0  0  0  0
  146.6356  134.0078  152.6344 C   0  0  0  0  0  0  0  0  0  0  0  0
  145.8440  134.2705  151.3336 C   0  0  2  0  0  0  0  0  0  0  0  0
  145.1229  135.6337  151.4403 C   0  0  0  0  0  0  0  0  0  0  0  0
  146.0662  136.7691  151.3950 N   0  3  0  0  0  0  0  0  0  0  0  0
  145.8632  137.7674  152.4641 C   0  0  0  0  0  0  0  0  0  0  0  0
  146.8730  138.9235  152.3568 C   0  0  2  0  0  0  0  0  0  0  0  0
  148.1749  138.3834  152.2361 O   0  0  0  0  0  0  0  0  0  0  0  0
  146.7613  139.8616  153.5483 C   0  0  0  0  0  0  0  0  0  0  0  0
  147.4327  141.1034  153.5654 C   0  0  0  0  0  0  0  0  0  0  0  0
  147.2961  141.9281  154.6998 C   0  0  0  0  0  0  0  0  0  0  0  0
  146.5551  141.5901  155.7766 N   0  0  0  0  0  0  0  0  0  0  0  0
  145.9172  140.4005  155.7563 C   0  0  0  0  0  0  0  0  0  0  0  0
  145.9880  139.5024  154.6722 C   0  0  0  0  0  0  0  0  0  0  0  0
  144.7369  133.3972  148.8875 H   0  0  0  0  0  0  0  0  0  0  0  0
  143.3691  134.0470  149.7978 H   0  0  0  0  0  0  0  0  0  0  0  0
  143.5022  132.3243  149.5362 H   0  0  0  0  0  0  0  0  0  0  0  0
  144.1673  133.0144  151.8640 H   0  0  0  0  0  0  0  0  0  0  0  0
  144.9815  130.9115  150.8621 H   0  0  0  0  0  0  0  0  0  0  0  0
  146.3536  131.7386  150.1688 H   0  0  0  0  0  0  0  0  0  0  0  0
  145.7668  131.3879  153.1473 H   0  0  0  0  0  0  0  0  0  0  0  0
  147.0235  130.5807  152.2389 H   0  0  0  0  0  0  0  0  0  0  0  0
  147.9269  132.5207  153.5342 H   0  0  0  0  0  0  0  0  0  0  0  0
  148.1724  132.7258  151.8158 H   0  0  0  0  0  0  0  0  0  0  0  0
  145.9539  134.0028  153.4863 H   0  0  0  0  0  0  0  0  0  0  0  0
  147.3427  134.8188  152.8126 H   0  0  0  0  0  0  0  0  0  0  0  0
  146.5737  134.3330  150.5240 H   0  0  0  0  0  0  0  0  0  0  0  0
  144.3741  135.7330  150.6532 H   0  0  0  0  0  0  0  0  0  0  0  0
  144.5891  135.6989  152.3895 H   0  0  0  0  0  0  0  0  0  0  0  0
  147.0069  136.4092  151.4740 H   0  0  0  0  0  0  0  0  0  0  0  0
  144.8480  138.1592  152.3841 H   0  0  0  0  0  0  0  0  0  0  0  0
  145.9425  137.2812  153.4379 H   0  0  0  0  0  0  0  0  0  0  0  0
  146.6723  139.4937  151.4485 H   0  0  0  0  0  0  0  0  0  0  0  0
  148.6298  138.8493  151.5502 H   0  0  0  0  0  0  0  0  0  0  0  0
  148.0407  141.4212  152.7308 H   0  0  0  0  0  0  0  0  0  0  0  0
  147.7965  142.8842  154.7434 H   0  0  0  0  0  0  0  0  0  0  0  0
  145.3331  140.1555  156.6309 H   0  0  0  0  0  0  0  0  0  0  0  0
  145.4581  138.5620  154.7089 H   0  0  0  0  0  0  0  0  0  0  0  0
  145.9718  137.2298  150.5014 H   0  0  0  0  0  0  0  0  0  0  0  0
  1  2  1  0  0  0  0
  1 19  1  0  0  0  0
  1 20  1  0  0  0  0
  1 21  1  0  0  0  0
  2  7  1  0  0  0  0
  2  3  1  0  0  0  0
  2 22  1  0  0  0  0
  3  4  1  0  0  0  0
  3 23  1  0  0  0  0
  3 24  1  0  0  0  0
  4  5  1  0  0  0  0
  4 25  1  0  0  0  0
  4 26  1  0  0  0  0
  5  6  1  0  0  0  0
  5 27  1  0  0  0  0
  5 28  1  0  0  0  0
  6  7  1  0  0  0  0
  6 29  1  0  0  0  0
  6 30  1  0  0  0  0
  7  8  1  0  0  0  0
  7 31  1  0  0  0  0
  8  9  1  0  0  0  0
  8 32  1  0  0  0  0
  8 33  1  0  0  0  0
  9 10  1  0  0  0  0
  9 34  1  0  0  0  0
  9 43  1  0  0  0  0
 10 11  1  0  0  0  0
 10 35  1  0  0  0  0
 10 36  1  0  0  0  0
 11 12  1  0  0  0  0
 11 13  1  0  0  0  0
 11 37  1  0  0  0  0
 12 38  1  0  0  0  0
 13 18  1  0  0  0  0
 13 14  2  0  0  0  0
 14 15  1  0  0  0  0
 14 39  1  0  0  0  0
 15 16  2  0  0  0  0
 15 40  1  0  0  0  0
 16 17  1  0  0  0  0
 17 18  2  0  0  0  0
 17 41  1  0  0  0  0
 18 42  1  0  0  0  0
M  CHG  1   9   1
M  END
> <s_m_source_file>
AV-unprocessed.smi

> <i_m_source_file_index>
3290

> <i_lp_mmshare_version>
43012

> <i_f3d_flags>
0

> <s_epik_input>
W0NIM11bQ0BASF0xW0NIMl1bQ0gyXVtDSDJdW0NIMl1bQ0BIXTFbQ0gyXVtOSF1bQ0gyXVtDQEhdKFtPSF0pYzJbY0hdW2NIXW5bY0hdW2NIXTI=

> <s_epik_cmdline>
J2VwaWtfcHl0aG9uJywgJy1waCcsICc3LjAnLCAnLXRuJywgJzgnLCAnLW1hJywgJzIwMCcsICctbWV0YWxfYmluZGluZycsICctaW1hZScsICc8aW5maWxlLm1hZT4nLCAnLW9tYWUnLCAnPG91dGZpbGUubWFlPic=

> <r_lp_tautomer_probability>
1

> <r_epik_Ionization_Penalty>
0.00420552

> <r_epik_Ionization_Penalty_Charging>
0.00207255

> <r_epik_Ionization_Penalty_Neutral>
0.00213297

> <r_epik_State_Penalty>
-0

> <r_epik_Charging_Adjusted_Penalty>
0.00207255

> <i_epik_Tot_Q>
1

> <i_epik_Tot_abs_Q>
1

> <r_epik_Metal_State_Penalty>
-0

> <b_epik_Metal_Only>
0

> <s_lp_Force_Field>
OPLS_2005

> <r_lp_Energy>
17.7323

> <b_lp_Chiralities_Consistent>
1

> <s_lp_Variant>
AV-unprocessed.smi:3290-4

> <Gold.Version>
5.8.1

> <Gold.Id.Protein>
6NUR|6NUR_protein|mol2

> <Gold.PLP.Fitness>
44.7722

> <Gold.PLP.PLP>
-33.9743

> <Gold.PLP.part.hbond>
-2.6437

> <Gold.PLP.part.metal>
0.0000

> <Gold.PLP.part.buried>
-2.9645

> <Gold.PLP.part.nonpolar>
-29.1782

> <Gold.PLP.part.repulsive>
0.1788

> <Gold.PLP.ligand.clash>
0.0000

> <Gold.PLP.ligand.torsion>
0.6225

> <Gold.PLP.Chemscore.Hbond>
2.9920

> <Gold.PLP.Chemscore.CHOScore>
1.0000

> <Gold.PLP.Chemscore.Metal>
0.0000

> <Gold.Chemscore.Hbonds>
donor molecule, donor type, donor heavy atom, donor atom, acceptor molecule, acceptor atom, score
      L1  H     9    34       P1  7948  2.00
      L1  H    12    38       P1  7957  0.99
      L1  C    15    40       P1  8028  1.00

> <Gold.PLP.Chemscore.Internal.Correction>
0.0667

> <Gold.Rescore>
     Score         DG    S(hbond)    S(metal)    S(lipo)     H(rot)  DE(clash)    DE(int)     intcor
     16.23     -16.77       1.98        0.00      84.92       2.05       0.07       0.47       ----

> <Gold.Chemscore.Fitness>
16.2338

> <Gold.Chemscore.DG>
-16.7742

> <Gold.Chemscore.ZeroCoef>
-5.4800

> <Gold.Chemscore.Hbond>
1.9777

> <Gold.Chemscore.Metal>
0.0000

> <Gold.Chemscore.Lipo>
84.9237

> <Gold.Chemscore.Internal_Hbond>
0.0000

> <Gold.Chemscore.DEClash>
0.0676

> <Gold.Chemscore.DEInternal>
0.4727

> <Gold.Chemscore.Rot>
2.0498

> <Gold.Chemscore.Internal.Correction>
   9.000000E+99

> <Gold.Chemscore.Hbonds>
donor molecule, donor type, donor heavy atom, donor atom, acceptor molecule, acceptor atom, score
      L1  H     9    34       P1  7948  0.99
      L1  H    12    38       P1  7957  0.40

> <Gold.Chemscore.Hbond.Weighted>
-6.6056

> <Gold.Chemscore.Metal.Weighted>
-0.0000

> <Gold.Chemscore.Lipo.Weighted>
-9.9361

> <Gold.Chemscore.Internal_Hbond.Weighted>
0.0000

> <Gold.Chemscore.DEClash.Weighted>
0.0676

> <Gold.Chemscore.DEInternal.Weighted>
0.4727

> <Gold.Chemscore.Rot.Weighted>
5.2475

> <Gold.Chemscore.Internal.Correction.Weighted>
   9.000000E+99

> <Gold.Protein.RotatedTorsions>
[ 6907 6896 6895 6894 ] final -120.78 input  -60.11 | X-H torsion
[ 7974 7965 7964 7962 ] final  140.41 input  175.53 | X-H torsion
[ 8008 7997 7996 7995 ] final -167.87 input   59.86 | X-H torsion
[ 10167 10162 10161 10158 ] final   47.94 input  -65.29 | X-H torsion
[ 10718 10713 10712 10709 ] final   19.93 input   66.30 | X-H torsion
[ 10763 10752 10751 10750 ] final   58.24 input  -60.55 | X-H torsion
[ 11005 11000 10999 10996 ] final   44.30 input  -57.11 | X-H torsion

> <Gold.Protein.ActiveResidues>
 VAL166  LYS551  ARG553  GLY616  TRP617  ASP618  TYR619  PRO620  LYS621  CYS622 
 ASP623  PHE694  ASN695  SER759  ASP760  ASP761  ALA762  ILE779  LEU786  VAL792 
 PHE793  MET794  SER795  GLU796  ALA797  LYS798  CYS799  TRP800  GLU811  SER814 

> <Gold.Protein.RotatedAtoms>
  150.8423  133.7916  159.3055 H   0  0  0  0  0  0  0  0  0  0  0  0  # atno 6907 bound_to 6896
  151.5613  135.1064  159.9983 H   0  0  0  0  0  0  0  0  0  0  0  0  # atno 6908 bound_to 6896
  152.4485  133.7539  159.6766 H   0  0  0  0  0  0  0  0  0  0  0  0  # atno 6909 bound_to 6896
  144.9189  139.5193  143.5673 H   0  0  0  0  0  0  0  0  0  0  0  0  # atno 7974 bound_to 7965
  155.8837  140.1013  157.1467 H   0  0  0  0  0  0  0  0  0  0  0  0  # atno 8008 bound_to 7997
  154.4007  140.1324  156.4292 H   0  0  0  0  0  0  0  0  0  0  0  0  # atno 8009 bound_to 7997
  155.7613  140.3463  155.5202 H   0  0  0  0  0  0  0  0  0  0  0  0  # atno 8010 bound_to 7997
  140.2984  144.2963  150.6224 H   0  0  0  0  0  0  0  0  0  0  0  0  # atno 10167 bound_to 10162
  157.1174  130.6535  149.5914 H   0  0  0  0  0  0  0  0  0  0  0  0  # atno 10718 bound_to 10713
  152.9866  135.5614  154.5520 H   0  0  0  0  0  0  0  0  0  0  0  0  # atno 10763 bound_to 10752
  154.4955  135.2795  155.1465 H   0  0  0  0  0  0  0  0  0  0  0  0  # atno 10764 bound_to 10752
  154.2916  135.6325  153.5441 H   0  0  0  0  0  0  0  0  0  0  0  0  # atno 10765 bound_to 10752
  140.1565  134.4396  155.8346 H   0  0  0  0  0  0  0  0  0  0  0  0  # atno 11005 bound_to 11000
  146.3195  139.8054  142.8957 LP  0  0  0  0  0  0  0  0  0  0  0  0  # atno 17320 bound_to 7965
  145.3328  141.0270  143.3436 LP  0  0  0  0  0  0  0  0  0  0  0  0  # atno 17321 bound_to 7965
  140.5672  143.2185  151.7663 LP  0  0  0  0  0  0  0  0  0  0  0  0  # atno 17342 bound_to 10162
  139.4921  144.4267  151.9917 LP  0  0  0  0  0  0  0  0  0  0  0  0  # atno 17343 bound_to 10162
  155.9836  130.4857  150.6942 LP  0  0  0  0  0  0  0  0  0  0  0  0  # atno 17370 bound_to 10713
  157.4506  131.0872  151.0850 LP  0  0  0  0  0  0  0  0  0  0  0  0  # atno 17371 bound_to 10713
  141.2205  133.6894  156.7516 LP  0  0  0  0  0  0  0  0  0  0  0  0  # atno 17394 bound_to 11000
  140.2542  134.8517  157.3696 LP  0  0  0  0  0  0  0  0  0  0  0  0  # atno 17395 bound_to 11000

$$$$
