#       Name:                AV-unprocessed.smi:1512
#       Creating user name   scv26
#       Creation time:       Fri Mar 27 06:23:15 2020


#       File generated by GOLD software.
#

@<TRIPOS>MOLECULE
AV-unprocessed.smi:1512
    50    52     1
SMALL
NO_CHARGES


@<TRIPOS>ATOM
      1 ****        -1.8181  -1.7043   2.6168 C.3            1 S1                 0.0000
      2 ****        -1.3143  -0.8872   1.4152 C.3            1 S1                 0.0000
      3 ****         0.1475  -0.8878   1.4382 N.am           1 S1                 0.0000
      4 ****         0.9333   0.1754   1.6674 C.2            1 S1                 0.0000
      5 ****         0.5024   1.2928   1.9543 O.2            1 S1                 0.0000
      6 ****         2.4442  -0.0685   1.5592 C.3            1 S1                 0.0000
      7 ****         3.1525   1.0540   0.9208 N.am           1 S1                 0.0000
      8 ****         3.8428   1.9396   1.7692 C.2            1 S1                 0.0000
      9 ****         4.5106   3.0004   1.2937 C.2            1 S1                 0.0000
     10 ****         4.5129   3.2231  -0.1315 C.2            1 S1                 0.0000
     11 ****         3.8566   2.3856  -0.9673 C.2            1 S1                 0.0000
     12 ****         3.9021   2.6652  -2.3844 N.pl3          1 S1                 1.0000
     13 ****         4.0456   1.7324  -3.1688 O.2            1 S1                 0.0000
     14 ****         3.8091   3.8320  -2.7544 O.2            1 S1                -1.0000
     15 ****         3.1156   1.2216  -0.4384 C.2            1 S1                 0.0000
     16 ****         2.4884   0.4436  -1.1603 O.2            1 S1                 0.0000
     17 ****        -1.8076  -1.4430   0.0558 C.3            1 S1                 0.0000
     18 ****        -1.2518  -0.6792  -1.1744 C.3            1 S1                 0.0000
     19 ****        -2.5174  -0.3146  -1.9688 C.3            1 S1                 0.0000
     20 ****        -3.1424  -1.5902  -2.5621 C.3            1 S1                 0.0000
     21 ****        -3.7364  -2.2834  -1.3220 C.3            1 S1                 0.0000
     22 ****        -3.3361  -1.3335  -0.1765 C.3            1 S1                 0.0000
     23 ****        -3.4889   0.0278  -0.8482 C.3            1 S1                 0.0000
     24 ****        -2.9038  -1.6766   2.7004 H              1 S1                 0.0000
     25 ****        -1.4170  -1.3105   3.5514 H              1 S1                 0.0000
     26 ****        -1.5160  -2.7495   2.5411 H              1 S1                 0.0000
     27 ****        -1.6877   0.1320   1.5254 H              1 S1                 0.0000
     28 ****         0.5989  -1.7639   1.2188 H              1 S1                 0.0000
     29 ****         2.8292  -0.2538   2.5628 H              1 S1                 0.0000
     30 ****         2.6358  -0.9898   1.0053 H              1 S1                 0.0000
     31 ****         3.7868   1.7084   2.8231 H              1 S1                 0.0000
     32 ****         5.0305   3.6725   1.9605 H              1 S1                 0.0000
     33 ****         5.0567   4.0702  -0.5238 H              1 S1                 0.0000
     34 ****        -1.5058  -2.4900  -0.0053 H              1 S1                 0.0000
     35 ****        -0.7316   0.2337  -0.8817 H              1 S1                 0.0000
     36 ****        -0.5534  -1.2812  -1.7566 H              1 S1                 0.0000
     37 ****        -2.3597   0.4776  -2.7012 H              1 S1                 0.0000
     38 ****        -3.9284  -1.3439  -3.2773 H              1 S1                 0.0000
     39 ****        -2.4054  -2.2107  -3.0729 H              1 S1                 0.0000
     40 ****        -4.8219  -2.3506  -1.4059 H              1 S1                 0.0000
     41 ****        -3.3514  -3.2942  -1.1827 H              1 S1                 0.0000
     42 ****        -3.9458  -1.4703   0.7155 H              1 S1                 0.0000
     43 ****        -3.1582   0.8623  -0.2275 H              1 S1                 0.0000
     44 ****        -4.5028   0.2258  -1.2011 H              1 S1                 0.0000
     45 ****        -0.4832   1.4450   2.0273 LP             1 S1                 0.0000
     46 ****         1.1382   2.0480   2.1142 LP             1 S1                 0.0000
     47 ****         4.1288   0.7974  -2.8240 LP             1 S1                 0.0000
     48 ****         4.0793   1.9073  -4.1529 LP             1 S1                 0.0000
     49 ****         1.9949  -0.3262  -0.7557 LP             1 S1                 0.0000
     50 ****         2.4732   0.5824  -2.1505 LP             1 S1                 0.0000
@<TRIPOS>BOND
    1    1    2 1     
    2    1   24 1     
    3    1   25 1     
    4    1   26 1     
    5    2    3 1     
    6    2   17 1     
    7    2   27 1     
    8    3    4 am    
    9    3   28 1     
   10    4    5 2     
   11    4    6 1     
   12    6    7 1     
   13    6   29 1     
   14    6   30 1     
   15    7   15 am    
   16    7    8 1     
   17    8    9 2     
   18    8   31 1     
   19    9   10 1     
   20    9   32 1     
   21   10   11 2     
   22   10   33 1     
   23   11   12 1     
   24   11   15 1     
   25   12   13 2     
   26   12   14 1     
   27   15   16 2     
   28   17   22 1     
   29   17   18 1     
   30   17   34 1     
   31   18   19 1     
   32   18   35 1     
   33   18   36 1     
   34   19   23 1     
   35   19   20 1     
   36   19   37 1     
   37   20   21 1     
   38   20   38 1     
   39   20   39 1     
   40   21   22 1     
   41   21   40 1     
   42   21   41 1     
   43   22   23 1     
   44   22   42 1     
   45   23   43 1     
   46   23   44 1     
   47    5   45 1     
   48    5   46 1     
   49   13   47 1     
   50   13   48 1     
   51   16   49 1     
   52   16   50 1     
@<TRIPOS>SUBSTRUCTURE
      1 S1             1
@<TRIPOS>SET
LONE_PAIRS      STATIC     ATOMS    <user>   **** ""
7 45 46 47 48 14 49 50
DONOR_HYDROGENS      STATIC     ATOMS    <user>   **** ""
1 28
ATOM$BLUE        STATIC     ATOMS    COLORGROUP SYSTEM
7 45 46 47 48 14 49 50
ATOM$RED        STATIC     ATOMS    COLORGROUP SYSTEM
1 28
