#       Name:                AV-unprocessed.smi:2568
#       Creating user name   scv26
#       Creation time:       Fri Mar 27 14:11:33 2020


#       File generated by GOLD software.
#

@<TRIPOS>MOLECULE
AV-unprocessed.smi:2568
    29    30     1
SMALL
NO_CHARGES


@<TRIPOS>ATOM
      1 ****        -4.0578   1.6059  -0.2249 C.3            1 S1                 0.0000
      2 ****        -2.5701   1.5966  -0.3173 C.2            1 S1                 0.0000
      3 ****        -1.8826   2.7145  -0.5452 N.2            1 S1                 0.0000
      4 ****        -0.6102   2.2647  -0.5539 N.pl3          1 S1                 0.0000
      5 ****        -0.6055   0.9465  -0.3415 C.2            1 S1                 0.0000
      6 ****         0.6615   0.1529  -0.2826 C.3            1 S1                 0.0000
      7 ****         1.0662  -0.2030   1.1611 C.3            1 S1                 0.0000
      8 ****         2.2626  -1.0672   1.1508 N.4            1 S1                 1.0000
      9 ****         2.0563  -2.2657   0.3135 C.3            1 S1                 0.0000
     10 ****         1.6130  -1.8543  -1.1016 C.3            1 S1                 0.0000
     11 ****         0.4435  -1.0456  -1.0230 O.3            1 S1                 0.0000
     12 ****        -1.8306   0.4556  -0.1777 N.2            1 S1                 0.0000
     13 ****         0.1854   2.8684  -0.7049 H              1 S1                 0.0000
     14 ****        -4.4399   2.6269  -0.1926 H              1 S1                 0.0000
     15 ****        -4.3836   1.0884   0.6777 H              1 S1                 0.0000
     16 ****        -4.4908   1.1020  -1.0892 H              1 S1                 0.0000
     17 ****         1.4543   0.7307  -0.7620 H              1 S1                 0.0000
     18 ****         1.2752   0.6987   1.7373 H              1 S1                 0.0000
     19 ****         0.2546  -0.7281   1.6671 H              1 S1                 0.0000
     20 ****         3.0399  -0.5412   0.7774 H              1 S1                 0.0000
     21 ****         2.9794  -2.8443   0.2748 H              1 S1                 0.0000
     22 ****         1.2984  -2.8996   0.7758 H              1 S1                 0.0000
     23 ****         2.4082  -1.3135  -1.6171 H              1 S1                 0.0000
     24 ****         1.3917  -2.7394  -1.6983 H              1 S1                 0.0000
     25 ****         2.4804  -1.3507   2.0956 H              1 S1                 0.0000
     26 ****        -2.2216   3.6462  -0.6760 LP             1 S1                 0.0000
     27 ****         0.1577  -0.8030  -1.9500 LP             1 S1                 0.0000
     28 ****        -0.2812  -1.5712  -0.5775 LP             1 S1                 0.0000
     29 ****        -2.1270  -0.4831  -0.0020 LP             1 S1                 0.0000
@<TRIPOS>BOND
    1    1    2 1     
    2    1   14 1     
    3    1   15 1     
    4    1   16 1     
    5    2   12 1     
    6    2    3 2     
    7    3    4 1     
    8    4   13 1     
    9    4    5 1     
   10    5    6 1     
   11    5   12 2     
   12    6   11 1     
   13    6    7 1     
   14    6   17 1     
   15    7    8 1     
   16    7   18 1     
   17    7   19 1     
   18    8    9 1     
   19    8   20 1     
   20    8   25 1     
   21    9   10 1     
   22    9   21 1     
   23    9   22 1     
   24   10   11 1     
   25   10   23 1     
   26   10   24 1     
   27    3   26 1     
   28   11   27 1     
   29   11   28 1     
   30   12   29 1     
@<TRIPOS>SUBSTRUCTURE
      1 S1             1
@<TRIPOS>SET
LONE_PAIRS      STATIC     ATOMS    <user>   **** ""
4 26 27 28 29
DONOR_HYDROGENS      STATIC     ATOMS    <user>   **** ""
3 13 20 25
ATOM$BLUE        STATIC     ATOMS    COLORGROUP SYSTEM
4 26 27 28 29
ATOM$RED        STATIC     ATOMS    COLORGROUP SYSTEM
3 13 20 25
