AV-unprocessed.smi:2026|AV-procd|sdf|8205|dock6
  -GOLD-   2272010463D 1   1.00000     0.00000
 Structure written by MMmdl.
 45 47  0  0  0  0  0  0  0  0  2 V2000
  152.7323  143.1108  161.4055 C   0  0  0  0  0  0  0  0  0  0  0  0
  152.1806  142.7314  160.0427 C   0  0  0  0  0  0  0  0  0  0  0  0
  152.6684  141.5689  159.4025 C   0  0  0  0  0  0  0  0  0  0  0  0
  152.1809  141.1819  158.1345 C   0  0  0  0  0  0  0  0  0  0  0  0
  152.5068  140.0993  157.3341 N   0  0  0  0  0  0  0  0  0  0  0  0
  151.7133  140.2936  156.2836 C   0  0  0  0  0  0  0  0  0  0  0  0
  150.9125  141.3756  156.3101 N   0  0  0  0  0  0  0  0  0  0  0  0
  149.9687  141.8080  155.2979 C   0  0  0  0  0  0  0  0  0  0  0  0
  149.2343  140.6163  154.6503 C   0  0  2  0  0  0  0  0  0  0  0  0
  150.1125  139.9508  153.7651 O   0  0  0  0  0  0  0  0  0  0  0  0
  147.9608  141.0131  153.8751 C   0  0  0  0  0  0  0  0  0  0  0  0
  146.9269  141.5773  154.7528 N   0  0  0  0  0  0  0  0  0  0  0  0
  146.2858  142.7455  154.5547 C   0  0  0  0  0  0  0  0  0  0  0  0
  146.5076  143.4613  153.5786 O   0  0  0  0  0  0  0  0  0  0  0  0
  145.4114  142.9961  155.5575 N   0  5  0  0  0  0  0  0  0  0  0  0
  145.4738  141.9111  156.5161 C   0  0  0  0  0  0  0  0  0  0  0  0
  145.9450  142.4392  157.8846 C   0  0  0  0  0  0  0  0  0  0  0  0
  144.1052  141.2119  156.6170 C   0  0  0  0  0  0  0  0  0  0  0  0
  146.5143  141.0021  155.8877 C   0  0  0  0  0  0  0  0  0  0  0  0
  146.8943  139.9349  156.3717 O   0  0  0  0  0  0  0  0  0  0  0  0
  151.1867  141.9979  157.5213 C   0  0  0  0  0  0  0  0  0  0  0  0
  150.6933  143.1556  158.1472 C   0  0  0  0  0  0  0  0  0  0  0  0
  151.1896  143.5273  159.4134 C   0  0  0  0  0  0  0  0  0  0  0  0
  150.6471  144.7792  160.0799 C   0  0  0  0  0  0  0  0  0  0  0  0
  153.4438  142.3681  161.7679 H   0  0  0  0  0  0  0  0  0  0  0  0
  151.9280  143.1861  162.1372 H   0  0  0  0  0  0  0  0  0  0  0  0
  153.2463  144.0709  161.3541 H   0  0  0  0  0  0  0  0  0  0  0  0
  153.4228  140.9625  159.8817 H   0  0  0  0  0  0  0  0  0  0  0  0
  151.7124  139.6100  155.4472 H   0  0  0  0  0  0  0  0  0  0  0  0
  149.2619  142.4798  155.7847 H   0  0  0  0  0  0  0  0  0  0  0  0
  150.4920  142.3995  154.5453 H   0  0  0  0  0  0  0  0  0  0  0  0
  148.9627  139.8987  155.4254 H   0  0  0  0  0  0  0  0  0  0  0  0
  149.7080  139.9193  152.9118 H   0  0  0  0  0  0  0  0  0  0  0  0
  148.2143  141.7088  153.0737 H   0  0  0  0  0  0  0  0  0  0  0  0
  147.5462  140.1346  153.3773 H   0  0  0  0  0  0  0  0  0  0  0  0
  146.0057  141.6354  158.6192 H   0  0  0  0  0  0  0  0  0  0  0  0
  145.2558  143.1877  158.2769 H   0  0  0  0  0  0  0  0  0  0  0  0
  146.9309  142.9027  157.8233 H   0  0  0  0  0  0  0  0  0  0  0  0
  144.1307  140.3963  157.3408 H   0  0  0  0  0  0  0  0  0  0  0  0
  143.7933  140.7913  155.6595 H   0  0  0  0  0  0  0  0  0  0  0  0
  143.3298  141.9089  156.9370 H   0  0  0  0  0  0  0  0  0  0  0  0
  149.9365  143.7493  157.6556 H   0  0  0  0  0  0  0  0  0  0  0  0
  149.9187  145.2835  159.4437 H   0  0  0  0  0  0  0  0  0  0  0  0
  151.4532  145.4828  160.2878 H   0  0  0  0  0  0  0  0  0  0  0  0
  150.1539  144.5279  161.0190 H   0  0  0  0  0  0  0  0  0  0  0  0
  1  2  1  0  0  0  0
  1 25  1  0  0  0  0
  1 26  1  0  0  0  0
  1 27  1  0  0  0  0
  2 23  1  0  0  0  0
  2  3  2  0  0  0  0
  3  4  1  0  0  0  0
  3 28  1  0  0  0  0
  4 21  2  0  0  0  0
  4  5  1  0  0  0  0
  5  6  2  0  0  0  0
  6  7  1  0  0  0  0
  6 29  1  0  0  0  0
  7  8  1  0  0  0  0
  7 21  1  0  0  0  0
  8  9  1  0  0  0  0
  8 30  1  0  0  0  0
  8 31  1  0  0  0  0
  9 10  1  0  0  0  0
  9 11  1  0  0  0  0
  9 32  1  0  0  0  0
 10 33  1  0  0  0  0
 11 12  1  0  0  0  0
 11 34  1  0  0  0  0
 11 35  1  0  0  0  0
 12 19  1  0  0  0  0
 12 13  1  0  0  0  0
 13 14  2  0  0  0  0
 13 15  1  0  0  0  0
 15 16  1  0  0  0  0
 16 17  1  0  0  0  0
 16 18  1  0  0  0  0
 16 19  1  0  0  0  0
 17 36  1  0  0  0  0
 17 37  1  0  0  0  0
 17 38  1  0  0  0  0
 18 39  1  0  0  0  0
 18 40  1  0  0  0  0
 18 41  1  0  0  0  0
 19 20  2  0  0  0  0
 21 22  1  0  0  0  0
 22 23  2  0  0  0  0
 22 42  1  0  0  0  0
 23 24  1  0  0  0  0
 24 43  1  0  0  0  0
 24 44  1  0  0  0  0
 24 45  1  0  0  0  0
M  CHG  1  15  -1
M  END
> <s_m_source_file>
AV-unprocessed.smi

> <i_m_source_file_index>
2026

> <i_lp_mmshare_version>
43012

> <i_f3d_flags>
0

> <s_epik_input>
W0NIM11jKFtjSF0xKWMoW0NIM10pW2NIXWMoYzEyKW4oW2NIXW4yKVtDSDJdW0NASF0oW09IXSlbQ0gyXU4oQzM9TylDKD1PKVtOSF1DMyhbQ0gzXSlbQ0gzXQ==

> <s_epik_cmdline>
J2VwaWtfcHl0aG9uJywgJy1waCcsICc3LjAnLCAnLXRuJywgJzgnLCAnLW1hJywgJzIwMCcsICctbWV0YWxfYmluZGluZycsICctaW1hZScsICc8aW5maWxlLm1hZT4nLCAnLW9tYWUnLCAnPG91dGZpbGUubWFlPic=

> <r_lp_tautomer_probability>
1

> <r_epik_Ionization_Penalty>
5.78785

> <r_epik_Ionization_Penalty_Charging>
5.68049

> <r_epik_Ionization_Penalty_Neutral>
0.107354

> <r_epik_State_Penalty>
5.7743

> <r_epik_Charging_Adjusted_Penalty>
11.4548

> <i_epik_Tot_Q>
-1

> <i_epik_Tot_abs_Q>
1

> <r_epik_Metal_State_Penalty>
1.83778

> <b_epik_Metal_Only>
1

> <s_lp_Force_Field>
OPLS_2005

> <r_lp_Energy>
16.8856

> <b_lp_Chiralities_Consistent>
1

> <s_lp_Variant>
AV-unprocessed.smi:2026-5

> <Gold.Version>
5.8.1

> <Gold.Id.Protein>
6NUR|6NUR_protein|mol2

> <Gold.PLP.Fitness>
52.8442

> <Gold.PLP.PLP>
-45.1559

> <Gold.PLP.part.hbond>
-4.0000

> <Gold.PLP.part.metal>
0.0000

> <Gold.PLP.part.buried>
-3.1648

> <Gold.PLP.part.nonpolar>
-37.4258

> <Gold.PLP.part.repulsive>
0.3965

> <Gold.PLP.ligand.clash>
0.0000

> <Gold.PLP.ligand.torsion>
0.5224

> <Gold.PLP.Chemscore.Hbond>
2.9055

> <Gold.PLP.Chemscore.CHOScore>
0.0000

> <Gold.PLP.Chemscore.Metal>
0.0000

> <Gold.Chemscore.Hbonds>
donor molecule, donor type, donor heavy atom, donor atom, acceptor molecule, acceptor atom, score
      L1  H    10    33       P1  7957  1.00
      P1  H  7989  7998       L1    10  0.85
      P1  H  7997  8009       L1     5  1.00

> <Gold.PLP.Chemscore.Internal.Correction>
0.0167

> <Gold.Rescore>
     Score         DG    S(hbond)    S(metal)    S(lipo)     H(rot)  DE(clash)    DE(int)     intcor
     16.39     -18.88       2.35        0.00      99.31       2.38       0.20       2.29       ----

> <Gold.Chemscore.Fitness>
16.3855

> <Gold.Chemscore.DG>
-18.8754

> <Gold.Chemscore.ZeroCoef>
-5.4800

> <Gold.Chemscore.Hbond>
2.3545

> <Gold.Chemscore.Metal>
0.0000

> <Gold.Chemscore.Lipo>
99.3138

> <Gold.Chemscore.Internal_Hbond>
0.0000

> <Gold.Chemscore.DEClash>
0.1978

> <Gold.Chemscore.DEInternal>
2.2921

> <Gold.Chemscore.Rot>
2.3783

> <Gold.Chemscore.Internal.Correction>
   9.000000E+99

> <Gold.Chemscore.Hbonds>
donor molecule, donor type, donor heavy atom, donor atom, acceptor molecule, acceptor atom, score
      L1  H    10    33       P1  7957  0.99
      P1  H  7989  7998       L1    10  0.28
      P1  H  7997  8009       L1     5  0.43
      P1  H  8022  8030       L1    14  0.01

> <Gold.Chemscore.Hbond.Weighted>
-7.8640

> <Gold.Chemscore.Metal.Weighted>
-0.0000

> <Gold.Chemscore.Lipo.Weighted>
-11.6197

> <Gold.Chemscore.Internal_Hbond.Weighted>
0.0000

> <Gold.Chemscore.DEClash.Weighted>
0.1978

> <Gold.Chemscore.DEInternal.Weighted>
2.2921

> <Gold.Chemscore.Rot.Weighted>
6.0884

> <Gold.Chemscore.Internal.Correction.Weighted>
   9.000000E+99

> <Gold.Protein.RotatedTorsions>
[ 6907 6896 6895 6894 ] final   14.44 input  -60.11 | X-H torsion
[ 7974 7965 7964 7962 ] final  -92.61 input  175.53 | X-H torsion
[ 8008 7997 7996 7995 ] final -175.58 input   59.86 | X-H torsion
[ 10167 10162 10161 10158 ] final   56.77 input  -65.29 | X-H torsion
[ 10718 10713 10712 10709 ] final  -50.08 input   66.30 | X-H torsion
[ 10763 10752 10751 10750 ] final   90.58 input  -60.55 | X-H torsion
[ 11005 11000 10999 10996 ] final   38.30 input  -57.11 | X-H torsion

> <Gold.Protein.ActiveResidues>
 VAL166  LYS551  ARG553  GLY616  TRP617  ASP618  TYR619  PRO620  LYS621  CYS622 
 ASP623  PHE694  ASN695  SER759  ASP760  ASP761  ALA762  ILE779  LEU786  VAL792 
 PHE793  MET794  SER795  GLU796  ALA797  LYS798  CYS799  TRP800  GLU811  SER814 

> <Gold.Protein.RotatedAtoms>
  151.8022  135.0705  160.0401 H   0  0  0  0  0  0  0  0  0  0  0  0  # atno 6907 bound_to 6896
  152.3081  133.5719  159.5671 H   0  0  0  0  0  0  0  0  0  0  0  0  # atno 6908 bound_to 6896
  150.7306  134.0109  159.3711 H   0  0  0  0  0  0  0  0  0  0  0  0  # atno 6909 bound_to 6896
  145.3975  140.9534  143.2306 H   0  0  0  0  0  0  0  0  0  0  0  0  # atno 7974 bound_to 7965
  155.9844  140.1188  157.0697 H   0  0  0  0  0  0  0  0  0  0  0  0  # atno 8008 bound_to 7997
  154.4192  140.1138  156.5547 H   0  0  0  0  0  0  0  0  0  0  0  0  # atno 8009 bound_to 7997
  155.6428  140.3473  155.4723 H   0  0  0  0  0  0  0  0  0  0  0  0  # atno 8010 bound_to 7997
  140.2052  144.3947  150.6512 H   0  0  0  0  0  0  0  0  0  0  0  0  # atno 10167 bound_to 10162
  156.1834  130.4151  149.9474 H   0  0  0  0  0  0  0  0  0  0  0  0  # atno 10718 bound_to 10713
  153.1990  135.4429  155.0244 H   0  0  0  0  0  0  0  0  0  0  0  0  # atno 10763 bound_to 10752
  154.8136  135.3305  154.7241 H   0  0  0  0  0  0  0  0  0  0  0  0  # atno 10764 bound_to 10752
  153.7687  135.6986  153.4966 H   0  0  0  0  0  0  0  0  0  0  0  0  # atno 10765 bound_to 10752
  140.2140  134.3721  155.8036 H   0  0  0  0  0  0  0  0  0  0  0  0  # atno 11005 bound_to 11000
  144.8397  139.5492  143.6906 LP  0  0  0  0  0  0  0  0  0  0  0  0  # atno 17320 bound_to 7965
  146.2768  139.6773  142.9257 LP  0  0  0  0  0  0  0  0  0  0  0  0  # atno 17321 bound_to 7965
  140.6363  143.2195  151.6388 LP  0  0  0  0  0  0  0  0  0  0  0  0  # atno 17342 bound_to 10162
  139.5201  144.3232  152.0892 LP  0  0  0  0  0  0  0  0  0  0  0  0  # atno 17343 bound_to 10162
  156.7238  130.9017  151.3620 LP  0  0  0  0  0  0  0  0  0  0  0  0  # atno 17370 bound_to 10713
  157.6883  130.9207  150.0444 LP  0  0  0  0  0  0  0  0  0  0  0  0  # atno 17371 bound_to 10713
  141.2225  133.7158  156.8465 LP  0  0  0  0  0  0  0  0  0  0  0  0  # atno 17394 bound_to 11000
  140.1921  134.8958  157.3072 LP  0  0  0  0  0  0  0  0  0  0  0  0  # atno 17395 bound_to 11000

$$$$
