AV-unprocessed.smi:722|AV-procd|sdf|3504|dock3
  -GOLD-   22720 0503D 1   1.00000     0.00000
 Structure written by MMmdl.
 38 39  0  0  0  0  0  0  0  0  1 V2000
  151.4486  138.2510  154.3964 C   0  0  0  0  0  0  0  0  0  0  0  0
  151.9304  138.7944  155.7025 C   0  0  0  0  0  0  0  0  0  0  0  0
  153.2125  138.7895  156.0748 N   0  0  0  0  0  0  0  0  0  0  0  0
  153.2320  139.3651  157.3262 N   0  0  0  0  0  0  0  0  0  0  0  0
  151.9610  139.6686  157.5987 C   0  0  0  0  0  0  0  0  0  0  0  0
  151.4444  140.4184  159.1050 S   0  0  0  0  0  0  0  0  0  0  0  0
  153.0961  140.8040  159.7444 C   0  0  0  0  0  0  0  0  0  0  0  0
  153.0222  141.6883  160.9957 C   0  0  0  0  0  0  0  0  0  0  0  0
  152.8771  143.1847  160.6691 C   0  0  0  0  0  0  0  0  0  0  0  0
  151.9279  143.9480  161.6001 C   0  0  0  0  0  0  0  0  0  0  0  0
  151.5016  145.1954  160.8158 C   0  0  0  0  0  0  0  0  0  0  0  0
  151.7995  144.9014  159.3378 C   0  0  0  0  0  0  0  0  0  0  0  0
  152.2877  143.4511  159.2825 C   0  0  0  0  0  0  0  0  0  0  0  0
  151.0986  139.3356  156.6163 N   0  0  0  0  0  0  0  0  0  0  0  0
  149.6516  139.5033  156.5663 C   0  0  0  0  0  0  0  0  0  0  0  0
  149.2661  140.7849  155.8233 C   0  0  0  0  0  0  0  0  0  0  0  0
  148.7273  141.7701  156.5460 N   0  0  0  0  0  0  0  0  0  0  0  0
  149.4448  140.8823  154.6110 O   0  0  0  0  0  0  0  0  0  0  0  0
  152.2710  137.7913  153.8477 H   0  0  0  0  0  0  0  0  0  0  0  0
  151.0320  139.0532  153.7869 H   0  0  0  0  0  0  0  0  0  0  0  0
  150.6799  137.4958  154.5609 H   0  0  0  0  0  0  0  0  0  0  0  0
  153.6047  139.8678  159.9746 H   0  0  0  0  0  0  0  0  0  0  0  0
  153.6730  141.2965  158.9611 H   0  0  0  0  0  0  0  0  0  0  0  0
  152.1736  141.3712  161.6029 H   0  0  0  0  0  0  0  0  0  0  0  0
  153.9114  141.5308  161.6076 H   0  0  0  0  0  0  0  0  0  0  0  0
  153.8601  143.6570  160.7134 H   0  0  0  0  0  0  0  0  0  0  0  0
  151.0485  143.3391  161.8146 H   0  0  0  0  0  0  0  0  0  0  0  0
  152.3919  144.2005  162.5540 H   0  0  0  0  0  0  0  0  0  0  0  0
  150.4463  145.4174  160.9786 H   0  0  0  0  0  0  0  0  0  0  0  0
  152.0718  146.0655  161.1437 H   0  0  0  0  0  0  0  0  0  0  0  0
  150.9273  145.0581  158.7024 H   0  0  0  0  0  0  0  0  0  0  0  0
  152.5851  145.5701  158.9839 H   0  0  0  0  0  0  0  0  0  0  0  0
  153.0091  143.2849  158.4819 H   0  0  0  0  0  0  0  0  0  0  0  0
  151.4389  142.7888  159.1057 H   0  0  0  0  0  0  0  0  0  0  0  0
  149.2079  138.6280  156.0898 H   0  0  0  0  0  0  0  0  0  0  0  0
  149.2530  139.5393  157.5801 H   0  0  0  0  0  0  0  0  0  0  0  0
  148.4603  142.6363  156.1004 H   0  0  0  0  0  0  0  0  0  0  0  0
  148.5919  141.6463  157.5389 H   0  0  0  0  0  0  0  0  0  0  0  0
  1  2  1  0  0  0  0
  1 19  1  0  0  0  0
  1 20  1  0  0  0  0
  1 21  1  0  0  0  0
  2 14  1  0  0  0  0
  2  3  2  0  0  0  0
  3  4  1  0  0  0  0
  4  5  2  0  0  0  0
  5  6  1  0  0  0  0
  5 14  1  0  0  0  0
  6  7  1  0  0  0  0
  7  8  1  0  0  0  0
  7 22  1  0  0  0  0
  7 23  1  0  0  0  0
  8  9  1  0  0  0  0
  8 24  1  0  0  0  0
  8 25  1  0  0  0  0
  9 13  1  0  0  0  0
  9 10  1  0  0  0  0
  9 26  1  0  0  0  0
 10 11  1  0  0  0  0
 10 27  1  0  0  0  0
 10 28  1  0  0  0  0
 11 12  1  0  0  0  0
 11 29  1  0  0  0  0
 11 30  1  0  0  0  0
 12 13  1  0  0  0  0
 12 31  1  0  0  0  0
 12 32  1  0  0  0  0
 13 33  1  0  0  0  0
 13 34  1  0  0  0  0
 14 15  1  0  0  0  0
 15 16  1  0  0  0  0
 15 35  1  0  0  0  0
 15 36  1  0  0  0  0
 16 17  1  0  0  0  0
 16 18  2  0  0  0  0
 17 37  1  0  0  0  0
 17 38  1  0  0  0  0
M  END
> <s_m_source_file>
AV-unprocessed.smi

> <i_m_source_file_index>
722

> <i_lp_mmshare_version>
43012

> <i_f3d_flags>
0

> <s_epik_input>
W0NIM11jMW5uYyhuMVtDSDJdQyg9TylbTkgyXSlTW0NIMl1bQ0gyXVtDSF0yW0NIMl1bQ0gyXVtDSDJdW0NIMl0y

> <s_epik_cmdline>
J2VwaWtfcHl0aG9uJywgJy1waCcsICc3LjAnLCAnLXRuJywgJzgnLCAnLW1hJywgJzIwMCcsICctbWV0YWxfYmluZGluZycsICctaW1hZScsICc8aW5maWxlLm1hZT4nLCAnLW9tYWUnLCAnPG91dGZpbGUubWFlPic=

> <r_lp_tautomer_probability>
1

> <r_epik_Ionization_Penalty>
8.38536e-06

> <r_epik_Ionization_Penalty_Charging>
0

> <r_epik_Ionization_Penalty_Neutral>
8.38536e-06

> <r_epik_State_Penalty>
-0

> <r_epik_Charging_Adjusted_Penalty>
0

> <i_epik_Tot_Q>
0

> <i_epik_Tot_abs_Q>
0

> <r_epik_Metal_State_Penalty>
-0

> <b_epik_Metal_Only>
0

> <s_lp_Force_Field>
OPLS_2005

> <r_lp_Energy>
19.4661

> <b_lp_Chiralities_Consistent>
1

> <s_lp_Variant>
AV-unprocessed.smi:722-1

> <Gold.Version>
5.8.1

> <Gold.Id.Protein>
6NUR|6NUR_protein|mol2

> <Gold.PLP.Fitness>
51.4890

> <Gold.PLP.PLP>
-45.4061

> <Gold.PLP.part.hbond>
-4.6459

> <Gold.PLP.part.metal>
0.0000

> <Gold.PLP.part.buried>
-6.5085

> <Gold.PLP.part.nonpolar>
-34.7902

> <Gold.PLP.part.repulsive>
0.7764

> <Gold.PLP.ligand.clash>
0.0000

> <Gold.PLP.ligand.torsion>
1.1720

> <Gold.PLP.Chemscore.Hbond>
2.7972

> <Gold.PLP.Chemscore.CHOScore>
0.0000

> <Gold.PLP.Chemscore.Metal>
0.0000

> <Gold.Chemscore.Hbonds>
donor molecule, donor type, donor heavy atom, donor atom, acceptor molecule, acceptor atom, score
      L1  H    17    37       P1  8028  0.67
      P1  H  7997  8009       L1     4  0.27

> <Gold.PLP.Chemscore.Internal.Correction>
0.0354

> <Gold.Rescore>
     Score         DG    S(hbond)    S(metal)    S(lipo)     H(rot)  DE(clash)    DE(int)     intcor
     16.65     -18.01       2.29        0.00      99.82       2.66       0.42       0.94       ----

> <Gold.Chemscore.Fitness>
16.6533

> <Gold.Chemscore.DG>
-18.0140

> <Gold.Chemscore.ZeroCoef>
-5.4800

> <Gold.Chemscore.Hbond>
2.2934

> <Gold.Chemscore.Metal>
0.0000

> <Gold.Chemscore.Lipo>
99.8210

> <Gold.Chemscore.Internal_Hbond>
0.0000

> <Gold.Chemscore.DEClash>
0.4214

> <Gold.Chemscore.DEInternal>
0.9393

> <Gold.Chemscore.Rot>
2.6583

> <Gold.Chemscore.Internal.Correction>
   9.000000E+99

> <Gold.Chemscore.Hbonds>
donor molecule, donor type, donor heavy atom, donor atom, acceptor molecule, acceptor atom, score
      L1  H    17    37       P1  8028  0.62
      P1  H  7989  7998       L1    18  0.04

> <Gold.Chemscore.Hbond.Weighted>
-7.6601

> <Gold.Chemscore.Metal.Weighted>
-0.0000

> <Gold.Chemscore.Lipo.Weighted>
-11.6791

> <Gold.Chemscore.Internal_Hbond.Weighted>
0.0000

> <Gold.Chemscore.DEClash.Weighted>
0.4214

> <Gold.Chemscore.DEInternal.Weighted>
0.9393

> <Gold.Chemscore.Rot.Weighted>
6.8052

> <Gold.Chemscore.Internal.Correction.Weighted>
   9.000000E+99

> <Gold.Protein.RotatedTorsions>
[ 6907 6896 6895 6894 ] final -125.96 input  -60.11 | X-H torsion
[ 7974 7965 7964 7962 ] final  135.05 input  175.53 | X-H torsion
[ 8008 7997 7996 7995 ] final  164.24 input   59.86 | X-H torsion
[ 10167 10162 10161 10158 ] final   51.70 input  -65.29 | X-H torsion
[ 10718 10713 10712 10709 ] final  144.81 input   66.30 | X-H torsion
[ 10763 10752 10751 10750 ] final  109.59 input  -60.55 | X-H torsion
[ 11005 11000 10999 10996 ] final  108.80 input  -57.11 | X-H torsion

> <Gold.Protein.ActiveResidues>
 VAL166  LYS551  ARG553  GLY616  TRP617  ASP618  TYR619  PRO620  LYS621  CYS622 
 ASP623  PHE694  ASN695  SER759  ASP760  ASP761  ALA762  ILE779  LEU786  VAL792 
 PHE793  MET794  SER795  GLU796  ALA797  LYS798  CYS799  TRP800  GLU811  SER814 

> <Gold.Protein.RotatedAtoms>
  150.8921  133.7230  159.2901 H   0  0  0  0  0  0  0  0  0  0  0  0  # atno 6907 bound_to 6896
  151.4776  135.1048  159.9778 H   0  0  0  0  0  0  0  0  0  0  0  0  # atno 6908 bound_to 6896
  152.4826  133.8245  159.7126 H   0  0  0  0  0  0  0  0  0  0  0  0  # atno 6909 bound_to 6896
  144.9702  139.4614  143.5437 H   0  0  0  0  0  0  0  0  0  0  0  0  # atno 7974 bound_to 7965
  156.1895  140.1702  156.8120 H   0  0  0  0  0  0  0  0  0  0  0  0  # atno 8008 bound_to 7997
  154.5454  140.0728  156.8612 H   0  0  0  0  0  0  0  0  0  0  0  0  # atno 8009 bound_to 7997
  155.3132  140.3369  155.4245 H   0  0  0  0  0  0  0  0  0  0  0  0  # atno 8010 bound_to 7997
  140.2592  144.3392  150.6323 H   0  0  0  0  0  0  0  0  0  0  0  0  # atno 10167 bound_to 10162
  157.3528  131.0953  151.0985 H   0  0  0  0  0  0  0  0  0  0  0  0  # atno 10718 bound_to 10713
  153.4369  135.3775  155.2204 H   0  0  0  0  0  0  0  0  0  0  0  0  # atno 10763 bound_to 10752
  154.8752  135.3853  154.4200 H   0  0  0  0  0  0  0  0  0  0  0  0  # atno 10764 bound_to 10752
  153.4740  135.7087  153.6040 H   0  0  0  0  0  0  0  0  0  0  0  0  # atno 10765 bound_to 10752
  139.8850  134.9440  156.6028 H   0  0  0  0  0  0  0  0  0  0  0  0  # atno 11005 bound_to 11000
  146.3380  139.8909  142.8809 LP  0  0  0  0  0  0  0  0  0  0  0  0  # atno 17320 bound_to 7965
  145.2570  141.0064  143.3848 LP  0  0  0  0  0  0  0  0  0  0  0  0  # atno 17321 bound_to 7965
  140.5980  143.2167  151.7128 LP  0  0  0  0  0  0  0  0  0  0  0  0  # atno 17342 bound_to 10162
  139.5022  144.3838  152.0349 LP  0  0  0  0  0  0  0  0  0  0  0  0  # atno 17343 bound_to 10162
  157.2155  130.6457  149.5790 LP  0  0  0  0  0  0  0  0  0  0  0  0  # atno 17370 bound_to 10713
  155.9724  130.4646  150.6224 LP  0  0  0  0  0  0  0  0  0  0  0  0  # atno 17371 bound_to 10713
  140.7871  133.8612  155.8615 LP  0  0  0  0  0  0  0  0  0  0  0  0  # atno 17394 bound_to 11000
  140.9710  134.1531  157.4576 LP  0  0  0  0  0  0  0  0  0  0  0  0  # atno 17395 bound_to 11000

$$$$
