AV-unprocessed.smi:1410|AV-procd|sdf|5734|dock8
  -GOLD-   22720 5363D 1   1.00000     0.00000
 Structure written by MMmdl.
 41 42  0  0  0  0  0  0  0  0  3 V2000
  144.2170  133.0100  148.2325 N   0  0  0  0  0  0  0  0  0  0  0  0
  144.4019  132.4772  149.4423 C   0  0  0  0  0  0  0  0  0  0  0  0
  143.6343  131.6402  149.9145 O   0  0  0  0  0  0  0  0  0  0  0  0
  145.6371  132.9416  150.2211 C   0  0  0  0  0  0  0  0  0  0  0  0
  145.2974  133.5891  151.5144 N   0  3  2  0  0  0  0  0  0  0  0  0
  144.8246  134.9907  151.3597 C   0  0  0  0  0  0  0  0  0  0  0  0
  144.3433  135.5638  152.7041 C   0  0  0  0  0  0  0  0  0  0  0  0
  145.4294  135.4734  153.7953 C   0  0  2  0  0  0  0  0  0  0  0  0
  146.5252  136.4145  153.5610 N   0  0  0  0  0  0  0  0  0  0  0  0
  146.5591  137.6851  153.9900 C   0  0  0  0  0  0  0  0  0  0  0  0
  145.6378  138.2139  154.6106 O   0  0  0  0  0  0  0  0  0  0  0  0
  147.7085  138.2883  153.6389 N   0  0  0  0  0  0  0  0  0  0  0  0
  148.1258  139.6245  153.8918 C   0  0  0  0  0  0  0  0  0  0  0  0
  147.1556  140.6440  153.7671 C   0  0  0  0  0  0  0  0  0  0  0  0
  147.5214  141.9861  153.9962 C   0  0  0  0  0  0  0  0  0  0  0  0
  148.7955  142.2889  154.3241 N   0  3  0  0  0  0  0  0  0  0  0  0
  149.7609  141.3524  154.4415 C   0  0  0  0  0  0  0  0  0  0  0  0
  149.4549  139.9934  154.2234 C   0  0  0  0  0  0  0  0  0  0  0  0
  145.9632  134.0326  153.8794 C   0  0  0  0  0  0  0  0  0  0  0  0
  146.3995  133.4924  152.5049 C   0  0  0  0  0  0  0  0  0  0  0  0
  143.4182  132.7319  147.6797 H   0  0  0  0  0  0  0  0  0  0  0  0
  144.8734  133.6854  147.8681 H   0  0  0  0  0  0  0  0  0  0  0  0
  146.2404  132.0513  150.4035 H   0  0  0  0  0  0  0  0  0  0  0  0
  146.2460  133.6131  149.6131 H   0  0  0  0  0  0  0  0  0  0  0  0
  145.6277  135.6065  150.9521 H   0  0  0  0  0  0  0  0  0  0  0  0
  144.0043  135.0329  150.6425 H   0  0  0  0  0  0  0  0  0  0  0  0
  144.0098  136.5939  152.5741 H   0  0  0  0  0  0  0  0  0  0  0  0
  143.4648  135.0055  153.0305 H   0  0  0  0  0  0  0  0  0  0  0  0
  144.9792  135.7213  154.7583 H   0  0  0  0  0  0  0  0  0  0  0  0
  147.3270  136.0629  153.0583 H   0  0  0  0  0  0  0  0  0  0  0  0
  148.3395  137.7401  153.0728 H   0  0  0  0  0  0  0  0  0  0  0  0
  146.1357  140.4036  153.5034 H   0  0  0  0  0  0  0  0  0  0  0  0
  146.8384  142.8202  153.9261 H   0  0  0  0  0  0  0  0  0  0  0  0
  150.7449  141.7158  154.6999 H   0  0  0  0  0  0  0  0  0  0  0  0
  150.2490  139.2675  154.3042 H   0  0  0  0  0  0  0  0  0  0  0  0
  146.7924  133.9755  154.5859 H   0  0  0  0  0  0  0  0  0  0  0  0
  145.1810  133.3865  154.2804 H   0  0  0  0  0  0  0  0  0  0  0  0
  146.7050  132.4511  152.6144 H   0  0  0  0  0  0  0  0  0  0  0  0
  147.2693  134.0392  152.1377 H   0  0  0  0  0  0  0  0  0  0  0  0
  144.5259  133.0589  151.8950 H   0  0  0  0  0  0  0  0  0  0  0  0
  149.0401  143.2663  154.4855 H   0  0  0  0  0  0  0  0  0  0  0  0
  1  2  1  0  0  0  0
  1 21  1  0  0  0  0
  1 22  1  0  0  0  0
  2  3  2  0  0  0  0
  2  4  1  0  0  0  0
  4  5  1  0  0  0  0
  4 23  1  0  0  0  0
  4 24  1  0  0  0  0
  5 20  1  0  0  0  0
  5  6  1  0  0  0  0
  5 40  1  0  0  0  0
  6  7  1  0  0  0  0
  6 25  1  0  0  0  0
  6 26  1  0  0  0  0
  7  8  1  0  0  0  0
  7 27  1  0  0  0  0
  7 28  1  0  0  0  0
  8  9  1  0  0  0  0
  8 19  1  0  0  0  0
  8 29  1  0  0  0  0
  9 10  1  0  0  0  0
  9 30  1  0  0  0  0
 10 11  2  0  0  0  0
 10 12  1  0  0  0  0
 12 13  1  0  0  0  0
 12 31  1  0  0  0  0
 13 18  1  0  0  0  0
 13 14  2  0  0  0  0
 14 15  1  0  0  0  0
 14 32  1  0  0  0  0
 15 16  2  0  0  0  0
 15 33  1  0  0  0  0
 16 17  1  0  0  0  0
 16 41  1  0  0  0  0
 17 18  2  0  0  0  0
 17 34  1  0  0  0  0
 18 35  1  0  0  0  0
 19 20  1  0  0  0  0
 19 36  1  0  0  0  0
 19 37  1  0  0  0  0
 20 38  1  0  0  0  0
 20 39  1  0  0  0  0
M  CHG  1   5   1
M  CHG  1  16   1
M  END
> <s_m_source_file>
AV-unprocessed.smi

> <i_m_source_file_index>
1410

> <i_lp_mmshare_version>
43012

> <i_f3d_flags>
0

> <s_epik_input>
W05IMl1DKD1PKVtDSDJdTjFbQ0gyXVtDSDJdW0NIXShbQ0gyXVtDSDJdMSlbTkhdQyg9TylbTkhdYzJbY0hdW2NIXW5bY0hdW2NIXTI=

> <s_epik_cmdline>
J2VwaWtfcHl0aG9uJywgJy1waCcsICc3LjAnLCAnLXRuJywgJzgnLCAnLW1hJywgJzIwMCcsICctbWV0YWxfYmluZGluZycsICctaW1hZScsICc8aW5maWxlLm1hZT4nLCAnLW9tYWUnLCAnPG91dGZpbGUubWFlPic=

> <r_epik_Ionization_Penalty>
1.97414

> <r_epik_Ionization_Penalty_Charging>
1.97408

> <r_epik_Ionization_Penalty_Neutral>
5.94508e-05

> <r_epik_State_Penalty>
2.00676

> <r_epik_Charging_Adjusted_Penalty>
3.98084

> <i_epik_Tot_Q>
2

> <i_epik_Tot_abs_Q>
2

> <r_epik_Metal_State_Penalty>
2.12108

> <b_epik_Metal_Only>
0

> <s_lp_Force_Field>
OPLS_2005

> <r_lp_Energy>
26.1476

> <b_lp_Chiralities_Consistent>
1

> <s_lp_Variant>
AV-unprocessed.smi:1410-6

> <Gold.Version>
5.8.1

> <Gold.Id.Protein>
6NUR|6NUR_protein|mol2

> <Gold.PLP.Fitness>
44.8470

> <Gold.PLP.PLP>
-28.8526

> <Gold.PLP.part.hbond>
-5.0000

> <Gold.PLP.part.metal>
0.0000

> <Gold.PLP.part.buried>
-4.8338

> <Gold.PLP.part.nonpolar>
-20.9087

> <Gold.PLP.part.repulsive>
1.7258

> <Gold.PLP.ligand.clash>
0.0000

> <Gold.PLP.ligand.torsion>
0.8944

> <Gold.PLP.Chemscore.Hbond>
5.9193

> <Gold.PLP.Chemscore.CHOScore>
0.0000

> <Gold.PLP.Chemscore.Metal>
0.0000

> <Gold.Chemscore.Hbonds>
donor molecule, donor type, donor heavy atom, donor atom, acceptor molecule, acceptor atom, score
      L1  H     1    22       P1  7921  1.00
      L1  H     9    30       P1  7948  1.00
      L1  H    12    31       P1  7948  1.00
      L1  H    16    41       P1  8028  1.86
      P1  H 10785 10796       L1     3  0.91

> <Gold.PLP.Chemscore.Internal.Correction>
0.0255

> <Gold.Rescore>
     Score         DG    S(hbond)    S(metal)    S(lipo)     H(rot)  DE(clash)    DE(int)     intcor
     20.19     -22.36       4.61        0.00      56.07       1.99       0.17       2.00       ----

> <Gold.Chemscore.Fitness>
20.1940

> <Gold.Chemscore.DG>
-22.3601

> <Gold.Chemscore.ZeroCoef>
-5.4800

> <Gold.Chemscore.Hbond>
4.6145

> <Gold.Chemscore.Metal>
0.0000

> <Gold.Chemscore.Lipo>
56.0705

> <Gold.Chemscore.Internal_Hbond>
0.0000

> <Gold.Chemscore.DEClash>
0.1673

> <Gold.Chemscore.DEInternal>
1.9988

> <Gold.Chemscore.Rot>
1.9894

> <Gold.Chemscore.Internal.Correction>
   9.000000E+99

> <Gold.Chemscore.Hbonds>
donor molecule, donor type, donor heavy atom, donor atom, acceptor molecule, acceptor atom, score
      L1  H     1    22       P1  7921  0.88
      L1  H     9    30       P1  7948  0.93
      L1  H    12    31       P1  7948  0.94
      L1  H    16    41       P1  8028  0.90
      P1  H 10785 10796       L1     3  0.82

> <Gold.Chemscore.Hbond.Weighted>
-15.4126

> <Gold.Chemscore.Metal.Weighted>
-0.0000

> <Gold.Chemscore.Lipo.Weighted>
-6.5602

> <Gold.Chemscore.Internal_Hbond.Weighted>
0.0000

> <Gold.Chemscore.DEClash.Weighted>
0.1673

> <Gold.Chemscore.DEInternal.Weighted>
1.9988

> <Gold.Chemscore.Rot.Weighted>
5.0927

> <Gold.Chemscore.Internal.Correction.Weighted>
   9.000000E+99

> <Gold.Protein.RotatedTorsions>
[ 6907 6896 6895 6894 ] final -123.29 input  -60.11 | X-H torsion
[ 7974 7965 7964 7962 ] final   49.09 input  175.53 | X-H torsion
[ 8008 7997 7996 7995 ] final  -95.93 input   59.86 | X-H torsion
[ 10167 10162 10161 10158 ] final  -64.60 input  -65.29 | X-H torsion
[ 10718 10713 10712 10709 ] final   13.04 input   66.30 | X-H torsion
[ 10763 10752 10751 10750 ] final  174.38 input  -60.55 | X-H torsion
[ 11005 11000 10999 10996 ] final -119.35 input  -57.11 | X-H torsion

> <Gold.Protein.ActiveResidues>
 VAL166  LYS551  ARG553  GLY616  TRP617  ASP618  TYR619  PRO620  LYS621  CYS622 
 ASP623  PHE694  ASN695  SER759  ASP760  ASP761  ALA762  ILE779  LEU786  VAL792 
 PHE793  MET794  SER795  GLU796  ALA797  LYS798  CYS799  TRP800  GLU811  SER814 

> <Gold.Protein.RotatedAtoms>
  150.8657  133.7579  159.2977 H   0  0  0  0  0  0  0  0  0  0  0  0  # atno 6907 bound_to 6896
  151.5207  135.1065  159.9887 H   0  0  0  0  0  0  0  0  0  0  0  0  # atno 6908 bound_to 6896
  152.4659  133.7877  159.6941 H   0  0  0  0  0  0  0  0  0  0  0  0  # atno 6909 bound_to 6896
  146.0142  139.4577  142.9937 H   0  0  0  0  0  0  0  0  0  0  0  0  # atno 7974 bound_to 7965
  154.7677  140.0476  157.1026 H   0  0  0  0  0  0  0  0  0  0  0  0  # atno 8008 bound_to 7997
  154.9858  140.3107  155.4907 H   0  0  0  0  0  0  0  0  0  0  0  0  # atno 8009 bound_to 7997
  156.2916  140.2227  156.4960 H   0  0  0  0  0  0  0  0  0  0  0  0  # atno 8010 bound_to 7997
  140.5789  143.2325  151.6383 H   0  0  0  0  0  0  0  0  0  0  0  0  # atno 10167 bound_to 10162
  157.0189  130.6147  149.5718 H   0  0  0  0  0  0  0  0  0  0  0  0  # atno 10718 bound_to 10713
  154.4532  135.2765  155.1766 H   0  0  0  0  0  0  0  0  0  0  0  0  # atno 10763 bound_to 10752
  154.3585  135.6134  153.5682 H   0  0  0  0  0  0  0  0  0  0  0  0  # atno 10764 bound_to 10752
  152.9848  135.5828  154.4880 H   0  0  0  0  0  0  0  0  0  0  0  0  # atno 10765 bound_to 10752
  141.0222  134.0107  157.3266 H   0  0  0  0  0  0  0  0  0  0  0  0  # atno 11005 bound_to 11000
  145.7294  141.0047  143.1360 LP  0  0  0  0  0  0  0  0  0  0  0  0  # atno 17320 bound_to 7965
  144.6964  139.8966  143.7456 LP  0  0  0  0  0  0  0  0  0  0  0  0  # atno 17321 bound_to 7965
  139.5158  144.3365  152.0779 LP  0  0  0  0  0  0  0  0  0  0  0  0  # atno 17342 bound_to 10162
  140.2512  144.4166  150.6221 LP  0  0  0  0  0  0  0  0  0  0  0  0  # atno 17343 bound_to 10162
  156.0109  130.5200  150.7985 LP  0  0  0  0  0  0  0  0  0  0  0  0  # atno 17370 bound_to 10713
  157.5264  131.0934  151.0012 LP  0  0  0  0  0  0  0  0  0  0  0  0  # atno 17371 bound_to 10713
  139.9153  135.0196  156.7856 LP  0  0  0  0  0  0  0  0  0  0  0  0  # atno 17394 bound_to 11000
  140.6554  133.9694  155.7776 LP  0  0  0  0  0  0  0  0  0  0  0  0  # atno 17395 bound_to 11000

$$$$
