AV-unprocessed.smi:900|AV-procd|sdf|4089|dock10
  -GOLD-   22720 1573D 1   1.00000     0.00000
 Structure written by MMmdl.
 33 34  0  0  0  0  0  0  0  0  1 V2000
  146.8992  138.8386  153.4941 C   0  0  0  0  0  0  0  0  0  0  0  0
  147.8987  139.8707  153.7206 N   0  0  0  0  0  0  0  0  0  0  0  0
  148.2352  140.3441  154.9297 C   0  0  0  0  0  0  0  0  0  0  0  0
  147.7383  139.9342  155.9786 O   0  0  0  0  0  0  0  0  0  0  0  0
  149.2939  141.4481  154.9640 C   0  0  0  0  0  0  0  0  0  0  0  0
  150.4442  141.0443  155.8295 C   0  0  0  0  0  0  0  0  0  0  0  0
  151.5041  140.4232  155.3246 N   0  0  0  0  0  0  0  0  0  0  0  0
  152.3176  140.2071  156.4459 O   0  0  0  0  0  0  0  0  0  0  0  0
  151.6540  140.7499  157.4945 C   0  0  0  0  0  0  0  0  0  0  0  0
  152.2407  140.6240  158.8614 C   0  0  0  0  0  0  0  0  0  0  0  0
  152.7557  141.9629  159.4184 C   0  0  0  0  0  0  0  0  0  0  0  0
  152.8255  142.0338  160.9473 C   0  0  0  0  0  0  0  0  0  0  0  0
  152.8592  143.5306  161.2745 C   0  0  0  0  0  0  0  0  0  0  0  0
  152.2473  144.2511  160.0628 C   0  0  0  0  0  0  0  0  0  0  0  0
  151.8734  143.1589  159.0547 C   0  0  0  0  0  0  0  0  0  0  0  0
  150.4769  141.2798  157.1710 N   0  0  0  0  0  0  0  0  0  0  0  0
  146.8821  138.5631  152.4396 H   0  0  0  0  0  0  0  0  0  0  0  0
  145.9068  139.1976  153.7692 H   0  0  0  0  0  0  0  0  0  0  0  0
  147.1201  137.9431  154.0769 H   0  0  0  0  0  0  0  0  0  0  0  0
  148.3526  140.2618  152.9072 H   0  0  0  0  0  0  0  0  0  0  0  0
  149.6464  141.6539  153.9520 H   0  0  0  0  0  0  0  0  0  0  0  0
  148.8561  142.3736  155.3408 H   0  0  0  0  0  0  0  0  0  0  0  0
  151.4778  140.2164  159.5256 H   0  0  0  0  0  0  0  0  0  0  0  0
  153.0470  139.8903  158.8293 H   0  0  0  0  0  0  0  0  0  0  0  0
  153.7554  142.1497  159.0218 H   0  0  0  0  0  0  0  0  0  0  0  0
  151.9289  141.5882  161.3806 H   0  0  0  0  0  0  0  0  0  0  0  0
  153.6866  141.5015  161.3532 H   0  0  0  0  0  0  0  0  0  0  0  0
  152.3177  143.7483  162.1958 H   0  0  0  0  0  0  0  0  0  0  0  0
  153.8892  143.8601  161.4163 H   0  0  0  0  0  0  0  0  0  0  0  0
  151.3788  144.8495  160.3398 H   0  0  0  0  0  0  0  0  0  0  0  0
  152.9833  144.9282  159.6274 H   0  0  0  0  0  0  0  0  0  0  0  0
  152.0117  143.4811  158.0223 H   0  0  0  0  0  0  0  0  0  0  0  0
  150.8220  142.8962  159.1799 H   0  0  0  0  0  0  0  0  0  0  0  0
  1  2  1  0  0  0  0
  1 17  1  0  0  0  0
  1 18  1  0  0  0  0
  1 19  1  0  0  0  0
  2  3  1  0  0  0  0
  2 20  1  0  0  0  0
  3  4  2  0  0  0  0
  3  5  1  0  0  0  0
  5  6  1  0  0  0  0
  5 21  1  0  0  0  0
  5 22  1  0  0  0  0
  6 16  1  0  0  0  0
  6  7  2  0  0  0  0
  7  8  1  0  0  0  0
  8  9  1  0  0  0  0
  9 10  1  0  0  0  0
  9 16  2  0  0  0  0
 10 11  1  0  0  0  0
 10 23  1  0  0  0  0
 10 24  1  0  0  0  0
 11 15  1  0  0  0  0
 11 12  1  0  0  0  0
 11 25  1  0  0  0  0
 12 13  1  0  0  0  0
 12 26  1  0  0  0  0
 12 27  1  0  0  0  0
 13 14  1  0  0  0  0
 13 28  1  0  0  0  0
 13 29  1  0  0  0  0
 14 15  1  0  0  0  0
 14 30  1  0  0  0  0
 14 31  1  0  0  0  0
 15 32  1  0  0  0  0
 15 33  1  0  0  0  0
M  END
> <s_m_source_file>
AV-unprocessed.smi

> <i_m_source_file_index>
900

> <i_lp_mmshare_version>
43012

> <i_f3d_flags>
0

> <s_epik_input>
W0NIM11bTkhdQyg9TylbQ0gyXWMxbm9jKG4xKVtDSDJdW0NIXTJbQ0gyXVtDSDJdW0NIMl1bQ0gyXTI=

> <s_epik_cmdline>
J2VwaWtfcHl0aG9uJywgJy1waCcsICc3LjAnLCAnLXRuJywgJzgnLCAnLW1hJywgJzIwMCcsICctbWV0YWxfYmluZGluZycsICctaW1hZScsICc8aW5maWxlLm1hZT4nLCAnLW9tYWUnLCAnPG91dGZpbGUubWFlPic=

> <r_lp_tautomer_probability>
1

> <r_epik_Ionization_Penalty>
1.02915e-07

> <r_epik_Ionization_Penalty_Charging>
0

> <r_epik_Ionization_Penalty_Neutral>
1.02915e-07

> <r_epik_State_Penalty>
-0

> <r_epik_Charging_Adjusted_Penalty>
0

> <i_epik_Tot_Q>
0

> <i_epik_Tot_abs_Q>
0

> <r_epik_Metal_State_Penalty>
-0

> <b_epik_Metal_Only>
0

> <s_lp_Force_Field>
OPLS_2005

> <r_lp_Energy>
19.3932

> <b_lp_Chiralities_Consistent>
1

> <s_lp_Variant>
AV-unprocessed.smi:900-1

> <Gold.Version>
5.8.1

> <Gold.Id.Protein>
6NUR|6NUR_protein|mol2

> <Gold.PLP.Fitness>
41.0402

> <Gold.PLP.PLP>
-33.9308

> <Gold.PLP.part.hbond>
-3.0000

> <Gold.PLP.part.metal>
0.0000

> <Gold.PLP.part.buried>
-2.7601

> <Gold.PLP.part.nonpolar>
-27.6851

> <Gold.PLP.part.repulsive>
0.1788

> <Gold.PLP.ligand.clash>
0.0000

> <Gold.PLP.ligand.torsion>
0.7609

> <Gold.PLP.Chemscore.Hbond>
2.8713

> <Gold.PLP.Chemscore.CHOScore>
0.0000

> <Gold.PLP.Chemscore.Metal>
0.0000

> <Gold.Chemscore.Hbonds>
donor molecule, donor type, donor heavy atom, donor atom, acceptor molecule, acceptor atom, score
      L1  H     2    20       P1  7957  0.68
      P1  H  7989  7998       L1     7  0.88
      P1  H  7997  8008       L1     8  1.00

> <Gold.PLP.Chemscore.Internal.Correction>
0.0175

> <Gold.Rescore>
     Score         DG    S(hbond)    S(metal)    S(lipo)     H(rot)  DE(clash)    DE(int)     intcor
     16.61     -17.34       2.31        0.00      76.27       1.87       0.12       0.61       ----

> <Gold.Chemscore.Fitness>
16.6107

> <Gold.Chemscore.DG>
-17.3359

> <Gold.Chemscore.ZeroCoef>
-5.4800

> <Gold.Chemscore.Hbond>
2.3133

> <Gold.Chemscore.Metal>
0.0000

> <Gold.Chemscore.Lipo>
76.2695

> <Gold.Chemscore.Internal_Hbond>
0.0000

> <Gold.Chemscore.DEClash>
0.1200

> <Gold.Chemscore.DEInternal>
0.6052

> <Gold.Chemscore.Rot>
1.8727

> <Gold.Chemscore.Internal.Correction>
   9.000000E+99

> <Gold.Chemscore.Hbonds>
donor molecule, donor type, donor heavy atom, donor atom, acceptor molecule, acceptor atom, score
      L1  H     2    20       P1  7957  0.66
      P1  H  7989  7998       L1     7  0.56
      P1  H  7997  8008       L1     8  0.91

> <Gold.Chemscore.Hbond.Weighted>
-7.7263

> <Gold.Chemscore.Metal.Weighted>
-0.0000

> <Gold.Chemscore.Lipo.Weighted>
-8.9235

> <Gold.Chemscore.Internal_Hbond.Weighted>
0.0000

> <Gold.Chemscore.DEClash.Weighted>
0.1200

> <Gold.Chemscore.DEInternal.Weighted>
0.6052

> <Gold.Chemscore.Rot.Weighted>
4.7940

> <Gold.Chemscore.Internal.Correction.Weighted>
   9.000000E+99

> <Gold.Protein.RotatedTorsions>
[ 6907 6896 6895 6894 ] final  -64.95 input  -60.11 | X-H torsion
[ 7974 7965 7964 7962 ] final  -60.75 input  175.53 | X-H torsion
[ 8008 7997 7996 7995 ] final  -41.44 input   59.86 | X-H torsion
[ 10167 10162 10161 10158 ] final  134.74 input  -65.29 | X-H torsion
[ 10718 10713 10712 10709 ] final  118.06 input   66.30 | X-H torsion
[ 10763 10752 10751 10750 ] final   30.22 input  -60.55 | X-H torsion
[ 11005 11000 10999 10996 ] final -131.01 input  -57.11 | X-H torsion

> <Gold.Protein.ActiveResidues>
 VAL166  LYS551  ARG553  GLY616  TRP617  ASP618  TYR619  PRO620  LYS621  CYS622 
 ASP623  PHE694  ASN695  SER759  ASP760  ASP761  ALA762  ILE779  LEU786  VAL792 
 PHE793  MET794  SER795  GLU796  ALA797  LYS798  CYS799  TRP800  GLU811  SER814 

> <Gold.Protein.RotatedAtoms>
  150.7554  134.6228  159.6144 H   0  0  0  0  0  0  0  0  0  0  0  0  # atno 6907 bound_to 6896
  152.3529  134.6977  160.0240 H   0  0  0  0  0  0  0  0  0  0  0  0  # atno 6908 bound_to 6896
  151.7392  133.3285  159.3397 H   0  0  0  0  0  0  0  0  0  0  0  0  # atno 6909 bound_to 6896
  145.8117  140.8594  143.0178 H   0  0  0  0  0  0  0  0  0  0  0  0  # atno 7974 bound_to 7965
  154.4004  140.1499  156.3192 H   0  0  0  0  0  0  0  0  0  0  0  0  # atno 8008 bound_to 7997
  155.8545  140.3456  155.5694 H   0  0  0  0  0  0  0  0  0  0  0  0  # atno 8009 bound_to 7997
  155.7948  140.0862  157.1980 H   0  0  0  0  0  0  0  0  0  0  0  0  # atno 8010 bound_to 7997
  139.5244  144.6552  151.5183 H   0  0  0  0  0  0  0  0  0  0  0  0  # atno 10167 bound_to 10162
  157.6055  131.1044  150.7703 H   0  0  0  0  0  0  0  0  0  0  0  0  # atno 10718 bound_to 10713
  153.0384  135.6469  154.1011 H   0  0  0  0  0  0  0  0  0  0  0  0  # atno 10763 bound_to 10752
  154.0722  135.2879  155.3307 H   0  0  0  0  0  0  0  0  0  0  0  0  # atno 10764 bound_to 10752
  154.6587  135.5399  153.8055 H   0  0  0  0  0  0  0  0  0  0  0  0  # atno 10765 bound_to 10752
  140.9295  134.1338  157.4246 H   0  0  0  0  0  0  0  0  0  0  0  0  # atno 11005 bound_to 11000
  144.6756  140.0405  143.7481 LP  0  0  0  0  0  0  0  0  0  0  0  0  # atno 17320 bound_to 7965
  145.9770  139.2912  143.1065 LP  0  0  0  0  0  0  0  0  0  0  0  0  # atno 17321 bound_to 7965
  140.6374  143.8956  150.6660 LP  0  0  0  0  0  0  0  0  0  0  0  0  # atno 17342 bound_to 10162
  140.2280  143.3758  152.1589 LP  0  0  0  0  0  0  0  0  0  0  0  0  # atno 17343 bound_to 10162
  156.8092  130.4947  149.5358 LP  0  0  0  0  0  0  0  0  0  0  0  0  # atno 17370 bound_to 10713
  156.1140  130.6061  151.0092 LP  0  0  0  0  0  0  0  0  0  0  0  0  # atno 17371 bound_to 10713
  139.8793  135.0000  156.5987 LP  0  0  0  0  0  0  0  0  0  0  0  0  # atno 17394 bound_to 11000
  140.7881  133.8605  155.8623 LP  0  0  0  0  0  0  0  0  0  0  0  0  # atno 17395 bound_to 11000

$$$$
