AV-unprocessed.smi:2340|AV-procd|sdf|9346|dock5
  -GOLD-   2272012563D 1   1.00000     0.00000
 Structure written by MMmdl.
 40 41  0  0  0  0  0  0  0  0  1 V2000
  142.2125  135.2430  150.2129 C   0  0  0  0  0  0  0  0  0  0  0  0
  143.4734  135.9866  150.5215 C   0  0  0  0  0  0  0  0  0  0  0  0
  143.9614  136.3056  151.7641 C   0  0  0  0  0  0  0  0  0  0  0  0
  145.4670  137.1758  151.6668 S   0  0  0  0  0  0  0  0  0  0  0  0
  145.3767  137.0756  149.9112 C   0  0  0  0  0  0  0  0  0  0  0  0
  146.4332  137.6307  149.0043 C   0  0  2  0  0  0  0  0  0  0  0  0
  145.8946  138.7505  148.1026 C   0  0  0  0  0  0  0  0  0  0  0  0
  147.1965  136.5392  148.2199 C   0  0  0  0  0  0  0  0  0  0  0  0
  148.0420  135.7110  149.0752 N   0  0  0  0  0  0  0  0  0  0  0  0
  148.3551  134.4303  148.8394 C   0  0  0  0  0  0  0  0  0  0  0  0
  147.9141  133.7730  147.8964 O   0  0  0  0  0  0  0  0  0  0  0  0
  149.2293  133.9611  149.7387 N   0  0  0  0  0  0  0  0  0  0  0  0
  149.8112  132.6204  149.7188 C   0  0  1  0  0  0  0  0  0  0  0  0
  150.5218  132.3385  148.3928 C   0  0  0  0  0  0  0  0  0  0  0  0
  151.9051  131.8465  148.8065 C   0  0  0  0  0  0  0  0  0  0  0  0
  152.1316  132.5029  150.0411 O   0  0  0  0  0  0  0  0  0  0  0  0
  150.9196  132.4314  150.7774 C   0  0  1  0  0  0  0  0  0  0  0  0
  150.9487  133.4247  151.9504 C   0  0  0  0  0  0  0  0  0  0  0  0
  144.2897  136.4298  149.4775 N   0  0  0  0  0  0  0  0  0  0  0  0
  141.6590  135.0020  151.1209 H   0  0  0  0  0  0  0  0  0  0  0  0
  142.4250  134.3061  149.6978 H   0  0  0  0  0  0  0  0  0  0  0  0
  141.5549  135.8317  149.5729 H   0  0  0  0  0  0  0  0  0  0  0  0
  143.5288  136.0812  152.7279 H   0  0  0  0  0  0  0  0  0  0  0  0
  147.1642  138.1070  149.6588 H   0  0  0  0  0  0  0  0  0  0  0  0
  145.4540  139.5532  148.6946 H   0  0  0  0  0  0  0  0  0  0  0  0
  145.1278  138.3776  147.4232 H   0  0  0  0  0  0  0  0  0  0  0  0
  146.6915  139.1845  147.4983 H   0  0  0  0  0  0  0  0  0  0  0  0
  146.4814  135.8724  147.7371 H   0  0  0  0  0  0  0  0  0  0  0  0
  147.7911  136.9838  147.4203 H   0  0  0  0  0  0  0  0  0  0  0  0
  148.4580  136.1629  149.8765 H   0  0  0  0  0  0  0  0  0  0  0  0
  149.5359  134.5791  150.4758 H   0  0  0  0  0  0  0  0  0  0  0  0
  149.0239  131.8859  149.8980 H   0  0  0  0  0  0  0  0  0  0  0  0
  149.9916  131.6092  147.7797 H   0  0  0  0  0  0  0  0  0  0  0  0
  150.6261  133.2505  147.8024 H   0  0  0  0  0  0  0  0  0  0  0  0
  151.9041  130.7666  148.9623 H   0  0  0  0  0  0  0  0  0  0  0  0
  152.6752  132.0878  148.0735 H   0  0  0  0  0  0  0  0  0  0  0  0
  150.8436  131.4196  151.1799 H   0  0  0  0  0  0  0  0  0  0  0  0
  150.0093  133.4073  152.5032 H   0  0  0  0  0  0  0  0  0  0  0  0
  151.1242  134.4456  151.6101 H   0  0  0  0  0  0  0  0  0  0  0  0
  151.7476  133.1724  152.6479 H   0  0  0  0  0  0  0  0  0  0  0  0
  1  2  1  0  0  0  0
  1 20  1  0  0  0  0
  1 21  1  0  0  0  0
  1 22  1  0  0  0  0
  2 19  1  0  0  0  0
  2  3  2  0  0  0  0
  3  4  1  0  0  0  0
  3 23  1  0  0  0  0
  4  5  1  0  0  0  0
  5  6  1  0  0  0  0
  5 19  2  0  0  0  0
  6  7  1  0  0  0  0
  6  8  1  0  0  0  0
  6 24  1  0  0  0  0
  7 25  1  0  0  0  0
  7 26  1  0  0  0  0
  7 27  1  0  0  0  0
  8  9  1  0  0  0  0
  8 28  1  0  0  0  0
  8 29  1  0  0  0  0
  9 10  1  0  0  0  0
  9 30  1  0  0  0  0
 10 11  2  0  0  0  0
 10 12  1  0  0  0  0
 12 13  1  0  0  0  0
 12 31  1  0  0  0  0
 13 17  1  0  0  0  0
 13 14  1  0  0  0  0
 13 32  1  0  0  0  0
 14 15  1  0  0  0  0
 14 33  1  0  0  0  0
 14 34  1  0  0  0  0
 15 16  1  0  0  0  0
 15 35  1  0  0  0  0
 15 36  1  0  0  0  0
 16 17  1  0  0  0  0
 17 18  1  0  0  0  0
 17 37  1  0  0  0  0
 18 38  1  0  0  0  0
 18 39  1  0  0  0  0
 18 40  1  0  0  0  0
M  END
> <s_m_source_file>
AV-unprocessed.smi

> <i_m_source_file_index>
2340

> <i_lp_mmshare_version>
43012

> <i_f3d_flags>
0

> <s_epik_input>
W0NIM11jMVtjSF1zYyhuMSlbQ0BIXShbQ0gzXSlbQ0gyXVtOSF1DKD1PKVtOSF1bQ0BASF0yW0NIMl1bQ0gyXU9bQ0BIXTJbQ0gzXQ==

> <s_epik_cmdline>
J2VwaWtfcHl0aG9uJywgJy1waCcsICc3LjAnLCAnLXRuJywgJzgnLCAnLW1hJywgJzIwMCcsICctbWV0YWxfYmluZGluZycsICctaW1hZScsICc8aW5maWxlLm1hZT4nLCAnLW9tYWUnLCAnPG91dGZpbGUubWFlPic=

> <r_epik_Ionization_Penalty>
0.00156622

> <r_epik_Ionization_Penalty_Charging>
0

> <r_epik_Ionization_Penalty_Neutral>
0.00156622

> <r_epik_State_Penalty>
0.00101902

> <r_epik_Charging_Adjusted_Penalty>
0.00101902

> <i_epik_Tot_Q>
0

> <i_epik_Tot_abs_Q>
0

> <r_epik_Metal_State_Penalty>
-0

> <b_epik_Metal_Only>
0

> <s_lp_Force_Field>
OPLS_2005

> <r_lp_Energy>
5.02478

> <b_lp_Chiralities_Consistent>
1

> <s_lp_Variant>
AV-unprocessed.smi:2340-3

> <Gold.Version>
5.8.1

> <Gold.Id.Protein>
6NUR|6NUR_protein|mol2

> <Gold.PLP.Fitness>
39.6803

> <Gold.PLP.PLP>
-28.4326

> <Gold.PLP.part.hbond>
-3.0000

> <Gold.PLP.part.metal>
0.0000

> <Gold.PLP.part.buried>
-2.8944

> <Gold.PLP.part.nonpolar>
-22.8660

> <Gold.PLP.part.repulsive>
0.1737

> <Gold.PLP.ligand.clash>
0.0000

> <Gold.PLP.ligand.torsion>
0.3597

> <Gold.PLP.Chemscore.Hbond>
2.9600

> <Gold.PLP.Chemscore.CHOScore>
0.9897

> <Gold.PLP.Chemscore.Metal>
0.0000

> <Gold.PLP.Chemscore.Internal.Correction>
0.1181

> <Gold.Rescore>
     Score         DG    S(hbond)    S(metal)    S(lipo)     H(rot)  DE(clash)    DE(int)     intcor
     14.97     -16.53       2.20        0.00      65.14       1.53       0.22       1.34       ----

> <Gold.Chemscore.Fitness>
14.9724

> <Gold.Chemscore.DG>
-16.5349

> <Gold.Chemscore.ZeroCoef>
-5.4800

> <Gold.Chemscore.Hbond>
2.2026

> <Gold.Chemscore.Metal>
0.0000

> <Gold.Chemscore.Lipo>
65.1416

> <Gold.Chemscore.Internal_Hbond>
0.0000

> <Gold.Chemscore.DEClash>
0.2233

> <Gold.Chemscore.DEInternal>
1.3392

> <Gold.Chemscore.Rot>
1.5325

> <Gold.Chemscore.Internal.Correction>
   9.000000E+99

> <Gold.Chemscore.Hbond.Weighted>
-7.3566

> <Gold.Chemscore.Metal.Weighted>
-0.0000

> <Gold.Chemscore.Lipo.Weighted>
-7.6216

> <Gold.Chemscore.Internal_Hbond.Weighted>
0.0000

> <Gold.Chemscore.DEClash.Weighted>
0.2233

> <Gold.Chemscore.DEInternal.Weighted>
1.3392

> <Gold.Chemscore.Rot.Weighted>
3.9233

> <Gold.Chemscore.Internal.Correction.Weighted>
   9.000000E+99

> <Gold.Protein.RotatedTorsions>
[ 6907 6896 6895 6894 ] final -122.20 input  -60.11 | X-H torsion
[ 7974 7965 7964 7962 ] final   58.45 input  175.53 | X-H torsion
[ 8008 7997 7996 7995 ] final  -93.09 input   59.86 | X-H torsion
[ 10167 10162 10161 10158 ] final   -4.64 input  -65.29 | X-H torsion
[ 10718 10713 10712 10709 ] final -124.22 input   66.30 | X-H torsion
[ 10763 10752 10751 10750 ] final   72.73 input  -60.55 | X-H torsion
[ 11005 11000 10999 10996 ] final  -41.85 input  -57.11 | X-H torsion

> <Gold.Protein.ActiveResidues>
 VAL166  LYS551  ARG553  GLY616  TRP617  ASP618  TYR619  PRO620  LYS621  CYS622 
 ASP623  PHE694  ASN695  SER759  ASP760  ASP761  ALA762  ILE779  LEU786  VAL792 
 PHE793  MET794  SER795  GLU796  ALA797  LYS798  CYS799  TRP800  GLU811  SER814 

> <Gold.Protein.RotatedAtoms>
  150.8554  133.7723  159.3010 H   0  0  0  0  0  0  0  0  0  0  0  0  # atno 6907 bound_to 6896
  151.5382  135.1067  159.9929 H   0  0  0  0  0  0  0  0  0  0  0  0  # atno 6908 bound_to 6896
  152.4585  133.7730  159.6865 H   0  0  0  0  0  0  0  0  0  0  0  0  # atno 6909 bound_to 6896
  145.9180  139.3706  143.0495 H   0  0  0  0  0  0  0  0  0  0  0  0  # atno 7974 bound_to 7965
  154.7313  140.0502  157.0729 H   0  0  0  0  0  0  0  0  0  0  0  0  # atno 8008 bound_to 7997
  155.0298  140.3156  155.4743 H   0  0  0  0  0  0  0  0  0  0  0  0  # atno 8009 bound_to 7997
  156.2842  140.2152  156.5418 H   0  0  0  0  0  0  0  0  0  0  0  0  # atno 8010 bound_to 7997
  140.6935  143.6400  150.8444 H   0  0  0  0  0  0  0  0  0  0  0  0  # atno 10167 bound_to 10162
  156.1569  130.6574  150.9994 H   0  0  0  0  0  0  0  0  0  0  0  0  # atno 10718 bound_to 10713
  153.0477  135.5089  154.7788 H   0  0  0  0  0  0  0  0  0  0  0  0  # atno 10763 bound_to 10752
  154.6675  135.2948  154.9788 H   0  0  0  0  0  0  0  0  0  0  0  0  # atno 10764 bound_to 10752
  154.0618  135.6690  153.4865 H   0  0  0  0  0  0  0  0  0  0  0  0  # atno 10765 bound_to 10752
  141.0275  133.6835  156.2514 H   0  0  0  0  0  0  0  0  0  0  0  0  # atno 11005 bound_to 11000
  145.8587  140.9488  143.0711 LP  0  0  0  0  0  0  0  0  0  0  0  0  # atno 17320 bound_to 7965
  144.6750  140.0502  143.7479 LP  0  0  0  0  0  0  0  0  0  0  0  0  # atno 17321 bound_to 7965
  140.0116  143.5637  152.2836 LP  0  0  0  0  0  0  0  0  0  0  0  0  # atno 17342 bound_to 10162
  139.6362  144.7650  151.2432 LP  0  0  0  0  0  0  0  0  0  0  0  0  # atno 17343 bound_to 10162
  157.6702  131.0863  150.7631 LP  0  0  0  0  0  0  0  0  0  0  0  0  # atno 17370 bound_to 10713
  156.7695  130.4824  149.5421 LP  0  0  0  0  0  0  0  0  0  0  0  0  # atno 17371 bound_to 10713
  140.6466  134.5111  157.5574 LP  0  0  0  0  0  0  0  0  0  0  0  0  # atno 17394 bound_to 11000
  139.9185  134.8196  156.1286 LP  0  0  0  0  0  0  0  0  0  0  0  0  # atno 17395 bound_to 11000

$$$$
