AV-unprocessed.smi:2091|AV-procd|sdf|8540|dock1
  -GOLD-   2272011263D 1   1.00000     0.00000
 Structure written by MMmdl.
 35 36  0  0  0  0  0  0  0  0  2 V2000
  152.4021  139.9146  156.2256 O   0  0  0  0  0  0  0  0  0  0  0  0
  152.0387  139.4912  157.3239 C   0  0  0  0  0  0  0  0  0  0  0  0
  151.7495  137.9987  157.5329 C   0  0  0  0  0  0  0  0  0  0  0  0
  150.4631  137.7500  158.2032 N   0  0  0  0  0  0  0  0  0  0  0  0
  149.2870  137.9809  157.4679 C   0  0  0  0  0  0  0  0  0  0  0  0
  148.0658  137.7823  158.0002 C   0  0  0  0  0  0  0  0  0  0  0  0
  147.9810  137.3146  159.3784 C   0  0  0  0  0  0  0  0  0  0  0  0
  146.8742  137.1338  159.8824 O   0  0  0  0  0  0  0  0  0  0  0  0
  149.1509  137.0988  160.0483 N   0  5  0  0  0  0  0  0  0  0  0  0
  150.3860  137.3025  159.4930 C   0  0  0  0  0  0  0  0  0  0  0  0
  151.4299  137.0994  160.1147 O   0  0  0  0  0  0  0  0  0  0  0  0
  151.8427  140.2844  158.3893 N   0  0  0  0  0  0  0  0  0  0  0  0
  152.0347  141.7361  158.4148 C   0  0  2  0  0  0  0  0  0  0  0  0
  151.9971  142.1864  159.8933 C   0  0  0  0  0  0  0  0  0  0  0  0
  152.6981  143.5320  160.1503 C   0  0  0  0  0  0  0  0  0  0  0  0
  152.0440  144.7462  159.4729 C   0  0  0  0  0  0  0  0  0  0  0  0
  152.0338  144.6679  157.9366 C   0  0  0  0  0  0  0  0  0  0  0  0
  150.9927  143.7773  157.4409 N   0  0  0  0  0  0  0  0  0  0  0  0
  150.9058  142.4529  157.6374 C   0  0  0  0  0  0  0  0  0  0  0  0
  149.9381  141.8236  157.2090 O   0  0  0  0  0  0  0  0  0  0  0  0
  151.7783  137.4779  156.5738 H   0  0  0  0  0  0  0  0  0  0  0  0
  152.5699  137.5745  158.1131 H   0  0  0  0  0  0  0  0  0  0  0  0
  149.4376  138.3193  156.4533 H   0  0  0  0  0  0  0  0  0  0  0  0
  147.1721  137.9618  157.4212 H   0  0  0  0  0  0  0  0  0  0  0  0
  151.5318  139.8523  159.2470 H   0  0  0  0  0  0  0  0  0  0  0  0
  153.0047  141.9743  157.9746 H   0  0  0  0  0  0  0  0  0  0  0  0
  150.9721  142.2164  160.2680 H   0  0  0  0  0  0  0  0  0  0  0  0
  152.5079  141.4404  160.5042 H   0  0  0  0  0  0  0  0  0  0  0  0
  152.7233  143.7093  161.2260 H   0  0  0  0  0  0  0  0  0  0  0  0
  153.7409  143.4613  159.8383 H   0  0  0  0  0  0  0  0  0  0  0  0
  151.0298  144.8872  159.8493 H   0  0  0  0  0  0  0  0  0  0  0  0
  152.5989  145.6372  159.7685 H   0  0  0  0  0  0  0  0  0  0  0  0
  151.8292  145.6580  157.5288 H   0  0  0  0  0  0  0  0  0  0  0  0
  153.0096  144.3721  157.5481 H   0  0  0  0  0  0  0  0  0  0  0  0
  150.2446  144.2129  156.9211 H   0  0  0  0  0  0  0  0  0  0  0  0
  1  2  2  0  0  0  0
  2  3  1  0  0  0  0
  2 12  1  0  0  0  0
  3  4  1  0  0  0  0
  3 21  1  0  0  0  0
  3 22  1  0  0  0  0
  4 10  1  0  0  0  0
  4  5  1  0  0  0  0
  5  6  2  0  0  0  0
  5 23  1  0  0  0  0
  6  7  1  0  0  0  0
  6 24  1  0  0  0  0
  7  8  2  0  0  0  0
  7  9  1  0  0  0  0
  9 10  1  0  0  0  0
 10 11  2  0  0  0  0
 12 13  1  0  0  0  0
 12 25  1  0  0  0  0
 13 19  1  0  0  0  0
 13 14  1  0  0  0  0
 13 26  1  0  0  0  0
 14 15  1  0  0  0  0
 14 27  1  0  0  0  0
 14 28  1  0  0  0  0
 15 16  1  0  0  0  0
 15 29  1  0  0  0  0
 15 30  1  0  0  0  0
 16 17  1  0  0  0  0
 16 31  1  0  0  0  0
 16 32  1  0  0  0  0
 17 18  1  0  0  0  0
 17 33  1  0  0  0  0
 17 34  1  0  0  0  0
 18 19  1  0  0  0  0
 18 35  1  0  0  0  0
 19 20  2  0  0  0  0
M  CHG  1   9  -1
M  END
> <s_m_source_file>
AV-unprocessed.smi

> <i_m_source_file_index>
2091

> <i_lp_mmshare_version>
43012

> <i_f3d_flags>
0

> <s_epik_input>
Tz1jMVtuSF1jKD1PKVtjSF1bY0hdbjFbQ0gyXUMoPU8pW05IXVtDQEBIXTJbQ0gyXVtDSDJdW0NIMl1bQ0gyXVtOSF1DMj1P

> <s_epik_cmdline>
J2VwaWtfcHl0aG9uJywgJy1waCcsICc3LjAnLCAnLXRuJywgJzgnLCAnLW1hJywgJzIwMCcsICctbWV0YWxfYmluZGluZycsICctaW1hZScsICc8aW5maWxlLm1hZT4nLCAnLW9tYWUnLCAnPG91dGZpbGUubWFlPic=

> <r_lp_tautomer_probability>
0.999537

> <r_epik_Ionization_Penalty>
3.03155

> <r_epik_Ionization_Penalty_Charging>
2.38195e-08

> <r_epik_Ionization_Penalty_Neutral>
3.03155

> <r_epik_State_Penalty>
3.03052

> <r_epik_Charging_Adjusted_Penalty>
3.03052

> <i_epik_Tot_Q>
-1

> <i_epik_Tot_abs_Q>
1

> <r_epik_Metal_State_Penalty>
0.455936

> <b_epik_Metal_Only>
1

> <s_lp_Force_Field>
OPLS_2005

> <r_lp_Energy>
21.0708

> <b_lp_Chiralities_Consistent>
1

> <s_lp_Variant>
AV-unprocessed.smi:2091-3

> <Gold.Version>
5.8.1

> <Gold.Id.Protein>
6NUR|6NUR_protein|mol2

> <Gold.PLP.Fitness>
43.4553

> <Gold.PLP.PLP>
-31.2953

> <Gold.PLP.part.hbond>
-5.0000

> <Gold.PLP.part.metal>
0.0000

> <Gold.PLP.part.buried>
-4.1764

> <Gold.PLP.part.nonpolar>
-23.0846

> <Gold.PLP.part.repulsive>
0.2056

> <Gold.PLP.ligand.clash>
0.0000

> <Gold.PLP.ligand.torsion>
0.3893

> <Gold.PLP.Chemscore.Hbond>
4.3113

> <Gold.PLP.Chemscore.CHOScore>
0.0000

> <Gold.PLP.Chemscore.Metal>
0.0000

> <Gold.Chemscore.Hbonds>
donor molecule, donor type, donor heavy atom, donor atom, acceptor molecule, acceptor atom, score
      L1  H    18    35       P1  8028  1.00
      P1  H  6896  6909       L1    11  1.00
      P1  H  6931  6943       L1     9  0.64
      P1  H  6934  6947       L1     8  0.23
      P1  H  7997  8008       L1     1  1.00

> <Gold.PLP.Chemscore.Internal.Correction>
0.0046

> <Gold.Rescore>
     Score         DG    S(hbond)    S(metal)    S(lipo)     H(rot)  DE(clash)    DE(int)     intcor
     17.77     -18.01       2.94        0.00      63.68       1.85       0.02       0.22       ----

> <Gold.Chemscore.Fitness>
17.7682

> <Gold.Chemscore.DG>
-18.0061

> <Gold.Chemscore.ZeroCoef>
-5.4800

> <Gold.Chemscore.Hbond>
2.9392

> <Gold.Chemscore.Metal>
0.0000

> <Gold.Chemscore.Lipo>
63.6761

> <Gold.Chemscore.Internal_Hbond>
0.0000

> <Gold.Chemscore.DEClash>
0.0178

> <Gold.Chemscore.DEInternal>
0.2201

> <Gold.Chemscore.Rot>
1.8519

> <Gold.Chemscore.Internal.Correction>
   9.000000E+99

> <Gold.Chemscore.Hbonds>
donor molecule, donor type, donor heavy atom, donor atom, acceptor molecule, acceptor atom, score
      L1  H    18    35       P1  8028  0.94
      P1  H  6896  6909       L1    11  0.54
      P1  H  6931  6943       L1     9  0.12
      P1  H  7997  8008       L1     1  0.80

> <Gold.Chemscore.Hbond.Weighted>
-9.8168

> <Gold.Chemscore.Metal.Weighted>
-0.0000

> <Gold.Chemscore.Lipo.Weighted>
-7.4501

> <Gold.Chemscore.Internal_Hbond.Weighted>
0.0000

> <Gold.Chemscore.DEClash.Weighted>
0.0178

> <Gold.Chemscore.DEInternal.Weighted>
0.2201

> <Gold.Chemscore.Rot.Weighted>
4.7408

> <Gold.Chemscore.Internal.Correction.Weighted>
   9.000000E+99

> <Gold.Protein.RotatedTorsions>
[ 6907 6896 6895 6894 ] final  131.44 input  -60.11 | X-H torsion
[ 7974 7965 7964 7962 ] final  129.01 input  175.53 | X-H torsion
[ 8008 7997 7996 7995 ] final  -24.73 input   59.86 | X-H torsion
[ 10167 10162 10161 10158 ] final  148.21 input  -65.29 | X-H torsion
[ 10718 10713 10712 10709 ] final -171.41 input   66.30 | X-H torsion
[ 10763 10752 10751 10750 ] final   92.01 input  -60.55 | X-H torsion
[ 11005 11000 10999 10996 ] final  -29.30 input  -57.11 | X-H torsion

> <Gold.Protein.ActiveResidues>
 VAL166  LYS551  ARG553  GLY616  TRP617  ASP618  TYR619  PRO620  LYS621  CYS622 
 ASP623  PHE694  ASN695  SER759  ASP760  ASP761  ALA762  ILE779  LEU786  VAL792 
 PHE793  MET794  SER795  GLU796  ALA797  LYS798  CYS799  TRP800  GLU811  SER814 

> <Gold.Protein.RotatedAtoms>
  152.3425  133.6084  159.5886 H   0  0  0  0  0  0  0  0  0  0  0  0  # atno 6907 bound_to 6896
  150.7487  133.9700  159.3551 H   0  0  0  0  0  0  0  0  0  0  0  0  # atno 6908 bound_to 6896
  151.7562  135.0822  160.0389 H   0  0  0  0  0  0  0  0  0  0  0  0  # atno 6909 bound_to 6896
  145.0333  139.4026  143.5138 H   0  0  0  0  0  0  0  0  0  0  0  0  # atno 7974 bound_to 7965
  154.4513  140.1946  156.0509 H   0  0  0  0  0  0  0  0  0  0  0  0  # atno 8008 bound_to 7997
  156.0655  140.3291  155.7485 H   0  0  0  0  0  0  0  0  0  0  0  0  # atno 8009 bound_to 7997
  155.5346  140.0581  157.2873 H   0  0  0  0  0  0  0  0  0  0  0  0  # atno 8010 bound_to 7997
  139.4878  144.5696  151.7079 H   0  0  0  0  0  0  0  0  0  0  0  0  # atno 10167 bound_to 10162
  156.7405  130.9340  151.3110 H   0  0  0  0  0  0  0  0  0  0  0  0  # atno 10718 bound_to 10713
  153.2145  135.4377  155.0418 H   0  0  0  0  0  0  0  0  0  0  0  0  # atno 10763 bound_to 10752
  154.8218  135.3341  154.7019 H   0  0  0  0  0  0  0  0  0  0  0  0  # atno 10764 bound_to 10752
  153.7455  135.7002  153.5013 H   0  0  0  0  0  0  0  0  0  0  0  0  # atno 10765 bound_to 10752
  140.9284  133.7354  156.0901 H   0  0  0  0  0  0  0  0  0  0  0  0  # atno 11005 bound_to 11000
  146.3501  139.9895  142.8687 LP  0  0  0  0  0  0  0  0  0  0  0  0  # atno 17320 bound_to 7965
  145.1742  140.9735  143.4304 LP  0  0  0  0  0  0  0  0  0  0  0  0  # atno 17321 bound_to 7965
  140.5281  144.0774  150.6044 LP  0  0  0  0  0  0  0  0  0  0  0  0  # atno 17342 bound_to 10162
  140.3754  143.2831  152.0231 LP  0  0  0  0  0  0  0  0  0  0  0  0  # atno 17343 bound_to 10162
  157.6820  130.9149  150.0292 LP  0  0  0  0  0  0  0  0  0  0  0  0  # atno 17370 bound_to 10713
  156.1468  130.3642  149.9499 LP  0  0  0  0  0  0  0  0  0  0  0  0  # atno 17371 bound_to 10713
  140.7895  134.3634  157.5468 LP  0  0  0  0  0  0  0  0  0  0  0  0  # atno 17394 bound_to 11000
  139.8791  134.9131  156.3077 LP  0  0  0  0  0  0  0  0  0  0  0  0  # atno 17395 bound_to 11000

$$$$
