#       Name:                AV-unprocessed.smi:392
#       Creating user name   scv26
#       Creation time:       Thu Mar 26 22:42:25 2020


#       File generated by GOLD software.
#

@<TRIPOS>MOLECULE
AV-unprocessed.smi:392
    35    37     1
SMALL
NO_CHARGES


@<TRIPOS>ATOM
      1 ****        -1.3363   3.0578  -1.5333 O.3            1 S1                 0.0000
      2 ****        -0.9029   1.7199  -1.3924 C.3            1 S1                 0.0000
      3 ****         0.6384   1.7151  -1.3541 C.3            1 S1                 0.0000
      4 ****         1.1871   0.3722  -1.4208 N.pl3          1 S1                 0.0000
      5 ****         1.4411  -0.3428  -2.5336 C.2            1 S1                 0.0000
      6 ****         1.9372  -1.5662  -2.3728 N.2            1 S1                 0.0000
      7 ****         2.0126  -1.6578  -0.9937 C.ar           1 S1                 0.0000
      8 ****         2.4536  -2.7168  -0.1681 C.ar           1 S1                 0.0000
      9 ****         2.4340  -2.5839   1.2360 C.ar           1 S1                 0.0000
     10 ****         1.9766  -1.3923   1.8351 C.ar           1 S1                 0.0000
     11 ****         1.5359  -0.3223   1.0333 C.ar           1 S1                 0.0000
     12 ****         1.5539  -0.4596  -0.3675 C.ar           1 S1                 0.0000
     13 ****        -1.5128   1.0410  -0.1709 C.ar           1 S1                 0.0000
     14 ****        -1.5696   1.7204   1.0669 C.ar           1 S1                 0.0000
     15 ****        -2.1016   1.0846   2.2049 C.ar           1 S1                 0.0000
     16 ****        -2.5810  -0.2355   2.1143 C.ar           1 S1                 0.0000
     17 ****        -2.5283  -0.9188   0.8847 C.ar           1 S1                 0.0000
     18 ****        -1.9956  -0.2854  -0.2549 C.ar           1 S1                 0.0000
     19 ****        -1.9386  -0.9645  -1.4258 F              1 S1                 0.0000
     20 ****        -2.2717   3.0563  -1.6683 H              1 S1                 0.0000
     21 ****        -1.2351   1.2016  -2.2926 H              1 S1                 0.0000
     22 ****         1.0357   2.2784  -2.1999 H              1 S1                 0.0000
     23 ****         1.0083   2.2062  -0.4530 H              1 S1                 0.0000
     24 ****         1.2472   0.0572  -3.5182 H              1 S1                 0.0000
     25 ****         2.8051  -3.6345  -0.6160 H              1 S1                 0.0000
     26 ****         2.7716  -3.4009   1.8566 H              1 S1                 0.0000
     27 ****         1.9633  -1.2999   2.9112 H              1 S1                 0.0000
     28 ****         1.1821   0.5899   1.4898 H              1 S1                 0.0000
     29 ****        -1.1942   2.7298   1.1511 H              1 S1                 0.0000
     30 ****        -2.1379   1.6088   3.1486 H              1 S1                 0.0000
     31 ****        -2.9863  -0.7248   2.9877 H              1 S1                 0.0000
     32 ****        -2.8922  -1.9333   0.8162 H              1 S1                 0.0000
     33 ****        -0.8825   3.4787  -2.3188 LP             1 S1                 0.0000
     34 ****        -1.1155   3.5732  -0.7053 LP             1 S1                 0.0000
     35 ****         2.1893  -2.2418  -3.0656 LP             1 S1                 0.0000
@<TRIPOS>BOND
    1    1    2 1     
    2    1   20 1     
    3    2    3 1     
    4    2   13 1     
    5    2   21 1     
    6    3    4 1     
    7    3   22 1     
    8    3   23 1     
    9    4   12 1     
   10    4    5 1     
   11    5    6 2     
   12    5   24 1     
   13    6    7 1     
   14    7   12 ar    
   15    7    8 ar    
   16    8    9 ar    
   17    8   25 1     
   18    9   10 ar    
   19    9   26 1     
   20   10   11 ar    
   21   10   27 1     
   22   11   12 ar    
   23   11   28 1     
   24   13   18 ar    
   25   13   14 ar    
   26   14   15 ar    
   27   14   29 1     
   28   15   16 ar    
   29   15   30 1     
   30   16   17 ar    
   31   16   31 1     
   32   17   18 ar    
   33   17   32 1     
   34   18   19 1     
   35    1   33 1     
   36    1   34 1     
   37    6   35 1     
@<TRIPOS>SUBSTRUCTURE
      1 S1             1
@<TRIPOS>SET
LONE_PAIRS      STATIC     ATOMS    <user>   **** ""
3 33 34 35
DONOR_HYDROGENS      STATIC     ATOMS    <user>   **** ""
1 20
ATOM$BLUE        STATIC     ATOMS    COLORGROUP SYSTEM
3 33 34 35
ATOM$RED        STATIC     ATOMS    COLORGROUP SYSTEM
1 20
