AV-unprocessed.smi:258|AV-procd|sdf|1965|dock5
  -GOLD-   2262021113D 1   1.00000     0.00000
 Structure written by MMmdl.
 57 60  0  0  0  0  0  0  0  0  1 V2000
  143.3282  133.9266  147.8537 O   0  0  0  0  0  0  0  0  0  0  0  0
  143.2261  132.6718  148.4928 C   0  0  0  0  0  0  0  0  0  0  0  0
  143.9692  132.6993  149.8340 C   0  0  0  0  0  0  0  0  0  0  0  0
  145.3571  132.5081  149.5990 O   0  0  0  0  0  0  0  0  0  0  0  0
  146.0871  132.0431  150.7269 C   0  0  2  0  0  0  0  0  0  0  0  0
  145.4706  130.7477  151.2950 C   0  0  0  0  0  0  0  0  0  0  0  0
  146.1717  130.3518  152.6044 C   0  0  0  0  0  0  0  0  0  0  0  0
  146.1416  131.5101  153.6142 C   0  0  0  0  0  0  0  0  0  0  0  0
  146.7009  132.7218  153.0221 N   0  0  0  0  0  0  0  0  0  0  0  0
  146.8883  133.7192  153.9107 C   0  0  0  0  0  0  0  0  0  0  0  0
  145.7815  134.2672  154.4688 N   0  0  0  0  0  0  0  0  0  0  0  0
  145.9035  135.2580  155.3579 C   0  0  0  0  0  0  0  0  0  0  0  0
  147.0157  135.8362  155.8175 N   0  0  0  0  0  0  0  0  0  0  0  0
  148.1295  135.2854  155.2546 C   0  0  0  0  0  0  0  0  0  0  0  0
  148.1582  134.2312  154.2994 C   0  0  0  0  0  0  0  0  0  0  0  0
  149.4726  133.9368  153.9568 N   0  0  0  0  0  0  0  0  0  0  0  0
  150.1811  134.7701  154.6692 C   0  0  0  0  0  0  0  0  0  0  0  0
  149.4536  135.6183  155.4737 N   0  0  0  0  0  0  0  0  0  0  0  0
  149.9771  136.6370  156.3666 C   0  0  0  0  0  0  0  0  0  0  0  0
  151.4532  137.0068  156.0767 C   0  0  2  0  0  0  0  0  0  0  0  0
  152.4053  136.6195  157.2343 C   0  0  0  0  0  0  0  0  0  0  0  0
  153.7559  136.6338  156.8199 O   0  0  0  0  0  0  0  0  0  0  0  0
  151.5974  138.4945  155.6677 C   0  0  2  0  0  0  0  0  0  0  0  0
  151.2224  139.4909  156.7509 C   0  0  0  0  0  0  0  0  0  0  0  0
  151.0072  140.7724  155.9528 C   0  0  0  0  0  0  0  0  0  0  0  0
  150.5297  140.3583  154.6774 O   0  0  0  0  0  0  0  0  0  0  0  0
  150.6595  138.9463  154.5437 C   0  0  0  0  0  0  0  0  0  0  0  0
  146.0511  133.1567  151.7885 C   0  0  0  0  0  0  0  0  0  0  0  0
  144.2005  134.2634  147.9902 H   0  0  0  0  0  0  0  0  0  0  0  0
  142.1675  132.4736  148.6621 H   0  0  0  0  0  0  0  0  0  0  0  0
  143.6036  131.8805  147.8446 H   0  0  0  0  0  0  0  0  0  0  0  0
  143.7644  133.6252  150.3720 H   0  0  0  0  0  0  0  0  0  0  0  0
  143.6074  131.8784  150.4547 H   0  0  0  0  0  0  0  0  0  0  0  0
  147.1287  131.8670  150.4516 H   0  0  0  0  0  0  0  0  0  0  0  0
  144.4066  130.8987  151.4820 H   0  0  0  0  0  0  0  0  0  0  0  0
  145.5491  129.9298  150.5798 H   0  0  0  0  0  0  0  0  0  0  0  0
  145.6970  129.4692  153.0333 H   0  0  0  0  0  0  0  0  0  0  0  0
  147.2066  130.0780  152.3949 H   0  0  0  0  0  0  0  0  0  0  0  0
  145.1139  131.6959  153.9289 H   0  0  0  0  0  0  0  0  0  0  0  0
  146.7068  131.2391  154.5072 H   0  0  0  0  0  0  0  0  0  0  0  0
  144.9773  135.6436  155.7577 H   0  0  0  0  0  0  0  0  0  0  0  0
  151.2603  134.7938  154.6227 H   0  0  0  0  0  0  0  0  0  0  0  0
  149.3364  137.5142  156.2749 H   0  0  0  0  0  0  0  0  0  0  0  0
  149.8703  136.2841  157.3931 H   0  0  0  0  0  0  0  0  0  0  0  0
  151.7635  136.4099  155.2179 H   0  0  0  0  0  0  0  0  0  0  0  0
  152.2917  137.3002  158.0781 H   0  0  0  0  0  0  0  0  0  0  0  0
  152.1678  135.6276  157.6185 H   0  0  0  0  0  0  0  0  0  0  0  0
  154.2435  137.1936  157.4047 H   0  0  0  0  0  0  0  0  0  0  0  0
  152.6260  138.6928  155.3622 H   0  0  0  0  0  0  0  0  0  0  0  0
  150.2919  139.1942  157.2374 H   0  0  0  0  0  0  0  0  0  0  0  0
  151.9882  139.6036  157.5188 H   0  0  0  0  0  0  0  0  0  0  0  0
  150.3090  141.4535  156.4397 H   0  0  0  0  0  0  0  0  0  0  0  0
  151.9530  141.2979  155.8149 H   0  0  0  0  0  0  0  0  0  0  0  0
  151.0337  138.6807  153.5546 H   0  0  0  0  0  0  0  0  0  0  0  0
  149.6709  138.5001  154.6611 H   0  0  0  0  0  0  0  0  0  0  0  0
  146.5469  134.0496  151.4051 H   0  0  0  0  0  0  0  0  0  0  0  0
  145.0167  133.4311  151.9991 H   0  0  0  0  0  0  0  0  0  0  0  0
  1  2  1  0  0  0  0
  1 29  1  0  0  0  0
  2  3  1  0  0  0  0
  2 30  1  0  0  0  0
  2 31  1  0  0  0  0
  3  4  1  0  0  0  0
  3 32  1  0  0  0  0
  3 33  1  0  0  0  0
  4  5  1  0  0  0  0
  5 28  1  0  0  0  0
  5  6  1  0  0  0  0
  5 34  1  0  0  0  0
  6  7  1  0  0  0  0
  6 35  1  0  0  0  0
  6 36  1  0  0  0  0
  7  8  1  0  0  0  0
  7 37  1  0  0  0  0
  7 38  1  0  0  0  0
  8  9  1  0  0  0  0
  8 39  1  0  0  0  0
  8 40  1  0  0  0  0
  9 10  1  0  0  0  0
  9 28  1  0  0  0  0
 10 15  1  0  0  0  0
 10 11  2  0  0  0  0
 11 12  1  0  0  0  0
 12 13  2  0  0  0  0
 12 41  1  0  0  0  0
 13 14  1  0  0  0  0
 14 18  1  0  0  0  0
 14 15  2  0  0  0  0
 15 16  1  0  0  0  0
 16 17  2  0  0  0  0
 17 18  1  0  0  0  0
 17 42  1  0  0  0  0
 18 19  1  0  0  0  0
 19 20  1  0  0  0  0
 19 43  1  0  0  0  0
 19 44  1  0  0  0  0
 20 21  1  0  0  0  0
 20 23  1  0  0  0  0
 20 45  1  0  0  0  0
 21 22  1  0  0  0  0
 21 46  1  0  0  0  0
 21 47  1  0  0  0  0
 22 48  1  0  0  0  0
 23 27  1  0  0  0  0
 23 24  1  0  0  0  0
 23 49  1  0  0  0  0
 24 25  1  0  0  0  0
 24 50  1  0  0  0  0
 24 51  1  0  0  0  0
 25 26  1  0  0  0  0
 25 52  1  0  0  0  0
 25 53  1  0  0  0  0
 26 27  1  0  0  0  0
 27 54  1  0  0  0  0
 27 55  1  0  0  0  0
 28 56  1  0  0  0  0
 28 57  1  0  0  0  0
M  END
> <s_m_source_file>
AV-unprocessed.smi

> <i_m_source_file_index>
258

> <i_lp_mmshare_version>
43012

> <i_f3d_flags>
0

> <s_epik_input>
W09IXVtDSDJdW0NIMl1PW0NAQEhdMVtDSDJdW0NIMl1bQ0gyXU4oW0NIMl0xKWMobltjSF1uMiljKGMyMyluW2NIXW4zW0NIMl1bQ0BIXShbQ0gyXVtPSF0pW0NAQEhdNFtDSDJdW0NIMl1PW0NIMl00

> <s_epik_cmdline>
J2VwaWtfcHl0aG9uJywgJy1waCcsICc3LjAnLCAnLXRuJywgJzgnLCAnLW1hJywgJzIwMCcsICctbWV0YWxfYmluZGluZycsICctaW1hZScsICc8aW5maWxlLm1hZT4nLCAnLW9tYWUnLCAnPG91dGZpbGUubWFlPic=

> <r_lp_tautomer_probability>
1

> <r_epik_Ionization_Penalty>
0.00349036

> <r_epik_Ionization_Penalty_Charging>
0

> <r_epik_Ionization_Penalty_Neutral>
0.00349036

> <r_epik_State_Penalty>
0.00229798

> <r_epik_Charging_Adjusted_Penalty>
0.00229798

> <i_epik_Tot_Q>
0

> <i_epik_Tot_abs_Q>
0

> <r_epik_Metal_State_Penalty>
-0

> <b_epik_Metal_Only>
0

> <s_lp_Force_Field>
OPLS_2005

> <r_lp_Energy>
47.3811

> <b_lp_Chiralities_Consistent>
1

> <s_lp_Variant>
AV-unprocessed.smi:258-1

> <Gold.Version>
5.8.1

> <Gold.Id.Protein>
6NUR|6NUR_protein|mol2

> <Gold.PLP.Fitness>
51.7124

> <Gold.PLP.PLP>
-42.0731

> <Gold.PLP.part.hbond>
-5.7688

> <Gold.PLP.part.metal>
0.0000

> <Gold.PLP.part.buried>
-5.8286

> <Gold.PLP.part.nonpolar>
-32.0557

> <Gold.PLP.part.repulsive>
1.0189

> <Gold.PLP.ligand.clash>
0.0000

> <Gold.PLP.ligand.torsion>
1.3711

> <Gold.PLP.Chemscore.Hbond>
3.9920

> <Gold.PLP.Chemscore.CHOScore>
0.0000

> <Gold.PLP.Chemscore.Metal>
0.0000

> <Gold.Chemscore.Hbonds>
donor molecule, donor type, donor heavy atom, donor atom, acceptor molecule, acceptor atom, score
      L1  H     1    29       P1  7921  1.00
      P1  H  7989  7998       L1    26  1.00
      P1  H 10192 10197       L1     1  1.00
      P1  H 10752 10764       L1    22  0.91

> <Gold.PLP.Chemscore.Internal.Correction>
0.4055

> <Gold.Rescore>
     Score         DG    S(hbond)    S(metal)    S(lipo)     H(rot)  DE(clash)    DE(int)     intcor
     17.48     -19.06       3.69        0.00     103.11       4.22       0.32       1.26       ----

> <Gold.Chemscore.Fitness>
17.4755

> <Gold.Chemscore.DG>
-19.0597

> <Gold.Chemscore.ZeroCoef>
-5.4800

> <Gold.Chemscore.Hbond>
3.6917

> <Gold.Chemscore.Metal>
0.0000

> <Gold.Chemscore.Lipo>
103.1131

> <Gold.Chemscore.Internal_Hbond>
0.0000

> <Gold.Chemscore.DEClash>
0.3220

> <Gold.Chemscore.DEInternal>
1.2622

> <Gold.Chemscore.Rot>
4.2246

> <Gold.Chemscore.Internal.Correction>
   9.000000E+99

> <Gold.Chemscore.Hbonds>
donor molecule, donor type, donor heavy atom, donor atom, acceptor molecule, acceptor atom, score
      L1  H     1    29       P1  7921  0.94
      P1  H  7989  7998       L1    26  0.21
      P1  H 10192 10197       L1     1  0.94
      P1  H 10752 10764       L1    22  0.49

> <Gold.Chemscore.Hbond.Weighted>
-12.3303

> <Gold.Chemscore.Metal.Weighted>
-0.0000

> <Gold.Chemscore.Lipo.Weighted>
-12.0642

> <Gold.Chemscore.Internal_Hbond.Weighted>
0.0000

> <Gold.Chemscore.DEClash.Weighted>
0.3220

> <Gold.Chemscore.DEInternal.Weighted>
1.2622

> <Gold.Chemscore.Rot.Weighted>
10.8149

> <Gold.Chemscore.Internal.Correction.Weighted>
   9.000000E+99

> <Gold.Protein.RotatedTorsions>
[ 6907 6896 6895 6894 ] final  100.39 input  -60.11 | X-H torsion
[ 7974 7965 7964 7962 ] final -120.26 input  175.53 | X-H torsion
[ 8008 7997 7996 7995 ] final   -2.16 input   59.86 | X-H torsion
[ 10167 10162 10161 10158 ] final   49.76 input  -65.29 | X-H torsion
[ 10718 10713 10712 10709 ] final   82.74 input   66.30 | X-H torsion
[ 10763 10752 10751 10750 ] final   20.10 input  -60.55 | X-H torsion
[ 11005 11000 10999 10996 ] final -134.21 input  -57.11 | X-H torsion

> <Gold.Protein.ActiveResidues>
 VAL166  LYS551  ARG553  GLY616  TRP617  ASP618  TYR619  PRO620  LYS621  CYS622 
 ASP623  PHE694  ASN695  SER759  ASP760  ASP761  ALA762  ILE779  LEU786  VAL792 
 PHE793  MET794  SER795  GLU796  ALA797  LYS798  CYS799  TRP800  GLU811  SER814 

> <Gold.Protein.RotatedAtoms>
  152.5373  134.0284  159.8013 H   0  0  0  0  0  0  0  0  0  0  0  0  # atno 6907 bound_to 6896
  151.0458  133.5658  159.2654 H   0  0  0  0  0  0  0  0  0  0  0  0  # atno 6908 bound_to 6896
  151.2611  135.0662  159.9152 H   0  0  0  0  0  0  0  0  0  0  0  0  # atno 6909 bound_to 6896
  145.0534  140.8235  143.4196 H   0  0  0  0  0  0  0  0  0  0  0  0  # atno 7974 bound_to 7965
  154.6388  140.2541  155.7347 H   0  0  0  0  0  0  0  0  0  0  0  0  # atno 8008 bound_to 7997
  156.2518  140.2892  156.0692 H   0  0  0  0  0  0  0  0  0  0  0  0  # atno 8009 bound_to 7997
  155.1629  140.0384  157.2837 H   0  0  0  0  0  0  0  0  0  0  0  0  # atno 8010 bound_to 7997
  140.2795  144.3172  150.6268 H   0  0  0  0  0  0  0  0  0  0  0  0  # atno 10167 bound_to 10162
  157.6864  131.0061  150.2419 H   0  0  0  0  0  0  0  0  0  0  0  0  # atno 10718 bound_to 10713
  153.1106  135.6695  153.9508 H   0  0  0  0  0  0  0  0  0  0  0  0  # atno 10763 bound_to 10752
  153.9052  135.3031  155.3450 H   0  0  0  0  0  0  0  0  0  0  0  0  # atno 10764 bound_to 10752
  154.7525  135.5027  153.9393 H   0  0  0  0  0  0  0  0  0  0  0  0  # atno 10765 bound_to 10752
  140.9011  134.1689  157.4460 H   0  0  0  0  0  0  0  0  0  0  0  0  # atno 11005 bound_to 11000
  145.1499  139.2521  143.5446 LP  0  0  0  0  0  0  0  0  0  0  0  0  # atno 17320 bound_to 7965
  146.3519  140.1199  142.8600 LP  0  0  0  0  0  0  0  0  0  0  0  0  # atno 17321 bound_to 7965
  140.5823  143.2172  151.7406 LP  0  0  0  0  0  0  0  0  0  0  0  0  # atno 17342 bound_to 10162
  139.4966  144.4062  152.0129 LP  0  0  0  0  0  0  0  0  0  0  0  0  # atno 17343 bound_to 10162
  156.3032  130.3761  149.7731 LP  0  0  0  0  0  0  0  0  0  0  0  0  # atno 17370 bound_to 10713
  156.5354  130.8276  151.3251 LP  0  0  0  0  0  0  0  0  0  0  0  0  # atno 17371 bound_to 10713
  139.8742  134.9898  156.5475 LP  0  0  0  0  0  0  0  0  0  0  0  0  # atno 17394 bound_to 11000
  140.8229  133.8340  155.8912 LP  0  0  0  0  0  0  0  0  0  0  0  0  # atno 17395 bound_to 11000

$$$$
