AV-unprocessed.smi:2554|AV-procd|sdf|10020|dock7
  -GOLD-   2272014 63D 1   1.00000     0.00000
 Structure written by MMmdl.
 21 21  0  0  0  0  0  0  0  0  2 V2000
  149.2284  141.7245  155.3024 C   0  0  0  0  0  0  0  0  0  0  0  0
  149.5218  140.4160  154.6360 C   0  0  0  0  0  0  0  0  0  0  0  0
  150.7895  139.8355  154.7232 N   0  0  0  0  0  0  0  0  0  0  0  0
  150.6792  138.7068  154.0341 C   0  0  0  0  0  0  0  0  0  0  0  0
  149.4598  138.5197  153.5228 N   0  0  0  0  0  0  0  0  0  0  0  0
  148.6863  139.6087  153.8906 C   0  0  0  0  0  0  0  0  0  0  0  0
  147.2494  139.7540  153.5102 C   0  0  0  0  0  0  0  0  0  0  0  0
  146.7743  138.6556  152.5502 C   0  0  0  0  0  0  0  0  0  0  0  0
  146.0742  139.2248  151.3868 N   0  3  0  0  0  0  0  0  0  0  0  0
  149.1625  137.7308  152.9667 H   0  0  0  0  0  0  0  0  0  0  0  0
  148.1964  142.0365  155.1424 H   0  0  0  0  0  0  0  0  0  0  0  0
  149.8743  142.5142  154.9180 H   0  0  0  0  0  0  0  0  0  0  0  0
  149.3892  141.6612  156.3786 H   0  0  0  0  0  0  0  0  0  0  0  0
  151.4932  138.0092  153.9020 H   0  0  0  0  0  0  0  0  0  0  0  0
  147.0963  140.7317  153.0511 H   0  0  0  0  0  0  0  0  0  0  0  0
  146.6350  139.7466  154.4114 H   0  0  0  0  0  0  0  0  0  0  0  0
  147.6218  138.0675  152.1964 H   0  0  0  0  0  0  0  0  0  0  0  0
  146.0988  137.9703  153.0632 H   0  0  0  0  0  0  0  0  0  0  0  0
  145.6012  138.4870  150.8843 H   0  0  0  0  0  0  0  0  0  0  0  0
  146.7425  139.6727  150.7761 H   0  0  0  0  0  0  0  0  0  0  0  0
  145.3966  139.9047  151.7007 H   0  0  0  0  0  0  0  0  0  0  0  0
  1 11  1  0  0  0  0
  1 12  1  0  0  0  0
  1 13  1  0  0  0  0
  1  2  1  0  0  0  0
  2  6  2  0  0  0  0
  2  3  1  0  0  0  0
  3  4  2  0  0  0  0
  4  5  1  0  0  0  0
  4 14  1  0  0  0  0
  5  6  1  0  0  0  0
  5 10  1  0  0  0  0
  6  7  1  0  0  0  0
  7  8  1  0  0  0  0
  7 15  1  0  0  0  0
  7 16  1  0  0  0  0
  8  9  1  0  0  0  0
  8 17  1  0  0  0  0
  8 18  1  0  0  0  0
  9 19  1  0  0  0  0
  9 20  1  0  0  0  0
  9 21  1  0  0  0  0
M  CHG  1   9   1
M  END
> <s_m_source_file>
AV-unprocessed.smi

> <i_m_source_file_index>
2554

> <i_lp_mmshare_version>
43012

> <i_f3d_flags>
0

> <s_epik_input>
W0NIM11jMVtuSF1bY0hdbmMxW0NIMl1bQ0gyXVtOSDJd

> <s_epik_cmdline>
J2VwaWtfcHl0aG9uJywgJy1waCcsICc3LjAnLCAnLXRuJywgJzgnLCAnLW1hJywgJzIwMCcsICctbWV0YWxfYmluZGluZycsICctaW1hZScsICc8aW5maWxlLm1hZT4nLCAnLW9tYWUnLCAnPG91dGZpbGUubWFlPic=

> <r_lp_tautomer_probability>
0.5

> <r_epik_Ionization_Penalty>
0.309087

> <r_epik_Ionization_Penalty_Charging>
0.309086

> <r_epik_Ionization_Penalty_Neutral>
3.24025e-07

> <r_epik_State_Penalty>
0.652852

> <r_epik_Charging_Adjusted_Penalty>
0.961938

> <i_epik_Tot_Q>
1

> <i_epik_Tot_abs_Q>
1

> <r_epik_Metal_State_Penalty>
0.386365

> <b_epik_Metal_Only>
0

> <s_lp_Force_Field>
OPLS_2005

> <r_lp_Energy>
3.85871

> <b_lp_Chiralities_Consistent>
1

> <s_lp_Variant>
AV-unprocessed.smi:2554-2

> <Gold.Version>
5.8.1

> <Gold.Id.Protein>
6NUR|6NUR_protein|mol2

> <Gold.PLP.Fitness>
32.2089

> <Gold.PLP.PLP>
-19.6969

> <Gold.PLP.part.hbond>
-5.0000

> <Gold.PLP.part.metal>
0.0000

> <Gold.PLP.part.buried>
0.9617

> <Gold.PLP.part.nonpolar>
-15.3232

> <Gold.PLP.part.repulsive>
0.2151

> <Gold.PLP.ligand.clash>
0.0000

> <Gold.PLP.ligand.torsion>
0.3832

> <Gold.PLP.Chemscore.Hbond>
4.4260

> <Gold.PLP.Chemscore.CHOScore>
0.0000

> <Gold.PLP.Chemscore.Metal>
0.0000

> <Gold.Chemscore.Hbonds>
donor molecule, donor type, donor heavy atom, donor atom, acceptor molecule, acceptor atom, score
      L1  H     5    10       P1  7948  1.00
      L1  H     9    19       P1 10171  0.56
      L1  H     9    21       P1 10175  2.00
      P1  H  7989  7998       L1     3  0.90

> <Gold.PLP.Chemscore.Internal.Correction>
0.0004

> <Gold.Rescore>
     Score         DG    S(hbond)    S(metal)    S(lipo)     H(rot)  DE(clash)    DE(int)     intcor
     12.75     -14.24       2.45        0.00      36.48       1.45       1.25       0.23       ----

> <Gold.Chemscore.Fitness>
12.7548

> <Gold.Chemscore.DG>
-14.2381

> <Gold.Chemscore.ZeroCoef>
-5.4800

> <Gold.Chemscore.Hbond>
2.4526

> <Gold.Chemscore.Metal>
0.0000

> <Gold.Chemscore.Lipo>
36.4756

> <Gold.Chemscore.Internal_Hbond>
0.0000

> <Gold.Chemscore.DEClash>
1.2483

> <Gold.Chemscore.DEInternal>
0.2349

> <Gold.Chemscore.Rot>
1.4458

> <Gold.Chemscore.Internal.Correction>
   9.000000E+99

> <Gold.Chemscore.Hbonds>
donor molecule, donor type, donor heavy atom, donor atom, acceptor molecule, acceptor atom, score
      L1  H     5    10       P1  7948  0.99
      L1  H     9    19       P1 10171  0.52
      L1  H     9    21       P1 10175  0.39
      P1  H  7989  7998       L1     3  0.05

> <Gold.Chemscore.Hbond.Weighted>
-8.1916

> <Gold.Chemscore.Metal.Weighted>
-0.0000

> <Gold.Chemscore.Lipo.Weighted>
-4.2676

> <Gold.Chemscore.Internal_Hbond.Weighted>
0.0000

> <Gold.Chemscore.DEClash.Weighted>
1.2483

> <Gold.Chemscore.DEInternal.Weighted>
0.2349

> <Gold.Chemscore.Rot.Weighted>
3.7012

> <Gold.Chemscore.Internal.Correction.Weighted>
   9.000000E+99

> <Gold.Protein.RotatedTorsions>
[ 6907 6896 6895 6894 ] final -171.98 input  -60.11 | X-H torsion
[ 7974 7965 7964 7962 ] final  121.24 input  175.53 | X-H torsion
[ 8008 7997 7996 7995 ] final  164.84 input   59.86 | X-H torsion
[ 10167 10162 10161 10158 ] final   28.50 input  -65.29 | X-H torsion
[ 10718 10713 10712 10709 ] final   99.68 input   66.30 | X-H torsion
[ 10763 10752 10751 10750 ] final  -50.25 input  -60.55 | X-H torsion
[ 11005 11000 10999 10996 ] final  125.36 input  -57.11 | X-H torsion

> <Gold.Protein.ActiveResidues>
 VAL166  LYS551  ARG553  GLY616  TRP617  ASP618  TYR619  PRO620  LYS621  CYS622 
 ASP623  PHE694  ASN695  SER759  ASP760  ASP761  ALA762  ILE779  LEU786  VAL792 
 PHE793  MET794  SER795  GLU796  ALA797  LYS798  CYS799  TRP800  GLU811  SER814 

> <Gold.Protein.RotatedAtoms>
  151.5325  133.3446  159.2920 H   0  0  0  0  0  0  0  0  0  0  0  0  # atno 6907 bound_to 6896
  150.8585  134.7932  159.7075 H   0  0  0  0  0  0  0  0  0  0  0  0  # atno 6908 bound_to 6896
  152.4611  134.5190  159.9828 H   0  0  0  0  0  0  0  0  0  0  0  0  # atno 6909 bound_to 6896
  145.1216  139.3385  143.4711 H   0  0  0  0  0  0  0  0  0  0  0  0  # atno 7974 bound_to 7965
  156.1848  140.1686  156.8206 H   0  0  0  0  0  0  0  0  0  0  0  0  # atno 8008 bound_to 7997
  154.5401  140.0738  156.8528 H   0  0  0  0  0  0  0  0  0  0  0  0  # atno 8009 bound_to 7997
  155.3231  140.3374  155.4243 H   0  0  0  0  0  0  0  0  0  0  0  0  # atno 8010 bound_to 7997
  140.4847  144.0561  150.6277 H   0  0  0  0  0  0  0  0  0  0  0  0  # atno 10167 bound_to 10162
  157.6871  131.0676  150.4985 H   0  0  0  0  0  0  0  0  0  0  0  0  # atno 10718 bound_to 10713
  154.1074  135.6554  153.4879 H   0  0  0  0  0  0  0  0  0  0  0  0  # atno 10763 bound_to 10752
  153.0268  135.5239  154.7226 H   0  0  0  0  0  0  0  0  0  0  0  0  # atno 10764 bound_to 10752
  154.6396  135.2986  155.0089 H   0  0  0  0  0  0  0  0  0  0  0  0  # atno 10765 bound_to 10752
  139.9403  134.9636  156.8547 H   0  0  0  0  0  0  0  0  0  0  0  0  # atno 11005 bound_to 11000
  146.3520  140.1178  142.8601 LP  0  0  0  0  0  0  0  0  0  0  0  0  # atno 17320 bound_to 7965
  145.0734  140.9171  143.4868 LP  0  0  0  0  0  0  0  0  0  0  0  0  # atno 17321 bound_to 7965
  140.3813  143.2801  152.0167 LP  0  0  0  0  0  0  0  0  0  0  0  0  # atno 17342 bound_to 10162
  139.4840  144.6152  151.7359 LP  0  0  0  0  0  0  0  0  0  0  0  0  # atno 17343 bound_to 10162
  156.5308  130.4184  149.6202 LP  0  0  0  0  0  0  0  0  0  0  0  0  # atno 17370 bound_to 10713
  156.3071  130.7208  151.2093 LP  0  0  0  0  0  0  0  0  0  0  0  0  # atno 17371 bound_to 10713
  140.5969  134.0208  155.7522 LP  0  0  0  0  0  0  0  0  0  0  0  0  # atno 17394 bound_to 11000
  141.1034  133.9732  157.3039 LP  0  0  0  0  0  0  0  0  0  0  0  0  # atno 17395 bound_to 11000

$$$$
