#       Name:                AV-unprocessed.smi:1701
#       Creating user name   scv26
#       Creation time:       Fri Mar 27 08:00:41 2020


#       File generated by GOLD software.
#

@<TRIPOS>MOLECULE
AV-unprocessed.smi:1701
    57    59     1
SMALL
NO_CHARGES


@<TRIPOS>ATOM
      1 ****        -6.3913  -1.6062   2.5761 C.3            1 S1                 0.0000
      2 ****        -6.0365  -1.8580   1.1040 C.3            1 S1                 0.0000
      3 ****        -5.2948  -0.7538   0.4949 N.pl3          1 S1                 0.0000
      4 ****        -6.0332   0.3978  -0.0293 C.3            1 S1                 0.0000
      5 ****        -6.0471   1.5932   0.9361 C.3            1 S1                 0.0000
      6 ****        -3.8791  -0.7206   0.5477 C.ar           1 S1                 0.0000
      7 ****        -3.1401  -1.6164   1.3611 C.ar           1 S1                 0.0000
      8 ****        -1.7341  -1.5427   1.3739 C.ar           1 S1                 0.0000
      9 ****        -1.0905  -0.5708   0.5752 C.ar           1 S1                 0.0000
     10 ****         0.3191  -0.4223   0.4841 N.am           1 S1                 0.0000
     11 ****         1.2549  -0.7870   1.3823 C.2            1 S1                 0.0000
     12 ****         1.0120  -1.2217   2.5057 O.2            1 S1                 0.0000
     13 ****         2.5209  -0.5969   0.9705 N.am           1 S1                 0.0000
     14 ****         3.7586  -0.8851   1.6964 C.3            1 S1                 0.0000
     15 ****         4.0384   0.0713   2.8692 C.3            1 S1                 0.0000
     16 ****         5.5550   0.3429   2.8279 C.3            1 S1                 0.0000
     17 ****         6.1106  -0.5125   1.7547 N.4            1 S1                 1.0000
     18 ****         6.6875  -1.7769   2.2885 C.3            1 S1                 0.0000
     19 ****         7.0474  -2.7643   1.1710 C.3            1 S1                 0.0000
     20 ****         5.8099  -3.0821   0.3283 C.3            1 S1                 0.0000
     21 ****         5.2470  -1.7845  -0.2619 C.3            1 S1                 0.0000
     22 ****         4.9887  -0.6943   0.8024 C.3            1 S1                 0.0000
     23 ****        -1.9035   0.2667  -0.2118 C.ar           1 S1                 0.0000
     24 ****        -3.2509   0.2016  -0.2229 N.ar           1 S1                 0.0000
     25 ****        -6.8922  -2.4751   3.0030 H              1 S1                 0.0000
     26 ****        -7.0657  -0.7576   2.6835 H              1 S1                 0.0000
     27 ****        -5.5031  -1.4087   3.1763 H              1 S1                 0.0000
     28 ****        -5.4850  -2.7917   0.9971 H              1 S1                 0.0000
     29 ****        -6.9572  -2.0098   0.5400 H              1 S1                 0.0000
     30 ****        -5.6252   0.6981  -0.9947 H              1 S1                 0.0000
     31 ****        -7.0615   0.0964  -0.2305 H              1 S1                 0.0000
     32 ****        -6.6133   2.4218   0.5107 H              1 S1                 0.0000
     33 ****        -5.0393   1.9552   1.1398 H              1 S1                 0.0000
     34 ****        -6.5082   1.3368   1.8890 H              1 S1                 0.0000
     35 ****        -3.6187  -2.3577   1.9819 H              1 S1                 0.0000
     36 ****        -1.1798  -2.2409   1.9818 H              1 S1                 0.0000
     37 ****         0.6540   0.0385  -0.3491 H              1 S1                 0.0000
     38 ****         2.6332  -0.1582   0.0676 H              1 S1                 0.0000
     39 ****         3.7386  -1.9126   2.0631 H              1 S1                 0.0000
     40 ****         3.4911   1.0091   2.7624 H              1 S1                 0.0000
     41 ****         3.7360  -0.3768   3.8165 H              1 S1                 0.0000
     42 ****         5.7315   1.3853   2.5601 H              1 S1                 0.0000
     43 ****         6.0366   0.1726   3.7920 H              1 S1                 0.0000
     44 ****         7.5769  -1.5411   2.8739 H              1 S1                 0.0000
     45 ****         5.9805  -2.2487   2.9732 H              1 S1                 0.0000
     46 ****         7.8326  -2.3452   0.5404 H              1 S1                 0.0000
     47 ****         7.4496  -3.6818   1.6014 H              1 S1                 0.0000
     48 ****         6.0676  -3.7762  -0.4721 H              1 S1                 0.0000
     49 ****         5.0559  -3.5784   0.9401 H              1 S1                 0.0000
     50 ****         5.9624  -1.3985  -0.9895 H              1 S1                 0.0000
     51 ****         4.3338  -1.9908  -0.8211 H              1 S1                 0.0000
     52 ****         4.8737   0.2556   0.2757 H              1 S1                 0.0000
     53 ****        -1.4614   1.0166  -0.8518 H              1 S1                 0.0000
     54 ****         6.8568  -0.0188   1.2855 H              1 S1                 0.0000
     55 ****         0.0643  -1.3251   2.8076 LP             1 S1                 0.0000
     56 ****         1.7620  -1.4719   3.1179 LP             1 S1                 0.0000
     57 ****        -3.7816   0.8277  -0.7942 LP             1 S1                 0.0000
@<TRIPOS>BOND
    1    1    2 1     
    2    1   25 1     
    3    1   26 1     
    4    1   27 1     
    5    2    3 1     
    6    2   28 1     
    7    2   29 1     
    8    3    4 1     
    9    3    6 1     
   10    4    5 1     
   11    4   30 1     
   12    4   31 1     
   13    5   32 1     
   14    5   33 1     
   15    5   34 1     
   16    6   24 ar    
   17    6    7 ar    
   18    7    8 ar    
   19    7   35 1     
   20    8    9 ar    
   21    8   36 1     
   22    9   10 1     
   23    9   23 ar    
   24   10   11 am    
   25   10   37 1     
   26   11   12 2     
   27   11   13 am    
   28   13   14 1     
   29   13   38 1     
   30   14   22 1     
   31   14   15 1     
   32   14   39 1     
   33   15   16 1     
   34   15   40 1     
   35   15   41 1     
   36   16   17 1     
   37   16   42 1     
   38   16   43 1     
   39   17   22 1     
   40   17   18 1     
   41   17   54 1     
   42   18   19 1     
   43   18   44 1     
   44   18   45 1     
   45   19   20 1     
   46   19   46 1     
   47   19   47 1     
   48   20   21 1     
   49   20   48 1     
   50   20   49 1     
   51   21   22 1     
   52   21   50 1     
   53   21   51 1     
   54   22   52 1     
   55   23   24 ar    
   56   23   53 1     
   57   12   55 1     
   58   12   56 1     
   59   24   57 1     
@<TRIPOS>SUBSTRUCTURE
      1 S1             1
@<TRIPOS>SET
LONE_PAIRS      STATIC     ATOMS    <user>   **** ""
3 55 56 57
DONOR_HYDROGENS      STATIC     ATOMS    <user>   **** ""
3 37 38 54
ATOM$BLUE        STATIC     ATOMS    COLORGROUP SYSTEM
3 55 56 57
ATOM$RED        STATIC     ATOMS    COLORGROUP SYSTEM
3 37 38 54
