AV-unprocessed.smi:837|AV-procd|sdf|3892|dock3
  -GOLD-   22720 1353D 1   1.00000     0.00000
 Structure written by MMmdl.
 49 51  0  0  0  0  0  0  0  0  1 V2000
  152.6593  139.2915  158.5679 C   0  0  0  0  0  0  0  0  0  0  0  0
  152.5422  140.7683  158.1318 C   0  0  2  0  0  0  0  0  0  0  0  0
  152.4300  141.6790  159.3738 C   0  0  0  0  0  0  0  0  0  0  0  0
  152.3729  143.1673  158.9955 C   0  0  0  0  0  0  0  0  0  0  0  0
  151.2201  143.4517  158.0227 C   0  0  0  0  0  0  0  0  0  0  0  0
  151.3284  142.5669  156.7710 C   0  0  0  0  0  0  0  0  0  0  0  0
  151.3840  141.0620  157.1275 C   0  0  2  0  0  0  0  0  0  0  0  0
  150.0983  140.5933  157.6180 N   0  0  0  0  0  0  0  0  0  0  0  0
  149.5449  139.6645  156.8278 C   0  0  0  0  0  0  0  0  0  0  0  0
  148.4695  139.1057  157.0375 O   0  0  0  0  0  0  0  0  0  0  0  0
  150.3685  139.4510  155.7857 N   0  0  0  0  0  0  0  0  0  0  0  0
  150.1346  138.4626  154.7262 C   0  0  0  0  0  0  0  0  0  0  0  0
  149.8815  137.0557  155.2843 C   0  0  0  0  0  0  0  0  0  0  0  0
  150.2620  136.7512  156.4154 O   0  0  0  0  0  0  0  0  0  0  0  0
  149.2261  136.2088  154.4769 N   0  0  0  0  0  0  0  0  0  0  0  0
  148.9010  134.8217  154.7962 C   0  0  0  0  0  0  0  0  0  0  0  0
  149.4745  133.8150  153.7781 C   0  0  0  0  0  0  0  0  0  0  0  0
  148.4332  132.8712  153.2012 C   0  0  0  0  0  0  0  0  0  0  0  0
  148.4273  131.5028  153.5427 C   0  0  0  0  0  0  0  0  0  0  0  0
  147.4485  130.6656  152.9746 C   0  0  0  0  0  0  0  0  0  0  0  0
  146.5134  131.2343  152.0872 C   0  0  0  0  0  0  0  0  0  0  0  0
  146.5074  132.5435  151.7550 N   0  0  0  0  0  0  0  0  0  0  0  0
  147.4498  133.3395  152.3047 C   0  0  0  0  0  0  0  0  0  0  0  0
  151.4657  140.2165  155.8635 C   0  0  0  0  0  0  0  0  0  0  0  0
  152.4069  140.2493  155.0706 O   0  0  0  0  0  0  0  0  0  0  0  0
  151.7702  138.9590  159.1041 H   0  0  0  0  0  0  0  0  0  0  0  0
  153.5120  139.1500  159.2323 H   0  0  0  0  0  0  0  0  0  0  0  0
  152.8038  138.6239  157.7192 H   0  0  0  0  0  0  0  0  0  0  0  0
  153.4788  141.0232  157.6327 H   0  0  0  0  0  0  0  0  0  0  0  0
  151.5398  141.4165  159.9471 H   0  0  0  0  0  0  0  0  0  0  0  0
  153.2795  141.5098  160.0365 H   0  0  0  0  0  0  0  0  0  0  0  0
  152.2578  143.7743  159.8940 H   0  0  0  0  0  0  0  0  0  0  0  0
  153.3182  143.4654  158.5400 H   0  0  0  0  0  0  0  0  0  0  0  0
  150.2655  143.2768  158.5206 H   0  0  0  0  0  0  0  0  0  0  0  0
  151.2292  144.5032  157.7350 H   0  0  0  0  0  0  0  0  0  0  0  0
  150.4897  142.7740  156.1041 H   0  0  0  0  0  0  0  0  0  0  0  0
  152.2282  142.8471  156.2207 H   0  0  0  0  0  0  0  0  0  0  0  0
  149.6846  140.9309  158.4749 H   0  0  0  0  0  0  0  0  0  0  0  0
  149.2770  138.7519  154.1169 H   0  0  0  0  0  0  0  0  0  0  0  0
  150.9895  138.4440  154.0472 H   0  0  0  0  0  0  0  0  0  0  0  0
  148.9491  136.5427  153.5648 H   0  0  0  0  0  0  0  0  0  0  0  0
  149.2387  134.5784  155.8046 H   0  0  0  0  0  0  0  0  0  0  0  0
  147.8138  134.7418  154.8087 H   0  0  0  0  0  0  0  0  0  0  0  0
  149.9551  134.3526  152.9597 H   0  0  0  0  0  0  0  0  0  0  0  0
  150.2613  133.2253  154.2495 H   0  0  0  0  0  0  0  0  0  0  0  0
  149.1637  131.0980  154.2209 H   0  0  0  0  0  0  0  0  0  0  0  0
  147.4194  129.6121  153.2099 H   0  0  0  0  0  0  0  0  0  0  0  0
  145.7502  130.6211  151.6316 H   0  0  0  0  0  0  0  0  0  0  0  0
  147.4208  134.3803  152.0172 H   0  0  0  0  0  0  0  0  0  0  0  0
  1  2  1  0  0  0  0
  1 26  1  0  0  0  0
  1 27  1  0  0  0  0
  1 28  1  0  0  0  0
  2  7  1  0  0  0  0
  2  3  1  0  0  0  0
  2 29  1  0  0  0  0
  3  4  1  0  0  0  0
  3 30  1  0  0  0  0
  3 31  1  0  0  0  0
  4  5  1  0  0  0  0
  4 32  1  0  0  0  0
  4 33  1  0  0  0  0
  5  6  1  0  0  0  0
  5 34  1  0  0  0  0
  5 35  1  0  0  0  0
  6  7  1  0  0  0  0
  6 36  1  0  0  0  0
  6 37  1  0  0  0  0
  7 24  1  0  0  0  0
  7  8  1  0  0  0  0
  8  9  1  0  0  0  0
  8 38  1  0  0  0  0
  9 10  2  0  0  0  0
  9 11  1  0  0  0  0
 11 12  1  0  0  0  0
 11 24  1  0  0  0  0
 12 13  1  0  0  0  0
 12 39  1  0  0  0  0
 12 40  1  0  0  0  0
 13 14  2  0  0  0  0
 13 15  1  0  0  0  0
 15 16  1  0  0  0  0
 15 41  1  0  0  0  0
 16 17  1  0  0  0  0
 16 42  1  0  0  0  0
 16 43  1  0  0  0  0
 17 18  1  0  0  0  0
 17 44  1  0  0  0  0
 17 45  1  0  0  0  0
 18 23  1  0  0  0  0
 18 19  2  0  0  0  0
 19 20  1  0  0  0  0
 19 46  1  0  0  0  0
 20 21  2  0  0  0  0
 20 47  1  0  0  0  0
 21 22  1  0  0  0  0
 21 48  1  0  0  0  0
 22 23  2  0  0  0  0
 23 49  1  0  0  0  0
 24 25  2  0  0  0  0
M  END
> <s_m_source_file>
AV-unprocessed.smi

> <i_m_source_file_index>
837

> <i_lp_mmshare_version>
43012

> <i_f3d_flags>
0

> <s_epik_input>
W0NIMl0xW0NIMl1bQ0gyXVtDSDJdW0NAQEhdKFtDSDNdKVtDQEBdMTJbTkhdQyg9TylOKEMyPU8pW0NIMl1DKD1PKVtOSF1bQ0gyXVtDSDJdYzNbY0hdW2NIXVtjSF1uW2NIXTM=

> <s_epik_cmdline>
J2VwaWtfcHl0aG9uJywgJy1waCcsICc3LjAnLCAnLXRuJywgJzgnLCAnLW1hJywgJzIwMCcsICctbWV0YWxfYmluZGluZycsICctaW1hZScsICc8aW5maWxlLm1hZT4nLCAnLW9tYWUnLCAnPG91dGZpbGUubWFlPic=

> <r_lp_tautomer_probability>
1

> <r_epik_Ionization_Penalty>
0.0127837

> <r_epik_Ionization_Penalty_Charging>
0

> <r_epik_Ionization_Penalty_Neutral>
0.0127837

> <r_epik_State_Penalty>
0.00987657

> <r_epik_Charging_Adjusted_Penalty>
0.00987657

> <i_epik_Tot_Q>
0

> <i_epik_Tot_abs_Q>
0

> <r_epik_Metal_State_Penalty>
0.0309865

> <b_epik_Metal_Only>
0

> <s_lp_Force_Field>
OPLS_2005

> <r_lp_Energy>
21.3574

> <b_lp_Chiralities_Consistent>
1

> <s_lp_Variant>
AV-unprocessed.smi:837-1

> <Gold.Version>
5.8.1

> <Gold.Id.Protein>
6NUR|6NUR_protein|mol2

> <Gold.PLP.Fitness>
48.5673

> <Gold.PLP.PLP>
-39.8044

> <Gold.PLP.part.hbond>
-2.9545

> <Gold.PLP.part.metal>
0.0000

> <Gold.PLP.part.buried>
-4.2030

> <Gold.PLP.part.nonpolar>
-33.0354

> <Gold.PLP.part.repulsive>
0.2382

> <Gold.PLP.ligand.clash>
0.0000

> <Gold.PLP.ligand.torsion>
0.8029

> <Gold.PLP.Chemscore.Hbond>
2.4435

> <Gold.PLP.Chemscore.CHOScore>
1.0000

> <Gold.PLP.Chemscore.Metal>
0.0000

> <Gold.Chemscore.Hbonds>
donor molecule, donor type, donor heavy atom, donor atom, acceptor molecule, acceptor atom, score
      L1  H    15    41       P1  7948  0.90
      P1  H  7989  7998       L1    25  0.54
      P1  H  7997  8008       L1    25  0.55
      L1  C    23    49       P1  7948  1.00

> <Gold.PLP.Chemscore.Internal.Correction>
0.0382

> <Gold.Rescore>
     Score         DG    S(hbond)    S(metal)    S(lipo)     H(rot)  DE(clash)    DE(int)     intcor
     17.29     -18.39       1.70        0.00     102.48       1.86       0.05       1.05       ----

> <Gold.Chemscore.Fitness>
17.2892

> <Gold.Chemscore.DG>
-18.3870

> <Gold.Chemscore.ZeroCoef>
-5.4800

> <Gold.Chemscore.Hbond>
1.6966

> <Gold.Chemscore.Metal>
0.0000

> <Gold.Chemscore.Lipo>
102.4801

> <Gold.Chemscore.Internal_Hbond>
0.0000

> <Gold.Chemscore.DEClash>
0.0456

> <Gold.Chemscore.DEInternal>
1.0523

> <Gold.Chemscore.Rot>
1.8553

> <Gold.Chemscore.Internal.Correction>
   9.000000E+99

> <Gold.Chemscore.Hbonds>
donor molecule, donor type, donor heavy atom, donor atom, acceptor molecule, acceptor atom, score
      L1  H    15    41       P1  7948  0.88
      P1  H  7989  7998       L1    25  0.27
      P1  H  7997  8008       L1    25  0.47

> <Gold.Chemscore.Hbond.Weighted>
-5.6666

> <Gold.Chemscore.Metal.Weighted>
-0.0000

> <Gold.Chemscore.Lipo.Weighted>
-11.9902

> <Gold.Chemscore.Internal_Hbond.Weighted>
0.0000

> <Gold.Chemscore.DEClash.Weighted>
0.0456

> <Gold.Chemscore.DEInternal.Weighted>
1.0523

> <Gold.Chemscore.Rot.Weighted>
4.7497

> <Gold.Chemscore.Internal.Correction.Weighted>
   9.000000E+99

> <Gold.Protein.RotatedTorsions>
[ 6907 6896 6895 6894 ] final  125.11 input  -60.11 | X-H torsion
[ 7974 7965 7964 7962 ] final   16.99 input  175.53 | X-H torsion
[ 8008 7997 7996 7995 ] final  -28.54 input   59.86 | X-H torsion
[ 10167 10162 10161 10158 ] final   85.15 input  -65.29 | X-H torsion
[ 10718 10713 10712 10709 ] final   73.85 input   66.30 | X-H torsion
[ 10763 10752 10751 10750 ] final  -54.85 input  -60.55 | X-H torsion
[ 11005 11000 10999 10996 ] final   26.22 input  -57.11 | X-H torsion

> <Gold.Protein.ActiveResidues>
 VAL166  LYS551  ARG553  GLY616  TRP617  ASP618  TYR619  PRO620  LYS621  CYS622 
 ASP623  PHE694  ASN695  SER759  ASP760  ASP761  ALA762  ILE779  LEU786  VAL792 
 PHE793  MET794  SER795  GLU796  ALA797  LYS798  CYS799  TRP800  GLU811  SER814 

> <Gold.Protein.RotatedAtoms>
  152.4020  133.6832  159.6323 H   0  0  0  0  0  0  0  0  0  0  0  0  # atno 6907 bound_to 6896
  150.7910  133.8775  159.3285 H   0  0  0  0  0  0  0  0  0  0  0  0  # atno 6908 bound_to 6896
  151.6538  135.1000  160.0217 H   0  0  0  0  0  0  0  0  0  0  0  0  # atno 6909 bound_to 6896
  146.2232  139.8667  142.8595 H   0  0  0  0  0  0  0  0  0  0  0  0  # atno 7974 bound_to 7965
  154.4328  140.1842  156.1106 H   0  0  0  0  0  0  0  0  0  0  0  0  # atno 8008 bound_to 7997
  156.0221  140.3339  155.7024 H   0  0  0  0  0  0  0  0  0  0  0  0  # atno 8009 bound_to 7997
  155.5961  140.0636  157.2736 H   0  0  0  0  0  0  0  0  0  0  0  0  # atno 8010 bound_to 7997
  139.9007  144.6331  150.8640 H   0  0  0  0  0  0  0  0  0  0  0  0  # atno 10167 bound_to 10162
  157.6566  130.9649  150.1128 H   0  0  0  0  0  0  0  0  0  0  0  0  # atno 10718 bound_to 10713
  154.1814  135.6442  153.5035 H   0  0  0  0  0  0  0  0  0  0  0  0  # atno 10763 bound_to 10752
  153.0058  135.5407  154.6510 H   0  0  0  0  0  0  0  0  0  0  0  0  # atno 10764 bound_to 10752
  154.5875  135.2931  155.0642 H   0  0  0  0  0  0  0  0  0  0  0  0  # atno 10765 bound_to 10752
  140.3394  134.2350  155.7692 H   0  0  0  0  0  0  0  0  0  0  0  0  # atno 11005 bound_to 11000
  145.2650  141.0089  143.3805 LP  0  0  0  0  0  0  0  0  0  0  0  0  # atno 17320 bound_to 7965
  144.9269  139.4345  143.6514 LP  0  0  0  0  0  0  0  0  0  0  0  0  # atno 17321 bound_to 7965
  140.7707  143.3439  151.2151 LP  0  0  0  0  0  0  0  0  0  0  0  0  # atno 17342 bound_to 10162
  139.7028  143.9505  152.2913 LP  0  0  0  0  0  0  0  0  0  0  0  0  # atno 17343 bound_to 10162
  156.2020  130.3661  149.8776 LP  0  0  0  0  0  0  0  0  0  0  0  0  # atno 17370 bound_to 10713
  156.6677  130.8808  151.3557 LP  0  0  0  0  0  0  0  0  0  0  0  0  # atno 17371 bound_to 10713
  141.2042  133.7891  157.0296 LP  0  0  0  0  0  0  0  0  0  0  0  0  # atno 17394 bound_to 11000
  140.0794  134.9657  157.1599 LP  0  0  0  0  0  0  0  0  0  0  0  0  # atno 17395 bound_to 11000

$$$$
