#       Name:                AV-unprocessed.smi:160
#       Creating user name   scv26
#       Creation time:       Thu Mar 26 19:08:07 2020


#       File generated by GOLD software.
#

@<TRIPOS>MOLECULE
AV-unprocessed.smi:160
    41    42     1
SMALL
NO_CHARGES


@<TRIPOS>ATOM
      1 ****        -3.6258   1.4541   0.0218 N.pl3          1 S1                -1.0000
      2 ****        -3.8701   0.1889  -0.3843 C.2            1 S1                 0.0000
      3 ****        -4.9704  -0.2868  -0.6630 O.2            1 S1                 0.0000
      4 ****        -2.6413  -0.6821  -0.4928 C.2            1 S1                 0.0000
      5 ****        -2.7391  -1.9790  -0.9157 N.2            1 S1                 0.0000
      6 ****        -1.4577  -2.3166  -0.8610 C.2            1 S1                 0.0000
      7 ****        -0.6491  -1.3402  -0.4382 N.pl3          1 S1                 0.0000
      8 ****         0.8434  -1.3371  -0.2740 C.3            1 S1                 0.0000
      9 ****         1.3506  -0.3020  -1.0578 O.3            1 S1                 0.0000
     10 ****         1.7623   0.8073  -0.2560 C.3            1 S1                 0.0000
     11 ****         1.1079   2.1014  -0.7688 C.3            1 S1                 0.0000
     12 ****         1.8355   2.6144  -1.8646 O.3            1 S1                 0.0000
     13 ****         1.3749   0.4582   1.1919 C.3            1 S1                 0.0000
     14 ****         2.3831   0.8854   2.0871 O.3            1 S1                 0.0000
     15 ****         1.2856  -1.0609   1.1719 C.3            1 S1                 0.0000
     16 ****         0.3874  -1.5490   2.1519 O.3            1 S1                 0.0000
     17 ****        -1.4133  -0.2467  -0.1968 N.2            1 S1                 0.0000
     18 ****         1.1565  -2.3125  -0.6477 H              1 S1                 0.0000
     19 ****         2.8494   0.8738  -0.3329 H              1 S1                 0.0000
     20 ****         0.4167   0.9059   1.4606 H              1 S1                 0.0000
     21 ****         2.2715  -1.5087   1.3065 H              1 S1                 0.0000
     22 ****        -2.6556   1.7237   0.2235 H              1 S1                 0.0000
     23 ****        -1.1009  -3.2979  -1.1366 H              1 S1                 0.0000
     24 ****         0.0665   1.9417  -1.0483 H              1 S1                 0.0000
     25 ****         1.1187   2.8622   0.0122 H              1 S1                 0.0000
     26 ****         1.4025   3.3971  -2.1694 H              1 S1                 0.0000
     27 ****         3.2010   0.4893   1.8285 H              1 S1                 0.0000
     28 ****         0.3107  -2.4852   2.0520 H              1 S1                 0.0000
     29 ****        -4.3718   2.1123   0.1235 LP             1 S1                 0.0000
     30 ****        -5.7915   0.2803  -0.5973 LP             1 S1                 0.0000
     31 ****        -5.0434  -1.2403  -0.9552 LP             1 S1                 0.0000
     32 ****        -3.5395  -2.5140  -1.1860 LP             1 S1                 0.0000
     33 ****         0.6412   0.0020  -1.6937 LP             1 S1                 0.0000
     34 ****         2.1377  -0.6403  -1.5735 LP             1 S1                 0.0000
     35 ****         1.8635   1.9362  -2.5989 LP             1 S1                 0.0000
     36 ****         2.7680   2.8341  -1.5779 LP             1 S1                 0.0000
     37 ****         2.1503   0.6021   3.0174 LP             1 S1                 0.0000
     38 ****         2.4648   1.8815   2.0526 LP             1 S1                 0.0000
     39 ****        -0.5089  -1.1227   2.0292 LP             1 S1                 0.0000
     40 ****         0.7360  -1.3352   3.0644 LP             1 S1                 0.0000
     41 ****        -1.1295   0.6576   0.1223 LP             1 S1                 0.0000
@<TRIPOS>BOND
    1    1    2 1     
    2    1   22 1     
    3    2    3 2     
    4    2    4 1     
    5    4   17 2     
    6    4    5 1     
    7    5    6 2     
    8    6    7 1     
    9    6   23 1     
   10    7    8 1     
   11    7   17 1     
   12    8   18 1     
   13    8   15 1     
   14    8    9 1     
   15    9   10 1     
   16   10   19 1     
   17   10   11 1     
   18   10   13 1     
   19   11   12 1     
   20   11   24 1     
   21   11   25 1     
   22   12   26 1     
   23   13   20 1     
   24   13   14 1     
   25   13   15 1     
   26   14   27 1     
   27   15   21 1     
   28   15   16 1     
   29   16   28 1     
   30    1   29 1     
   31    3   30 1     
   32    3   31 1     
   33    5   32 1     
   34    9   33 1     
   35    9   34 1     
   36   12   35 1     
   37   12   36 1     
   38   14   37 1     
   39   14   38 1     
   40   16   39 1     
   41   16   40 1     
   42   17   41 1     
@<TRIPOS>SUBSTRUCTURE
      1 S1             1
@<TRIPOS>SET
LONE_PAIRS      STATIC     ATOMS    <user>   **** ""
13 29 30 31 32 33 34 35 36 37 38 39 40 41
DONOR_HYDROGENS      STATIC     ATOMS    <user>   **** ""
4 22 26 27 28
ATOM$BLUE        STATIC     ATOMS    COLORGROUP SYSTEM
13 29 30 31 32 33 34 35 36 37 38 39 40 41
ATOM$RED        STATIC     ATOMS    COLORGROUP SYSTEM
4 22 26 27 28
