AV-unprocessed.smi:1683|AV-procd|sdf|6752|dock6
  -GOLD-   22720 7513D 1   1.00000     0.00000
 Structure written by MMmdl.
 37 38  0  0  0  0  0  0  0  0  2 V2000
  147.2950  137.9450  153.4615 O   0  0  0  0  0  0  0  0  0  0  0  0
  146.3154  138.5755  153.0638 C   0  0  0  0  0  0  0  0  0  0  0  0
  145.2236  137.9990  152.5415 N   0  0  0  0  0  0  0  0  0  0  0  0
  145.0295  136.5625  152.3712 C   0  0  0  0  0  0  0  0  0  0  0  0
  143.5351  136.2150  152.2729 C   0  0  1  0  0  0  0  0  0  0  0  0
  143.1680  134.8073  152.7463 C   0  0  0  0  0  0  0  0  0  0  0  0
  141.6907  134.9075  153.1517 C   0  0  0  0  0  0  0  0  0  0  0  0
  141.3688  136.3519  153.2543 N   0  3  1  0  0  0  0  0  0  0  0  0
  140.5369  136.7413  154.4187 C   0  0  0  0  0  0  0  0  0  0  0  0
  139.6821  137.9905  154.1428 C   0  0  0  0  0  0  0  0  0  0  0  0
  138.8466  138.1807  155.1626 F   0  0  0  0  0  0  0  0  0  0  0  0
  140.4660  139.0623  154.0264 F   0  0  0  0  0  0  0  0  0  0  0  0
  138.9650  137.8474  153.0290 F   0  0  0  0  0  0  0  0  0  0  0  0
  142.6405  137.0930  153.1459 C   0  0  0  0  0  0  0  0  0  0  0  0
  146.1955  139.9131  153.0926 N   0  0  0  0  0  0  0  0  0  0  0  0
  147.1404  140.8512  153.5811 C   0  0  0  0  0  0  0  0  0  0  0  0
  148.5511  140.6936  153.5067 C   0  0  0  0  0  0  0  0  0  0  0  0
  149.1825  141.7283  154.0430 N   0  0  0  0  0  0  0  0  0  0  0  0
  148.1884  142.5448  154.4591 N   0  0  0  0  0  0  0  0  0  0  0  0
  146.9287  142.0519  154.1989 C   0  0  0  0  0  0  0  0  0  0  0  0
  148.3831  143.4255  154.9141 H   0  0  0  0  0  0  0  0  0  0  0  0
  144.4709  138.5997  152.2383 H   0  0  0  0  0  0  0  0  0  0  0  0
  145.5551  136.2470  151.4692 H   0  0  0  0  0  0  0  0  0  0  0  0
  145.4704  136.0057  153.1998 H   0  0  0  0  0  0  0  0  0  0  0  0
  143.2110  136.3260  151.2363 H   0  0  0  0  0  0  0  0  0  0  0  0
  143.3406  134.0493  151.9814 H   0  0  0  0  0  0  0  0  0  0  0  0
  143.7657  134.5384  153.6185 H   0  0  0  0  0  0  0  0  0  0  0  0
  141.0447  134.4570  152.3975 H   0  0  0  0  0  0  0  0  0  0  0  0
  141.5216  134.3793  154.0911 H   0  0  0  0  0  0  0  0  0  0  0  0
  139.9128  135.9036  154.7337 H   0  0  0  0  0  0  0  0  0  0  0  0
  141.2028  136.9613  155.2547 H   0  0  0  0  0  0  0  0  0  0  0  0
  143.0822  137.2102  154.1375 H   0  0  0  0  0  0  0  0  0  0  0  0
  142.4891  138.0869  152.7233 H   0  0  0  0  0  0  0  0  0  0  0  0
  145.3381  140.3027  152.7294 H   0  0  0  0  0  0  0  0  0  0  0  0
  149.1260  139.8800  153.0893 H   0  0  0  0  0  0  0  0  0  0  0  0
  146.0309  142.5875  154.4704 H   0  0  0  0  0  0  0  0  0  0  0  0
  140.8440  136.5852  152.4232 H   0  0  0  0  0  0  0  0  0  0  0  0
  1  2  2  0  0  0  0
  2  3  1  0  0  0  0
  2 15  1  0  0  0  0
  3  4  1  0  0  0  0
  3 22  1  0  0  0  0
  4  5  1  0  0  0  0
  4 23  1  0  0  0  0
  4 24  1  0  0  0  0
  5 14  1  0  0  0  0
  5  6  1  0  0  0  0
  5 25  1  0  0  0  0
  6  7  1  0  0  0  0
  6 26  1  0  0  0  0
  6 27  1  0  0  0  0
  7  8  1  0  0  0  0
  7 28  1  0  0  0  0
  7 29  1  0  0  0  0
  8  9  1  0  0  0  0
  8 14  1  0  0  0  0
  8 37  1  0  0  0  0
  9 10  1  0  0  0  0
  9 30  1  0  0  0  0
  9 31  1  0  0  0  0
 10 11  1  0  0  0  0
 10 12  1  0  0  0  0
 10 13  1  0  0  0  0
 14 32  1  0  0  0  0
 14 33  1  0  0  0  0
 15 16  1  0  0  0  0
 15 34  1  0  0  0  0
 16 20  2  0  0  0  0
 16 17  1  0  0  0  0
 17 18  2  0  0  0  0
 17 35  1  0  0  0  0
 18 19  1  0  0  0  0
 19 21  1  0  0  0  0
 19 20  1  0  0  0  0
 20 36  1  0  0  0  0
M  CHG  1   8   1
M  END
> <s_m_source_file>
AV-unprocessed.smi

> <i_m_source_file_index>
1683

> <i_lp_mmshare_version>
43012

> <i_f3d_flags>
0

> <s_epik_input>
W2NIXTFbbkhdbltjSF1jMVtOSF1DKD1PKVtOSF1bQ0gyXVtDQEBIXTJbQ0gyXVtDSDJdTihbQ0gyXTIpW0NIMl1DKEYpKEYpRg==

> <s_epik_cmdline>
J2VwaWtfcHl0aG9uJywgJy1waCcsICc3LjAnLCAnLXRuJywgJzgnLCAnLW1hJywgJzIwMCcsICctbWV0YWxfYmluZGluZycsICctaW1hZScsICc8aW5maWxlLm1hZT4nLCAnLW9tYWUnLCAnPG91dGZpbGUubWFlPic=

> <r_lp_tautomer_probability>
0.5

> <r_epik_Ionization_Penalty>
0.641865

> <r_epik_Ionization_Penalty_Charging>
0.64182

> <r_epik_Ionization_Penalty_Neutral>
4.50685e-05

> <r_epik_State_Penalty>
0.65957

> <r_epik_Charging_Adjusted_Penalty>
1.30139

> <i_epik_Tot_Q>
1

> <i_epik_Tot_abs_Q>
1

> <r_epik_Metal_State_Penalty>
0.659571

> <b_epik_Metal_Only>
0

> <s_lp_Force_Field>
OPLS_2005

> <r_lp_Energy>
31.2098

> <b_lp_Chiralities_Consistent>
1

> <s_lp_Variant>
AV-unprocessed.smi:1683-6

> <Gold.Version>
5.8.1

> <Gold.Id.Protein>
6NUR|6NUR_protein|mol2

> <Gold.PLP.Fitness>
44.8373

> <Gold.PLP.PLP>
-34.5190

> <Gold.PLP.part.hbond>
-5.4549

> <Gold.PLP.part.metal>
0.0000

> <Gold.PLP.part.buried>
-3.0896

> <Gold.PLP.part.nonpolar>
-27.8377

> <Gold.PLP.part.repulsive>
2.2935

> <Gold.PLP.ligand.clash>
0.0000

> <Gold.PLP.ligand.torsion>
1.0229

> <Gold.PLP.Chemscore.Hbond>
3.3120

> <Gold.PLP.Chemscore.CHOScore>
0.6557

> <Gold.PLP.Chemscore.Metal>
0.0000

> <Gold.Chemscore.Hbonds>
donor molecule, donor type, donor heavy atom, donor atom, acceptor molecule, acceptor atom, score
      L1  H     3    22       P1 10175  0.90
      L1  H    15    34       P1 10175  1.00
      L1  H    19    21       P1  8028  1.00
      P1  H  8011  8017       L1    18  0.42
      L1  C    17    35       P1  7957  0.66

> <Gold.PLP.Chemscore.Internal.Correction>
0.4608

> <Gold.Rescore>
     Score         DG    S(hbond)    S(metal)    S(lipo)     H(rot)  DE(clash)    DE(int)     intcor
     14.86     -16.45       2.78        0.00      53.99       1.81       0.33       1.26       ----

> <Gold.Chemscore.Fitness>
14.8647

> <Gold.Chemscore.DG>
-16.4538

> <Gold.Chemscore.ZeroCoef>
-5.4800

> <Gold.Chemscore.Hbond>
2.7829

> <Gold.Chemscore.Metal>
0.0000

> <Gold.Chemscore.Lipo>
53.9899

> <Gold.Chemscore.Internal_Hbond>
0.0000

> <Gold.Chemscore.DEClash>
0.3338

> <Gold.Chemscore.DEInternal>
1.2553

> <Gold.Chemscore.Rot>
1.8116

> <Gold.Chemscore.Internal.Correction>
   9.000000E+99

> <Gold.Chemscore.Hbonds>
donor molecule, donor type, donor heavy atom, donor atom, acceptor molecule, acceptor atom, score
      L1  H     3    22       P1 10175  0.82
      L1  H    15    34       P1 10175  0.90
      L1  H    19    21       P1  8028  0.94
      P1  H  8011  8017       L1    18  0.03

> <Gold.Chemscore.Hbond.Weighted>
-9.2947

> <Gold.Chemscore.Metal.Weighted>
-0.0000

> <Gold.Chemscore.Lipo.Weighted>
-6.3168

> <Gold.Chemscore.Internal_Hbond.Weighted>
0.0000

> <Gold.Chemscore.DEClash.Weighted>
0.3338

> <Gold.Chemscore.DEInternal.Weighted>
1.2553

> <Gold.Chemscore.Rot.Weighted>
4.6378

> <Gold.Chemscore.Internal.Correction.Weighted>
   9.000000E+99

> <Gold.Protein.RotatedTorsions>
[ 6907 6896 6895 6894 ] final   69.87 input  -60.11 | X-H torsion
[ 7974 7965 7964 7962 ] final  -35.63 input  175.53 | X-H torsion
[ 8008 7997 7996 7995 ] final  -57.17 input   59.86 | X-H torsion
[ 10167 10162 10161 10158 ] final  -39.27 input  -65.29 | X-H torsion
[ 10718 10713 10712 10709 ] final   56.85 input   66.30 | X-H torsion
[ 10763 10752 10751 10750 ] final  174.08 input  -60.55 | X-H torsion
[ 11005 11000 10999 10996 ] final -115.08 input  -57.11 | X-H torsion

> <Gold.Protein.ActiveResidues>
 VAL166  LYS551  ARG553  GLY616  TRP617  ASP618  TYR619  PRO620  LYS621  CYS622 
 ASP623  PHE694  ASN695  SER759  ASP760  ASP761  ALA762  ILE779  LEU786  VAL792 
 PHE793  MET794  SER795  GLU796  ALA797  LYS798  CYS799  TRP800  GLU811  SER814 

> <Gold.Protein.RotatedAtoms>
  152.4713  134.4952  159.9707 H   0  0  0  0  0  0  0  0  0  0  0  0  # atno 6907 bound_to 6896
  151.4978  133.3505  159.2872 H   0  0  0  0  0  0  0  0  0  0  0  0  # atno 6908 bound_to 6896
  150.8725  134.8130  159.7227 H   0  0  0  0  0  0  0  0  0  0  0  0  # atno 6909 bound_to 6896
  146.0730  140.6183  142.8944 H   0  0  0  0  0  0  0  0  0  0  0  0  # atno 7974 bound_to 7965
  154.4258  140.1113  156.5755 H   0  0  0  0  0  0  0  0  0  0  0  0  # atno 8008 bound_to 7997
  155.6167  140.3494  155.4620 H   0  0  0  0  0  0  0  0  0  0  0  0  # atno 8009 bound_to 7997
  156.0056  140.1208  157.0494 H   0  0  0  0  0  0  0  0  0  0  0  0  # atno 8010 bound_to 7997
  140.7069  143.3225  151.2758 H   0  0  0  0  0  0  0  0  0  0  0  0  # atno 10167 bound_to 10162
  157.5466  130.8735  149.8900 H   0  0  0  0  0  0  0  0  0  0  0  0  # atno 10718 bound_to 10713
  154.4490  135.2764  155.1794 H   0  0  0  0  0  0  0  0  0  0  0  0  # atno 10763 bound_to 10752
  154.3629  135.6125  153.5703 H   0  0  0  0  0  0  0  0  0  0  0  0  # atno 10764 bound_to 10752
  152.9846  135.5839  154.4831 H   0  0  0  0  0  0  0  0  0  0  0  0  # atno 10765 bound_to 10752
  141.0511  133.9686  157.2835 H   0  0  0  0  0  0  0  0  0  0  0  0  # atno 11005 bound_to 11000
  144.7243  140.4476  143.6984 LP  0  0  0  0  0  0  0  0  0  0  0  0  # atno 17320 bound_to 7965
  145.6357  139.1542  143.2944 LP  0  0  0  0  0  0  0  0  0  0  0  0  # atno 17321 bound_to 7965
  139.6683  144.0065  152.2737 LP  0  0  0  0  0  0  0  0  0  0  0  0  # atno 17342 bound_to 10162
  139.9655  144.6529  150.8038 LP  0  0  0  0  0  0  0  0  0  0  0  0  # atno 17343 bound_to 10162
  156.0540  130.3712  150.1133 LP  0  0  0  0  0  0  0  0  0  0  0  0  # atno 17370 bound_to 10713
  156.9309  130.9713  151.3533 LP  0  0  0  0  0  0  0  0  0  0  0  0  # atno 17371 bound_to 10713
  139.9351  135.0197  156.8529 LP  0  0  0  0  0  0  0  0  0  0  0  0  # atno 17394 bound_to 11000
  140.6054  134.0133  155.7554 LP  0  0  0  0  0  0  0  0  0  0  0  0  # atno 17395 bound_to 11000

$$$$
