AV-unprocessed.smi:1570|AV-procd|sdf|6315|dock10
  -GOLD-   22720 6523D 1   1.00000     0.00000
 Structure written by MMmdl.
 51 53  0  0  0  0  0  0  0  0  1 V2000
  155.2391  140.5201  160.7470 C   0  0  0  0  0  0  0  0  0  0  0  0
  153.9430  141.2658  161.0875 C   0  0  0  0  0  0  0  0  0  0  0  0
  153.0279  141.2836  159.9488 N   0  0  0  0  0  0  0  0  0  0  0  0
  152.4964  140.2066  159.3237 C   0  0  0  0  0  0  0  0  0  0  0  0
  152.6881  139.0282  159.6236 O   0  0  0  0  0  0  0  0  0  0  0  0
  151.7142  140.6512  158.3120 N   0  0  0  0  0  0  0  0  0  0  0  0
  150.9346  139.8289  157.3885 C   0  0  0  0  0  0  0  0  0  0  0  0
  151.5162  139.8708  155.9578 C   0  0  1  0  0  0  0  0  0  0  0  0
  152.8145  139.3110  155.9393 O   0  0  0  0  0  0  0  0  0  0  0  0
  150.6561  139.1758  154.8753 C   0  0  0  0  0  0  0  0  0  0  0  0
  149.2344  139.5365  154.8015 N   0  0  0  0  0  0  0  0  0  0  0  0
  148.5654  138.7625  153.7617 C   0  0  0  0  0  0  0  0  0  0  0  0
  147.0598  139.0699  153.6845 C   0  0  2  0  0  0  0  0  0  0  0  0
  146.3748  138.3141  152.5410 C   0  0  0  0  0  0  0  0  0  0  0  0
  146.8756  140.4666  153.4653 O   0  0  0  0  0  0  0  0  0  0  0  0
  147.5165  141.3185  154.4152 C   0  0  1  0  0  0  0  0  0  0  0  0
  146.7767  141.3269  155.7639 C   0  0  0  0  0  0  0  0  0  0  0  0
  149.0105  140.9575  154.5424 C   0  0  0  0  0  0  0  0  0  0  0  0
  151.7421  142.0529  158.2917 C   0  0  0  0  0  0  0  0  0  0  0  0
  151.1005  142.9796  157.4515 C   0  0  0  0  0  0  0  0  0  0  0  0
  151.3445  144.3514  157.6965 C   0  0  0  0  0  0  0  0  0  0  0  0
  152.2031  144.7605  158.7496 C   0  0  0  0  0  0  0  0  0  0  0  0
  152.8341  143.8066  159.5821 C   0  0  0  0  0  0  0  0  0  0  0  0
  152.5728  142.4507  159.3186 C   0  0  0  0  0  0  0  0  0  0  0  0
  155.9165  140.5127  161.6009 H   0  0  0  0  0  0  0  0  0  0  0  0
  155.7597  140.9928  159.9138 H   0  0  0  0  0  0  0  0  0  0  0  0
  155.0379  139.4838  160.4734 H   0  0  0  0  0  0  0  0  0  0  0  0
  153.4598  140.7946  161.9448 H   0  0  0  0  0  0  0  0  0  0  0  0
  154.1685  142.2877  161.3934 H   0  0  0  0  0  0  0  0  0  0  0  0
  150.8685  138.8085  157.7661 H   0  0  0  0  0  0  0  0  0  0  0  0
  149.9123  140.2105  157.3842 H   0  0  0  0  0  0  0  0  0  0  0  0
  151.6130  140.9137  155.6520 H   0  0  0  0  0  0  0  0  0  0  0  0
  152.9140  138.8200  155.1376 H   0  0  0  0  0  0  0  0  0  0  0  0
  151.1233  139.2993  153.8971 H   0  0  0  0  0  0  0  0  0  0  0  0
  150.7184  138.1070  155.0860 H   0  0  0  0  0  0  0  0  0  0  0  0
  149.0299  138.9650  152.7952 H   0  0  0  0  0  0  0  0  0  0  0  0
  148.6986  137.6969  153.9529 H   0  0  0  0  0  0  0  0  0  0  0  0
  146.5800  138.7822  154.6205 H   0  0  0  0  0  0  0  0  0  0  0  0
  146.4769  137.2359  152.6665 H   0  0  0  0  0  0  0  0  0  0  0  0
  146.8066  138.5818  151.5763 H   0  0  0  0  0  0  0  0  0  0  0  0
  145.3098  138.5451  152.5055 H   0  0  0  0  0  0  0  0  0  0  0  0
  147.4507  142.3292  154.0116 H   0  0  0  0  0  0  0  0  0  0  0  0
  147.2121  142.0625  156.4404 H   0  0  0  0  0  0  0  0  0  0  0  0
  146.8232  140.3595  156.2634 H   0  0  0  0  0  0  0  0  0  0  0  0
  145.7259  141.5838  155.6292 H   0  0  0  0  0  0  0  0  0  0  0  0
  149.4363  141.5649  155.3365 H   0  0  0  0  0  0  0  0  0  0  0  0
  149.5235  141.2430  153.6228 H   0  0  0  0  0  0  0  0  0  0  0  0
  150.4467  142.6630  156.6525 H   0  0  0  0  0  0  0  0  0  0  0  0
  150.8711  145.0965  157.0740 H   0  0  0  0  0  0  0  0  0  0  0  0
  152.3765  145.8130  158.9185 H   0  0  0  0  0  0  0  0  0  0  0  0
  153.4880  144.1121  160.3854 H   0  0  0  0  0  0  0  0  0  0  0  0
  1  2  1  0  0  0  0
  1 25  1  0  0  0  0
  1 26  1  0  0  0  0
  1 27  1  0  0  0  0
  2  3  1  0  0  0  0
  2 28  1  0  0  0  0
  2 29  1  0  0  0  0
  3 24  1  0  0  0  0
  3  4  1  0  0  0  0
  4  5  2  0  0  0  0
  4  6  1  0  0  0  0
  6  7  1  0  0  0  0
  6 19  1  0  0  0  0
  7  8  1  0  0  0  0
  7 30  1  0  0  0  0
  7 31  1  0  0  0  0
  8  9  1  0  0  0  0
  8 10  1  0  0  0  0
  8 32  1  0  0  0  0
  9 33  1  0  0  0  0
 10 11  1  0  0  0  0
 10 34  1  0  0  0  0
 10 35  1  0  0  0  0
 11 18  1  0  0  0  0
 11 12  1  0  0  0  0
 12 13  1  0  0  0  0
 12 36  1  0  0  0  0
 12 37  1  0  0  0  0
 13 14  1  0  0  0  0
 13 15  1  0  0  0  0
 13 38  1  0  0  0  0
 14 39  1  0  0  0  0
 14 40  1  0  0  0  0
 14 41  1  0  0  0  0
 15 16  1  0  0  0  0
 16 17  1  0  0  0  0
 16 18  1  0  0  0  0
 16 42  1  0  0  0  0
 17 43  1  0  0  0  0
 17 44  1  0  0  0  0
 17 45  1  0  0  0  0
 18 46  1  0  0  0  0
 18 47  1  0  0  0  0
 19 24  2  0  0  0  0
 19 20  1  0  0  0  0
 20 21  2  0  0  0  0
 20 48  1  0  0  0  0
 21 22  1  0  0  0  0
 21 49  1  0  0  0  0
 22 23  2  0  0  0  0
 22 50  1  0  0  0  0
 23 24  1  0  0  0  0
 23 51  1  0  0  0  0
M  END
> <s_m_source_file>
AV-unprocessed.smi

> <i_m_source_file_index>
1570

> <i_lp_mmshare_version>
43012

> <i_f3d_flags>
0

> <s_epik_input>
W2NIXTFbY0hdW2NIXVtjSF1jKGMxMiluKFtDSDJdW0NIM10pYyg9TyluMltDSDJdW0NASF0oW09IXSlbQ0gyXU4zW0NIMl1bQ0BASF0oW0NIM10pT1tDQEBIXShbQ0gzXSlbQ0gyXTM=

> <s_epik_cmdline>
J2VwaWtfcHl0aG9uJywgJy1waCcsICc3LjAnLCAnLXRuJywgJzgnLCAnLW1hJywgJzIwMCcsICctbWV0YWxfYmluZGluZycsICctaW1hZScsICc8aW5maWxlLm1hZT4nLCAnLW9tYWUnLCAnPG91dGZpbGUubWFlPic=

> <r_epik_Ionization_Penalty>
0.214359

> <r_epik_Ionization_Penalty_Charging>
2.30976e-09

> <r_epik_Ionization_Penalty_Neutral>
0.214359

> <r_epik_State_Penalty>
0.204533

> <r_epik_Charging_Adjusted_Penalty>
0.204533

> <i_epik_Tot_Q>
0

> <i_epik_Tot_abs_Q>
0

> <r_epik_Metal_State_Penalty>
0.204533

> <b_epik_Metal_Only>
0

> <s_lp_Force_Field>
OPLS_2005

> <r_lp_Energy>
68.4361

> <b_lp_Chiralities_Consistent>
1

> <s_lp_Variant>
AV-unprocessed.smi:1570-4

> <Gold.Version>
5.8.1

> <Gold.Id.Protein>
6NUR|6NUR_protein|mol2

> <Gold.PLP.Fitness>
58.5535

> <Gold.PLP.PLP>
-55.7934

> <Gold.PLP.part.hbond>
-1.0000

> <Gold.PLP.part.metal>
0.0000

> <Gold.PLP.part.buried>
-2.0892

> <Gold.PLP.part.nonpolar>
-53.0839

> <Gold.PLP.part.repulsive>
0.2866

> <Gold.PLP.ligand.clash>
0.0000

> <Gold.PLP.ligand.torsion>
0.1413

> <Gold.PLP.Chemscore.Hbond>
1.0000

> <Gold.PLP.Chemscore.CHOScore>
0.0000

> <Gold.PLP.Chemscore.Metal>
0.0000

> <Gold.Chemscore.Hbonds>
donor molecule, donor type, donor heavy atom, donor atom, acceptor molecule, acceptor atom, score
      P1  H  7997  8008       L1     9  1.00

> <Gold.PLP.Chemscore.Internal.Correction>
0.0427

> <Gold.Rescore>
     Score         DG    S(hbond)    S(metal)    S(lipo)     H(rot)  DE(clash)    DE(int)     intcor
     20.43     -20.80       0.99        0.00     147.78       2.06       0.17       0.20       ----

> <Gold.Chemscore.Fitness>
20.4323

> <Gold.Chemscore.DG>
-20.7978

> <Gold.Chemscore.ZeroCoef>
-5.4800

> <Gold.Chemscore.Hbond>
0.9864

> <Gold.Chemscore.Metal>
0.0000

> <Gold.Chemscore.Lipo>
147.7791

> <Gold.Chemscore.Internal_Hbond>
0.0000

> <Gold.Chemscore.DEClash>
0.1697

> <Gold.Chemscore.DEInternal>
0.1958

> <Gold.Chemscore.Rot>
2.0574

> <Gold.Chemscore.Internal.Correction>
   9.000000E+99

> <Gold.Chemscore.Hbonds>
donor molecule, donor type, donor heavy atom, donor atom, acceptor molecule, acceptor atom, score
      P1  H  7997  8008       L1     9  0.35

> <Gold.Chemscore.Hbond.Weighted>
-3.2945

> <Gold.Chemscore.Metal.Weighted>
-0.0000

> <Gold.Chemscore.Lipo.Weighted>
-17.2902

> <Gold.Chemscore.Internal_Hbond.Weighted>
0.0000

> <Gold.Chemscore.DEClash.Weighted>
0.1697

> <Gold.Chemscore.DEInternal.Weighted>
0.1958

> <Gold.Chemscore.Rot.Weighted>
5.2669

> <Gold.Chemscore.Internal.Correction.Weighted>
   9.000000E+99

> <Gold.Protein.RotatedTorsions>
[ 6907 6896 6895 6894 ] final  130.73 input  -60.11 | X-H torsion
[ 7974 7965 7964 7962 ] final  -95.37 input  175.53 | X-H torsion
[ 8008 7997 7996 7995 ] final  -24.15 input   59.86 | X-H torsion
[ 10167 10162 10161 10158 ] final   70.22 input  -65.29 | X-H torsion
[ 10718 10713 10712 10709 ] final   52.62 input   66.30 | X-H torsion
[ 10763 10752 10751 10750 ] final  162.72 input  -60.55 | X-H torsion
[ 11005 11000 10999 10996 ] final -111.25 input  -57.11 | X-H torsion

> <Gold.Protein.ActiveResidues>
 VAL166  LYS551  ARG553  GLY616  TRP617  ASP618  TYR619  PRO620  LYS621  CYS622 
 ASP623  PHE694  ASN695  SER759  ASP760  ASP761  ALA762  ILE779  LEU786  VAL792 
 PHE793  MET794  SER795  GLU796  ALA797  LYS798  CYS799  TRP800  GLU811  SER814 

> <Gold.Protein.RotatedAtoms>
  152.3497  133.6164  159.5935 H   0  0  0  0  0  0  0  0  0  0  0  0  # atno 6907 bound_to 6896
  150.7530  133.9594  159.3519 H   0  0  0  0  0  0  0  0  0  0  0  0  # atno 6908 bound_to 6896
  151.7447  135.0847  160.0372 H   0  0  0  0  0  0  0  0  0  0  0  0  # atno 6909 bound_to 6896
  145.3610  140.9491  143.2501 H   0  0  0  0  0  0  0  0  0  0  0  0  # atno 7974 bound_to 7965
  154.4545  140.1961  156.0420 H   0  0  0  0  0  0  0  0  0  0  0  0  # atno 8008 bound_to 7997
  156.0718  140.3283  155.7557 H   0  0  0  0  0  0  0  0  0  0  0  0  # atno 8009 bound_to 7997
  155.5251  140.0573  157.2890 H   0  0  0  0  0  0  0  0  0  0  0  0  # atno 8010 bound_to 7997
  140.0593  144.5246  150.7306 H   0  0  0  0  0  0  0  0  0  0  0  0  # atno 10167 bound_to 10162
  157.5091  130.8489  149.8413 H   0  0  0  0  0  0  0  0  0  0  0  0  # atno 10718 bound_to 10713
  154.2826  135.2763  155.2690 H   0  0  0  0  0  0  0  0  0  0  0  0  # atno 10763 bound_to 10752
  154.5204  135.5758  153.6680 H   0  0  0  0  0  0  0  0  0  0  0  0  # atno 10764 bound_to 10752
  152.9926  135.6203  154.2987 H   0  0  0  0  0  0  0  0  0  0  0  0  # atno 10765 bound_to 10752
  141.0745  133.9324  157.2418 H   0  0  0  0  0  0  0  0  0  0  0  0  # atno 11005 bound_to 11000
  144.8647  139.5126  143.6796 LP  0  0  0  0  0  0  0  0  0  0  0  0  # atno 17320 bound_to 7965
  146.2927  139.7187  142.9149 LP  0  0  0  0  0  0  0  0  0  0  0  0  # atno 17321 bound_to 7965
  140.7180  143.2562  151.4373 LP  0  0  0  0  0  0  0  0  0  0  0  0  # atno 17342 bound_to 10162
  139.5904  144.1512  152.2081 LP  0  0  0  0  0  0  0  0  0  0  0  0  # atno 17343 bound_to 10162
  156.0277  130.3774  150.1774 LP  0  0  0  0  0  0  0  0  0  0  0  0  # atno 17370 bound_to 10713
  156.9964  130.9909  151.3402 LP  0  0  0  0  0  0  0  0  0  0  0  0  # atno 17371 bound_to 10713
  139.9557  135.0166  156.9122 LP  0  0  0  0  0  0  0  0  0  0  0  0  # atno 17394 bound_to 11000
  140.5603  134.0541  155.7396 LP  0  0  0  0  0  0  0  0  0  0  0  0  # atno 17395 bound_to 11000

$$$$
