AV-unprocessed.smi:3337|AV-procd|sdf|12867|dock3
  -GOLD-   2272019263D 1   1.00000     0.00000
 Structure written by MMmdl.
 46 47  0  0  0  0  0  0  0  0  2 V2000
  144.5429  135.1593  150.4091 C   0  0  0  0  0  0  0  0  0  0  0  0
  145.5696  135.3867  151.5277 C   0  0  2  0  0  0  0  0  0  0  0  0
  145.3938  134.3683  152.6660 C   0  0  0  0  0  0  0  0  0  0  0  0
  146.4188  134.6233  153.7833 C   0  0  2  0  0  0  0  0  0  0  0  0
  146.2438  133.6301  154.9410 C   0  0  0  0  0  0  0  0  0  0  0  0
  146.3217  136.0811  154.2725 C   0  0  0  0  0  0  0  0  0  0  0  0
  146.4972  137.0454  153.1553 N   0  3  2  0  0  0  0  0  0  0  0  0
  146.5441  138.4488  153.6391 C   0  0  0  0  0  0  0  0  0  0  0  0
  147.7857  139.2126  153.1388 C   0  0  0  0  0  0  0  0  0  0  0  0
  149.0131  138.4913  153.4539 N   0  0  0  0  0  0  0  0  0  0  0  0
  150.0566  139.0062  154.1249 C   0  0  0  0  0  0  0  0  0  0  0  0
  150.0730  140.1649  154.5420 O   0  0  0  0  0  0  0  0  0  0  0  0
  151.2618  138.0733  154.3382 C   0  0  1  0  0  0  0  0  0  0  0  0
  152.5098  138.8103  154.8654 C   0  0  0  0  0  0  0  0  0  0  0  0
  150.8986  136.9468  155.1896 N   0  0  0  0  0  0  0  0  0  0  0  0
  150.5105  136.9258  156.4666 C   0  0  0  0  0  0  0  0  0  0  0  0
  150.2908  135.7083  156.9427 N   0  0  0  0  0  0  0  0  0  0  0  0
  150.5870  134.9717  155.8309 C   0  0  0  0  0  0  0  0  0  0  0  0
  150.9666  135.6632  154.7565 N   0  0  0  0  0  0  0  0  0  0  0  0
  145.4936  136.8236  152.0802 C   0  0  0  0  0  0  0  0  0  0  0  0
  143.5233  135.2868  150.7743 H   0  0  0  0  0  0  0  0  0  0  0  0
  144.6252  134.1522  149.9993 H   0  0  0  0  0  0  0  0  0  0  0  0
  144.6928  135.8609  149.5882 H   0  0  0  0  0  0  0  0  0  0  0  0
  146.5613  135.2432  151.0956 H   0  0  0  0  0  0  0  0  0  0  0  0
  144.3819  134.4347  153.0692 H   0  0  0  0  0  0  0  0  0  0  0  0
  145.5088  133.3546  152.2800 H   0  0  0  0  0  0  0  0  0  0  0  0
  147.4168  134.4720  153.3688 H   0  0  0  0  0  0  0  0  0  0  0  0
  145.2600  133.7261  155.4015 H   0  0  0  0  0  0  0  0  0  0  0  0
  146.9917  133.7940  155.7170 H   0  0  0  0  0  0  0  0  0  0  0  0
  146.3494  132.6014  154.5952 H   0  0  0  0  0  0  0  0  0  0  0  0
  145.3585  136.2569  154.7549 H   0  0  0  0  0  0  0  0  0  0  0  0
  147.0902  136.2555  155.0270 H   0  0  0  0  0  0  0  0  0  0  0  0
  145.6284  138.9691  153.3533 H   0  0  0  0  0  0  0  0  0  0  0  0
  146.5649  138.4421  154.7298 H   0  0  0  0  0  0  0  0  0  0  0  0
  147.7204  139.3908  152.0639 H   0  0  0  0  0  0  0  0  0  0  0  0
  147.8594  140.1910  153.6122 H   0  0  0  0  0  0  0  0  0  0  0  0
  149.0722  137.5306  153.1481 H   0  0  0  0  0  0  0  0  0  0  0  0
  151.5194  137.6644  153.3599 H   0  0  0  0  0  0  0  0  0  0  0  0
  152.8128  139.6091  154.1876 H   0  0  0  0  0  0  0  0  0  0  0  0
  153.3537  138.1262  154.9585 H   0  0  0  0  0  0  0  0  0  0  0  0
  152.3378  139.2557  155.8460 H   0  0  0  0  0  0  0  0  0  0  0  0
  150.3893  137.8192  157.0615 H   0  0  0  0  0  0  0  0  0  0  0  0
  150.5263  133.8933  155.8151 H   0  0  0  0  0  0  0  0  0  0  0  0
  145.6617  137.5208  151.2606 H   0  0  0  0  0  0  0  0  0  0  0  0
  144.4941  137.0285  152.4676 H   0  0  0  0  0  0  0  0  0  0  0  0
  147.4047  136.8507  152.7571 H   0  0  0  0  0  0  0  0  0  0  0  0
  1  2  1  0  0  0  0
  1 21  1  0  0  0  0
  1 22  1  0  0  0  0
  1 23  1  0  0  0  0
  2 20  1  0  0  0  0
  2  3  1  0  0  0  0
  2 24  1  0  0  0  0
  3  4  1  0  0  0  0
  3 25  1  0  0  0  0
  3 26  1  0  0  0  0
  4  5  1  0  0  0  0
  4  6  1  0  0  0  0
  4 27  1  0  0  0  0
  5 28  1  0  0  0  0
  5 29  1  0  0  0  0
  5 30  1  0  0  0  0
  6  7  1  0  0  0  0
  6 31  1  0  0  0  0
  6 32  1  0  0  0  0
  7  8  1  0  0  0  0
  7 20  1  0  0  0  0
  7 46  1  0  0  0  0
  8  9  1  0  0  0  0
  8 33  1  0  0  0  0
  8 34  1  0  0  0  0
  9 10  1  0  0  0  0
  9 35  1  0  0  0  0
  9 36  1  0  0  0  0
 10 11  1  0  0  0  0
 10 37  1  0  0  0  0
 11 12  2  0  0  0  0
 11 13  1  0  0  0  0
 13 14  1  0  0  0  0
 13 15  1  0  0  0  0
 13 38  1  0  0  0  0
 14 39  1  0  0  0  0
 14 40  1  0  0  0  0
 14 41  1  0  0  0  0
 15 19  1  0  0  0  0
 15 16  1  0  0  0  0
 16 17  2  0  0  0  0
 16 42  1  0  0  0  0
 17 18  1  0  0  0  0
 18 19  2  0  0  0  0
 18 43  1  0  0  0  0
 20 44  1  0  0  0  0
 20 45  1  0  0  0  0
M  CHG  1   7   1
M  END
> <s_m_source_file>
AV-unprocessed.smi

> <i_m_source_file_index>
3337

> <i_lp_mmshare_version>
43012

> <i_f3d_flags>
0

> <s_epik_input>
W0NIM11bQ0BASF0xW0NIMl1bQ0BASF0oW0NIM10pW0NIMl1OKFtDSDJdMSlbQ0gyXVtDSDJdW05IXUMoPU8pW0NASF0oW0NIM10pbjJbY0hdbltjSF1uMg==

> <s_epik_cmdline>
J2VwaWtfcHl0aG9uJywgJy1waCcsICc3LjAnLCAnLXRuJywgJzgnLCAnLW1hJywgJzIwMCcsICctbWV0YWxfYmluZGluZycsICctaW1hZScsICc8aW5maWxlLm1hZT4nLCAnLW9tYWUnLCAnPG91dGZpbGUubWFlPic=

> <r_lp_tautomer_probability>
1

> <r_epik_Ionization_Penalty>
0.00175613

> <r_epik_Ionization_Penalty_Charging>
0.00174812

> <r_epik_Ionization_Penalty_Neutral>
8.01354e-06

> <r_epik_State_Penalty>
0.00118332

> <r_epik_Charging_Adjusted_Penalty>
0.00293143

> <i_epik_Tot_Q>
1

> <i_epik_Tot_abs_Q>
1

> <r_epik_Metal_State_Penalty>
-0

> <b_epik_Metal_Only>
0

> <s_lp_Force_Field>
OPLS_2005

> <r_lp_Energy>
22.1533

> <b_lp_Chiralities_Consistent>
1

> <s_lp_Variant>
AV-unprocessed.smi:3337-7

> <Gold.Version>
5.8.1

> <Gold.Id.Protein>
6NUR|6NUR_protein|mol2

> <Gold.PLP.Fitness>
43.7055

> <Gold.PLP.PLP>
-30.5635

> <Gold.PLP.part.hbond>
-5.0000

> <Gold.PLP.part.metal>
0.0000

> <Gold.PLP.part.buried>
-2.1170

> <Gold.PLP.part.nonpolar>
-24.2168

> <Gold.PLP.part.repulsive>
0.3492

> <Gold.PLP.ligand.clash>
0.0000

> <Gold.PLP.ligand.torsion>
0.8722

> <Gold.PLP.Chemscore.Hbond>
4.9120

> <Gold.PLP.Chemscore.CHOScore>
0.0000

> <Gold.PLP.Chemscore.Metal>
0.0000

> <Gold.Chemscore.Hbonds>
donor molecule, donor type, donor heavy atom, donor atom, acceptor molecule, acceptor atom, score
      L1  H     7    46       P1  7948  2.00
      L1  H    10    37       P1  7948  1.00
      P1  H  7989  7998       L1    12  1.00
      P1  H 10752 10765       L1    19  0.83

> <Gold.PLP.Chemscore.Internal.Correction>
0.1504

> <Gold.Rescore>
     Score         DG    S(hbond)    S(metal)    S(lipo)     H(rot)  DE(clash)    DE(int)     intcor
     13.46     -14.56       2.84        0.00      51.40       2.51       0.02       1.07       ----

> <Gold.Chemscore.Fitness>
13.4625

> <Gold.Chemscore.DG>
-14.5552

> <Gold.Chemscore.ZeroCoef>
-5.4800

> <Gold.Chemscore.Hbond>
2.8427

> <Gold.Chemscore.Metal>
0.0000

> <Gold.Chemscore.Lipo>
51.4002

> <Gold.Chemscore.Internal_Hbond>
0.0000

> <Gold.Chemscore.DEClash>
0.0234

> <Gold.Chemscore.DEInternal>
1.0693

> <Gold.Chemscore.Rot>
2.5129

> <Gold.Chemscore.Internal.Correction>
   9.000000E+99

> <Gold.Chemscore.Hbonds>
donor molecule, donor type, donor heavy atom, donor atom, acceptor molecule, acceptor atom, score
      L1  H     7    46       P1  7948  1.00
      L1  H    10    37       P1  7948  0.96
      P1  H  7989  7998       L1    12  0.24
      P1  H 10752 10765       L1    19  0.15

> <Gold.Chemscore.Hbond.Weighted>
-9.4945

> <Gold.Chemscore.Metal.Weighted>
-0.0000

> <Gold.Chemscore.Lipo.Weighted>
-6.0138

> <Gold.Chemscore.Internal_Hbond.Weighted>
0.0000

> <Gold.Chemscore.DEClash.Weighted>
0.0234

> <Gold.Chemscore.DEInternal.Weighted>
1.0693

> <Gold.Chemscore.Rot.Weighted>
6.4331

> <Gold.Chemscore.Internal.Correction.Weighted>
   9.000000E+99

> <Gold.Protein.RotatedTorsions>
[ 6907 6896 6895 6894 ] final    9.10 input  -60.11 | X-H torsion
[ 7974 7965 7964 7962 ] final -122.44 input  175.53 | X-H torsion
[ 8008 7997 7996 7995 ] final -151.49 input   59.86 | X-H torsion
[ 10167 10162 10161 10158 ] final   20.45 input  -65.29 | X-H torsion
[ 10718 10713 10712 10709 ] final  -13.00 input   66.30 | X-H torsion
[ 10763 10752 10751 10750 ] final  159.19 input  -60.55 | X-H torsion
[ 11005 11000 10999 10996 ] final   42.27 input  -57.11 | X-H torsion

> <Gold.Protein.ActiveResidues>
 VAL166  LYS551  ARG553  GLY616  TRP617  ASP618  TYR619  PRO620  LYS621  CYS622 
 ASP623  PHE694  ASN695  SER759  ASP760  ASP761  ALA762  ILE779  LEU786  VAL792 
 PHE793  MET794  SER795  GLU796  ALA797  LYS798  CYS799  TRP800  GLU811  SER814 

> <Gold.Protein.RotatedAtoms>
  151.7167  135.0902  160.0276 H   0  0  0  0  0  0  0  0  0  0  0  0  # atno 6907 bound_to 6896
  152.3627  133.6313  159.6036 H   0  0  0  0  0  0  0  0  0  0  0  0  # atno 6908 bound_to 6896
  150.7616  133.9313  159.3469 H   0  0  0  0  0  0  0  0  0  0  0  0  # atno 6909 bound_to 6896
  145.0295  140.8055  143.4332 H   0  0  0  0  0  0  0  0  0  0  0  0  # atno 7974 bound_to 7965
  155.6402  140.0701  157.2621 H   0  0  0  0  0  0  0  0  0  0  0  0  # atno 8008 bound_to 7997
  154.4185  140.1752  156.1614 H   0  0  0  0  0  0  0  0  0  0  0  0  # atno 8009 bound_to 7997
  155.9862  140.3349  155.6712 H   0  0  0  0  0  0  0  0  0  0  0  0  # atno 8010 bound_to 7997
  140.5502  143.9522  150.6573 H   0  0  0  0  0  0  0  0  0  0  0  0  # atno 10167 bound_to 10162
  156.6365  130.4916  149.6110 H   0  0  0  0  0  0  0  0  0  0  0  0  # atno 10718 bound_to 10713
  154.2279  135.2779  155.2900 H   0  0  0  0  0  0  0  0  0  0  0  0  # atno 10763 bound_to 10752
  154.5648  135.5636  153.7043 H   0  0  0  0  0  0  0  0  0  0  0  0  # atno 10764 bound_to 10752
  153.0027  135.6306  154.2421 H   0  0  0  0  0  0  0  0  0  0  0  0  # atno 10765 bound_to 10752
  140.1755  134.4169  155.8231 H   0  0  0  0  0  0  0  0  0  0  0  0  # atno 11005 bound_to 11000
  145.1790  139.2362  143.5302 LP  0  0  0  0  0  0  0  0  0  0  0  0  # atno 17320 bound_to 7965
  146.3496  140.1559  142.8591 LP  0  0  0  0  0  0  0  0  0  0  0  0  # atno 17321 bound_to 7965
  140.2946  143.3301  152.1030 LP  0  0  0  0  0  0  0  0  0  0  0  0  # atno 17342 bound_to 10162
  139.5024  144.6734  151.6187 LP  0  0  0  0  0  0  0  0  0  0  0  0  # atno 17343 bound_to 10162
  156.2193  130.6727  151.1351 LP  0  0  0  0  0  0  0  0  0  0  0  0  # atno 17370 bound_to 10713
  157.7184  131.0696  150.6235 LP  0  0  0  0  0  0  0  0  0  0  0  0  # atno 17371 bound_to 10713
  141.2220  133.6976  156.7838 LP  0  0  0  0  0  0  0  0  0  0  0  0  # atno 17394 bound_to 11000
  140.2328  134.8673  157.3494 LP  0  0  0  0  0  0  0  0  0  0  0  0  # atno 17395 bound_to 11000

$$$$
