AV-unprocessed.smi:2163|AV-procd|sdf|8806|dock5
  -GOLD-   2272011593D 1   1.00000     0.00000
 Structure written by MMmdl.
 44 46  0  0  0  0  0  0  0  0  2 V2000
  149.7619  140.8579  155.7571 C   0  0  0  0  0  0  0  0  0  0  0  0
  150.5053  141.5510  156.8489 C   0  0  0  0  0  0  0  0  0  0  0  0
  150.6016  142.8990  157.0226 N   0  3  0  0  0  0  0  0  0  0  0  0
  151.3748  143.1756  158.1509 C   0  0  0  0  0  0  0  0  0  0  0  0
  151.7468  144.3875  158.7242 C   0  0  0  0  0  0  0  0  0  0  0  0
  152.5441  144.3198  159.8853 C   0  0  0  0  0  0  0  0  0  0  0  0
  152.9414  143.0823  160.4319 C   0  0  0  0  0  0  0  0  0  0  0  0
  152.5596  141.8600  159.8405 C   0  0  0  0  0  0  0  0  0  0  0  0
  151.7707  141.9349  158.6925 C   0  0  0  0  0  0  0  0  0  0  0  0
  151.2112  140.9614  157.8557 N   0  0  0  0  0  0  0  0  0  0  0  0
  151.4300  139.5354  158.1436 C   0  0  0  0  0  0  0  0  0  0  0  0
  152.9144  139.1302  158.0394 C   0  0  2  0  0  0  0  0  0  0  0  0
  153.3637  139.1180  156.6993 O   0  0  0  0  0  0  0  0  0  0  0  0
  153.2317  137.7753  158.6924 C   0  0  0  0  0  0  0  0  0  0  0  0
  153.1371  137.8846  160.1076 O   0  0  0  0  0  0  0  0  0  0  0  0
  153.6920  136.8858  160.8787 C   0  0  0  0  0  0  0  0  0  0  0  0
  154.3392  135.7387  160.3534 C   0  0  0  0  0  0  0  0  0  0  0  0
  154.8792  134.7657  161.2169 C   0  0  0  0  0  0  0  0  0  0  0  0
  154.7818  134.9227  162.6134 C   0  0  0  0  0  0  0  0  0  0  0  0
  155.3648  133.8762  163.5405 C   0  0  0  0  0  0  0  0  0  0  0  0
  154.3209  133.1462  164.2757 C   0  0  0  0  0  0  0  0  0  0  0  0
  153.4999  132.5718  164.8543 N   0  0  0  0  0  0  0  0  0  0  0  0
  154.1409  136.0600  163.1423 C   0  0  0  0  0  0  0  0  0  0  0  0
  153.6008  137.0320  162.2782 C   0  0  0  0  0  0  0  0  0  0  0  0
  149.2830  141.5832  155.0988 H   0  0  0  0  0  0  0  0  0  0  0  0
  148.9922  140.2105  156.1772 H   0  0  0  0  0  0  0  0  0  0  0  0
  150.4448  140.2494  155.1640 H   0  0  0  0  0  0  0  0  0  0  0  0
  151.4425  145.3366  158.3079 H   0  0  0  0  0  0  0  0  0  0  0  0
  152.8560  145.2353  160.3671 H   0  0  0  0  0  0  0  0  0  0  0  0
  153.5509  143.0699  161.3239 H   0  0  0  0  0  0  0  0  0  0  0  0
  152.8677  140.9188  160.2710 H   0  0  0  0  0  0  0  0  0  0  0  0
  151.0676  139.3513  159.1555 H   0  0  0  0  0  0  0  0  0  0  0  0
  150.8010  138.9360  157.4852 H   0  0  0  0  0  0  0  0  0  0  0  0
  153.5135  139.8871  158.5468 H   0  0  0  0  0  0  0  0  0  0  0  0
  153.7219  138.2639  156.5117 H   0  0  0  0  0  0  0  0  0  0  0  0
  152.5604  137.0037  158.3111 H   0  0  0  0  0  0  0  0  0  0  0  0
  154.2508  137.4898  158.4257 H   0  0  0  0  0  0  0  0  0  0  0  0
  154.4351  135.5802  159.2900 H   0  0  0  0  0  0  0  0  0  0  0  0
  155.3703  133.8974  160.8027 H   0  0  0  0  0  0  0  0  0  0  0  0
  155.9528  133.1569  162.9701 H   0  0  0  0  0  0  0  0  0  0  0  0
  156.0325  134.3445  164.2642 H   0  0  0  0  0  0  0  0  0  0  0  0
  154.0629  136.1903  164.2117 H   0  0  0  0  0  0  0  0  0  0  0  0
  153.1119  137.9006  162.6944 H   0  0  0  0  0  0  0  0  0  0  0  0
  150.1667  143.5790  156.4125 H   0  0  0  0  0  0  0  0  0  0  0  0
  1  2  1  0  0  0  0
  1 25  1  0  0  0  0
  1 26  1  0  0  0  0
  1 27  1  0  0  0  0
  2 10  1  0  0  0  0
  2  3  2  0  0  0  0
  3  4  1  0  0  0  0
  3 44  1  0  0  0  0
  4  9  2  0  0  0  0
  4  5  1  0  0  0  0
  5  6  2  0  0  0  0
  5 28  1  0  0  0  0
  6  7  1  0  0  0  0
  6 29  1  0  0  0  0
  7  8  2  0  0  0  0
  7 30  1  0  0  0  0
  8  9  1  0  0  0  0
  8 31  1  0  0  0  0
  9 10  1  0  0  0  0
 10 11  1  0  0  0  0
 11 12  1  0  0  0  0
 11 32  1  0  0  0  0
 11 33  1  0  0  0  0
 12 13  1  0  0  0  0
 12 14  1  0  0  0  0
 12 34  1  0  0  0  0
 13 35  1  0  0  0  0
 14 15  1  0  0  0  0
 14 36  1  0  0  0  0
 14 37  1  0  0  0  0
 15 16  1  0  0  0  0
 16 24  1  0  0  0  0
 16 17  2  0  0  0  0
 17 18  1  0  0  0  0
 17 38  1  0  0  0  0
 18 19  2  0  0  0  0
 18 39  1  0  0  0  0
 19 20  1  0  0  0  0
 19 23  1  0  0  0  0
 20 21  1  0  0  0  0
 20 40  1  0  0  0  0
 20 41  1  0  0  0  0
 21 22  3  0  0  0  0
 23 24  2  0  0  0  0
 23 42  1  0  0  0  0
 24 43  1  0  0  0  0
M  CHG  1   3   1
M  END
> <s_m_source_file>
AV-unprocessed.smi

> <i_m_source_file_index>
2163

> <i_lp_mmshare_version>
43012

> <i_f3d_flags>
0

> <s_epik_input>
W2NIXTFbY0hdW2NIXVtjSF1jKGMxMiluKGMobjIpW0NIM10pW0NIMl1bQ0BIXShbT0hdKVtDSDJdT2MzW2NIXVtjSF1jKFtDSDJdQyNOKVtjSF1bY0hdMw==

> <s_epik_cmdline>
J2VwaWtfcHl0aG9uJywgJy1waCcsICc3LjAnLCAnLXRuJywgJzgnLCAnLW1hJywgJzIwMCcsICctbWV0YWxfYmluZGluZycsICctaW1hZScsICc8aW5maWxlLm1hZT4nLCAnLW9tYWUnLCAnPG91dGZpbGUubWFlPic=

> <r_lp_tautomer_probability>
1

> <r_epik_Ionization_Penalty>
1.03158

> <r_epik_Ionization_Penalty_Charging>
1.03158

> <r_epik_Ionization_Penalty_Neutral>
2.3994e-06

> <r_epik_State_Penalty>
1.08278

> <r_epik_Charging_Adjusted_Penalty>
2.11436

> <i_epik_Tot_Q>
1

> <i_epik_Tot_abs_Q>
1

> <r_epik_Metal_State_Penalty>
5.07177

> <b_epik_Metal_Only>
0

> <s_lp_Force_Field>
OPLS_2005

> <r_lp_Energy>
21.0912

> <b_lp_Chiralities_Consistent>
1

> <s_lp_Variant>
AV-unprocessed.smi:2163-3

> <Gold.Version>
5.8.1

> <Gold.Id.Protein>
6NUR|6NUR_protein|mol2

> <Gold.PLP.Fitness>
58.2469

> <Gold.PLP.PLP>
-49.7499

> <Gold.PLP.part.hbond>
-1.7711

> <Gold.PLP.part.metal>
0.0000

> <Gold.PLP.part.buried>
-6.4184

> <Gold.PLP.part.nonpolar>
-42.1092

> <Gold.PLP.part.repulsive>
0.1699

> <Gold.PLP.ligand.clash>
0.0000

> <Gold.PLP.ligand.torsion>
0.3167

> <Gold.PLP.Chemscore.Hbond>
3.0000

> <Gold.PLP.Chemscore.CHOScore>
0.0000

> <Gold.PLP.Chemscore.Metal>
0.0000

> <Gold.Chemscore.Hbonds>
donor molecule, donor type, donor heavy atom, donor atom, acceptor molecule, acceptor atom, score
      L1  H     3    44       P1  8028  2.00
      P1  H  7997  8010       L1    13  0.73

> <Gold.PLP.Chemscore.Internal.Correction>
0.1304

> <Gold.Rescore>
     Score         DG    S(hbond)    S(metal)    S(lipo)     H(rot)  DE(clash)    DE(int)     intcor
     19.95     -20.23       1.73        0.00     133.74       2.60       0.05       0.23       ----

> <Gold.Chemscore.Fitness>
19.9501

> <Gold.Chemscore.DG>
-20.2329

> <Gold.Chemscore.ZeroCoef>
-5.4800

> <Gold.Chemscore.Hbond>
1.7282

> <Gold.Chemscore.Metal>
0.0000

> <Gold.Chemscore.Lipo>
133.7389

> <Gold.Chemscore.Internal_Hbond>
0.0000

> <Gold.Chemscore.DEClash>
0.0515

> <Gold.Chemscore.DEInternal>
0.2314

> <Gold.Chemscore.Rot>
2.6041

> <Gold.Chemscore.Internal.Correction>
   9.000000E+99

> <Gold.Chemscore.Hbonds>
donor molecule, donor type, donor heavy atom, donor atom, acceptor molecule, acceptor atom, score
      L1  H     3    44       P1  8028  1.00
      P1  H  7997  8010       L1    13  0.42

> <Gold.Chemscore.Hbond.Weighted>
-5.7720

> <Gold.Chemscore.Metal.Weighted>
-0.0000

> <Gold.Chemscore.Lipo.Weighted>
-15.6474

> <Gold.Chemscore.Internal_Hbond.Weighted>
0.0000

> <Gold.Chemscore.DEClash.Weighted>
0.0515

> <Gold.Chemscore.DEInternal.Weighted>
0.2314

> <Gold.Chemscore.Rot.Weighted>
6.6665

> <Gold.Chemscore.Internal.Correction.Weighted>
   9.000000E+99

> <Gold.Protein.RotatedTorsions>
[ 6907 6896 6895 6894 ] final  -44.74 input  -60.11 | X-H torsion
[ 7974 7965 7964 7962 ] final  169.31 input  175.53 | X-H torsion
[ 8008 7997 7996 7995 ] final   75.53 input   59.86 | X-H torsion
[ 10167 10162 10161 10158 ] final   31.46 input  -65.29 | X-H torsion
[ 10718 10713 10712 10709 ] final  158.40 input   66.30 | X-H torsion
[ 10763 10752 10751 10750 ] final -119.36 input  -60.55 | X-H torsion
[ 11005 11000 10999 10996 ] final  -56.42 input  -57.11 | X-H torsion

> <Gold.Protein.ActiveResidues>
 VAL166  LYS551  ARG553  GLY616  TRP617  ASP618  TYR619  PRO620  LYS621  CYS622 
 ASP623  PHE694  ASN695  SER759  ASP760  ASP761  ALA762  ILE779  LEU786  VAL792 
 PHE793  MET794  SER795  GLU796  ALA797  LYS798  CYS799  TRP800  GLU811  SER814 

> <Gold.Protein.RotatedAtoms>
  150.9295  134.8711  159.7541 H   0  0  0  0  0  0  0  0  0  0  0  0  # atno 6907 bound_to 6896
  152.5031  134.4099  159.9455 H   0  0  0  0  0  0  0  0  0  0  0  0  # atno 6908 bound_to 6896
  151.4127  133.3682  159.2781 H   0  0  0  0  0  0  0  0  0  0  0  0  # atno 6909 bound_to 6896
  144.7359  139.9035  143.6411 H   0  0  0  0  0  0  0  0  0  0  0  0  # atno 7974 bound_to 7965
  155.8142  140.3472  155.5476 H   0  0  0  0  0  0  0  0  0  0  0  0  # atno 8008 bound_to 7997
  155.8409  140.0941  157.1755 H   0  0  0  0  0  0  0  0  0  0  0  0  # atno 8009 bound_to 7997
  154.4005  140.1394  156.3715 H   0  0  0  0  0  0  0  0  0  0  0  0  # atno 8010 bound_to 7997
  140.4586  144.0940  150.6207 H   0  0  0  0  0  0  0  0  0  0  0  0  # atno 10167 bound_to 10162
  157.1784  131.0626  151.2145 H   0  0  0  0  0  0  0  0  0  0  0  0  # atno 10718 bound_to 10713
  154.8615  135.4241  154.2286 H   0  0  0  0  0  0  0  0  0  0  0  0  # atno 10763 bound_to 10752
  153.3276  135.6986  153.6982 H   0  0  0  0  0  0  0  0  0  0  0  0  # atno 10764 bound_to 10752
  153.6011  135.3536  155.2919 H   0  0  0  0  0  0  0  0  0  0  0  0  # atno 10765 bound_to 10752
  141.1119  133.6610  156.4617 H   0  0  0  0  0  0  0  0  0  0  0  0  # atno 11005 bound_to 11000
  146.1054  139.4053  143.0321 LP  0  0  0  0  0  0  0  0  0  0  0  0  # atno 17320 bound_to 7965
  145.7519  140.9969  143.1246 LP  0  0  0  0  0  0  0  0  0  0  0  0  # atno 17321 bound_to 7965
  140.4121  143.2652  151.9820 LP  0  0  0  0  0  0  0  0  0  0  0  0  # atno 17342 bound_to 10162
  139.4804  144.5906  151.7777 LP  0  0  0  0  0  0  0  0  0  0  0  0  # atno 17343 bound_to 10162
  157.3976  130.7316  149.6743 LP  0  0  0  0  0  0  0  0  0  0  0  0  # atno 17370 bound_to 10713
  155.9728  130.4129  150.4057 LP  0  0  0  0  0  0  0  0  0  0  0  0  # atno 17371 bound_to 10713
  140.4751  134.6717  157.5146 LP  0  0  0  0  0  0  0  0  0  0  0  0  # atno 17394 bound_to 11000
  140.0018  134.6824  155.9518 LP  0  0  0  0  0  0  0  0  0  0  0  0  # atno 17395 bound_to 11000

$$$$
