AV-unprocessed.smi:1248|AV-procd|sdf|5250|dock5
  -GOLD-   22720 4363D 1   1.00000     0.00000
 Structure written by MMmdl.
 44 46  0  0  0  0  0  0  0  0  2 V2000
  152.6121  142.8163  160.0187 C   0  0  0  0  0  0  0  0  0  0  0  0
  152.2439  143.3011  158.6117 C   0  0  0  0  0  0  0  0  0  0  0  0
  151.6772  142.2363  157.8075 N   0  0  0  0  0  0  0  0  0  0  0  0
  150.9806  142.3412  156.6201 C   0  0  0  0  0  0  0  0  0  0  0  0
  150.6608  141.0659  156.2634 C   0  0  0  0  0  0  0  0  0  0  0  0
  149.9367  140.7097  155.0986 N   0  0  0  0  0  0  0  0  0  0  0  0
  148.8228  139.9631  155.0325 C   0  0  0  0  0  0  0  0  0  0  0  0
  148.2550  139.4497  155.9964 O   0  0  0  0  0  0  0  0  0  0  0  0
  148.3905  139.8428  153.7691 N   0  0  0  0  0  0  0  0  0  0  0  0
  147.2031  139.1013  153.3549 C   0  0  2  0  0  0  0  0  0  0  0  0
  147.2174  137.6998  153.9880 C   0  0  0  0  0  0  0  0  0  0  0  0
  146.0309  136.8545  153.4953 C   0  0  0  0  0  0  0  0  0  0  0  0
  146.0234  136.7608  152.0144 N   0  3  1  0  0  0  0  0  0  0  0  0
  144.9660  135.8536  151.5179 C   0  0  0  0  0  0  0  0  0  0  0  0
  144.9844  134.4891  152.1664 C   0  0  0  0  0  0  0  0  0  0  0  0
  145.4963  134.6629  150.7538 C   0  0  0  0  0  0  0  0  0  0  0  0
  145.9564  138.1005  151.3804 C   0  0  0  0  0  0  0  0  0  0  0  0
  147.1407  138.9771  151.8203 C   0  0  0  0  0  0  0  0  0  0  0  0
  151.1983  140.2304  157.2832 C   0  0  0  0  0  0  0  0  0  0  0  0
  151.8100  140.9492  158.2124 N   0  0  0  0  0  0  0  0  0  0  0  0
  153.0387  143.6277  160.6083 H   0  0  0  0  0  0  0  0  0  0  0  0
  153.3467  142.0118  159.9774 H   0  0  0  0  0  0  0  0  0  0  0  0
  151.7360  142.4444  160.5509 H   0  0  0  0  0  0  0  0  0  0  0  0
  151.5249  144.1194  158.6673 H   0  0  0  0  0  0  0  0  0  0  0  0
  153.1275  143.6895  158.1043 H   0  0  0  0  0  0  0  0  0  0  0  0
  150.7792  143.2907  156.1464 H   0  0  0  0  0  0  0  0  0  0  0  0
  150.2991  141.0692  154.2278 H   0  0  0  0  0  0  0  0  0  0  0  0
  148.9217  140.2983  153.0411 H   0  0  0  0  0  0  0  0  0  0  0  0
  146.3132  139.6275  153.7068 H   0  0  0  0  0  0  0  0  0  0  0  0
  148.1502  137.1894  153.7428 H   0  0  0  0  0  0  0  0  0  0  0  0
  147.1853  137.7801  155.0752 H   0  0  0  0  0  0  0  0  0  0  0  0
  146.0939  135.8542  153.9252 H   0  0  0  0  0  0  0  0  0  0  0  0
  145.0903  137.2881  153.8392 H   0  0  0  0  0  0  0  0  0  0  0  0
  144.0241  136.3186  151.2318 H   0  0  0  0  0  0  0  0  0  0  0  0
  145.7198  134.2976  152.9461 H   0  0  0  0  0  0  0  0  0  0  0  0
  144.0316  133.9787  152.2913 H   0  0  0  0  0  0  0  0  0  0  0  0
  144.8801  134.2686  149.9483 H   0  0  0  0  0  0  0  0  0  0  0  0
  146.5708  134.5879  150.5962 H   0  0  0  0  0  0  0  0  0  0  0  0
  145.9666  137.9936  150.2951 H   0  0  0  0  0  0  0  0  0  0  0  0
  145.0133  138.5828  151.6419 H   0  0  0  0  0  0  0  0  0  0  0  0
  147.0534  139.9638  151.3635 H   0  0  0  0  0  0  0  0  0  0  0  0
  148.0696  138.5447  151.4453 H   0  0  0  0  0  0  0  0  0  0  0  0
  151.1717  139.1562  157.3876 H   0  0  0  0  0  0  0  0  0  0  0  0
  146.9060  136.3525  151.7416 H   0  0  0  0  0  0  0  0  0  0  0  0
  1  2  1  0  0  0  0
  1 21  1  0  0  0  0
  1 22  1  0  0  0  0
  1 23  1  0  0  0  0
  2  3  1  0  0  0  0
  2 24  1  0  0  0  0
  2 25  1  0  0  0  0
  3 20  1  0  0  0  0
  3  4  1  0  0  0  0
  4  5  2  0  0  0  0
  4 26  1  0  0  0  0
  5  6  1  0  0  0  0
  5 19  1  0  0  0  0
  6  7  1  0  0  0  0
  6 27  1  0  0  0  0
  7  8  2  0  0  0  0
  7  9  1  0  0  0  0
  9 10  1  0  0  0  0
  9 28  1  0  0  0  0
 10 18  1  0  0  0  0
 10 11  1  0  0  0  0
 10 29  1  0  0  0  0
 11 12  1  0  0  0  0
 11 30  1  0  0  0  0
 11 31  1  0  0  0  0
 12 13  1  0  0  0  0
 12 32  1  0  0  0  0
 12 33  1  0  0  0  0
 13 14  1  0  0  0  0
 13 17  1  0  0  0  0
 13 44  1  0  0  0  0
 14 16  1  0  0  0  0
 14 15  1  0  0  0  0
 14 34  1  0  0  0  0
 15 16  1  0  0  0  0
 15 35  1  0  0  0  0
 15 36  1  0  0  0  0
 16 37  1  0  0  0  0
 16 38  1  0  0  0  0
 17 18  1  0  0  0  0
 17 39  1  0  0  0  0
 17 40  1  0  0  0  0
 18 41  1  0  0  0  0
 18 42  1  0  0  0  0
 19 20  2  0  0  0  0
 19 43  1  0  0  0  0
M  CHG  1  13   1
M  END
> <s_m_source_file>
AV-unprocessed.smi

> <i_m_source_file_index>
1248

> <i_lp_mmshare_version>
43012

> <i_f3d_flags>
0

> <s_epik_input>
W0NIM11bQ0gyXW4xW2NIXWMoW2NIXW4xKVtOSF1DKD1PKVtOSF1bQ0hdMltDSDJdW0NIMl1OKFtDSDJdW0NIMl0yKVtDSF0zW0NIMl1bQ0gyXTM=

> <s_epik_cmdline>
J2VwaWtfcHl0aG9uJywgJy1waCcsICc3LjAnLCAnLXRuJywgJzgnLCAnLW1hJywgJzIwMCcsICctbWV0YWxfYmluZGluZycsICctaW1hZScsICc8aW5maWxlLm1hZT4nLCAnLW9tYWUnLCAnPG91dGZpbGUubWFlPic=

> <r_lp_tautomer_probability>
1

> <r_epik_Ionization_Penalty>
0.115699

> <r_epik_Ionization_Penalty_Charging>
0.115549

> <r_epik_Ionization_Penalty_Neutral>
0.00014958

> <r_epik_State_Penalty>
0.105184

> <r_epik_Charging_Adjusted_Penalty>
0.220733

> <i_epik_Tot_Q>
1

> <i_epik_Tot_abs_Q>
1

> <r_epik_Metal_State_Penalty>
0.105189

> <b_epik_Metal_Only>
0

> <s_lp_Force_Field>
OPLS_2005

> <r_lp_Energy>
30.1422

> <b_lp_Chiralities_Consistent>
1

> <s_lp_Variant>
AV-unprocessed.smi:1248-1

> <Gold.Version>
5.8.1

> <Gold.Id.Protein>
6NUR|6NUR_protein|mol2

> <Gold.PLP.Fitness>
41.4433

> <Gold.PLP.PLP>
-31.7064

> <Gold.PLP.part.hbond>
-2.0000

> <Gold.PLP.part.metal>
0.0000

> <Gold.PLP.part.buried>
3.5422

> <Gold.PLP.part.nonpolar>
-33.7625

> <Gold.PLP.part.repulsive>
0.3599

> <Gold.PLP.ligand.clash>
0.0000

> <Gold.PLP.ligand.torsion>
1.5364

> <Gold.PLP.Chemscore.Hbond>
2.8480

> <Gold.PLP.Chemscore.CHOScore>
1.0000

> <Gold.PLP.Chemscore.Metal>
0.0000

> <Gold.Chemscore.Hbonds>
donor molecule, donor type, donor heavy atom, donor atom, acceptor molecule, acceptor atom, score
      L1  H     9    28       P1  7957  0.85
      L1  H    13    44       P1  7948  2.00
      L1  C     4    26       P1  8028  1.00

> <Gold.PLP.Chemscore.Internal.Correction>
1.2658

> <Gold.Rescore>
     Score         DG    S(hbond)    S(metal)    S(lipo)     H(rot)  DE(clash)    DE(int)     intcor
     13.00     -19.04       1.74        0.00      95.71       1.34       3.20       2.85       ----

> <Gold.Chemscore.Fitness>
12.9961

> <Gold.Chemscore.DG>
-19.0439

> <Gold.Chemscore.ZeroCoef>
-5.4800

> <Gold.Chemscore.Hbond>
1.7382

> <Gold.Chemscore.Metal>
0.0000

> <Gold.Chemscore.Lipo>
95.7135

> <Gold.Chemscore.Internal_Hbond>
0.0000

> <Gold.Chemscore.DEClash>
3.1951

> <Gold.Chemscore.DEInternal>
2.8527

> <Gold.Chemscore.Rot>
1.3438

> <Gold.Chemscore.Internal.Correction>
   9.000000E+99

> <Gold.Chemscore.Hbonds>
donor molecule, donor type, donor heavy atom, donor atom, acceptor molecule, acceptor atom, score
      L1  H     9    28       P1  7957  0.80
      L1  H    13    44       P1  7948  0.91

> <Gold.Chemscore.Hbond.Weighted>
-5.8055

> <Gold.Chemscore.Metal.Weighted>
-0.0000

> <Gold.Chemscore.Lipo.Weighted>
-11.1985

> <Gold.Chemscore.Internal_Hbond.Weighted>
0.0000

> <Gold.Chemscore.DEClash.Weighted>
3.1951

> <Gold.Chemscore.DEInternal.Weighted>
2.8527

> <Gold.Chemscore.Rot.Weighted>
3.4401

> <Gold.Chemscore.Internal.Correction.Weighted>
   9.000000E+99

> <Gold.Protein.RotatedTorsions>
[ 6907 6896 6895 6894 ] final  177.61 input  -60.11 | X-H torsion
[ 7974 7965 7964 7962 ] final -147.82 input  175.53 | X-H torsion
[ 8008 7997 7996 7995 ] final  123.18 input   59.86 | X-H torsion
[ 10167 10162 10161 10158 ] final  152.88 input  -65.29 | X-H torsion
[ 10718 10713 10712 10709 ] final  -55.51 input   66.30 | X-H torsion
[ 10763 10752 10751 10750 ] final  142.36 input  -60.55 | X-H torsion
[ 11005 11000 10999 10996 ] final -136.25 input  -57.11 | X-H torsion

> <Gold.Protein.ActiveResidues>
 VAL166  LYS551  ARG553  GLY616  TRP617  ASP618  TYR619  PRO620  LYS621  CYS622 
 ASP623  PHE694  ASN695  SER759  ASP760  ASP761  ALA762  ILE779  LEU786  VAL792 
 PHE793  MET794  SER795  GLU796  ALA797  LYS798  CYS799  TRP800  GLU811  SER814 

> <Gold.Protein.RotatedAtoms>
  151.7012  133.3311  159.3266 H   0  0  0  0  0  0  0  0  0  0  0  0  # atno 6907 bound_to 6896
  150.7735  134.6614  159.6351 H   0  0  0  0  0  0  0  0  0  0  0  0  # atno 6908 bound_to 6896
  152.3768  134.6653  160.0209 H   0  0  0  0  0  0  0  0  0  0  0  0  # atno 6909 bound_to 6896
  144.8068  140.5277  143.5669 H   0  0  0  0  0  0  0  0  0  0  0  0  # atno 7974 bound_to 7965
  156.2756  140.2769  156.1587 H   0  0  0  0  0  0  0  0  0  0  0  0  # atno 8008 bound_to 7997
  155.0777  140.0387  157.2647 H   0  0  0  0  0  0  0  0  0  0  0  0  # atno 8009 bound_to 7997
  154.6989  140.2645  155.6744 H   0  0  0  0  0  0  0  0  0  0  0  0  # atno 8010 bound_to 7997
  139.4830  144.5321  151.7706 H   0  0  0  0  0  0  0  0  0  0  0  0  # atno 10167 bound_to 10162
  156.1363  130.4156  150.0181 H   0  0  0  0  0  0  0  0  0  0  0  0  # atno 10718 bound_to 10713
  153.9546  135.2966  155.3437 H   0  0  0  0  0  0  0  0  0  0  0  0  # atno 10763 bound_to 10752
  154.7408  135.5025  153.9122 H   0  0  0  0  0  0  0  0  0  0  0  0  # atno 10764 bound_to 10752
  153.0977  135.6725  153.9841 H   0  0  0  0  0  0  0  0  0  0  0  0  # atno 10765 bound_to 10752
  140.8822  134.1917  157.4583 H   0  0  0  0  0  0  0  0  0  0  0  0  # atno 11005 bound_to 11000
  145.5418  139.1475  143.3443 LP  0  0  0  0  0  0  0  0  0  0  0  0  # atno 17320 bound_to 7965
  146.2361  140.5557  142.8954 LP  0  0  0  0  0  0  0  0  0  0  0  0  # atno 17321 bound_to 7965
  140.4848  144.1396  150.5939 LP  0  0  0  0  0  0  0  0  0  0  0  0  # atno 17342 bound_to 10162
  140.4237  143.2600  151.9683 LP  0  0  0  0  0  0  0  0  0  0  0  0  # atno 17343 bound_to 10162
  156.8079  130.9314  151.3645 LP  0  0  0  0  0  0  0  0  0  0  0  0  # atno 17370 bound_to 10713
  157.6535  130.8904  149.9681 LP  0  0  0  0  0  0  0  0  0  0  0  0  # atno 17371 bound_to 10713
  139.8721  134.9822  156.5148 LP  0  0  0  0  0  0  0  0  0  0  0  0  # atno 17394 bound_to 11000
  140.8447  133.8178  155.9109 LP  0  0  0  0  0  0  0  0  0  0  0  0  # atno 17395 bound_to 11000

$$$$
