AV-unprocessed.smi:1492|AV-procd|sdf|6044|dock2
  -GOLD-   22720 6153D 1   1.00000     0.00000
 Structure written by MMmdl.
 51 52  0  0  0  0  0  0  0  0  2 V2000
  152.0931  145.5066  158.8980 C   0  0  0  0  0  0  0  0  0  0  0  0
  152.2324  144.2325  158.0474 C   0  0  0  0  0  0  0  0  0  0  0  0
  151.4177  142.9950  158.5518 C   0  0  1  0  0  0  0  0  0  0  0  0
  149.9821  143.5058  158.8461 C   0  0  0  0  0  0  0  0  0  0  0  0
  151.3311  141.9432  157.3937 C   0  0  0  0  0  0  0  0  0  0  0  0
  150.2847  142.2218  156.4139 N   0  0  0  0  0  0  0  0  0  0  0  0
  149.9054  141.4302  155.3997 C   0  0  0  0  0  0  0  0  0  0  0  0
  150.4922  140.3964  155.0807 O   0  0  0  0  0  0  0  0  0  0  0  0
  148.6414  141.8623  154.6556 C   0  0  0  0  0  0  0  0  0  0  0  0
  147.3521  141.2117  155.1598 C   0  0  0  0  0  0  0  0  0  0  0  0
  146.6401  140.3045  154.4321 C   0  0  0  0  0  0  0  0  0  0  0  0
  147.0443  139.8660  153.0355 C   0  0  0  0  0  0  0  0  0  0  0  0
  145.4780  139.7080  154.9501 N   0  0  0  0  0  0  0  0  0  0  0  0
  145.0849  140.0140  156.1275 C   0  0  0  0  0  0  0  0  0  0  0  0
  143.8354  139.3654  156.6836 C   0  0  0  0  0  0  0  0  0  0  0  0
  145.7325  140.9130  156.9447 N   0  5  0  0  0  0  0  0  0  0  0  0
  146.8652  141.5363  156.5130 C   0  0  0  0  0  0  0  0  0  0  0  0
  147.4820  142.3330  157.2193 O   0  0  0  0  0  0  0  0  0  0  0  0
  152.0526  142.3818  159.7577 N   0  0  0  0  0  0  0  0  0  0  0  0
  153.3409  141.7159  159.5208 C   0  0  0  0  0  0  0  0  0  0  0  0
  153.8675  141.0028  160.7774 C   0  0  0  0  0  0  0  0  0  0  0  0
  153.9838  141.9353  161.8442 O   0  0  0  0  0  0  0  0  0  0  0  0
  152.7433  142.5577  162.1524 C   0  0  0  0  0  0  0  0  0  0  0  0
  152.2004  143.2825  160.9088 C   0  0  0  0  0  0  0  0  0  0  0  0
  152.6651  146.3229  158.4570 H   0  0  0  0  0  0  0  0  0  0  0  0
  152.4692  145.3601  159.9103 H   0  0  0  0  0  0  0  0  0  0  0  0
  151.0555  145.8329  158.9676 H   0  0  0  0  0  0  0  0  0  0  0  0
  151.9718  144.4683  157.0164 H   0  0  0  0  0  0  0  0  0  0  0  0
  153.2930  143.9885  157.9788 H   0  0  0  0  0  0  0  0  0  0  0  0
  149.5499  144.0066  157.9798 H   0  0  0  0  0  0  0  0  0  0  0  0
  149.9595  144.2344  159.6554 H   0  0  0  0  0  0  0  0  0  0  0  0
  149.3038  142.6948  159.1098 H   0  0  0  0  0  0  0  0  0  0  0  0
  152.2765  141.9083  156.8516 H   0  0  0  0  0  0  0  0  0  0  0  0
  151.1798  140.9373  157.7860 H   0  0  0  0  0  0  0  0  0  0  0  0
  149.7340  143.0530  156.5777 H   0  0  0  0  0  0  0  0  0  0  0  0
  148.5686  142.9498  154.6908 H   0  0  0  0  0  0  0  0  0  0  0  0
  148.7642  141.6263  153.5983 H   0  0  0  0  0  0  0  0  0  0  0  0
  147.0042  140.7084  152.3450 H   0  0  0  0  0  0  0  0  0  0  0  0
  146.3776  139.0901  152.6573 H   0  0  0  0  0  0  0  0  0  0  0  0
  148.0570  139.4633  153.0351 H   0  0  0  0  0  0  0  0  0  0  0  0
  143.0601  140.1154  156.8429 H   0  0  0  0  0  0  0  0  0  0  0  0
  144.0516  138.8829  157.6373 H   0  0  0  0  0  0  0  0  0  0  0  0
  143.4467  138.6095  156.0000 H   0  0  0  0  0  0  0  0  0  0  0  0
  153.2581  140.9653  158.7380 H   0  0  0  0  0  0  0  0  0  0  0  0
  154.0872  142.4391  159.1919 H   0  0  0  0  0  0  0  0  0  0  0  0
  153.2021  140.1875  161.0658 H   0  0  0  0  0  0  0  0  0  0  0  0
  154.8456  140.5636  160.5812 H   0  0  0  0  0  0  0  0  0  0  0  0
  152.0307  141.8109  162.5056 H   0  0  0  0  0  0  0  0  0  0  0  0
  152.8941  143.2660  162.9670 H   0  0  0  0  0  0  0  0  0  0  0  0
  152.8712  144.1048  160.6601 H   0  0  0  0  0  0  0  0  0  0  0  0
  151.2461  143.7243  161.1874 H   0  0  0  0  0  0  0  0  0  0  0  0
  1  2  1  0  0  0  0
  1 25  1  0  0  0  0
  1 26  1  0  0  0  0
  1 27  1  0  0  0  0
  2  3  1  0  0  0  0
  2 28  1  0  0  0  0
  2 29  1  0  0  0  0
  3  4  1  0  0  0  0
  3  5  1  0  0  0  0
  3 19  1  0  0  0  0
  4 30  1  0  0  0  0
  4 31  1  0  0  0  0
  4 32  1  0  0  0  0
  5  6  1  0  0  0  0
  5 33  1  0  0  0  0
  5 34  1  0  0  0  0
  6  7  1  0  0  0  0
  6 35  1  0  0  0  0
  7  8  2  0  0  0  0
  7  9  1  0  0  0  0
  9 10  1  0  0  0  0
  9 36  1  0  0  0  0
  9 37  1  0  0  0  0
 10 17  1  0  0  0  0
 10 11  2  0  0  0  0
 11 12  1  0  0  0  0
 11 13  1  0  0  0  0
 12 38  1  0  0  0  0
 12 39  1  0  0  0  0
 12 40  1  0  0  0  0
 13 14  2  0  0  0  0
 14 15  1  0  0  0  0
 14 16  1  0  0  0  0
 15 41  1  0  0  0  0
 15 42  1  0  0  0  0
 15 43  1  0  0  0  0
 16 17  1  0  0  0  0
 17 18  2  0  0  0  0
 19 24  1  0  0  0  0
 19 20  1  0  0  0  0
 20 21  1  0  0  0  0
 20 44  1  0  0  0  0
 20 45  1  0  0  0  0
 21 22  1  0  0  0  0
 21 46  1  0  0  0  0
 21 47  1  0  0  0  0
 22 23  1  0  0  0  0
 23 24  1  0  0  0  0
 23 48  1  0  0  0  0
 23 49  1  0  0  0  0
 24 50  1  0  0  0  0
 24 51  1  0  0  0  0
M  CHG  1  16  -1
M  END
> <s_m_source_file>
AV-unprocessed.smi

> <i_m_source_file_index>
1492

> <i_lp_mmshare_version>
43012

> <i_f3d_flags>
0

> <s_epik_input>
W0NIMl0xW0NIMl1PW0NIMl1bQ0gyXU4xW0NAQF0oW0NIM10pKFtDSDJdW0NIM10pW0NIMl1bTkhdQyg9TylbQ0gyXWMyYyhbQ0gzXSluYyhbQ0gzXSlbbkhdYzI9Tw==

> <s_epik_cmdline>
J2VwaWtfcHl0aG9uJywgJy1waCcsICc3LjAnLCAnLXRuJywgJzgnLCAnLW1hJywgJzIwMCcsICctbWV0YWxfYmluZGluZycsICctaW1hZScsICc8aW5maWxlLm1hZT4nLCAnLW9tYWUnLCAnPG91dGZpbGUubWFlPic=

> <r_lp_tautomer_probability>
0.839158

> <r_epik_Ionization_Penalty>
6.88574

> <r_epik_Ionization_Penalty_Charging>
6.74373e-08

> <r_epik_Ionization_Penalty_Neutral>
6.88574

> <r_epik_State_Penalty>
4.79448

> <r_epik_Charging_Adjusted_Penalty>
4.79448

> <i_epik_Tot_Q>
-1

> <i_epik_Tot_abs_Q>
1

> <r_epik_Metal_State_Penalty>
1.16421

> <b_epik_Metal_Only>
1

> <s_lp_Force_Field>
OPLS_2005

> <r_lp_Energy>
44.9842

> <b_lp_Chiralities_Consistent>
1

> <s_lp_Variant>
AV-unprocessed.smi:1492-9

> <Gold.Version>
5.8.1

> <Gold.Id.Protein>
6NUR|6NUR_protein|mol2

> <Gold.PLP.Fitness>
47.4908

> <Gold.PLP.PLP>
-43.9587

> <Gold.PLP.part.hbond>
-3.0000

> <Gold.PLP.part.metal>
0.0000

> <Gold.PLP.part.buried>
-2.6153

> <Gold.PLP.part.nonpolar>
-37.5305

> <Gold.PLP.part.repulsive>
0.4210

> <Gold.PLP.ligand.clash>
0.0000

> <Gold.PLP.ligand.torsion>
1.0206

> <Gold.PLP.Chemscore.Hbond>
1.8130

> <Gold.PLP.Chemscore.CHOScore>
0.0000

> <Gold.PLP.Chemscore.Metal>
0.0000

> <Gold.Chemscore.Hbonds>
donor molecule, donor type, donor heavy atom, donor atom, acceptor molecule, acceptor atom, score
      L1  H     6    35       P1  8028  0.77
      P1  H  7989  7998       L1     8  1.00

> <Gold.PLP.Chemscore.Internal.Correction>
0.1343

> <Gold.Rescore>
     Score         DG    S(hbond)    S(metal)    S(lipo)     H(rot)  DE(clash)    DE(int)     intcor
     15.38     -19.31       1.63        0.00     116.53       2.05       0.43       3.50       ----

> <Gold.Chemscore.Fitness>
15.3843

> <Gold.Chemscore.DG>
-19.3130

> <Gold.Chemscore.ZeroCoef>
-5.4800

> <Gold.Chemscore.Hbond>
1.6278

> <Gold.Chemscore.Metal>
0.0000

> <Gold.Chemscore.Lipo>
116.5319

> <Gold.Chemscore.Internal_Hbond>
0.0000

> <Gold.Chemscore.DEClash>
0.4327

> <Gold.Chemscore.DEInternal>
3.4961

> <Gold.Chemscore.Rot>
2.0461

> <Gold.Chemscore.Internal.Correction>
   9.000000E+99

> <Gold.Chemscore.Hbonds>
donor molecule, donor type, donor heavy atom, donor atom, acceptor molecule, acceptor atom, score
      L1  H     6    35       P1  8028  0.74
      P1  H  7989  7998       L1     8  0.51

> <Gold.Chemscore.Hbond.Weighted>
-5.4368

> <Gold.Chemscore.Metal.Weighted>
-0.0000

> <Gold.Chemscore.Lipo.Weighted>
-13.6342

> <Gold.Chemscore.Internal_Hbond.Weighted>
0.0000

> <Gold.Chemscore.DEClash.Weighted>
0.4327

> <Gold.Chemscore.DEInternal.Weighted>
3.4961

> <Gold.Chemscore.Rot.Weighted>
5.2381

> <Gold.Chemscore.Internal.Correction.Weighted>
   9.000000E+99

> <Gold.Protein.RotatedTorsions>
[ 6907 6896 6895 6894 ] final   47.57 input  -60.11 | X-H torsion
[ 7974 7965 7964 7962 ] final  131.32 input  175.53 | X-H torsion
[ 8008 7997 7996 7995 ] final   15.26 input   59.86 | X-H torsion
[ 10167 10162 10161 10158 ] final  176.59 input  -65.29 | X-H torsion
[ 10718 10713 10712 10709 ] final -150.85 input   66.30 | X-H torsion
[ 10763 10752 10751 10750 ] final  -42.43 input  -60.55 | X-H torsion
[ 11005 11000 10999 10996 ] final  103.19 input  -57.11 | X-H torsion

> <Gold.Protein.ActiveResidues>
 VAL166  LYS551  ARG553  GLY616  TRP617  ASP618  TYR619  PRO620  LYS621  CYS622 
 ASP623  PHE694  ASN695  SER759  ASP760  ASP761  ALA762  ILE779  LEU786  VAL792 
 PHE793  MET794  SER795  GLU796  ALA797  LYS798  CYS799  TRP800  GLU811  SER814 

> <Gold.Protein.RotatedAtoms>
  152.2695  134.7948  160.0416 H   0  0  0  0  0  0  0  0  0  0  0  0  # atno 6907 bound_to 6896
  151.8565  133.3444  159.3698 H   0  0  0  0  0  0  0  0  0  0  0  0  # atno 6908 bound_to 6896
  150.7146  134.5176  159.5682 H   0  0  0  0  0  0  0  0  0  0  0  0  # atno 6909 bound_to 6896
  145.0086  139.4242  143.5256 H   0  0  0  0  0  0  0  0  0  0  0  0  # atno 7974 bound_to 7965
  154.8601  140.2943  155.5544 H   0  0  0  0  0  0  0  0  0  0  0  0  # atno 8008 bound_to 7997
  156.3019  140.2480  156.3506 H   0  0  0  0  0  0  0  0  0  0  0  0  # atno 8009 bound_to 7997
  154.8928  140.0394  157.1837 H   0  0  0  0  0  0  0  0  0  0  0  0  # atno 8010 bound_to 7997
  139.5220  144.2897  152.0474 H   0  0  0  0  0  0  0  0  0  0  0  0  # atno 10167 bound_to 10162
  156.4516  130.8170  151.2401 H   0  0  0  0  0  0  0  0  0  0  0  0  # atno 10718 bound_to 10713
  153.9789  135.6719  153.4749 H   0  0  0  0  0  0  0  0  0  0  0  0  # atno 10763 bound_to 10752
  153.0758  135.4950  154.8397 H   0  0  0  0  0  0  0  0  0  0  0  0  # atno 10764 bound_to 10752
  154.7176  135.3110  154.9060 H   0  0  0  0  0  0  0  0  0  0  0  0  # atno 10765 bound_to 10752
  139.8782  134.9253  156.5172 H   0  0  0  0  0  0  0  0  0  0  0  0  # atno 11005 bound_to 11000
  146.3465  139.9516  142.8728 LP  0  0  0  0  0  0  0  0  0  0  0  0  # atno 17320 bound_to 7965
  145.2055  140.9873  143.4131 LP  0  0  0  0  0  0  0  0  0  0  0  0  # atno 17321 bound_to 7965
  140.2349  144.4330  150.6284 LP  0  0  0  0  0  0  0  0  0  0  0  0  # atno 17342 bound_to 10162
  140.6330  143.2190  151.6454 LP  0  0  0  0  0  0  0  0  0  0  0  0  # atno 17343 bound_to 10162
  157.7502  131.0136  150.3431 LP  0  0  0  0  0  0  0  0  0  0  0  0  # atno 17370 bound_to 10713
  156.3810  130.3880  149.7101 LP  0  0  0  0  0  0  0  0  0  0  0  0  # atno 17371 bound_to 10713
  140.8477  133.8156  155.9137 LP  0  0  0  0  0  0  0  0  0  0  0  0  # atno 17394 bound_to 11000
  140.9175  134.2183  157.4947 LP  0  0  0  0  0  0  0  0  0  0  0  0  # atno 17395 bound_to 11000

$$$$
