#       Name:                AV-unprocessed.smi:3275
#       Creating user name   scv26
#       Creation time:       Fri Mar 27 18:44:40 2020


#       File generated by GOLD software.
#

@<TRIPOS>MOLECULE
AV-unprocessed.smi:3275
    40    41     1
SMALL
NO_CHARGES


@<TRIPOS>ATOM
      1 ****        -5.1999   3.0076   0.6692 O.3            1 S1                 0.0000
      2 ****        -3.8831   2.9164   0.1701 C.3            1 S1                 0.0000
      3 ****        -3.3317   1.5066   0.4059 C.3            1 S1                 0.0000
      4 ****        -2.0075   1.4456  -0.1033 O.3            1 S1                 0.0000
      5 ****        -1.3547   0.1990   0.0988 C.3            1 S1                 0.0000
      6 ****        -1.8269  -0.8539  -0.9262 C.3            1 S1                 0.0000
      7 ****        -0.9920  -2.1386  -0.7985 C.3            1 S1                 0.0000
      8 ****         0.5116  -1.8359  -0.9085 C.3            1 S1                 0.0000
      9 ****         0.9005  -0.8083   0.0538 N.3            1 S1                 0.0000
     10 ****         2.2893  -0.7126   0.2548 C.ar           1 S1                 0.0000
     11 ****         3.0563   0.3091  -0.3596 C.ar           1 S1                 0.0000
     12 ****         4.4478   0.3639  -0.1430 C.ar           1 S1                 0.0000
     13 ****         5.0419  -0.5549   0.6466 N.pl3          1 S1                 1.0000
     14 ****         4.3565  -1.5456   1.2550 C.ar           1 S1                 0.0000
     15 ****         2.9618  -1.6533   1.0781 C.ar           1 S1                 0.0000
     16 ****         2.1099  -2.9170   1.8962 Cl             1 S1                 0.0000
     17 ****         0.1571   0.4454  -0.0527 C.3            1 S1                 0.0000
     18 ****        -5.5203   3.8828   0.5135 H              1 S1                 0.0000
     19 ****        -3.8874   3.1529  -0.8941 H              1 S1                 0.0000
     20 ****        -3.2602   3.6592   0.6687 H              1 S1                 0.0000
     21 ****        -3.3328   1.2804   1.4732 H              1 S1                 0.0000
     22 ****        -3.9687   0.7733  -0.0888 H              1 S1                 0.0000
     23 ****        -1.5433  -0.1603   1.1124 H              1 S1                 0.0000
     24 ****        -2.8806  -1.0924  -0.7853 H              1 S1                 0.0000
     25 ****        -1.7286  -0.4536  -1.9360 H              1 S1                 0.0000
     26 ****        -1.1980  -2.6122   0.1623 H              1 S1                 0.0000
     27 ****        -1.2860  -2.8547  -1.5662 H              1 S1                 0.0000
     28 ****         1.0832  -2.7510  -0.7513 H              1 S1                 0.0000
     29 ****         0.7482  -1.4859  -1.9143 H              1 S1                 0.0000
     30 ****         2.5964   1.0446  -1.0028 H              1 S1                 0.0000
     31 ****         5.0987   1.1085  -0.5778 H              1 S1                 0.0000
     32 ****         4.9400  -2.2172   1.8675 H              1 S1                 0.0000
     33 ****         0.3539   0.9039  -1.0226 H              1 S1                 0.0000
     34 ****         0.4970   1.1449   0.7123 H              1 S1                 0.0000
     35 ****         6.0505  -0.4977   0.7909 H              1 S1                 0.0000
     36 ****        -5.2023   2.8174   1.6510 LP             1 S1                 0.0000
     37 ****        -5.7848   2.3460   0.2001 LP             1 S1                 0.0000
     38 ****        -1.4672   2.1574   0.3456 LP             1 S1                 0.0000
     39 ****        -2.0425   1.6240  -1.0866 LP             1 S1                 0.0000
     40 ****         0.5807  -1.1430   0.9402 LP             1 S1                 0.0000
@<TRIPOS>BOND
    1    1    2 1     
    2    1   18 1     
    3    2    3 1     
    4    2   19 1     
    5    2   20 1     
    6    3    4 1     
    7    3   21 1     
    8    3   22 1     
    9    4    5 1     
   10    5   17 1     
   11    5    6 1     
   12    5   23 1     
   13    6    7 1     
   14    6   24 1     
   15    6   25 1     
   16    7    8 1     
   17    7   26 1     
   18    7   27 1     
   19    8    9 1     
   20    8   28 1     
   21    8   29 1     
   22    9   10 1     
   23    9   17 1     
   24   10   15 ar    
   25   10   11 ar    
   26   11   12 ar    
   27   11   30 1     
   28   12   13 ar    
   29   12   31 1     
   30   13   14 ar    
   31   13   35 1     
   32   14   15 ar    
   33   14   32 1     
   34   15   16 1     
   35   17   33 1     
   36   17   34 1     
   37    1   36 1     
   38    1   37 1     
   39    4   38 1     
   40    4   39 1     
   41    9   40 1     
@<TRIPOS>SUBSTRUCTURE
      1 S1             1
@<TRIPOS>SET
LONE_PAIRS      STATIC     ATOMS    <user>   **** ""
5 36 37 38 39 40
DONOR_HYDROGENS      STATIC     ATOMS    <user>   **** ""
2 18 35
ATOM$BLUE        STATIC     ATOMS    COLORGROUP SYSTEM
5 36 37 38 39 40
ATOM$RED        STATIC     ATOMS    COLORGROUP SYSTEM
2 18 35
