#       Name:                AV-unprocessed.smi:557
#       Creating user name   scv26
#       Creation time:       Thu Mar 26 23:41:14 2020


#       File generated by GOLD software.
#

@<TRIPOS>MOLECULE
AV-unprocessed.smi:557
    50    52     1
SMALL
NO_CHARGES


@<TRIPOS>ATOM
      1 ****        -7.9283  -4.3074  -2.4742 C.3            1 S1                 0.0000
      2 ****        -7.0596  -3.6826  -1.4998 N.pl3          1 S1                 0.0000
      3 ****        -5.9595  -2.8810  -1.7162 C.2            1 S1                 0.0000
      4 ****        -5.4626  -2.5271  -0.4934 C.2            1 S1                 0.0000
      5 ****        -4.2717  -1.6671  -0.1745 C.3            1 S1                 0.0000
      6 ****        -2.9699  -2.4792  -0.1929 C.3            1 S1                 0.0000
      7 ****        -1.8275  -1.6257   0.1232 N.am           1 S1                 0.0000
      8 ****        -0.5323  -1.9815   0.1620 C.2            1 S1                 0.0000
      9 ****        -0.1646  -3.1287  -0.0833 O.2            1 S1                 0.0000
     10 ****         0.3114  -0.9861   0.4836 N.am           1 S1                 0.0000
     11 ****         1.7609  -1.1149   0.5982 C.3            1 S1                 0.0000
     12 ****         2.3759  -0.0979   1.5761 C.3            1 S1                 0.0000
     13 ****         3.7112   0.3296   0.9363 C.3            1 S1                 0.0000
     14 ****         3.8521  -0.5079  -0.2698 N.4            1 S1                 1.0000
     15 ****         4.7121   0.0121  -1.3550 C.3            1 S1                 0.0000
     16 ****         4.8028  -1.0393  -2.4786 C.3            1 S1                 0.0000
     17 ****         3.4061  -1.4833  -2.9592 C.3            1 S1                 0.0000
     18 ****         2.5227  -1.9228  -1.7752 C.3            1 S1                 0.0000
     19 ****         2.4829  -0.8070  -0.7166 C.3            1 S1                 0.0000
     20 ****        -6.3448  -3.1713   0.4204 C.2            1 S1                 0.0000
     21 ****        -7.2984  -3.8610  -0.1841 N.2            1 S1                 0.0000
     22 ****        -7.4876  -4.2334  -3.4690 H              1 S1                 0.0000
     23 ****        -8.8970  -3.8072  -2.4767 H              1 S1                 0.0000
     24 ****        -8.0691  -5.3602  -2.2277 H              1 S1                 0.0000
     25 ****        -5.6235  -2.6315  -2.7120 H              1 S1                 0.0000
     26 ****        -4.1947  -0.8456  -0.8878 H              1 S1                 0.0000
     27 ****        -4.3915  -1.1998   0.8039 H              1 S1                 0.0000
     28 ****        -3.0278  -3.2912   0.5338 H              1 S1                 0.0000
     29 ****        -2.8287  -2.9294  -1.1769 H              1 S1                 0.0000
     30 ****        -2.0404  -0.6605   0.3309 H              1 S1                 0.0000
     31 ****        -0.0833  -0.0752   0.6685 H              1 S1                 0.0000
     32 ****         2.0303  -2.1185   0.9349 H              1 S1                 0.0000
     33 ****         1.7325   0.7741   1.7031 H              1 S1                 0.0000
     34 ****         2.5222  -0.5419   2.5613 H              1 S1                 0.0000
     35 ****         3.6713   1.3840   0.6585 H              1 S1                 0.0000
     36 ****         4.5588   0.1879   1.6072 H              1 S1                 0.0000
     37 ****         4.3024   0.9475  -1.7392 H              1 S1                 0.0000
     38 ****         5.7057   0.2307  -0.9623 H              1 S1                 0.0000
     39 ****         5.3784  -0.6435  -3.3158 H              1 S1                 0.0000
     40 ****         5.3501  -1.9097  -2.1142 H              1 S1                 0.0000
     41 ****         2.9247  -0.6565  -3.4831 H              1 S1                 0.0000
     42 ****         3.4975  -2.2952  -3.6815 H              1 S1                 0.0000
     43 ****         1.5168  -2.1483  -2.1292 H              1 S1                 0.0000
     44 ****         2.9156  -2.8422  -1.3389 H              1 S1                 0.0000
     45 ****         2.0554   0.0969  -1.1572 H              1 S1                 0.0000
     46 ****        -6.3191  -3.1587   1.5000 H              1 S1                 0.0000
     47 ****         4.2498  -1.3852   0.0348 H              1 S1                 0.0000
     48 ****        -0.8374  -3.8295  -0.3204 LP             1 S1                 0.0000
     49 ****         0.8073  -3.3611  -0.0457 LP             1 S1                 0.0000
     50 ****        -8.0309  -4.3944   0.2388 LP             1 S1                 0.0000
@<TRIPOS>BOND
    1    1    2 1     
    2    1   22 1     
    3    1   23 1     
    4    1   24 1     
    5    2   21 1     
    6    2    3 1     
    7    3    4 2     
    8    3   25 1     
    9    4    5 1     
   10    4   20 1     
   11    5    6 1     
   12    5   26 1     
   13    5   27 1     
   14    6    7 1     
   15    6   28 1     
   16    6   29 1     
   17    7    8 am    
   18    7   30 1     
   19    8    9 2     
   20    8   10 am    
   21   10   11 1     
   22   10   31 1     
   23   11   19 1     
   24   11   12 1     
   25   11   32 1     
   26   12   13 1     
   27   12   33 1     
   28   12   34 1     
   29   13   14 1     
   30   13   35 1     
   31   13   36 1     
   32   14   19 1     
   33   14   15 1     
   34   14   47 1     
   35   15   16 1     
   36   15   37 1     
   37   15   38 1     
   38   16   17 1     
   39   16   39 1     
   40   16   40 1     
   41   17   18 1     
   42   17   41 1     
   43   17   42 1     
   44   18   19 1     
   45   18   43 1     
   46   18   44 1     
   47   19   45 1     
   48   20   21 2     
   49   20   46 1     
   50    9   48 1     
   51    9   49 1     
   52   21   50 1     
@<TRIPOS>SUBSTRUCTURE
      1 S1             1
@<TRIPOS>SET
LONE_PAIRS      STATIC     ATOMS    <user>   **** ""
3 48 49 50
DONOR_HYDROGENS      STATIC     ATOMS    <user>   **** ""
3 30 31 47
ATOM$BLUE        STATIC     ATOMS    COLORGROUP SYSTEM
3 48 49 50
ATOM$RED        STATIC     ATOMS    COLORGROUP SYSTEM
3 30 31 47
