AV-unprocessed.smi:898|AV-procd|sdf|4085|dock7
  -GOLD-   22720 1573D 1   1.00000     0.00000
 Structure written by MMmdl.
 33 35  0  0  0  0  0  0  0  0  2 V2000
  154.2280  140.3313  160.4837 O   0  0  0  0  0  0  0  0  0  0  0  0
  153.3041  139.9400  159.7666 C   0  0  0  0  0  0  0  0  0  0  0  0
  152.9890  138.6525  159.4973 N   0  5  0  0  0  0  0  0  0  0  0  0
  153.5055  137.6643  160.2462 C   0  0  0  0  0  0  0  0  0  0  0  0
  153.7350  136.4375  159.7573 N   0  0  0  0  0  0  0  0  0  0  0  0
  154.2724  135.5689  160.6959 N   0  0  0  0  0  0  0  0  0  0  0  0
  154.4490  136.1557  161.8820 C   0  0  0  0  0  0  0  0  0  0  0  0
  155.0099  135.4285  163.0578 C   0  0  0  0  0  0  0  0  0  0  0  0
  154.4805  134.0679  163.4488 C   0  0  0  0  0  0  0  0  0  0  0  0
  154.2168  135.2581  164.3352 C   0  0  0  0  0  0  0  0  0  0  0  0
  153.9709  137.8449  161.9372 S   0  0  0  0  0  0  0  0  0  0  0  0
  152.4979  140.8283  159.1673 N   0  0  0  0  0  0  0  0  0  0  0  0
  152.5939  142.2828  159.2622 C   0  0  2  0  0  0  0  0  0  0  0  0
  152.1878  142.7561  160.6739 C   0  0  0  0  0  0  0  0  0  0  0  0
  152.3205  144.2776  160.8475 C   0  0  0  0  0  0  0  0  0  0  0  0
  151.4231  145.0572  159.8765 C   0  0  0  0  0  0  0  0  0  0  0  0
  151.8768  144.7252  158.1527 S   0  0  0  0  0  0  0  0  0  0  0  0
  151.7125  142.9181  158.1731 C   0  0  0  0  0  0  0  0  0  0  0  0
  156.0806  135.6032  163.1428 H   0  0  0  0  0  0  0  0  0  0  0  0
  153.6429  133.6700  162.8791 H   0  0  0  0  0  0  0  0  0  0  0  0
  155.2010  133.3303  163.7963 H   0  0  0  0  0  0  0  0  0  0  0  0
  154.7624  135.3161  165.2746 H   0  0  0  0  0  0  0  0  0  0  0  0
  153.1980  135.6397  164.3642 H   0  0  0  0  0  0  0  0  0  0  0  0
  151.7555  140.4588  158.5917 H   0  0  0  0  0  0  0  0  0  0  0  0
  153.6278  142.5774  159.0719 H   0  0  0  0  0  0  0  0  0  0  0  0
  151.1623  142.4512  160.8870 H   0  0  0  0  0  0  0  0  0  0  0  0
  152.8118  142.2637  161.4207 H   0  0  0  0  0  0  0  0  0  0  0  0
  152.0597  144.5455  161.8717 H   0  0  0  0  0  0  0  0  0  0  0  0
  153.3604  144.5756  160.7092 H   0  0  0  0  0  0  0  0  0  0  0  0
  150.3767  144.7894  160.0268 H   0  0  0  0  0  0  0  0  0  0  0  0
  151.5091  146.1283  160.0601 H   0  0  0  0  0  0  0  0  0  0  0  0
  151.9909  142.5392  157.1892 H   0  0  0  0  0  0  0  0  0  0  0  0
  150.6642  142.6609  158.3297 H   0  0  0  0  0  0  0  0  0  0  0  0
  1  2  2  0  0  0  0
  2  3  1  0  0  0  0
  2 12  1  0  0  0  0
  3  4  1  0  0  0  0
  4 11  1  0  0  0  0
  4  5  2  0  0  0  0
  5  6  1  0  0  0  0
  6  7  2  0  0  0  0
  7  8  1  0  0  0  0
  7 11  1  0  0  0  0
  8 10  1  0  0  0  0
  8  9  1  0  0  0  0
  8 19  1  0  0  0  0
  9 10  1  0  0  0  0
  9 20  1  0  0  0  0
  9 21  1  0  0  0  0
 10 22  1  0  0  0  0
 10 23  1  0  0  0  0
 12 13  1  0  0  0  0
 12 24  1  0  0  0  0
 13 18  1  0  0  0  0
 13 14  1  0  0  0  0
 13 25  1  0  0  0  0
 14 15  1  0  0  0  0
 14 26  1  0  0  0  0
 14 27  1  0  0  0  0
 15 16  1  0  0  0  0
 15 28  1  0  0  0  0
 15 29  1  0  0  0  0
 16 17  1  0  0  0  0
 16 30  1  0  0  0  0
 16 31  1  0  0  0  0
 17 18  1  0  0  0  0
 18 32  1  0  0  0  0
 18 33  1  0  0  0  0
M  CHG  1   3  -1
M  END
> <s_m_source_file>
AV-unprocessed.smi

> <i_m_source_file_index>
898

> <i_lp_mmshare_version>
43012

> <i_f3d_flags>
0

> <s_epik_input>
W0NIMl0xU1tDSDJdW0NIMl1bQ0gyXVtDQEhdMVtOSF1DKD1PKVtOSF1jMm5uYyhzMilbQ0hdM1tDSDJdW0NIMl0z

> <s_epik_cmdline>
J2VwaWtfcHl0aG9uJywgJy1waCcsICc3LjAnLCAnLXRuJywgJzgnLCAnLW1hJywgJzIwMCcsICctbWV0YWxfYmluZGluZycsICctaW1hZScsICc8aW5maWxlLm1hZT4nLCAnLW9tYWUnLCAnPG91dGZpbGUubWFlPic=

> <r_lp_tautomer_probability>
1

> <r_epik_Ionization_Penalty>
4.71411

> <r_epik_Ionization_Penalty_Charging>
4.5615

> <r_epik_Ionization_Penalty_Neutral>
0.152604

> <r_epik_State_Penalty>
4.56123

> <r_epik_Charging_Adjusted_Penalty>
9.12273

> <i_epik_Tot_Q>
-1

> <i_epik_Tot_abs_Q>
1

> <r_epik_Metal_State_Penalty>
0.850765

> <b_epik_Metal_Only>
1

> <s_lp_Force_Field>
OPLS_2005

> <r_lp_Energy>
0.497958

> <b_lp_Chiralities_Consistent>
1

> <s_lp_Variant>
AV-unprocessed.smi:898-3

> <Gold.Version>
5.8.1

> <Gold.Id.Protein>
6NUR|6NUR_protein|mol2

> <Gold.PLP.Fitness>
37.2605

> <Gold.PLP.PLP>
-38.0536

> <Gold.PLP.part.hbond>
-1.2611

> <Gold.PLP.part.metal>
0.0000

> <Gold.PLP.part.buried>
-5.7011

> <Gold.PLP.part.nonpolar>
-30.3904

> <Gold.PLP.part.repulsive>
0.1235

> <Gold.PLP.ligand.clash>
0.0000

> <Gold.PLP.ligand.torsion>
0.4892

> <Gold.PLP.Chemscore.Hbond>
0.0127

> <Gold.PLP.Chemscore.CHOScore>
0.0000

> <Gold.PLP.Chemscore.Metal>
0.0000

> <Gold.Chemscore.Hbonds>
donor molecule, donor type, donor heavy atom, donor atom, acceptor molecule, acceptor atom, score
      P1  H  6896  6908       L1     5  0.02

> <Gold.PLP.Chemscore.Internal.Correction>
0.1473

> <Gold.Rescore>
     Score         DG    S(hbond)    S(metal)    S(lipo)     H(rot)  DE(clash)    DE(int)     intcor
     12.82     -14.55       0.00        0.00     103.60       1.19       0.08       1.65       ----

> <Gold.Chemscore.Fitness>
12.8225

> <Gold.Chemscore.DG>
-14.5541

> <Gold.Chemscore.ZeroCoef>
-5.4800

> <Gold.Chemscore.Hbond>
0.0006

> <Gold.Chemscore.Metal>
0.0000

> <Gold.Chemscore.Lipo>
103.6015

> <Gold.Chemscore.Internal_Hbond>
0.0000

> <Gold.Chemscore.DEClash>
0.0812

> <Gold.Chemscore.DEInternal>
1.6504

> <Gold.Chemscore.Rot>
1.1911

> <Gold.Chemscore.Internal.Correction>
   9.000000E+99

> <Gold.Chemscore.Hbond.Weighted>
-0.0020

> <Gold.Chemscore.Metal.Weighted>
-0.0000

> <Gold.Chemscore.Lipo.Weighted>
-12.1214

> <Gold.Chemscore.Internal_Hbond.Weighted>
0.0000

> <Gold.Chemscore.DEClash.Weighted>
0.0812

> <Gold.Chemscore.DEInternal.Weighted>
1.6504

> <Gold.Chemscore.Rot.Weighted>
3.0492

> <Gold.Chemscore.Internal.Correction.Weighted>
   9.000000E+99

> <Gold.Protein.RotatedTorsions>
[ 6907 6896 6895 6894 ] final -112.61 input  -60.11 | X-H torsion
[ 7974 7965 7964 7962 ] final   72.55 input  175.53 | X-H torsion
[ 8008 7997 7996 7995 ] final  -87.32 input   59.86 | X-H torsion
[ 10167 10162 10161 10158 ] final   12.70 input  -65.29 | X-H torsion
[ 10718 10713 10712 10709 ] final   84.71 input   66.30 | X-H torsion
[ 10763 10752 10751 10750 ] final -172.03 input  -60.55 | X-H torsion
[ 11005 11000 10999 10996 ] final  -23.92 input  -57.11 | X-H torsion

> <Gold.Protein.ActiveResidues>
 VAL166  LYS551  ARG553  GLY616  TRP617  ASP618  TYR619  PRO620  LYS621  CYS622 
 ASP623  PHE694  ASN695  SER759  ASP760  ASP761  ALA762  ILE779  LEU786  VAL792 
 PHE793  MET794  SER795  GLU796  ALA797  LYS798  CYS799  TRP800  GLU811  SER814 

> <Gold.Protein.RotatedAtoms>
  150.7770  133.9065  159.3356 H   0  0  0  0  0  0  0  0  0  0  0  0  # atno 6907 bound_to 6896
  151.6937  135.0940  160.0248 H   0  0  0  0  0  0  0  0  0  0  0  0  # atno 6908 bound_to 6896
  152.3809  133.6507  159.6196 H   0  0  0  0  0  0  0  0  0  0  0  0  # atno 6909 bound_to 6896
  145.7520  139.2764  143.1426 H   0  0  0  0  0  0  0  0  0  0  0  0  # atno 7974 bound_to 7965
  154.6619  140.0567  157.0071 H   0  0  0  0  0  0  0  0  0  0  0  0  # atno 8008 bound_to 7997
  155.1216  140.3248  155.4477 H   0  0  0  0  0  0  0  0  0  0  0  0  # atno 8009 bound_to 7997
  156.2621  140.1996  156.6338 H   0  0  0  0  0  0  0  0  0  0  0  0  # atno 8010 bound_to 7997
  140.6051  143.8524  150.7005 H   0  0  0  0  0  0  0  0  0  0  0  0  # atno 10167 bound_to 10162
  157.6902  131.0144  150.2713 H   0  0  0  0  0  0  0  0  0  0  0  0  # atno 10718 bound_to 10713
  154.6239  135.2878  155.0295 H   0  0  0  0  0  0  0  0  0  0  0  0  # atno 10763 bound_to 10752
  154.1480  135.6508  153.4961 H   0  0  0  0  0  0  0  0  0  0  0  0  # atno 10764 bound_to 10752
  153.0248  135.5349  154.7039 H   0  0  0  0  0  0  0  0  0  0  0  0  # atno 10765 bound_to 10752
  140.8797  133.7662  156.0287 H   0  0  0  0  0  0  0  0  0  0  0  0  # atno 11005 bound_to 11000
  146.0347  140.8223  142.9858 LP  0  0  0  0  0  0  0  0  0  0  0  0  # atno 17320 bound_to 7965
  144.6848  140.2821  143.7290 LP  0  0  0  0  0  0  0  0  0  0  0  0  # atno 17321 bound_to 7965
  140.2080  143.3906  152.1740 LP  0  0  0  0  0  0  0  0  0  0  0  0  # atno 17342 bound_to 10162
  139.5319  144.7168  151.5026 LP  0  0  0  0  0  0  0  0  0  0  0  0  # atno 17343 bound_to 10162
  156.3275  130.3795  149.7520 LP  0  0  0  0  0  0  0  0  0  0  0  0  # atno 17370 bound_to 10713
  156.5071  130.8155  151.3154 LP  0  0  0  0  0  0  0  0  0  0  0  0  # atno 17371 bound_to 10713
  140.8476  134.2993  157.5288 LP  0  0  0  0  0  0  0  0  0  0  0  0  # atno 17394 bound_to 11000
  139.8718  134.9450  156.3897 LP  0  0  0  0  0  0  0  0  0  0  0  0  # atno 17395 bound_to 11000

$$$$
