AV-unprocessed.smi:2822|AV-procd|sdf|10880|dock3
  -GOLD-   2272015323D 1   1.00000     0.00000
 Structure written by MMmdl.
 39 41  0  0  0  0  0  0  0  0  1 V2000
  148.0076  133.2736  152.3149 Cl  0  0  0  0  0  0  0  0  0  0  0  0
  146.5294  133.3640  151.4219 C   0  0  0  0  0  0  0  0  0  0  0  0
  146.0159  132.2061  150.8026 C   0  0  0  0  0  0  0  0  0  0  0  0
  144.8709  132.1892  150.0883 N   0  0  0  0  0  0  0  0  0  0  0  0
  144.1904  133.3479  149.9669 C   0  0  0  0  0  0  0  0  0  0  0  0
  144.6144  134.5615  150.5440 C   0  0  0  0  0  0  0  0  0  0  0  0
  145.8150  134.5775  151.2930 C   0  0  0  0  0  0  0  0  0  0  0  0
  146.3082  135.7407  151.9039 N   0  0  0  0  0  0  0  0  0  0  0  0
  145.4132  136.8220  152.2866 C   0  0  0  0  0  0  0  0  0  0  0  0
  146.0029  137.6691  153.4223 C   0  0  2  0  0  0  0  0  0  0  0  0
  146.6329  138.9699  152.8901 C   0  0  0  0  0  0  0  0  0  0  0  0
  147.2695  139.7422  153.9498 N   0  0  0  0  0  0  0  0  0  0  0  0
  147.8723  140.9668  153.4259 C   0  0  0  0  0  0  0  0  0  0  0  0
  148.5215  141.8187  154.5284 C   0  0  0  0  0  0  0  0  0  0  0  0
  149.5685  140.9950  155.2912 C   0  0  0  0  0  0  0  0  0  0  0  0
  148.9447  139.6834  155.7929 C   0  0  0  0  0  0  0  0  0  0  0  0
  148.2667  138.9172  154.6382 C   0  0  1  0  0  0  0  0  0  0  0  0
  147.6358  137.6062  155.1496 C   0  0  0  0  0  0  0  0  0  0  0  0
  147.0217  136.9105  154.0695 O   0  0  0  0  0  0  0  0  0  0  0  0
  146.5396  131.2648  150.8827 H   0  0  0  0  0  0  0  0  0  0  0  0
  143.2772  133.3075  149.3917 H   0  0  0  0  0  0  0  0  0  0  0  0
  144.0158  135.4490  150.4046 H   0  0  0  0  0  0  0  0  0  0  0  0
  147.3019  135.9220  151.8889 H   0  0  0  0  0  0  0  0  0  0  0  0
  145.1987  137.4506  151.4214 H   0  0  0  0  0  0  0  0  0  0  0  0
  144.4689  136.3866  152.6153 H   0  0  0  0  0  0  0  0  0  0  0  0
  145.2176  137.9152  154.1400 H   0  0  0  0  0  0  0  0  0  0  0  0
  147.3662  138.7276  152.1191 H   0  0  0  0  0  0  0  0  0  0  0  0
  145.8634  139.5746  152.4085 H   0  0  0  0  0  0  0  0  0  0  0  0
  148.6217  140.7178  152.6728 H   0  0  0  0  0  0  0  0  0  0  0  0
  147.1116  141.5613  152.9186 H   0  0  0  0  0  0  0  0  0  0  0  0
  148.9833  142.7065  154.0957 H   0  0  0  0  0  0  0  0  0  0  0  0
  147.7542  142.1703  155.2193 H   0  0  0  0  0  0  0  0  0  0  0  0
  150.4092  140.7722  154.6329 H   0  0  0  0  0  0  0  0  0  0  0  0
  149.9687  141.5694  156.1271 H   0  0  0  0  0  0  0  0  0  0  0  0
  149.7132  139.0647  156.2576 H   0  0  0  0  0  0  0  0  0  0  0  0
  148.2113  139.9038  156.5699 H   0  0  0  0  0  0  0  0  0  0  0  0
  149.0435  138.6458  153.9212 H   0  0  0  0  0  0  0  0  0  0  0  0
  148.3977  136.9636  155.5912 H   0  0  0  0  0  0  0  0  0  0  0  0
  146.8960  137.8052  155.9270 H   0  0  0  0  0  0  0  0  0  0  0  0
  1  2  1  0  0  0  0
  2  7  1  0  0  0  0
  2  3  2  0  0  0  0
  3  4  1  0  0  0  0
  3 20  1  0  0  0  0
  4  5  2  0  0  0  0
  5  6  1  0  0  0  0
  5 21  1  0  0  0  0
  6  7  2  0  0  0  0
  6 22  1  0  0  0  0
  7  8  1  0  0  0  0
  8  9  1  0  0  0  0
  8 23  1  0  0  0  0
  9 10  1  0  0  0  0
  9 24  1  0  0  0  0
  9 25  1  0  0  0  0
 10 19  1  0  0  0  0
 10 11  1  0  0  0  0
 10 26  1  0  0  0  0
 11 12  1  0  0  0  0
 11 27  1  0  0  0  0
 11 28  1  0  0  0  0
 12 17  1  0  0  0  0
 12 13  1  0  0  0  0
 13 14  1  0  0  0  0
 13 29  1  0  0  0  0
 13 30  1  0  0  0  0
 14 15  1  0  0  0  0
 14 31  1  0  0  0  0
 14 32  1  0  0  0  0
 15 16  1  0  0  0  0
 15 33  1  0  0  0  0
 15 34  1  0  0  0  0
 16 17  1  0  0  0  0
 16 35  1  0  0  0  0
 16 36  1  0  0  0  0
 17 18  1  0  0  0  0
 17 37  1  0  0  0  0
 18 19  1  0  0  0  0
 18 38  1  0  0  0  0
 18 39  1  0  0  0  0
M  END
> <s_m_source_file>
AV-unprocessed.smi

> <i_m_source_file_index>
2822

> <i_lp_mmshare_version>
43012

> <i_f3d_flags>
0

> <s_epik_input>
Q2xjMVtjSF1uW2NIXVtjSF1jMVtOSF1bQ0gyXVtDQEhdKFtDSDJdMilPW0NIMl1bQ0BASF0oTjIzKVtDSDJdW0NIMl1bQ0gyXVtDSDJdMw==

> <s_epik_cmdline>
J2VwaWtfcHl0aG9uJywgJy1waCcsICc3LjAnLCAnLXRuJywgJzgnLCAnLW1hJywgJzIwMCcsICctbWV0YWxfYmluZGluZycsICctaW1hZScsICc8aW5maWxlLm1hZT4nLCAnLW9tYWUnLCAnPG91dGZpbGUubWFlPic=

> <r_lp_tautomer_probability>
0.999999

> <r_epik_Ionization_Penalty>
2.10064

> <r_epik_Ionization_Penalty_Charging>
0

> <r_epik_Ionization_Penalty_Neutral>
2.10064

> <r_epik_State_Penalty>
2.1757

> <r_epik_Charging_Adjusted_Penalty>
2.1757

> <i_epik_Tot_Q>
0

> <i_epik_Tot_abs_Q>
0

> <r_epik_Metal_State_Penalty>
1.25425

> <b_epik_Metal_Only>
0

> <s_lp_Force_Field>
OPLS_2005

> <r_lp_Energy>
37.6936

> <b_lp_Chiralities_Consistent>
1

> <s_lp_Variant>
AV-unprocessed.smi:2822-21

> <Gold.Version>
5.8.1

> <Gold.Id.Protein>
6NUR|6NUR_protein|mol2

> <Gold.PLP.Fitness>
35.0909

> <Gold.PLP.PLP>
-28.1759

> <Gold.PLP.part.hbond>
-1.0000

> <Gold.PLP.part.metal>
0.0000

> <Gold.PLP.part.buried>
-1.4745

> <Gold.PLP.part.nonpolar>
-25.9914

> <Gold.PLP.part.repulsive>
1.1332

> <Gold.PLP.ligand.clash>
0.0000

> <Gold.PLP.ligand.torsion>
0.8849

> <Gold.PLP.Chemscore.Hbond>
1.0000

> <Gold.PLP.Chemscore.CHOScore>
1.8948

> <Gold.PLP.Chemscore.Metal>
0.0000

> <Gold.Chemscore.Hbonds>
donor molecule, donor type, donor heavy atom, donor atom, acceptor molecule, acceptor atom, score
      L1  H     8    23       P1  7948  1.00
      L1  C     3    20       P1 10747  0.90
      L1  C     5    21       P1 10186  1.00

> <Gold.PLP.Chemscore.Internal.Correction>
0.0004

> <Gold.Rescore>
     Score         DG    S(hbond)    S(metal)    S(lipo)     H(rot)  DE(clash)    DE(int)     intcor
     14.77     -15.82       1.00        0.00      85.10       1.15       0.18       0.87       ----

> <Gold.Chemscore.Fitness>
14.7702

> <Gold.Chemscore.DG>
-15.8218

> <Gold.Chemscore.ZeroCoef>
-5.4800

> <Gold.Chemscore.Hbond>
0.9983

> <Gold.Chemscore.Metal>
0.0000

> <Gold.Chemscore.Lipo>
85.0965

> <Gold.Chemscore.Internal_Hbond>
0.0000

> <Gold.Chemscore.DEClash>
0.1770

> <Gold.Chemscore.DEInternal>
0.8746

> <Gold.Chemscore.Rot>
1.1519

> <Gold.Chemscore.Internal.Correction>
   9.000000E+99

> <Gold.Chemscore.Hbonds>
donor molecule, donor type, donor heavy atom, donor atom, acceptor molecule, acceptor atom, score
      L1  H     8    23       P1  7948  1.00

> <Gold.Chemscore.Hbond.Weighted>
-3.3342

> <Gold.Chemscore.Metal.Weighted>
-0.0000

> <Gold.Chemscore.Lipo.Weighted>
-9.9563

> <Gold.Chemscore.Internal_Hbond.Weighted>
0.0000

> <Gold.Chemscore.DEClash.Weighted>
0.1770

> <Gold.Chemscore.DEInternal.Weighted>
0.8746

> <Gold.Chemscore.Rot.Weighted>
2.9487

> <Gold.Chemscore.Internal.Correction.Weighted>
   9.000000E+99

> <Gold.Protein.RotatedTorsions>
[ 6907 6896 6895 6894 ] final  -54.37 input  -60.11 | X-H torsion
[ 7974 7965 7964 7962 ] final -114.72 input  175.53 | X-H torsion
[ 8008 7997 7996 7995 ] final   98.08 input   59.86 | X-H torsion
[ 10167 10162 10161 10158 ] final -158.31 input  -65.29 | X-H torsion
[ 10718 10713 10712 10709 ] final  -70.09 input   66.30 | X-H torsion
[ 10763 10752 10751 10750 ] final    0.47 input  -60.55 | X-H torsion
[ 11005 11000 10999 10996 ] final   58.95 input  -57.11 | X-H torsion

> <Gold.Protein.ActiveResidues>
 VAL166  LYS551  ARG553  GLY616  TRP617  ASP618  TYR619  PRO620  LYS621  CYS622 
 ASP623  PHE694  ASN695  SER759  ASP760  ASP761  ALA762  ILE779  LEU786  VAL792 
 PHE793  MET794  SER795  GLU796  ALA797  LYS798  CYS799  TRP800  GLU811  SER814 

> <Gold.Protein.RotatedAtoms>
  150.8344  134.7611  159.6880 H   0  0  0  0  0  0  0  0  0  0  0  0  # atno 6907 bound_to 6896
  152.4443  134.5523  159.9880 H   0  0  0  0  0  0  0  0  0  0  0  0  # atno 6908 bound_to 6896
  151.5676  133.3356  159.3019 H   0  0  0  0  0  0  0  0  0  0  0  0  # atno 6909 bound_to 6896
  145.1169  140.8645  143.3837 H   0  0  0  0  0  0  0  0  0  0  0  0  # atno 7974 bound_to 7965
  156.0968  140.3249  155.7888 H   0  0  0  0  0  0  0  0  0  0  0  0  # atno 8008 bound_to 7997
  155.4904  140.0561  157.2971 H   0  0  0  0  0  0  0  0  0  0  0  0  # atno 8009 bound_to 7997
  154.4671  140.1994  156.0104 H   0  0  0  0  0  0  0  0  0  0  0  0  # atno 8010 bound_to 7997
  139.6702  143.9759  152.2279 H   0  0  0  0  0  0  0  0  0  0  0  0  # atno 10167 bound_to 10162
  156.0424  130.4325  150.2245 H   0  0  0  0  0  0  0  0  0  0  0  0  # atno 10718 bound_to 10713
  153.3203  135.6968  153.7036 H   0  0  0  0  0  0  0  0  0  0  0  0  # atno 10763 bound_to 10752
  153.5879  135.3485  155.2900 H   0  0  0  0  0  0  0  0  0  0  0  0  # atno 10764 bound_to 10752
  154.8596  135.4311  154.2365 H   0  0  0  0  0  0  0  0  0  0  0  0  # atno 10765 bound_to 10752
  140.0339  134.5971  155.9469 H   0  0  0  0  0  0  0  0  0  0  0  0  # atno 11005 bound_to 11000
  145.0784  139.2978  143.5796 LP  0  0  0  0  0  0  0  0  0  0  0  0  # atno 17320 bound_to 7965
  146.3523  140.0282  142.8652 LP  0  0  0  0  0  0  0  0  0  0  0  0  # atno 17321 bound_to 7965
  139.9521  144.6613  150.8162 LP  0  0  0  0  0  0  0  0  0  0  0  0  # atno 17342 bound_to 10162
  140.7615  143.3176  151.2698 LP  0  0  0  0  0  0  0  0  0  0  0  0  # atno 17343 bound_to 10162
  157.0338  131.0015  151.3304 LP  0  0  0  0  0  0  0  0  0  0  0  0  # atno 17370 bound_to 10713
  157.5258  130.8027  149.7860 LP  0  0  0  0  0  0  0  0  0  0  0  0  # atno 17371 bound_to 10713
  141.1847  133.6553  156.5166 LP  0  0  0  0  0  0  0  0  0  0  0  0  # atno 17394 bound_to 11000
  140.4179  134.7213  157.4873 LP  0  0  0  0  0  0  0  0  0  0  0  0  # atno 17395 bound_to 11000

$$$$
