AV-unprocessed.smi:855|AV-procd|sdf|3957|dock8
  -GOLD-   22720 1423D 1   1.00000     0.00000
 Structure written by MMmdl.
 35 36  0  0  0  0  0  0  0  0  3 V2000
  149.8030  141.1886  154.8080 C   0  0  0  0  0  0  0  0  0  0  0  0
  150.4806  139.8610  154.8100 C   0  0  0  0  0  0  0  0  0  0  0  0
  150.0103  138.5795  154.7595 C   0  0  0  0  0  0  0  0  0  0  0  0
  151.1961  137.7964  154.8054 C   0  0  0  0  0  0  0  0  0  0  0  0
  151.2593  136.4562  154.7709 N   0  5  0  0  0  0  0  0  0  0  0  0
  150.2679  135.7147  155.3154 C   0  0  0  0  0  0  0  0  0  0  0  0
  149.9453  135.6820  156.5052 O   0  0  0  0  0  0  0  0  0  0  0  0
  149.6078  134.9609  154.4267 N   0  0  0  0  0  0  0  0  0  0  0  0
  148.5105  134.0608  154.7511 C   0  0  0  0  0  0  0  0  0  0  0  0
  147.8442  133.5378  153.4708 C   0  0  0  0  0  0  0  0  0  0  0  0
  146.9557  134.5525  152.8584 N   0  3  0  0  0  0  0  0  0  0  0  0
  146.2107  134.1017  151.6666 C   0  0  0  0  0  0  0  0  0  0  0  0
  145.0617  135.1001  151.5027 C   0  0  0  0  0  0  0  0  0  0  0  0
  144.8741  135.7393  152.8844 C   0  0  0  0  0  0  0  0  0  0  0  0
  145.9447  135.1058  153.7784 C   0  0  0  0  0  0  0  0  0  0  0  0
  152.2899  138.5377  154.8608 N   0  0  0  0  0  0  0  0  0  0  0  0
  151.8395  139.8633  154.8716 O   0  0  0  0  0  0  0  0  0  0  0  0
  149.0888  141.2559  153.9872 H   0  0  0  0  0  0  0  0  0  0  0  0
  150.5244  141.9981  154.6944 H   0  0  0  0  0  0  0  0  0  0  0  0
  149.2623  141.3461  155.7412 H   0  0  0  0  0  0  0  0  0  0  0  0
  148.9826  138.2534  154.7032 H   0  0  0  0  0  0  0  0  0  0  0  0
  149.9000  135.0120  153.4616 H   0  0  0  0  0  0  0  0  0  0  0  0
  148.8906  133.2263  155.3426 H   0  0  0  0  0  0  0  0  0  0  0  0
  147.7891  134.5965  155.3694 H   0  0  0  0  0  0  0  0  0  0  0  0
  148.5964  133.2159  152.7488 H   0  0  0  0  0  0  0  0  0  0  0  0
  147.2473  132.6581  153.7161 H   0  0  0  0  0  0  0  0  0  0  0  0
  146.8455  134.0551  150.7813 H   0  0  0  0  0  0  0  0  0  0  0  0
  145.8058  133.1040  151.8445 H   0  0  0  0  0  0  0  0  0  0  0  0
  145.3308  135.8672  150.7753 H   0  0  0  0  0  0  0  0  0  0  0  0
  144.1539  134.6133  151.1449 H   0  0  0  0  0  0  0  0  0  0  0  0
  145.0249  136.8175  152.8174 H   0  0  0  0  0  0  0  0  0  0  0  0
  143.8726  135.5720  153.2820 H   0  0  0  0  0  0  0  0  0  0  0  0
  145.5013  134.2961  154.3606 H   0  0  0  0  0  0  0  0  0  0  0  0
  146.3840  135.8201  154.4755 H   0  0  0  0  0  0  0  0  0  0  0  0
  147.5329  135.3291  152.5682 H   0  0  0  0  0  0  0  0  0  0  0  0
  1  2  1  0  0  0  0
  1 18  1  0  0  0  0
  1 19  1  0  0  0  0
  1 20  1  0  0  0  0
  2 17  1  0  0  0  0
  2  3  2  0  0  0  0
  3  4  1  0  0  0  0
  3 21  1  0  0  0  0
  4  5  1  0  0  0  0
  4 16  2  0  0  0  0
  5  6  1  0  0  0  0
  6  7  2  0  0  0  0
  6  8  1  0  0  0  0
  8  9  1  0  0  0  0
  8 22  1  0  0  0  0
  9 10  1  0  0  0  0
  9 23  1  0  0  0  0
  9 24  1  0  0  0  0
 10 11  1  0  0  0  0
 10 25  1  0  0  0  0
 10 26  1  0  0  0  0
 11 15  1  0  0  0  0
 11 12  1  0  0  0  0
 11 35  1  0  0  0  0
 12 13  1  0  0  0  0
 12 27  1  0  0  0  0
 12 28  1  0  0  0  0
 13 14  1  0  0  0  0
 13 29  1  0  0  0  0
 13 30  1  0  0  0  0
 14 15  1  0  0  0  0
 14 31  1  0  0  0  0
 14 32  1  0  0  0  0
 15 33  1  0  0  0  0
 15 34  1  0  0  0  0
 16 17  1  0  0  0  0
M  CHG  1   5  -1
M  CHG  1  11   1
M  END
> <s_m_source_file>
AV-unprocessed.smi

> <i_m_source_file_index>
855

> <i_lp_mmshare_version>
43012

> <i_f3d_flags>
0

> <s_epik_input>
W0NIM11jMVtjSF1jKG5vMSlbTkhdQyg9TylbTkhdW0NIMl1bQ0gyXU4yW0NIMl1bQ0gyXVtDSDJdW0NIMl0y

> <s_epik_cmdline>
J2VwaWtfcHl0aG9uJywgJy1waCcsICc3LjAnLCAnLXRuJywgJzgnLCAnLW1hJywgJzIwMCcsICctbWV0YWxfYmluZGluZycsICctaW1hZScsICc8aW5maWxlLm1hZT4nLCAnLW9tYWUnLCAnPG91dGZpbGUubWFlPic=

> <r_epik_Ionization_Penalty>
6.22372

> <r_epik_Ionization_Penalty_Charging>
6.22363

> <r_epik_Ionization_Penalty_Neutral>
9.36971e-05

> <r_epik_State_Penalty>
6.22291

> <r_epik_Charging_Adjusted_Penalty>
12.4465

> <i_epik_Tot_Q>
0

> <i_epik_Tot_abs_Q>
2

> <r_epik_Metal_State_Penalty>
2.16624

> <b_epik_Metal_Only>
1

> <s_lp_Force_Field>
OPLS_2005

> <r_lp_Energy>
15.2309

> <b_lp_Chiralities_Consistent>
1

> <s_lp_Variant>
AV-unprocessed.smi:855-2

> <Gold.Version>
5.8.1

> <Gold.Id.Protein>
6NUR|6NUR_protein|mol2

> <Gold.PLP.Fitness>
44.1851

> <Gold.PLP.PLP>
-31.0062

> <Gold.PLP.part.hbond>
-4.4188

> <Gold.PLP.part.metal>
0.0000

> <Gold.PLP.part.buried>
-4.4763

> <Gold.PLP.part.nonpolar>
-23.3318

> <Gold.PLP.part.repulsive>
0.6635

> <Gold.PLP.ligand.clash>
0.0000

> <Gold.PLP.ligand.torsion>
0.9282

> <Gold.PLP.Chemscore.Hbond>
5.0000

> <Gold.PLP.Chemscore.CHOScore>
0.0000

> <Gold.PLP.Chemscore.Metal>
0.0000

> <Gold.Chemscore.Hbonds>
donor molecule, donor type, donor heavy atom, donor atom, acceptor molecule, acceptor atom, score
      L1  H     8    22       P1  7948  0.06
      L1  H    11    35       P1  7948  2.00
      P1  H  7989  7998       L1    17  0.10
      P1  H 10752 10763       L1     5  2.00

> <Gold.PLP.Chemscore.Internal.Correction>
0.0352

> <Gold.Rescore>
     Score         DG    S(hbond)    S(metal)    S(lipo)     H(rot)  DE(clash)    DE(int)     intcor
     15.01     -16.11       2.72        0.00      47.59       1.57       0.12       0.97       ----

> <Gold.Chemscore.Fitness>
15.0129

> <Gold.Chemscore.DG>
-16.1088

> <Gold.Chemscore.ZeroCoef>
-5.4800

> <Gold.Chemscore.Hbond>
2.7209

> <Gold.Chemscore.Metal>
0.0000

> <Gold.Chemscore.Lipo>
47.5899

> <Gold.Chemscore.Internal_Hbond>
0.0000

> <Gold.Chemscore.DEClash>
0.1239

> <Gold.Chemscore.DEInternal>
0.9721

> <Gold.Chemscore.Rot>
1.5731

> <Gold.Chemscore.Internal.Correction>
   9.000000E+99

> <Gold.Chemscore.Hbonds>
donor molecule, donor type, donor heavy atom, donor atom, acceptor molecule, acceptor atom, score
      L1  H    11    35       P1  7948  0.99
      P1  H 10752 10763       L1     5  0.94

> <Gold.Chemscore.Hbond.Weighted>
-9.0879

> <Gold.Chemscore.Metal.Weighted>
-0.0000

> <Gold.Chemscore.Lipo.Weighted>
-5.5680

> <Gold.Chemscore.Internal_Hbond.Weighted>
0.0000

> <Gold.Chemscore.DEClash.Weighted>
0.1239

> <Gold.Chemscore.DEInternal.Weighted>
0.9721

> <Gold.Chemscore.Rot.Weighted>
4.0271

> <Gold.Chemscore.Internal.Correction.Weighted>
   9.000000E+99

> <Gold.Protein.RotatedTorsions>
[ 6907 6896 6895 6894 ] final -118.44 input  -60.11 | X-H torsion
[ 7974 7965 7964 7962 ] final    0.23 input  175.53 | X-H torsion
[ 8008 7997 7996 7995 ] final -104.68 input   59.86 | X-H torsion
[ 10167 10162 10161 10158 ] final  171.26 input  -65.29 | X-H torsion
[ 10718 10713 10712 10709 ] final  -76.55 input   66.30 | X-H torsion
[ 10763 10752 10751 10750 ] final   47.05 input  -60.55 | X-H torsion
[ 11005 11000 10999 10996 ] final  -17.55 input  -57.11 | X-H torsion

> <Gold.Protein.ActiveResidues>
 VAL166  LYS551  ARG553  GLY616  TRP617  ASP618  TYR619  PRO620  LYS621  CYS622 
 ASP623  PHE694  ASN695  SER759  ASP760  ASP761  ALA762  ILE779  LEU786  VAL792 
 PHE793  MET794  SER795  GLU796  ALA797  LYS798  CYS799  TRP800  GLU811  SER814 

> <Gold.Protein.RotatedAtoms>
  150.8220  133.8236  159.3134 H   0  0  0  0  0  0  0  0  0  0  0  0  # atno 6907 bound_to 6896
  151.5991  135.1047  160.0066 H   0  0  0  0  0  0  0  0  0  0  0  0  # atno 6908 bound_to 6896
  152.4309  133.7234  159.6603 H   0  0  0  0  0  0  0  0  0  0  0  0  # atno 6909 bound_to 6896
  146.2433  140.1169  142.8342 H   0  0  0  0  0  0  0  0  0  0  0  0  # atno 7974 bound_to 7965
  154.8889  140.0416  157.1826 H   0  0  0  0  0  0  0  0  0  0  0  0  # atno 8008 bound_to 7997
  154.8562  140.2937  155.5546 H   0  0  0  0  0  0  0  0  0  0  0  0  # atno 8009 bound_to 7997
  156.2997  140.2455  156.3528 H   0  0  0  0  0  0  0  0  0  0  0  0  # atno 8010 bound_to 7997
  139.5041  144.3505  151.9927 H   0  0  0  0  0  0  0  0  0  0  0  0  # atno 10167 bound_to 10162
  156.0172  130.4468  150.3210 H   0  0  0  0  0  0  0  0  0  0  0  0  # atno 10718 bound_to 10713
  152.9804  135.5988  154.3700 H   0  0  0  0  0  0  0  0  0  0  0  0  # atno 10763 bound_to 10752
  154.3374  135.2768  155.2442 H   0  0  0  0  0  0  0  0  0  0  0  0  # atno 10764 bound_to 10752
  154.4539  135.5983  153.6265 H   0  0  0  0  0  0  0  0  0  0  0  0  # atno 10765 bound_to 10752
  140.8179  133.8091  155.9629 H   0  0  0  0  0  0  0  0  0  0  0  0  # atno 11005 bound_to 11000
  145.0439  140.8966  143.5036 LP  0  0  0  0  0  0  0  0  0  0  0  0  # atno 17320 bound_to 7965
  145.1255  139.2666  143.5566 LP  0  0  0  0  0  0  0  0  0  0  0  0  # atno 17321 bound_to 7965
  140.2942  144.3719  150.6079 LP  0  0  0  0  0  0  0  0  0  0  0  0  # atno 17342 bound_to 10162
  140.5923  143.2167  151.7230 LP  0  0  0  0  0  0  0  0  0  0  0  0  # atno 17343 bound_to 10162
  157.1310  131.0272  151.2969 LP  0  0  0  0  0  0  0  0  0  0  0  0  # atno 17370 bound_to 10713
  157.4550  130.7620  149.7185 LP  0  0  0  0  0  0  0  0  0  0  0  0  # atno 17371 bound_to 10713
  140.9130  134.2237  157.4974 LP  0  0  0  0  0  0  0  0  0  0  0  0  # atno 17394 bound_to 11000
  139.8710  134.9758  156.4898 LP  0  0  0  0  0  0  0  0  0  0  0  0  # atno 17395 bound_to 11000

$$$$
