AV-unprocessed.smi:1576|AV-procd|sdf|6348|dock7
  -GOLD-   22720 6563D 1   1.00000     0.00000
 Structure written by MMmdl.
 45 47  0  0  0  0  0  0  0  0  3 V2000
  151.8717  136.3560  156.3491 O   0  0  0  0  0  0  0  0  0  0  0  0
  151.3331  136.7141  155.2956 C   0  0  0  0  0  0  0  0  0  0  0  0
  151.1554  138.0210  155.0324 N   0  0  0  0  0  0  0  0  0  0  0  0
  151.4522  139.1470  155.8461 C   0  0  0  0  0  0  0  0  0  0  0  0
  151.0635  140.4198  155.3771 C   0  0  0  0  0  0  0  0  0  0  0  0
  151.3181  141.5621  156.1631 C   0  0  0  0  0  0  0  0  0  0  0  0
  151.9506  141.4112  157.4181 C   0  0  0  0  0  0  0  0  0  0  0  0
  152.2428  142.4857  158.2680 N   0  0  0  0  0  0  0  0  0  0  0  0
  151.9865  143.7844  157.6505 C   0  0  0  0  0  0  0  0  0  0  0  0
  152.4983  144.9271  158.5452 C   0  0  0  0  0  0  0  0  0  0  0  0
  151.9092  144.8226  159.9613 C   0  0  0  0  0  0  0  0  0  0  0  0
  152.1824  143.4286  160.5487 C   0  0  0  0  0  0  0  0  0  0  0  0
  151.6747  142.3259  159.6039 C   0  0  0  0  0  0  0  0  0  0  0  0
  152.2928  140.1747  157.8406 N   0  3  0  0  0  0  0  0  0  0  0  0
  152.0677  139.0559  157.1179 C   0  0  0  0  0  0  0  0  0  0  0  0
  150.8853  135.9242  154.2830 N   0  5  0  0  0  0  0  0  0  0  0  0
  150.0795  134.7125  154.4586 C   0  0  1  0  0  0  0  0  0  0  0  0
  150.2293  133.7749  153.2440 C   0  0  0  0  0  0  0  0  0  0  0  0
  149.6703  132.3947  153.6174 C   0  0  0  0  0  0  0  0  0  0  0  0
  150.0090  132.1891  155.4087 S   0  0  0  0  0  0  0  0  0  0  0  0
  148.7436  131.9107  156.1062 O   0  0  0  0  0  0  0  0  0  0  0  0
  151.1766  131.3125  155.5899 O   0  0  0  0  0  0  0  0  0  0  0  0
  150.5136  133.9290  155.7079 C   0  0  0  0  0  0  0  0  0  0  0  0
  150.8049  138.2291  154.1089 H   0  0  0  0  0  0  0  0  0  0  0  0
  150.5775  140.5237  154.4178 H   0  0  0  0  0  0  0  0  0  0  0  0
  151.0281  142.5384  155.8037 H   0  0  0  0  0  0  0  0  0  0  0  0
  152.4737  143.8314  156.6755 H   0  0  0  0  0  0  0  0  0  0  0  0
  150.9155  143.9023  157.4790 H   0  0  0  0  0  0  0  0  0  0  0  0
  153.5872  144.8893  158.5995 H   0  0  0  0  0  0  0  0  0  0  0  0
  152.2439  145.8908  158.1035 H   0  0  0  0  0  0  0  0  0  0  0  0
  152.3333  145.5936  160.6050 H   0  0  0  0  0  0  0  0  0  0  0  0
  150.8339  145.0015  159.9256 H   0  0  0  0  0  0  0  0  0  0  0  0
  153.2540  143.3049  160.7116 H   0  0  0  0  0  0  0  0  0  0  0  0
  151.7077  143.3329  161.5255 H   0  0  0  0  0  0  0  0  0  0  0  0
  150.5860  142.3630  159.5456 H   0  0  0  0  0  0  0  0  0  0  0  0
  151.9404  141.3456  160.0019 H   0  0  0  0  0  0  0  0  0  0  0  0
  152.3759  138.1362  157.5924 H   0  0  0  0  0  0  0  0  0  0  0  0
  149.0171  134.9409  154.5584 H   0  0  0  0  0  0  0  0  0  0  0  0
  149.7359  134.1771  152.3586 H   0  0  0  0  0  0  0  0  0  0  0  0
  151.2865  133.6660  152.9967 H   0  0  0  0  0  0  0  0  0  0  0  0
  148.5906  132.3508  153.4673 H   0  0  0  0  0  0  0  0  0  0  0  0
  150.1316  131.5856  153.0516 H   0  0  0  0  0  0  0  0  0  0  0  0
  151.5972  133.9430  155.8305 H   0  0  0  0  0  0  0  0  0  0  0  0
  150.0542  134.3034  156.6227 H   0  0  0  0  0  0  0  0  0  0  0  0
  152.7397  140.0789  158.7524 H   0  0  0  0  0  0  0  0  0  0  0  0
  1  2  2  0  0  0  0
  2  3  1  0  0  0  0
  2 16  1  0  0  0  0
  3  4  1  0  0  0  0
  3 24  1  0  0  0  0
  4 15  1  0  0  0  0
  4  5  2  0  0  0  0
  5  6  1  0  0  0  0
  5 25  1  0  0  0  0
  6  7  2  0  0  0  0
  6 26  1  0  0  0  0
  7  8  1  0  0  0  0
  7 14  1  0  0  0  0
  8 13  1  0  0  0  0
  8  9  1  0  0  0  0
  9 10  1  0  0  0  0
  9 27  1  0  0  0  0
  9 28  1  0  0  0  0
 10 11  1  0  0  0  0
 10 29  1  0  0  0  0
 10 30  1  0  0  0  0
 11 12  1  0  0  0  0
 11 31  1  0  0  0  0
 11 32  1  0  0  0  0
 12 13  1  0  0  0  0
 12 33  1  0  0  0  0
 12 34  1  0  0  0  0
 13 35  1  0  0  0  0
 13 36  1  0  0  0  0
 14 15  2  0  0  0  0
 14 45  1  0  0  0  0
 15 37  1  0  0  0  0
 16 17  1  0  0  0  0
 17 23  1  0  0  0  0
 17 18  1  0  0  0  0
 17 38  1  0  0  0  0
 18 19  1  0  0  0  0
 18 39  1  0  0  0  0
 18 40  1  0  0  0  0
 19 20  1  0  0  0  0
 19 41  1  0  0  0  0
 19 42  1  0  0  0  0
 20 21  2  0  0  0  0
 20 22  2  0  0  0  0
 20 23  1  0  0  0  0
 23 43  1  0  0  0  0
 23 44  1  0  0  0  0
M  CHG  1  14   1
M  CHG  1  16  -1
M  END
> <s_m_source_file>
AV-unprocessed.smi

> <i_m_source_file_index>
1576

> <i_lp_mmshare_version>
43012

> <i_f3d_flags>
0

> <s_epik_input>
Tz1TMSg9TylbQ0gyXVtDSDJdW0NASF0oW0NIMl0xKVtOSF1DKD1PKVtOSF1jMltjSF1bY0hdYyhuW2NIXTIpTjNbQ0gyXVtDSDJdW0NIMl1bQ0gyXVtDSDJdMw==

> <s_epik_cmdline>
J2VwaWtfcHl0aG9uJywgJy1waCcsICc3LjAnLCAnLXRuJywgJzgnLCAnLW1hJywgJzIwMCcsICctbWV0YWxfYmluZGluZycsICctaW1hZScsICc8aW5maWxlLm1hZT4nLCAnLW9tYWUnLCAnPG91dGZpbGUubWFlPic=

> <r_lp_tautomer_probability>
0.999994

> <r_epik_Ionization_Penalty>
8.26491

> <r_epik_Ionization_Penalty_Charging>
8.26491

> <r_epik_Ionization_Penalty_Neutral>
3.15169e-06

> <r_epik_State_Penalty>
7.8977

> <r_epik_Charging_Adjusted_Penalty>
16.1626

> <i_epik_Tot_Q>
0

> <i_epik_Tot_abs_Q>
2

> <r_epik_Metal_State_Penalty>
3.88896

> <b_epik_Metal_Only>
1

> <s_lp_Force_Field>
OPLS_2005

> <r_lp_Energy>
27.2537

> <b_lp_Chiralities_Consistent>
1

> <s_lp_Variant>
AV-unprocessed.smi:1576-6

> <Gold.Version>
5.8.1

> <Gold.Id.Protein>
6NUR|6NUR_protein|mol2

> <Gold.PLP.Fitness>
42.9117

> <Gold.PLP.PLP>
-41.3362

> <Gold.PLP.part.hbond>
-1.0000

> <Gold.PLP.part.metal>
0.0000

> <Gold.PLP.part.buried>
-5.3131

> <Gold.PLP.part.nonpolar>
-35.3316

> <Gold.PLP.part.repulsive>
0.4914

> <Gold.PLP.ligand.clash>
0.0000

> <Gold.PLP.ligand.torsion>
0.7865

> <Gold.PLP.Chemscore.Hbond>
1.0000

> <Gold.PLP.Chemscore.CHOScore>
0.0000

> <Gold.PLP.Chemscore.Metal>
0.0000

> <Gold.Chemscore.Hbonds>
donor molecule, donor type, donor heavy atom, donor atom, acceptor molecule, acceptor atom, score
      P1  H 10752 10765       L1     1  0.05

> <Gold.PLP.Chemscore.Internal.Correction>
0.1484

> <Gold.Rescore>
     Score         DG    S(hbond)    S(metal)    S(lipo)     H(rot)  DE(clash)    DE(int)     intcor
     13.89     -17.79       0.96        0.00     105.02       1.24       0.16       3.75       ----

> <Gold.Chemscore.Fitness>
13.8861

> <Gold.Chemscore.DG>
-17.7950

> <Gold.Chemscore.ZeroCoef>
-5.4800

> <Gold.Chemscore.Hbond>
0.9560

> <Gold.Chemscore.Metal>
0.0000

> <Gold.Chemscore.Lipo>
105.0233

> <Gold.Chemscore.Internal_Hbond>
0.0000

> <Gold.Chemscore.DEClash>
0.1599

> <Gold.Chemscore.DEInternal>
3.7491

> <Gold.Chemscore.Rot>
1.2366

> <Gold.Chemscore.Internal.Correction>
   9.000000E+99

> <Gold.Chemscore.Hbond.Weighted>
-3.1930

> <Gold.Chemscore.Metal.Weighted>
-0.0000

> <Gold.Chemscore.Lipo.Weighted>
-12.2877

> <Gold.Chemscore.Internal_Hbond.Weighted>
0.0000

> <Gold.Chemscore.DEClash.Weighted>
0.1599

> <Gold.Chemscore.DEInternal.Weighted>
3.7491

> <Gold.Chemscore.Rot.Weighted>
3.1657

> <Gold.Chemscore.Internal.Correction.Weighted>
   9.000000E+99

> <Gold.Protein.RotatedTorsions>
[ 6907 6896 6895 6894 ] final  133.88 input  -60.11 | X-H torsion
[ 7974 7965 7964 7962 ] final -128.74 input  175.53 | X-H torsion
[ 8008 7997 7996 7995 ] final  -36.49 input   59.86 | X-H torsion
[ 10167 10162 10161 10158 ] final  -12.53 input  -65.29 | X-H torsion
[ 10718 10713 10712 10709 ] final -155.74 input   66.30 | X-H torsion
[ 10763 10752 10751 10750 ] final -150.79 input  -60.55 | X-H torsion
[ 11005 11000 10999 10996 ] final -147.21 input  -57.11 | X-H torsion

> <Gold.Protein.ActiveResidues>
 VAL166  LYS551  ARG553  GLY616  TRP617  ASP618  TYR619  PRO620  LYS621  CYS622 
 ASP623  PHE694  ASN695  SER759  ASP760  ASP761  ALA762  ILE779  LEU786  VAL792 
 PHE793  MET794  SER795  GLU796  ALA797  LYS798  CYS799  TRP800  GLU811  SER814 

> <Gold.Protein.RotatedAtoms>
  152.3172  133.5815  159.5720 H   0  0  0  0  0  0  0  0  0  0  0  0  # atno 6907 bound_to 6896
  150.7353  134.0064  159.3664 H   0  0  0  0  0  0  0  0  0  0  0  0  # atno 6908 bound_to 6896
  151.7952  135.0725  160.0443 H   0  0  0  0  0  0  0  0  0  0  0  0  # atno 6909 bound_to 6896
  144.9640  140.7477  143.4711 H   0  0  0  0  0  0  0  0  0  0  0  0  # atno 7974 bound_to 7965
  154.4072  140.1629  156.2382 H   0  0  0  0  0  0  0  0  0  0  0  0  # atno 8008 bound_to 7997
  155.9224  140.3420  155.6160 H   0  0  0  0  0  0  0  0  0  0  0  0  # atno 8009 bound_to 7997
  155.7206  140.0768  157.2323 H   0  0  0  0  0  0  0  0  0  0  0  0  # atno 8010 bound_to 7997
  140.7163  143.5522  150.9288 H   0  0  0  0  0  0  0  0  0  0  0  0  # atno 10167 bound_to 10162
  156.5169  130.8460  151.2668 H   0  0  0  0  0  0  0  0  0  0  0  0  # atno 10718 bound_to 10713
  154.8097  135.3275  154.7337 H   0  0  0  0  0  0  0  0  0  0  0  0  # atno 10763 bound_to 10752
  153.7989  135.6905  153.4863 H   0  0  0  0  0  0  0  0  0  0  0  0  # atno 10764 bound_to 10752
  153.1867  135.4566  155.0044 H   0  0  0  0  0  0  0  0  0  0  0  0  # atno 10765 bound_to 10752
  140.7740  134.3156  157.5066 H   0  0  0  0  0  0  0  0  0  0  0  0  # atno 11005 bound_to 11000
  145.2657  139.1974  143.4868 LP  0  0  0  0  0  0  0  0  0  0  0  0  # atno 17320 bound_to 7965
  146.3362  140.2595  142.8601 LP  0  0  0  0  0  0  0  0  0  0  0  0  # atno 17321 bound_to 7965
  139.9247  143.6564  152.3089 LP  0  0  0  0  0  0  0  0  0  0  0  0  # atno 17342 bound_to 10162
  139.6994  144.7637  151.1300 LP  0  0  0  0  0  0  0  0  0  0  0  0  # atno 17343 bound_to 10162
  157.7442  130.9930  150.2658 LP  0  0  0  0  0  0  0  0  0  0  0  0  # atno 17370 bound_to 10713
  156.3186  130.3782  149.7595 LP  0  0  0  0  0  0  0  0  0  0  0  0  # atno 17371 bound_to 10713
  139.8751  134.9278  156.3435 LP  0  0  0  0  0  0  0  0  0  0  0  0  # atno 17394 bound_to 11000
  140.9546  133.7428  156.0318 LP  0  0  0  0  0  0  0  0  0  0  0  0  # atno 17395 bound_to 11000

$$$$
