AV-unprocessed.smi:44|AV-procd|sdf|397|dock1
  -GOLD-   2262016253D 1   1.00000     0.00000
 Structure written by MMmdl.
 29 31  0  0  0  0  0  0  0  0  1 V2000
  153.4140  139.7280  155.9602 O   0  0  0  0  0  0  0  0  0  0  0  0
  152.4215  139.3444  155.3448 C   0  0  0  0  0  0  0  0  0  0  0  0
  152.3980  138.2278  154.5771 N   0  0  0  0  0  0  0  0  0  0  0  0
  151.2582  137.7824  153.8619 C   0  0  0  0  0  0  0  0  0  0  0  0
  150.0961  138.3822  153.8540 N   0  0  0  0  0  0  0  0  0  0  0  0
  150.0894  139.5219  154.6333 C   0  0  0  0  0  0  0  0  0  0  0  0
  151.1195  140.0519  155.3635 C   0  0  0  0  0  0  0  0  0  0  0  0
  150.7304  141.2106  156.0234 N   0  0  0  0  0  0  0  0  0  0  0  0
  149.4557  141.3289  155.6575 C   0  0  0  0  0  0  0  0  0  0  0  0
  148.9996  140.3678  154.8312 N   0  0  0  0  0  0  0  0  0  0  0  0
  147.6139  140.2579  154.2826 C   0  0  1  0  0  0  0  0  0  0  0  0
  147.3379  141.3562  153.2510 C   0  0  0  0  0  0  0  0  0  0  0  0
  146.3900  140.6394  152.3157 C   0  0  0  0  0  0  0  0  0  0  0  0
  147.0054  139.2381  152.3104 C   0  0  2  0  0  0  0  0  0  0  0  0
  146.1051  138.0803  151.8467 C   0  0  0  0  0  0  0  0  0  0  0  0
  146.2724  137.7983  150.4728 O   0  0  0  0  0  0  0  0  0  0  0  0
  147.4824  139.0257  153.6363 O   0  0  0  0  0  0  0  0  0  0  0  0
  153.2473  137.6856  154.5164 H   0  0  0  0  0  0  0  0  0  0  0  0
  146.9485  140.2986  155.1464 H   0  0  0  0  0  0  0  0  0  0  0  0
  147.8869  139.2557  151.6678 H   0  0  0  0  0  0  0  0  0  0  0  0
  151.4410  136.8655  153.2998 H   0  0  0  0  0  0  0  0  0  0  0  0
  148.8329  142.1411  156.0025 H   0  0  0  0  0  0  0  0  0  0  0  0
  146.9116  142.2427  153.7209 H   0  0  0  0  0  0  0  0  0  0  0  0
  148.2560  141.6308  152.7297 H   0  0  0  0  0  0  0  0  0  0  0  0
  145.3860  140.6387  152.7412 H   0  0  0  0  0  0  0  0  0  0  0  0
  146.3446  141.0896  151.3239 H   0  0  0  0  0  0  0  0  0  0  0  0
  146.3523  137.1770  152.4046 H   0  0  0  0  0  0  0  0  0  0  0  0
  145.0577  138.3048  152.0499 H   0  0  0  0  0  0  0  0  0  0  0  0
  145.4868  138.0569  150.0159 H   0  0  0  0  0  0  0  0  0  0  0  0
  1  2  2  0  0  0  0
  2  7  1  0  0  0  0
  2  3  1  0  0  0  0
  3 18  1  0  0  0  0
  3  4  1  0  0  0  0
  4  5  2  0  0  0  0
  4 21  1  0  0  0  0
  5  6  1  0  0  0  0
  6 10  1  0  0  0  0
  6  7  2  0  0  0  0
  7  8  1  0  0  0  0
  8  9  2  0  0  0  0
  9 10  1  0  0  0  0
  9 22  1  0  0  0  0
 10 11  1  0  0  0  0
 11 19  1  0  0  0  0
 11 17  1  0  0  0  0
 11 12  1  0  0  0  0
 12 13  1  0  0  0  0
 12 23  1  0  0  0  0
 12 24  1  0  0  0  0
 13 14  1  0  0  0  0
 13 25  1  0  0  0  0
 13 26  1  0  0  0  0
 14 20  1  0  0  0  0
 14 15  1  0  0  0  0
 14 17  1  0  0  0  0
 15 16  1  0  0  0  0
 15 27  1  0  0  0  0
 15 28  1  0  0  0  0
 16 29  1  0  0  0  0
M  END
> <s_m_source_file>
AV-unprocessed.smi

> <i_m_source_file_index>
44

> <i_lp_mmshare_version>
43012

> <i_f3d_flags>
0

> <s_epik_input>
bjFbY0hdW25IXWMoPU8pYyhjMTIpbltjSF1uMltDQEhdM1tDSDJdW0NIMl1bQ0BIXShPMylbQ0gyXVtPSF0=

> <s_epik_cmdline>
J2VwaWtfcHl0aG9uJywgJy1waCcsICc3LjAnLCAnLXRuJywgJzgnLCAnLW1hJywgJzIwMCcsICctbWV0YWxfYmluZGluZycsICctaW1hZScsICc8aW5maWxlLm1hZT4nLCAnLW9tYWUnLCAnPG91dGZpbGUubWFlPic=

> <r_lp_tautomer_probability>
0.85571

> <r_epik_Ionization_Penalty>
0.00801444

> <r_epik_Ionization_Penalty_Charging>
0.00794574

> <r_epik_Ionization_Penalty_Neutral>
6.87072e-05

> <r_epik_State_Penalty>
0.0826172

> <r_epik_Charging_Adjusted_Penalty>
0.090563

> <i_epik_Tot_Q>
0

> <i_epik_Tot_abs_Q>
0

> <r_epik_Metal_State_Penalty>
0.440697

> <b_epik_Metal_Only>
0

> <s_epik_Chemistry_Notes>
This compound contains an acetal/aminal-like group ( X-CH(R)-Y where X, Y are N, S, or O) that may be acid/base labile, releasing an aldehyde.

> <s_lp_Force_Field>
OPLS_2005

> <r_lp_Energy>
42.4933

> <b_lp_Chiralities_Consistent>
1

> <s_lp_Variant>
AV-unprocessed.smi:44-3

> <Gold.Version>
5.8.1

> <Gold.Id.Protein>
6NUR|6NUR_protein|mol2

> <Gold.PLP.Fitness>
37.5730

> <Gold.PLP.PLP>
-24.8013

> <Gold.PLP.part.hbond>
-3.0772

> <Gold.PLP.part.metal>
0.0000

> <Gold.PLP.part.buried>
1.5972

> <Gold.PLP.part.nonpolar>
-23.7937

> <Gold.PLP.part.repulsive>
0.6475

> <Gold.PLP.ligand.clash>
0.0000

> <Gold.PLP.ligand.torsion>
0.6380

> <Gold.PLP.Chemscore.Hbond>
2.6810

> <Gold.PLP.Chemscore.CHOScore>
2.0000

> <Gold.PLP.Chemscore.Metal>
0.0000

> <Gold.Chemscore.Hbonds>
donor molecule, donor type, donor heavy atom, donor atom, acceptor molecule, acceptor atom, score
      L1  H    16    29       P1 10171  1.00
      P1  H  7954  7966       L1    16  0.88
      L1  C     4    21       P1  7949  0.99
      L1  C     9    22       P1  8028  0.83

> <Gold.PLP.Chemscore.Internal.Correction>
0.0048

> <Gold.Rescore>
     Score         DG    S(hbond)    S(metal)    S(lipo)     H(rot)  DE(clash)    DE(int)     intcor
     11.58     -13.84       2.92        0.00      37.79       2.27       0.42       1.84       ----

> <Gold.Chemscore.Fitness>
11.5764

> <Gold.Chemscore.DG>
-13.8370

> <Gold.Chemscore.ZeroCoef>
-5.4800

> <Gold.Chemscore.Hbond>
2.9196

> <Gold.Chemscore.Metal>
0.0000

> <Gold.Chemscore.Lipo>
37.7936

> <Gold.Chemscore.Internal_Hbond>
0.0000

> <Gold.Chemscore.DEClash>
0.4205

> <Gold.Chemscore.DEInternal>
1.8401

> <Gold.Chemscore.Rot>
2.2720

> <Gold.Chemscore.Internal.Correction>
   9.000000E+99

> <Gold.Chemscore.Hbonds>
donor molecule, donor type, donor heavy atom, donor atom, acceptor molecule, acceptor atom, score
      L1  H    16    29       P1 10171  0.99
      P1  H  7954  7966       L1    16  0.75
      P1  H  7997  8009       L1     1  0.01

> <Gold.Chemscore.Hbond.Weighted>
-9.7516

> <Gold.Chemscore.Metal.Weighted>
-0.0000

> <Gold.Chemscore.Lipo.Weighted>
-4.4219

> <Gold.Chemscore.Internal_Hbond.Weighted>
0.0000

> <Gold.Chemscore.DEClash.Weighted>
0.4205

> <Gold.Chemscore.DEInternal.Weighted>
1.8401

> <Gold.Chemscore.Rot.Weighted>
5.8164

> <Gold.Chemscore.Internal.Correction.Weighted>
   9.000000E+99

> <Gold.Protein.RotatedTorsions>
[ 6907 6896 6895 6894 ] final  167.14 input  -60.11 | X-H torsion
[ 7974 7965 7964 7962 ] final -163.64 input  175.53 | X-H torsion
[ 8008 7997 7996 7995 ] final -151.34 input   59.86 | X-H torsion
[ 10167 10162 10161 10158 ] final  101.92 input  -65.29 | X-H torsion
[ 10718 10713 10712 10709 ] final  -69.00 input   66.30 | X-H torsion
[ 10763 10752 10751 10750 ] final   98.98 input  -60.55 | X-H torsion
[ 11005 11000 10999 10996 ] final  150.64 input  -57.11 | X-H torsion

> <Gold.Protein.ActiveResidues>
 VAL166  LYS551  ARG553  GLY616  TRP617  ASP618  TYR619  PRO620  LYS621  CYS622 
 ASP623  PHE694  ASN695  SER759  ASP760  ASP761  ALA762  ILE779  LEU786  VAL792 
 PHE793  MET794  SER795  GLU796  ALA797  LYS798  CYS799  TRP800  GLU811  SER814 

> <Gold.Protein.RotatedAtoms>
  151.8680  133.3470  159.3725 H   0  0  0  0  0  0  0  0  0  0  0  0  # atno 6907 bound_to 6896
  150.7160  134.5140  159.5631 H   0  0  0  0  0  0  0  0  0  0  0  0  # atno 6908 bound_to 6896
  152.2667  134.7977  160.0472 H   0  0  0  0  0  0  0  0  0  0  0  0  # atno 6909 bound_to 6896
  144.7320  140.3077  143.6193 H   0  0  0  0  0  0  0  0  0  0  0  0  # atno 7974 bound_to 7965
  155.6379  140.0698  157.2628 H   0  0  0  0  0  0  0  0  0  0  0  0  # atno 8008 bound_to 7997
  154.4190  140.1755  156.1591 H   0  0  0  0  0  0  0  0  0  0  0  0  # atno 8009 bound_to 7997
  155.9879  140.3348  155.6728 H   0  0  0  0  0  0  0  0  0  0  0  0  # atno 8010 bound_to 7997
  139.7396  144.7015  151.0596 H   0  0  0  0  0  0  0  0  0  0  0  0  # atno 10167 bound_to 10162
  156.0477  130.4305  150.2084 H   0  0  0  0  0  0  0  0  0  0  0  0  # atno 10718 bound_to 10713
  153.2958  135.4129  155.1208 H   0  0  0  0  0  0  0  0  0  0  0  0  # atno 10763 bound_to 10752
  154.8534  135.3529  154.5919 H   0  0  0  0  0  0  0  0  0  0  0  0  # atno 10764 bound_to 10752
  153.6343  135.7059  153.5322 H   0  0  0  0  0  0  0  0  0  0  0  0  # atno 10765 bound_to 10752
  140.1149  134.8901  157.1989 H   0  0  0  0  0  0  0  0  0  0  0  0  # atno 11005 bound_to 11000
  145.7696  139.1852  143.2220 LP  0  0  0  0  0  0  0  0  0  0  0  0  # atno 17320 bound_to 7965
  146.0921  140.7643  142.9590 LP  0  0  0  0  0  0  0  0  0  0  0  0  # atno 17321 bound_to 7965
  140.7784  143.4941  150.9855 LP  0  0  0  0  0  0  0  0  0  0  0  0  # atno 17342 bound_to 10162
  139.8629  143.7291  152.3172 LP  0  0  0  0  0  0  0  0  0  0  0  0  # atno 17343 bound_to 10162
  157.0171  130.9968  151.3350 LP  0  0  0  0  0  0  0  0  0  0  0  0  # atno 17370 bound_to 10713
  157.5370  130.8095  149.7983 LP  0  0  0  0  0  0  0  0  0  0  0  0  # atno 17371 bound_to 10713
  140.3042  134.3097  155.7282 LP  0  0  0  0  0  0  0  0  0  0  0  0  # atno 17394 bound_to 11000
  141.2139  133.7610  156.9684 LP  0  0  0  0  0  0  0  0  0  0  0  0  # atno 17395 bound_to 11000

$$$$
