AV-unprocessed.smi:3253|AV-procd|sdf|12445|dock7
  -GOLD-   2272018343D 1   1.00000     0.00000
 Structure written by MMmdl.
 37 38  0  0  0  0  0  0  0  0  2 V2000
  151.1148  139.3871  154.6355 C   0  0  0  0  0  0  0  0  0  0  0  0
  150.4253  140.2429  155.7145 C   0  0  2  0  0  0  0  0  0  0  0  0
  149.4154  141.2519  155.1320 C   0  0  0  0  0  0  0  0  0  0  0  0
  148.3242  140.6106  154.3924 N   0  0  0  0  0  0  0  0  0  0  0  0
  148.1475  139.2702  154.1613 C   0  0  0  0  0  0  0  0  0  0  0  0
  146.9960  139.1492  153.4267 C   0  0  0  0  0  0  0  0  0  0  0  0
  146.5210  140.4194  153.2378 N   0  3  0  0  0  0  0  0  0  0  0  0
  147.3318  141.3069  153.8232 C   0  0  0  0  0  0  0  0  0  0  0  0
  151.4221  140.9644  156.5009 N   0  0  0  0  0  0  0  0  0  0  0  0
  151.1724  141.6608  157.6210 C   0  0  0  0  0  0  0  0  0  0  0  0
  150.0493  141.7634  158.1155 O   0  0  0  0  0  0  0  0  0  0  0  0
  152.3766  142.3479  158.2845 C   0  0  2  0  0  0  0  0  0  0  0  0
  152.5364  141.9095  159.7547 C   0  0  0  0  0  0  0  0  0  0  0  0
  152.2263  143.1664  160.5506 C   0  0  0  0  0  0  0  0  0  0  0  0
  152.1602  143.1807  161.7787 O   0  0  0  0  0  0  0  0  0  0  0  0
  152.0351  144.2104  159.7396 N   0  0  0  0  0  0  0  0  0  0  0  0
  151.7047  145.5651  160.1601 C   0  0  0  0  0  0  0  0  0  0  0  0
  152.2242  143.8845  158.3365 C   0  0  0  0  0  0  0  0  0  0  0  0
  150.3942  138.7877  154.0791 H   0  0  0  0  0  0  0  0  0  0  0  0
  151.8318  138.6949  155.0781 H   0  0  0  0  0  0  0  0  0  0  0  0
  151.6531  140.0098  153.9204 H   0  0  0  0  0  0  0  0  0  0  0  0
  149.8781  139.5734  156.3810 H   0  0  0  0  0  0  0  0  0  0  0  0
  148.9689  141.8517  155.9269 H   0  0  0  0  0  0  0  0  0  0  0  0
  149.9146  141.9461  154.4542 H   0  0  0  0  0  0  0  0  0  0  0  0
  148.8341  138.5212  154.5292 H   0  0  0  0  0  0  0  0  0  0  0  0
  146.4928  138.2773  153.0340 H   0  0  0  0  0  0  0  0  0  0  0  0
  147.2071  142.3751  153.8364 H   0  0  0  0  0  0  0  0  0  0  0  0
  152.3753  140.9325  156.1691 H   0  0  0  0  0  0  0  0  0  0  0  0
  153.2805  142.0946  157.7275 H   0  0  0  0  0  0  0  0  0  0  0  0
  151.8667  141.0989  160.0471 H   0  0  0  0  0  0  0  0  0  0  0  0
  153.5590  141.5922  159.9613 H   0  0  0  0  0  0  0  0  0  0  0  0
  152.4640  145.9517  160.8407 H   0  0  0  0  0  0  0  0  0  0  0  0
  150.7429  145.5805  160.6735 H   0  0  0  0  0  0  0  0  0  0  0  0
  151.6430  146.2379  159.3044 H   0  0  0  0  0  0  0  0  0  0  0  0
  153.1268  144.3761  157.9708 H   0  0  0  0  0  0  0  0  0  0  0  0
  151.3857  144.2534  157.7428 H   0  0  0  0  0  0  0  0  0  0  0  0
  145.6784  140.6561  152.7288 H   0  0  0  0  0  0  0  0  0  0  0  0
  1  2  1  0  0  0  0
  1 19  1  0  0  0  0
  1 20  1  0  0  0  0
  1 21  1  0  0  0  0
  2  3  1  0  0  0  0
  2  9  1  0  0  0  0
  2 22  1  0  0  0  0
  3  4  1  0  0  0  0
  3 23  1  0  0  0  0
  3 24  1  0  0  0  0
  4  8  1  0  0  0  0
  4  5  1  0  0  0  0
  5  6  2  0  0  0  0
  5 25  1  0  0  0  0
  6  7  1  0  0  0  0
  6 26  1  0  0  0  0
  7  8  2  0  0  0  0
  7 37  1  0  0  0  0
  8 27  1  0  0  0  0
  9 10  1  0  0  0  0
  9 28  1  0  0  0  0
 10 11  2  0  0  0  0
 10 12  1  0  0  0  0
 12 18  1  0  0  0  0
 12 13  1  0  0  0  0
 12 29  1  0  0  0  0
 13 14  1  0  0  0  0
 13 30  1  0  0  0  0
 13 31  1  0  0  0  0
 14 15  2  0  0  0  0
 14 16  1  0  0  0  0
 16 17  1  0  0  0  0
 16 18  1  0  0  0  0
 17 32  1  0  0  0  0
 17 33  1  0  0  0  0
 17 34  1  0  0  0  0
 18 35  1  0  0  0  0
 18 36  1  0  0  0  0
M  CHG  1   7   1
M  END
> <s_m_source_file>
AV-unprocessed.smi

> <i_m_source_file_index>
3253

> <i_lp_mmshare_version>
43012

> <i_f3d_flags>
0

> <s_epik_input>
W2NIXTFuW2NIXVtjSF1uMVtDSDJdW0NAQEhdKFtDSDNdKVtOSF1DKD1PKVtDQEBIXTJbQ0gyXUMoPU8pTihbQ0gzXSlbQ0gyXTI=

> <s_epik_cmdline>
J2VwaWtfcHl0aG9uJywgJy1waCcsICc3LjAnLCAnLXRuJywgJzgnLCAnLW1hJywgJzIwMCcsICctbWV0YWxfYmluZGluZycsICctaW1hZScsICc8aW5maWxlLm1hZT4nLCAnLW9tYWUnLCAnPG91dGZpbGUubWFlPic=

> <r_lp_tautomer_probability>
1

> <r_epik_Ionization_Penalty>
0.251561

> <r_epik_Ionization_Penalty_Charging>
0

> <r_epik_Ionization_Penalty_Neutral>
0.251561

> <r_epik_State_Penalty>
0.242926

> <r_epik_Charging_Adjusted_Penalty>
0.242926

> <i_epik_Tot_Q>
1

> <i_epik_Tot_abs_Q>
1

> <r_epik_Metal_State_Penalty>
0.533885

> <b_epik_Metal_Only>
0

> <s_lp_Force_Field>
OPLS_2005

> <r_lp_Energy>
15.657

> <b_lp_Chiralities_Consistent>
1

> <s_lp_Variant>
AV-unprocessed.smi:3253-1

> <Gold.Version>
5.8.1

> <Gold.Id.Protein>
6NUR|6NUR_protein|mol2

> <Gold.PLP.Fitness>
47.0974

> <Gold.PLP.PLP>
-41.2639

> <Gold.PLP.part.hbond>
-1.0000

> <Gold.PLP.part.metal>
0.0000

> <Gold.PLP.part.buried>
-5.8943

> <Gold.PLP.part.nonpolar>
-35.6133

> <Gold.PLP.part.repulsive>
0.3490

> <Gold.PLP.ligand.clash>
0.0000

> <Gold.PLP.ligand.torsion>
0.0723

> <Gold.PLP.Chemscore.Hbond>
1.9840

> <Gold.PLP.Chemscore.CHOScore>
0.0000

> <Gold.PLP.Chemscore.Metal>
0.0000

> <Gold.Chemscore.Hbonds>
donor molecule, donor type, donor heavy atom, donor atom, acceptor molecule, acceptor atom, score
      L1  H     7    37       P1 10175  2.00

> <Gold.PLP.Chemscore.Internal.Correction>
0.0260

> <Gold.Rescore>
     Score         DG    S(hbond)    S(metal)    S(lipo)     H(rot)  DE(clash)    DE(int)     intcor
     11.98     -12.15       0.98        0.00      73.51       2.03       0.06       0.11       ----

> <Gold.Chemscore.Fitness>
11.9775

> <Gold.Chemscore.DG>
-12.1542

> <Gold.Chemscore.ZeroCoef>
-5.4800

> <Gold.Chemscore.Hbond>
0.9824

> <Gold.Chemscore.Metal>
0.0000

> <Gold.Chemscore.Lipo>
73.5059

> <Gold.Chemscore.Internal_Hbond>
0.0000

> <Gold.Chemscore.DEClash>
0.0618

> <Gold.Chemscore.DEInternal>
0.1149

> <Gold.Chemscore.Rot>
2.0341

> <Gold.Chemscore.Internal.Correction>
   9.000000E+99

> <Gold.Chemscore.Hbonds>
donor molecule, donor type, donor heavy atom, donor atom, acceptor molecule, acceptor atom, score
      L1  H     7    37       P1 10175  0.45

> <Gold.Chemscore.Hbond.Weighted>
-3.2812

> <Gold.Chemscore.Metal.Weighted>
-0.0000

> <Gold.Chemscore.Lipo.Weighted>
-8.6002

> <Gold.Chemscore.Internal_Hbond.Weighted>
0.0000

> <Gold.Chemscore.DEClash.Weighted>
0.0618

> <Gold.Chemscore.DEInternal.Weighted>
0.1149

> <Gold.Chemscore.Rot.Weighted>
5.2072

> <Gold.Chemscore.Internal.Correction.Weighted>
   9.000000E+99

> <Gold.Protein.RotatedTorsions>
[ 6907 6896 6895 6894 ] final -139.16 input  -60.11 | X-H torsion
[ 7974 7965 7964 7962 ] final  174.42 input  175.53 | X-H torsion
[ 8008 7997 7996 7995 ] final -113.31 input   59.86 | X-H torsion
[ 10167 10162 10161 10158 ] final -109.09 input  -65.29 | X-H torsion
[ 10718 10713 10712 10709 ] final  -10.63 input   66.30 | X-H torsion
[ 10763 10752 10751 10750 ] final  -17.91 input  -60.55 | X-H torsion
[ 11005 11000 10999 10996 ] final   -8.15 input  -57.11 | X-H torsion

> <Gold.Protein.ActiveResidues>
 VAL166  LYS551  ARG553  GLY616  TRP617  ASP618  TYR619  PRO620  LYS621  CYS622 
 ASP623  PHE694  ASN695  SER759  ASP760  ASP761  ALA762  ILE779  LEU786  VAL792 
 PHE793  MET794  SER795  GLU796  ALA797  LYS798  CYS799  TRP800  GLU811  SER814 

> <Gold.Protein.RotatedAtoms>
  151.0442  133.5679  159.2647 H   0  0  0  0  0  0  0  0  0  0  0  0  # atno 6907 bound_to 6896
  151.2714  135.0685  159.9145 H   0  0  0  0  0  0  0  0  0  0  0  0  # atno 6908 bound_to 6896
  152.5370  134.0172  159.8019 H   0  0  0  0  0  0  0  0  0  0  0  0  # atno 6909 bound_to 6896
  144.7222  139.9794  143.6438 H   0  0  0  0  0  0  0  0  0  0  0  0  # atno 7974 bound_to 7965
  155.0188  140.0393  157.2429 H   0  0  0  0  0  0  0  0  0  0  0  0  # atno 8008 bound_to 7997
  154.7396  140.2746  155.6361 H   0  0  0  0  0  0  0  0  0  0  0  0  # atno 8009 bound_to 7997
  156.2861  140.2668  156.2120 H   0  0  0  0  0  0  0  0  0  0  0  0  # atno 8010 bound_to 7997
  140.1591  143.4135  152.1439 H   0  0  0  0  0  0  0  0  0  0  0  0  # atno 10167 bound_to 10162
  156.6706  130.5008  149.6001 H   0  0  0  0  0  0  0  0  0  0  0  0  # atno 10718 bound_to 10713
  153.5811  135.7005  153.5463 H   0  0  0  0  0  0  0  0  0  0  0  0  # atno 10763 bound_to 10752
  153.3260  135.4060  155.1456 H   0  0  0  0  0  0  0  0  0  0  0  0  # atno 10764 bound_to 10752
  154.8617  135.3707  154.5338 H   0  0  0  0  0  0  0  0  0  0  0  0  # atno 10765 bound_to 10752
  140.7204  133.8833  155.8816 H   0  0  0  0  0  0  0  0  0  0  0  0  # atno 11005 bound_to 11000
  146.0499  139.3501  143.0645 LP  0  0  0  0  0  0  0  0  0  0  0  0  # atno 17320 bound_to 7965
  145.8227  140.9671  143.0890 LP  0  0  0  0  0  0  0  0  0  0  0  0  # atno 17321 bound_to 7965
  139.5389  144.7237  151.4799 LP  0  0  0  0  0  0  0  0  0  0  0  0  # atno 17342 bound_to 10162
  140.6654  143.8409  150.6936 LP  0  0  0  0  0  0  0  0  0  0  0  0  # atno 17343 bound_to 10162
  156.1941  130.6578  151.1094 LP  0  0  0  0  0  0  0  0  0  0  0  0  # atno 17370 bound_to 10713
  157.7078  131.0748  150.6606 LP  0  0  0  0  0  0  0  0  0  0  0  0  # atno 17371 bound_to 10713
  141.0008  134.1152  157.4318 LP  0  0  0  0  0  0  0  0  0  0  0  0  # atno 17394 bound_to 11000
  139.8849  135.0068  156.6403 LP  0  0  0  0  0  0  0  0  0  0  0  0  # atno 17395 bound_to 11000

$$$$
