AV-unprocessed.smi:1785|AV-procd|sdf|7200|dock5
  -GOLD-   22720 8443D 1   1.00000     0.00000
 Structure written by MMmdl.
 28 29  0  0  0  0  0  0  0  0  1 V2000
  151.2491  144.2049  158.3423 C   0  0  0  0  0  0  0  0  0  0  0  0
  151.9914  143.1618  159.1623 C   0  0  0  0  0  0  0  0  0  0  0  0
  152.7055  143.5663  160.3102 C   0  0  0  0  0  0  0  0  0  0  0  0
  153.3910  142.6008  161.0670 C   0  0  0  0  0  0  0  0  0  0  0  0
  153.3324  141.2628  160.6411 C   0  0  0  0  0  0  0  0  0  0  0  0
  152.6522  140.8673  159.5458 N   0  0  0  0  0  0  0  0  0  0  0  0
  151.9855  141.7869  158.8036 C   0  0  0  0  0  0  0  0  0  0  0  0
  151.2474  141.4445  157.6359 N   0  0  0  0  0  0  0  0  0  0  0  0
  151.5430  140.5408  156.6810 C   0  0  0  0  0  0  0  0  0  0  0  0
  152.5567  139.8400  156.6847 O   0  0  0  0  0  0  0  0  0  0  0  0
  150.5125  140.5043  155.6502 C   0  0  0  0  0  0  0  0  0  0  0  0
  149.9750  141.6633  155.2040 C   0  0  0  0  0  0  0  0  0  0  0  0
  148.9733  141.7285  154.2680 O   0  0  0  0  0  0  0  0  0  0  0  0
  148.3508  140.4827  153.9780 C   0  0  0  0  0  0  0  0  0  0  0  0
  149.4018  139.3659  153.8974 C   0  0  0  0  0  0  0  0  0  0  0  0
  150.1353  139.2915  155.1152 O   0  0  0  0  0  0  0  0  0  0  0  0
  151.3783  145.2040  158.7596 H   0  0  0  0  0  0  0  0  0  0  0  0
  150.1814  143.9851  158.3227 H   0  0  0  0  0  0  0  0  0  0  0  0
  151.6197  144.2204  157.3169 H   0  0  0  0  0  0  0  0  0  0  0  0
  152.7297  144.6038  160.6100 H   0  0  0  0  0  0  0  0  0  0  0  0
  153.9472  142.8785  161.9501 H   0  0  0  0  0  0  0  0  0  0  0  0
  153.8451  140.4893  161.1935 H   0  0  0  0  0  0  0  0  0  0  0  0
  150.3836  141.9506  157.5065 H   0  0  0  0  0  0  0  0  0  0  0  0
  150.2445  142.6462  155.5637 H   0  0  0  0  0  0  0  0  0  0  0  0
  147.6170  140.2590  154.7537 H   0  0  0  0  0  0  0  0  0  0  0  0
  147.8078  140.5654  153.0363 H   0  0  0  0  0  0  0  0  0  0  0  0
  148.9237  138.4045  153.7096 H   0  0  0  0  0  0  0  0  0  0  0  0
  150.0916  139.5488  153.0723 H   0  0  0  0  0  0  0  0  0  0  0  0
  1  2  1  0  0  0  0
  1 17  1  0  0  0  0
  1 18  1  0  0  0  0
  1 19  1  0  0  0  0
  2  7  1  0  0  0  0
  2  3  2  0  0  0  0
  3  4  1  0  0  0  0
  3 20  1  0  0  0  0
  4  5  2  0  0  0  0
  4 21  1  0  0  0  0
  5  6  1  0  0  0  0
  5 22  1  0  0  0  0
  6  7  2  0  0  0  0
  7  8  1  0  0  0  0
  8  9  1  0  0  0  0
  8 23  1  0  0  0  0
  9 10  2  0  0  0  0
  9 11  1  0  0  0  0
 11 16  1  0  0  0  0
 11 12  2  0  0  0  0
 12 13  1  0  0  0  0
 12 24  1  0  0  0  0
 13 14  1  0  0  0  0
 14 15  1  0  0  0  0
 14 25  1  0  0  0  0
 14 26  1  0  0  0  0
 15 16  1  0  0  0  0
 15 27  1  0  0  0  0
 15 28  1  0  0  0  0
M  END
> <s_m_source_file>
AV-unprocessed.smi

> <i_m_source_file_index>
1785

> <i_lp_mmshare_version>
43012

> <i_f3d_flags>
0

> <s_epik_input>
W0NIM11jMVtjSF1bY0hdW2NIXW5jMVtOSF1DKD1PKUMyPVtDSF1PW0NIMl1bQ0gyXU8y

> <s_epik_cmdline>
J2VwaWtfcHl0aG9uJywgJy1waCcsICc3LjAnLCAnLXRuJywgJzgnLCAnLW1hJywgJzIwMCcsICctbWV0YWxfYmluZGluZycsICctaW1hZScsICc8aW5maWxlLm1hZT4nLCAnLW9tYWUnLCAnPG91dGZpbGUubWFlPic=

> <r_lp_tautomer_probability>
1

> <r_epik_Ionization_Penalty>
8.87723e-05

> <r_epik_Ionization_Penalty_Charging>
0

> <r_epik_Ionization_Penalty_Neutral>
8.87723e-05

> <r_epik_State_Penalty>
-0

> <r_epik_Charging_Adjusted_Penalty>
0

> <i_epik_Tot_Q>
0

> <i_epik_Tot_abs_Q>
0

> <r_epik_Metal_State_Penalty>
0.0224094

> <b_epik_Metal_Only>
0

> <s_lp_Force_Field>
OPLS_2005

> <r_lp_Energy>
4.55211

> <b_lp_Chiralities_Consistent>
1

> <s_lp_Variant>
AV-unprocessed.smi:1785-1

> <Gold.Version>
5.8.1

> <Gold.Id.Protein>
6NUR|6NUR_protein|mol2

> <Gold.PLP.Fitness>
37.1483

> <Gold.PLP.PLP>
-32.0098

> <Gold.PLP.part.hbond>
-2.1120

> <Gold.PLP.part.metal>
0.0000

> <Gold.PLP.part.buried>
-0.3460

> <Gold.PLP.part.nonpolar>
-28.3176

> <Gold.PLP.part.repulsive>
0.3142

> <Gold.PLP.ligand.clash>
0.0000

> <Gold.PLP.ligand.torsion>
0.9179

> <Gold.PLP.Chemscore.Hbond>
1.3689

> <Gold.PLP.Chemscore.CHOScore>
0.9554

> <Gold.PLP.Chemscore.Metal>
0.0000

> <Gold.Chemscore.Hbonds>
donor molecule, donor type, donor heavy atom, donor atom, acceptor molecule, acceptor atom, score
      P1  H  7997  8010       L1    10  1.00
      P1  H  8011  8017       L1    13  0.28
      L1  C    12    24       P1  8028  0.99

> <Gold.PLP.Chemscore.Internal.Correction>
0.0012

> <Gold.Rescore>
     Score         DG    S(hbond)    S(metal)    S(lipo)     H(rot)  DE(clash)    DE(int)     intcor
     18.13     -19.36       1.09        0.00      87.55       0.00       0.28       0.95       ----

> <Gold.Chemscore.Fitness>
18.1318

> <Gold.Chemscore.DG>
-19.3586

> <Gold.Chemscore.ZeroCoef>
-5.4800

> <Gold.Chemscore.Hbond>
1.0884

> <Gold.Chemscore.Metal>
0.0000

> <Gold.Chemscore.Lipo>
87.5506

> <Gold.Chemscore.Internal_Hbond>
0.0000

> <Gold.Chemscore.DEClash>
0.2768

> <Gold.Chemscore.DEInternal>
0.9500

> <Gold.Chemscore.Rot>
0.0000

> <Gold.Chemscore.Internal.Correction>
   9.000000E+99

> <Gold.Chemscore.Hbonds>
donor molecule, donor type, donor heavy atom, donor atom, acceptor molecule, acceptor atom, score
      P1  H  7997  8010       L1    10  1.00
      P1  H  8011  8017       L1    13  0.11

> <Gold.Chemscore.Hbond.Weighted>
-3.6351

> <Gold.Chemscore.Metal.Weighted>
-0.0000

> <Gold.Chemscore.Lipo.Weighted>
-10.2434

> <Gold.Chemscore.Internal_Hbond.Weighted>
0.0000

> <Gold.Chemscore.DEClash.Weighted>
0.2768

> <Gold.Chemscore.DEInternal.Weighted>
0.9500

> <Gold.Chemscore.Rot.Weighted>
0.0000

> <Gold.Chemscore.Internal.Correction.Weighted>
   9.000000E+99

> <Gold.Protein.RotatedTorsions>
[ 6907 6896 6895 6894 ] final  -70.02 input  -60.11 | X-H torsion
[ 7974 7965 7964 7962 ] final  137.01 input  175.53 | X-H torsion
[ 8008 7997 7996 7995 ] final   65.01 input   59.86 | X-H torsion
[ 10167 10162 10161 10158 ] final -118.47 input  -65.29 | X-H torsion
[ 10718 10713 10712 10709 ] final   97.64 input   66.30 | X-H torsion
[ 10763 10752 10751 10750 ] final  178.53 input  -60.55 | X-H torsion
[ 11005 11000 10999 10996 ] final -117.72 input  -57.11 | X-H torsion

> <Gold.Protein.ActiveResidues>
 VAL166  LYS551  ARG553  GLY616  TRP617  ASP618  TYR619  PRO620  LYS621  CYS622 
 ASP623  PHE694  ASN695  SER759  ASP760  ASP761  ALA762  ILE779  LEU786  VAL792 
 PHE793  MET794  SER795  GLU796  ALA797  LYS798  CYS799  TRP800  GLU811  SER814 

> <Gold.Protein.RotatedAtoms>
  150.7277  134.5514  159.5795 H   0  0  0  0  0  0  0  0  0  0  0  0  # atno 6907 bound_to 6896
  152.3000  134.7619  160.0369 H   0  0  0  0  0  0  0  0  0  0  0  0  # atno 6908 bound_to 6896
  151.8203  133.3358  159.3619 H   0  0  0  0  0  0  0  0  0  0  0  0  # atno 6909 bound_to 6896
  144.9509  139.4820  143.5526 H   0  0  0  0  0  0  0  0  0  0  0  0  # atno 7974 bound_to 7965
  155.6550  140.3497  155.4762 H   0  0  0  0  0  0  0  0  0  0  0  0  # atno 8008 bound_to 7997
  155.9816  140.1175  157.0744 H   0  0  0  0  0  0  0  0  0  0  0  0  # atno 8009 bound_to 7997
  154.4193  140.1137  156.5429 H   0  0  0  0  0  0  0  0  0  0  0  0  # atno 8010 bound_to 7997
  140.0571  143.5003  152.2051 H   0  0  0  0  0  0  0  0  0  0  0  0  # atno 10167 bound_to 10162
  157.6909  131.0615  150.4674 H   0  0  0  0  0  0  0  0  0  0  0  0  # atno 10718 bound_to 10713
  154.5089  135.2787  155.1359 H   0  0  0  0  0  0  0  0  0  0  0  0  # atno 10763 bound_to 10752
  154.2962  135.6257  153.5409 H   0  0  0  0  0  0  0  0  0  0  0  0  # atno 10764 bound_to 10752
  152.9915  135.5686  154.5550 H   0  0  0  0  0  0  0  0  0  0  0  0  # atno 10765 bound_to 10752
  141.0335  133.9945  157.3106 H   0  0  0  0  0  0  0  0  0  0  0  0  # atno 11005 bound_to 11000
  146.3320  139.8594  142.8859 LP  0  0  0  0  0  0  0  0  0  0  0  0  # atno 17320 bound_to 7965
  145.2845  141.0149  143.3698 LP  0  0  0  0  0  0  0  0  0  0  0  0  # atno 17321 bound_to 7965
  139.5916  144.7552  151.3386 LP  0  0  0  0  0  0  0  0  0  0  0  0  # atno 17342 bound_to 10162
  140.7189  143.7190  150.7711 LP  0  0  0  0  0  0  0  0  0  0  0  0  # atno 17343 bound_to 10162
  156.5014  130.4118  149.6351 LP  0  0  0  0  0  0  0  0  0  0  0  0  # atno 17370 bound_to 10713
  156.3324  130.7339  151.2270 LP  0  0  0  0  0  0  0  0  0  0  0  0  # atno 17371 bound_to 10713
  139.9224  135.0201  156.8114 LP  0  0  0  0  0  0  0  0  0  0  0  0  # atno 17394 bound_to 11000
  140.6364  133.9859  155.7686 LP  0  0  0  0  0  0  0  0  0  0  0  0  # atno 17395 bound_to 11000

$$$$
