AV-unprocessed.smi:445|AV-procd|sdf|2591|dock9
  -GOLD-   2262022583D 1   1.00000     0.00000
 Structure written by MMmdl.
 44 45  0  0  0  0  0  0  0  0  3 V2000
  153.3076  141.4051  160.4231 C   0  0  0  0  0  0  0  0  0  0  0  0
  153.0667  142.9229  160.3499 C   0  0  2  0  0  0  0  0  0  0  0  0
  152.0858  143.3949  161.4433 C   0  0  0  0  0  0  0  0  0  0  0  0
  151.8910  144.9193  161.4080 C   0  0  0  0  0  0  0  0  0  0  0  0
  151.4281  145.3922  160.0218 C   0  0  0  0  0  0  0  0  0  0  0  0
  152.3980  144.9262  158.9219 C   0  0  0  0  0  0  0  0  0  0  0  0
  152.6182  143.4001  158.9448 C   0  0  2  0  0  0  0  0  0  0  0  0
  151.4009  142.7166  158.5028 N   0  0  0  0  0  0  0  0  0  0  0  0
  151.3394  141.5356  157.8687 C   0  0  0  0  0  0  0  0  0  0  0  0
  152.3314  140.8590  157.5935 O   0  0  0  0  0  0  0  0  0  0  0  0
  149.9299  141.0389  157.5173 C   0  0  0  0  0  0  0  0  0  0  0  0
  149.8655  139.5818  157.3019 N   0  0  0  0  0  0  0  0  0  0  0  0
  149.3371  138.8144  158.3553 C   0  0  0  0  0  0  0  0  0  0  0  0
  149.2338  137.4757  158.2857 C   0  0  0  0  0  0  0  0  0  0  0  0
  148.6916  136.7074  159.3860 N   0  3  0  0  0  0  0  0  0  0  0  0
  148.1159  137.3007  160.2925 O   0  0  0  0  0  0  0  0  0  0  0  0
  148.8229  135.4870  159.3821 O   0  5  0  0  0  0  0  0  0  0  0  0
  149.6866  136.8241  157.0741 C   0  0  0  0  0  0  0  0  0  0  0  0
  150.2046  137.5440  156.0460 C   0  0  0  0  0  0  0  0  0  0  0  0
  150.6800  136.9202  154.7907 C   0  0  0  0  0  0  0  0  0  0  0  0
  150.6563  137.7337  153.7274 N   0  0  0  0  0  0  0  0  0  0  0  0
  151.0789  135.7651  154.6430 O   0  0  0  0  0  0  0  0  0  0  0  0
  150.3185  139.0253  156.1349 C   0  0  0  0  0  0  0  0  0  0  0  0
  150.7814  139.7508  155.2503 O   0  0  0  0  0  0  0  0  0  0  0  0
  152.3834  140.8417  160.2922 H   0  0  0  0  0  0  0  0  0  0  0  0
  153.7292  141.1233  161.3883 H   0  0  0  0  0  0  0  0  0  0  0  0
  154.0071  141.0822  159.6516 H   0  0  0  0  0  0  0  0  0  0  0  0
  154.0267  143.3993  160.5543 H   0  0  0  0  0  0  0  0  0  0  0  0
  151.1215  142.9004  161.3185 H   0  0  0  0  0  0  0  0  0  0  0  0
  152.4551  143.1004  162.4262 H   0  0  0  0  0  0  0  0  0  0  0  0
  151.1648  145.2188  162.1642 H   0  0  0  0  0  0  0  0  0  0  0  0
  152.8283  145.4129  161.6677 H   0  0  0  0  0  0  0  0  0  0  0  0
  150.4272  145.0094  159.8194 H   0  0  0  0  0  0  0  0  0  0  0  0
  151.3487  146.4795  160.0084 H   0  0  0  0  0  0  0  0  0  0  0  0
  152.0320  145.2401  157.9433 H   0  0  0  0  0  0  0  0  0  0  0  0
  153.3572  145.4269  159.0597 H   0  0  0  0  0  0  0  0  0  0  0  0
  153.4270  143.1839  158.2446 H   0  0  0  0  0  0  0  0  0  0  0  0
  150.5294  143.1905  158.6918 H   0  0  0  0  0  0  0  0  0  0  0  0
  149.2570  141.3403  158.3211 H   0  0  0  0  0  0  0  0  0  0  0  0
  149.5659  141.5684  156.6345 H   0  0  0  0  0  0  0  0  0  0  0  0
  149.0337  139.3880  159.2194 H   0  0  0  0  0  0  0  0  0  0  0  0
  149.5992  135.7497  157.0150 H   0  0  0  0  0  0  0  0  0  0  0  0
  150.9641  137.3999  152.8259 H   0  0  0  0  0  0  0  0  0  0  0  0
  150.3308  138.6838  153.8339 H   0  0  0  0  0  0  0  0  0  0  0  0
  1  2  1  0  0  0  0
  1 25  1  0  0  0  0
  1 26  1  0  0  0  0
  1 27  1  0  0  0  0
  2  7  1  0  0  0  0
  2  3  1  0  0  0  0
  2 28  1  0  0  0  0
  3  4  1  0  0  0  0
  3 29  1  0  0  0  0
  3 30  1  0  0  0  0
  4  5  1  0  0  0  0
  4 31  1  0  0  0  0
  4 32  1  0  0  0  0
  5  6  1  0  0  0  0
  5 33  1  0  0  0  0
  5 34  1  0  0  0  0
  6  7  1  0  0  0  0
  6 35  1  0  0  0  0
  6 36  1  0  0  0  0
  7  8  1  0  0  0  0
  7 37  1  0  0  0  0
  8  9  1  0  0  0  0
  8 38  1  0  0  0  0
  9 10  2  0  0  0  0
  9 11  1  0  0  0  0
 11 12  1  0  0  0  0
 11 39  1  0  0  0  0
 11 40  1  0  0  0  0
 12 23  1  0  0  0  0
 12 13  1  0  0  0  0
 13 14  2  0  0  0  0
 13 41  1  0  0  0  0
 14 15  1  0  0  0  0
 14 18  1  0  0  0  0
 15 16  2  0  0  0  0
 15 17  1  0  0  0  0
 18 19  2  0  0  0  0
 18 42  1  0  0  0  0
 19 20  1  0  0  0  0
 19 23  1  0  0  0  0
 20 21  1  0  0  0  0
 20 22  2  0  0  0  0
 21 43  1  0  0  0  0
 21 44  1  0  0  0  0
 23 24  2  0  0  0  0
M  CHG  1  15   1
M  CHG  1  17  -1
M  END
> <s_m_source_file>
AV-unprocessed.smi

> <i_m_source_file_index>
445

> <i_lp_mmshare_version>
43012

> <i_f3d_flags>
0

> <s_epik_input>
W0NIM11bQ0BASF0xW0NIMl1bQ0gyXVtDSDJdW0NIMl1bQ0BIXTFbTkhdQyg9TylbQ0gyXW4yW2NIXWMoW04rXSg9TylbTy1dKVtjSF1jKGMyPU8pQyg9TylbTkgyXQ==

> <s_epik_cmdline>
J2VwaWtfcHl0aG9uJywgJy1waCcsICc3LjAnLCAnLXRuJywgJzgnLCAnLW1hJywgJzIwMCcsICctbWV0YWxfYmluZGluZycsICctaW1hZScsICc8aW5maWxlLm1hZT4nLCAnLW9tYWUnLCAnPG91dGZpbGUubWFlPic=

> <r_lp_tautomer_probability>
1

> <r_epik_Ionization_Penalty>
2.81321e-06

> <r_epik_Ionization_Penalty_Charging>
2.43777e-12

> <r_epik_Ionization_Penalty_Neutral>
2.81321e-06

> <r_epik_State_Penalty>
-0

> <r_epik_Charging_Adjusted_Penalty>
2.43777e-12

> <i_epik_Tot_Q>
0

> <i_epik_Tot_abs_Q>
2

> <r_epik_Metal_State_Penalty>
-0

> <b_epik_Metal_Only>
0

> <s_lp_Force_Field>
OPLS_2005

> <r_lp_Energy>
27.547

> <b_lp_Chiralities_Consistent>
1

> <s_lp_Variant>
AV-unprocessed.smi:445-3

> <Gold.Version>
5.8.1

> <Gold.Id.Protein>
6NUR|6NUR_protein|mol2

> <Gold.PLP.Fitness>
55.1341

> <Gold.PLP.PLP>
-42.4690

> <Gold.PLP.part.hbond>
-7.1930

> <Gold.PLP.part.metal>
0.0000

> <Gold.PLP.part.buried>
-0.9032

> <Gold.PLP.part.nonpolar>
-34.2848

> <Gold.PLP.part.repulsive>
0.3553

> <Gold.PLP.ligand.clash>
0.0000

> <Gold.PLP.ligand.torsion>
1.2345

> <Gold.PLP.Chemscore.Hbond>
5.0336

> <Gold.PLP.Chemscore.CHOScore>
0.0000

> <Gold.PLP.Chemscore.Metal>
0.0000

> <Gold.Chemscore.Hbonds>
donor molecule, donor type, donor heavy atom, donor atom, acceptor molecule, acceptor atom, score
      L1  H    21    43       P1  7949  0.95
      P1  H  6896  6907       L1    17  0.91
      P1  H  6931  6943       L1    16  0.57
      P1  H  6934  6947       L1    16  0.64
      P1  H  7989  7998       L1    24  0.46
      P1  H  7997  8010       L1    10  0.12
      P1  H 10752 10765       L1    22  1.00

> <Gold.PLP.Chemscore.Internal.Correction>
0.0332

> <Gold.Rescore>
     Score         DG    S(hbond)    S(metal)    S(lipo)     H(rot)  DE(clash)    DE(int)     intcor
     21.89     -28.30       4.60        0.00     101.11       1.71       1.82       4.59       ----

> <Gold.Chemscore.Fitness>
21.8881

> <Gold.Chemscore.DG>
-28.3027

> <Gold.Chemscore.ZeroCoef>
-5.4800

> <Gold.Chemscore.Hbond>
4.6035

> <Gold.Chemscore.Metal>
0.0000

> <Gold.Chemscore.Lipo>
101.1147

> <Gold.Chemscore.Internal_Hbond>
0.0000

> <Gold.Chemscore.DEClash>
1.8201

> <Gold.Chemscore.DEInternal>
4.5945

> <Gold.Chemscore.Rot>
1.7123

> <Gold.Chemscore.Internal.Correction>
   9.000000E+99

> <Gold.Chemscore.Hbonds>
donor molecule, donor type, donor heavy atom, donor atom, acceptor molecule, acceptor atom, score
      L1  H    21    43       P1  7949  0.21
      P1  H  6896  6907       L1    17  0.86
      P1  H  6931  6943       L1    16  0.56
      P1  H  6934  6947       L1    16  0.61
      P1  H  7989  7998       L1    24  0.46
      P1  H  7997  8010       L1    10  0.13
      P1  H 10752 10765       L1    22  0.89

> <Gold.Chemscore.Hbond.Weighted>
-15.3758

> <Gold.Chemscore.Metal.Weighted>
-0.0000

> <Gold.Chemscore.Lipo.Weighted>
-11.8304

> <Gold.Chemscore.Internal_Hbond.Weighted>
0.0000

> <Gold.Chemscore.DEClash.Weighted>
1.8201

> <Gold.Chemscore.DEInternal.Weighted>
4.5945

> <Gold.Chemscore.Rot.Weighted>
4.3835

> <Gold.Chemscore.Internal.Correction.Weighted>
   9.000000E+99

> <Gold.Protein.RotatedTorsions>
[ 6907 6896 6895 6894 ] final  -72.54 input  -60.11 | X-H torsion
[ 7974 7965 7964 7962 ] final   24.80 input  175.53 | X-H torsion
[ 8008 7997 7996 7995 ] final   56.79 input   59.86 | X-H torsion
[ 10167 10162 10161 10158 ] final -172.56 input  -65.29 | X-H torsion
[ 10718 10713 10712 10709 ] final -167.81 input   66.30 | X-H torsion
[ 10763 10752 10751 10750 ] final -174.76 input  -60.55 | X-H torsion
[ 11005 11000 10999 10996 ] final   40.77 input  -57.11 | X-H torsion

> <Gold.Protein.ActiveResidues>
 VAL166  LYS551  ARG553  GLY616  TRP617  ASP618  TYR619  PRO620  LYS621  CYS622 
 ASP623  PHE694  ASN695  SER759  ASP760  ASP761  ALA762  ILE779  LEU786  VAL792 
 PHE793  MET794  SER795  GLU796  ALA797  LYS798  CYS799  TRP800  GLU811  SER814 

> <Gold.Protein.RotatedAtoms>
  150.7166  134.5147  159.5624 H   0  0  0  0  0  0  0  0  0  0  0  0  # atno 6907 bound_to 6896
  152.2716  134.7924  160.0422 H   0  0  0  0  0  0  0  0  0  0  0  0  # atno 6908 bound_to 6896
  151.8602  133.3420  159.3738 H   0  0  0  0  0  0  0  0  0  0  0  0  # atno 6909 bound_to 6896
  146.1920  139.7554  142.8825 H   0  0  0  0  0  0  0  0  0  0  0  0  # atno 7974 bound_to 7965
  155.5231  140.3480  155.4411 H   0  0  0  0  0  0  0  0  0  0  0  0  # atno 8008 bound_to 7997
  156.0770  140.1377  156.9786 H   0  0  0  0  0  0  0  0  0  0  0  0  # atno 8009 bound_to 7997
  154.4559  140.0954  156.6730 H   0  0  0  0  0  0  0  0  0  0  0  0  # atno 8010 bound_to 7997
  139.5737  144.1581  152.1421 H   0  0  0  0  0  0  0  0  0  0  0  0  # atno 10167 bound_to 10162
  156.6877  130.9147  151.3065 H   0  0  0  0  0  0  0  0  0  0  0  0  # atno 10718 bound_to 10713
  154.5924  135.2846  155.0621 H   0  0  0  0  0  0  0  0  0  0  0  0  # atno 10763 bound_to 10752
  154.1916  135.6439  153.5065 H   0  0  0  0  0  0  0  0  0  0  0  0  # atno 10764 bound_to 10752
  153.0126  135.5447  154.6615 H   0  0  0  0  0  0  0  0  0  0  0  0  # atno 10765 bound_to 10752
  140.1899  134.3999  155.8152 H   0  0  0  0  0  0  0  0  0  0  0  0  # atno 11005 bound_to 11000
  145.3764  141.0351  143.3202 LP  0  0  0  0  0  0  0  0  0  0  0  0  # atno 17320 bound_to 7965
  144.8505  139.5330  143.6859 LP  0  0  0  0  0  0  0  0  0  0  0  0  # atno 17321 bound_to 7965
  140.1119  144.5449  150.6919 LP  0  0  0  0  0  0  0  0  0  0  0  0  # atno 17342 bound_to 10162
  140.7021  143.2442  151.4834 LP  0  0  0  0  0  0  0  0  0  0  0  0  # atno 17343 bound_to 10162
  157.7020  130.9344  150.0815 LP  0  0  0  0  0  0  0  0  0  0  0  0  # atno 17370 bound_to 10713
  156.1820  130.3650  149.9022 LP  0  0  0  0  0  0  0  0  0  0  0  0  # atno 17371 bound_to 10713
  141.2226  133.7041  156.8077 LP  0  0  0  0  0  0  0  0  0  0  0  0  # atno 17394 bound_to 11000
  140.2171  134.8784  157.3338 LP  0  0  0  0  0  0  0  0  0  0  0  0  # atno 17395 bound_to 11000

$$$$
