AV-unprocessed.smi:3133|AV-procd|sdf|11939|dock2
  -GOLD-   2272017323D 1   1.00000     0.00000
 Structure written by MMmdl.
 32 33  0  0  0  0  0  0  0  0  1 V2000
  150.6683  141.6356  155.8505 C   0  0  0  0  0  0  0  0  0  0  0  0
  150.9325  140.3520  156.6640 C   0  0  2  0  0  0  0  0  0  0  0  0
  151.9952  140.5418  157.7603 C   0  0  0  0  0  0  0  0  0  0  0  0
  152.9970  139.8262  157.7978 O   0  0  0  0  0  0  0  0  0  0  0  0
  151.7668  141.5280  158.6429 N   0  0  0  0  0  0  0  0  0  0  0  0
  152.6574  141.9074  159.7333 C   0  0  0  0  0  0  0  0  0  0  0  0
  152.5653  143.4132  160.0275 C   0  0  1  0  0  0  0  0  0  0  0  0
  152.7480  144.2930  158.7928 C   0  0  0  0  0  0  0  0  0  0  0  0
  152.0655  145.5692  159.2287 C   0  0  0  0  0  0  0  0  0  0  0  0
  150.8758  145.0336  160.0215 C   0  0  0  0  0  0  0  0  0  0  0  0
  151.2765  143.7620  160.5266 O   0  0  0  0  0  0  0  0  0  0  0  0
  151.2732  139.2234  155.8057 N   0  0  0  0  0  0  0  0  0  0  0  0
  151.6129  137.9731  156.1272 C   0  0  0  0  0  0  0  0  0  0  0  0
  151.9000  137.2071  155.0842 N   0  0  0  0  0  0  0  0  0  0  0  0
  151.7137  138.1128  154.0785 C   0  0  0  0  0  0  0  0  0  0  0  0
  151.3477  139.3377  154.4559 N   0  0  0  0  0  0  0  0  0  0  0  0
  150.3481  142.4530  156.4975 H   0  0  0  0  0  0  0  0  0  0  0  0
  149.8787  141.4735  155.1165 H   0  0  0  0  0  0  0  0  0  0  0  0
  151.5566  141.9684  155.3120 H   0  0  0  0  0  0  0  0  0  0  0  0
  150.0006  140.0967  157.1712 H   0  0  0  0  0  0  0  0  0  0  0  0
  150.9204  142.0684  158.5398 H   0  0  0  0  0  0  0  0  0  0  0  0
  152.3544  141.3441  160.6163 H   0  0  0  0  0  0  0  0  0  0  0  0
  153.6879  141.6164  159.5223 H   0  0  0  0  0  0  0  0  0  0  0  0
  153.3055  143.6976  160.7775 H   0  0  0  0  0  0  0  0  0  0  0  0
  153.7948  144.4370  158.5237 H   0  0  0  0  0  0  0  0  0  0  0  0
  152.2280  143.8665  157.9337 H   0  0  0  0  0  0  0  0  0  0  0  0
  152.7260  146.1415  159.8817 H   0  0  0  0  0  0  0  0  0  0  0  0
  151.7708  146.2071  158.3952 H   0  0  0  0  0  0  0  0  0  0  0  0
  150.5805  145.7058  160.8276 H   0  0  0  0  0  0  0  0  0  0  0  0
  150.0143  144.8890  159.3686 H   0  0  0  0  0  0  0  0  0  0  0  0
  151.6538  137.6165  157.1462 H   0  0  0  0  0  0  0  0  0  0  0  0
  151.8575  137.8630  153.0376 H   0  0  0  0  0  0  0  0  0  0  0  0
  1  2  1  0  0  0  0
  1 17  1  0  0  0  0
  1 18  1  0  0  0  0
  1 19  1  0  0  0  0
  2  3  1  0  0  0  0
  2 12  1  0  0  0  0
  2 20  1  0  0  0  0
  3  4  2  0  0  0  0
  3  5  1  0  0  0  0
  5  6  1  0  0  0  0
  5 21  1  0  0  0  0
  6  7  1  0  0  0  0
  6 22  1  0  0  0  0
  6 23  1  0  0  0  0
  7 11  1  0  0  0  0
  7  8  1  0  0  0  0
  7 24  1  0  0  0  0
  8  9  1  0  0  0  0
  8 25  1  0  0  0  0
  8 26  1  0  0  0  0
  9 10  1  0  0  0  0
  9 27  1  0  0  0  0
  9 28  1  0  0  0  0
 10 11  1  0  0  0  0
 10 29  1  0  0  0  0
 10 30  1  0  0  0  0
 12 16  1  0  0  0  0
 12 13  1  0  0  0  0
 13 14  2  0  0  0  0
 13 31  1  0  0  0  0
 14 15  1  0  0  0  0
 15 16  2  0  0  0  0
 15 32  1  0  0  0  0
M  END
> <s_m_source_file>
AV-unprocessed.smi

> <i_m_source_file_index>
3133

> <i_lp_mmshare_version>
43012

> <i_f3d_flags>
0

> <s_epik_input>
bjFbY0hdbltjSF1uMVtDQEhdKFtDSDNdKUMoPU8pW05IXVtDSDJdW0NAQEhdMltDSDJdW0NIMl1bQ0gyXU8y

> <s_epik_cmdline>
J2VwaWtfcHl0aG9uJywgJy1waCcsICc3LjAnLCAnLXRuJywgJzgnLCAnLW1hJywgJzIwMCcsICctbWV0YWxfYmluZGluZycsICctaW1hZScsICc8aW5maWxlLm1hZT4nLCAnLW9tYWUnLCAnPG91dGZpbGUubWFlPic=

> <r_lp_tautomer_probability>
1

> <r_epik_Ionization_Penalty>
1.2027e-05

> <r_epik_Ionization_Penalty_Charging>
0

> <r_epik_Ionization_Penalty_Neutral>
1.2027e-05

> <r_epik_State_Penalty>
-0

> <r_epik_Charging_Adjusted_Penalty>
0

> <i_epik_Tot_Q>
0

> <i_epik_Tot_abs_Q>
0

> <r_epik_Metal_State_Penalty>
-0

> <b_epik_Metal_Only>
0

> <s_lp_Force_Field>
OPLS_2005

> <r_lp_Energy>
23.186

> <b_lp_Chiralities_Consistent>
1

> <s_lp_Variant>
AV-unprocessed.smi:3133-3

> <Gold.Version>
5.8.1

> <Gold.Id.Protein>
6NUR|6NUR_protein|mol2

> <Gold.PLP.Fitness>
47.7790

> <Gold.PLP.PLP>
-36.3337

> <Gold.PLP.part.hbond>
-3.3873

> <Gold.PLP.part.metal>
0.0000

> <Gold.PLP.part.buried>
-4.6284

> <Gold.PLP.part.nonpolar>
-27.7662

> <Gold.PLP.part.repulsive>
0.4174

> <Gold.PLP.ligand.clash>
0.0000

> <Gold.PLP.ligand.torsion>
0.3059

> <Gold.PLP.Chemscore.Hbond>
2.9760

> <Gold.PLP.Chemscore.CHOScore>
1.0000

> <Gold.PLP.Chemscore.Metal>
0.0000

> <Gold.Chemscore.Hbonds>
donor molecule, donor type, donor heavy atom, donor atom, acceptor molecule, acceptor atom, score
      P1  H  7989  7998       L1    16  1.00
      P1  H  7997  8010       L1     4  1.00
      P1  H 10752 10765       L1    14  0.98
      L1  C    15    32       P1  7949  1.00

> <Gold.PLP.Chemscore.Internal.Correction>
0.1291

> <Gold.Rescore>
     Score         DG    S(hbond)    S(metal)    S(lipo)     H(rot)  DE(clash)    DE(int)     intcor
     16.17     -17.85       2.84        0.00      73.94       2.26       0.15       1.54       ----

> <Gold.Chemscore.Fitness>
16.1684

> <Gold.Chemscore.DG>
-17.8509

> <Gold.Chemscore.ZeroCoef>
-5.4800

> <Gold.Chemscore.Hbond>
2.8426

> <Gold.Chemscore.Metal>
0.0000

> <Gold.Chemscore.Lipo>
73.9435

> <Gold.Chemscore.Internal_Hbond>
0.0000

> <Gold.Chemscore.DEClash>
0.1454

> <Gold.Chemscore.DEInternal>
1.5371

> <Gold.Chemscore.Rot>
2.2558

> <Gold.Chemscore.Internal.Correction>
   9.000000E+99

> <Gold.Chemscore.Hbonds>
donor molecule, donor type, donor heavy atom, donor atom, acceptor molecule, acceptor atom, score
      P1  H  7989  7998       L1    16  0.99
      P1  H  7997  8010       L1     4  0.99
      P1  H 10752 10765       L1    14  0.81

> <Gold.Chemscore.Hbond.Weighted>
-9.4942

> <Gold.Chemscore.Metal.Weighted>
-0.0000

> <Gold.Chemscore.Lipo.Weighted>
-8.6514

> <Gold.Chemscore.Internal_Hbond.Weighted>
0.0000

> <Gold.Chemscore.DEClash.Weighted>
0.1454

> <Gold.Chemscore.DEInternal.Weighted>
1.5371

> <Gold.Chemscore.Rot.Weighted>
5.7747

> <Gold.Chemscore.Internal.Correction.Weighted>
   9.000000E+99

> <Gold.Protein.RotatedTorsions>
[ 6907 6896 6895 6894 ] final -149.14 input  -60.11 | X-H torsion
[ 7974 7965 7964 7962 ] final -172.29 input  175.53 | X-H torsion
[ 8008 7997 7996 7995 ] final   38.06 input   59.86 | X-H torsion
[ 10167 10162 10161 10158 ] final  130.28 input  -65.29 | X-H torsion
[ 10718 10713 10712 10709 ] final   24.32 input   66.30 | X-H torsion
[ 10763 10752 10751 10750 ] final  177.04 input  -60.55 | X-H torsion
[ 11005 11000 10999 10996 ] final  135.98 input  -57.11 | X-H torsion

> <Gold.Protein.ActiveResidues>
 VAL166  LYS551  ARG553  GLY616  TRP617  ASP618  TYR619  PRO620  LYS621  CYS622 
 ASP623  PHE694  ASN695  SER759  ASP760  ASP761  ALA762  ILE779  LEU786  VAL792 
 PHE793  MET794  SER795  GLU796  ALA797  LYS798  CYS799  TRP800  GLU811  SER814 

> <Gold.Protein.RotatedAtoms>
  151.1798  133.4732  159.2593 H   0  0  0  0  0  0  0  0  0  0  0  0  # atno 6907 bound_to 6896
  151.1271  135.0110  159.8575 H   0  0  0  0  0  0  0  0  0  0  0  0  # atno 6908 bound_to 6896
  152.5458  134.1704  159.8647 H   0  0  0  0  0  0  0  0  0  0  0  0  # atno 6909 bound_to 6896
  144.7148  140.1794  143.6360 H   0  0  0  0  0  0  0  0  0  0  0  0  # atno 7974 bound_to 7965
  155.2140  140.3325  155.4325 H   0  0  0  0  0  0  0  0  0  0  0  0  # atno 8008 bound_to 7997
  156.2359  140.1872  156.7168 H   0  0  0  0  0  0  0  0  0  0  0  0  # atno 8009 bound_to 7997
  154.6059  140.0616  156.9416 H   0  0  0  0  0  0  0  0  0  0  0  0  # atno 8010 bound_to 7997
  139.5437  144.6754  151.4540 H   0  0  0  0  0  0  0  0  0  0  0  0  # atno 10167 bound_to 10162
  157.1781  130.6790  149.6103 H   0  0  0  0  0  0  0  0  0  0  0  0  # atno 10718 bound_to 10713
  154.4892  135.2778  155.1510 H   0  0  0  0  0  0  0  0  0  0  0  0  # atno 10763 bound_to 10752
  154.3188  135.6214  153.5502 H   0  0  0  0  0  0  0  0  0  0  0  0  # atno 10764 bound_to 10752
  152.9885  135.5737  154.5310 H   0  0  0  0  0  0  0  0  0  0  0  0  # atno 10765 bound_to 10752
  140.0015  134.9476  157.0083 H   0  0  0  0  0  0  0  0  0  0  0  0  # atno 11005 bound_to 11000
  145.8871  139.2355  143.1571 LP  0  0  0  0  0  0  0  0  0  0  0  0  # atno 17320 bound_to 7965
  145.9940  140.8578  143.0052 LP  0  0  0  0  0  0  0  0  0  0  0  0  # atno 17321 bound_to 7965
  140.6678  143.8360  150.6962 LP  0  0  0  0  0  0  0  0  0  0  0  0  # atno 17342 bound_to 10162
  140.1775  143.4143  152.1957 LP  0  0  0  0  0  0  0  0  0  0  0  0  # atno 17343 bound_to 10162
  155.9728  130.4656  150.6259 LP  0  0  0  0  0  0  0  0  0  0  0  0  # atno 17370 bound_to 10713
  157.3979  131.0805  151.1335 LP  0  0  0  0  0  0  0  0  0  0  0  0  # atno 17371 bound_to 10713
  140.4718  134.1378  155.7204 LP  0  0  0  0  0  0  0  0  0  0  0  0  # atno 17394 bound_to 11000
  141.1645  133.8728  157.1752 LP  0  0  0  0  0  0  0  0  0  0  0  0  # atno 17395 bound_to 11000

$$$$
