AV-unprocessed.smi:83|AV-procd|sdf|807|dock5
  -GOLD-   2262017203D 1   1.00000     0.00000
 Structure written by MMmdl.
 56 59  0  0  0  0  0  0  0  0  1 V2000
  152.5179  143.2257  160.2211 C   0  0  0  0  0  0  0  0  0  0  0  0
  151.7935  143.3805  158.8827 C   0  0  0  0  0  0  0  0  0  0  0  0
  151.6150  144.5099  158.4270 O   0  0  0  0  0  0  0  0  0  0  0  0
  151.3719  142.2673  158.2493 N   0  0  0  0  0  0  0  0  0  0  0  0
  151.5586  140.8950  158.7173 C   0  0  0  0  0  0  0  0  0  0  0  0
  151.0871  140.0031  157.5669 C   0  0  0  0  0  0  0  0  0  0  0  0
  150.0814  140.8681  156.8145 C   0  0  2  0  0  0  0  0  0  0  0  0
  149.8442  140.4288  155.3557 C   0  0  0  0  0  0  0  0  0  0  0  0
  148.4333  140.4873  154.9687 N   0  0  0  0  0  0  0  0  0  0  0  0
  147.9568  141.6813  154.2826 C   0  0  0  0  0  0  0  0  0  0  0  0
  147.7381  139.3231  154.8497 C   0  0  0  0  0  0  0  0  0  0  0  0
  147.7291  138.4774  155.9143 N   0  0  0  0  0  0  0  0  0  0  0  0
  147.0787  137.3126  155.8565 C   0  0  0  0  0  0  0  0  0  0  0  0
  146.3816  136.7973  154.8439 N   0  0  0  0  0  0  0  0  0  0  0  0
  146.3847  137.6350  153.7687 C   0  0  0  0  0  0  0  0  0  0  0  0
  147.0249  138.9058  153.6842 C   0  0  0  0  0  0  0  0  0  0  0  0
  146.8075  139.4482  152.4208 N   0  0  0  0  0  0  0  0  0  0  0  0
  146.0801  138.5587  151.8030 C   0  0  0  0  0  0  0  0  0  0  0  0
  145.7824  137.4370  152.5399 N   0  0  0  0  0  0  0  0  0  0  0  0
  145.0044  136.2903  152.1073 C   0  0  0  0  0  0  0  0  0  0  0  0
  145.8873  135.1621  151.5417 C   0  0  1  0  0  0  0  0  0  0  0  0
  146.9227  134.8371  152.4510 O   0  0  0  0  0  0  0  0  0  0  0  0
  145.0781  133.9046  151.1657 C   0  0  1  0  0  0  0  0  0  0  0  0
  144.0520  134.0648  150.0311 C   0  0  0  0  0  0  0  0  0  0  0  0
  144.3041  132.8594  149.1378 C   0  0  0  0  0  0  0  0  0  0  0  0
  145.1396  131.9322  150.0136 C   0  0  0  0  0  0  0  0  0  0  0  0
  145.9273  132.8336  150.7725 O   0  0  0  0  0  0  0  0  0  0  0  0
  150.6522  142.2815  156.9794 C   0  0  0  0  0  0  0  0  0  0  0  0
  151.9036  142.6734  160.9326 H   0  0  0  0  0  0  0  0  0  0  0  0
  152.7371  144.2021  160.6548 H   0  0  0  0  0  0  0  0  0  0  0  0
  153.4623  142.6973  160.0885 H   0  0  0  0  0  0  0  0  0  0  0  0
  152.5967  140.6841  158.9773 H   0  0  0  0  0  0  0  0  0  0  0  0
  150.9429  140.7318  159.6030 H   0  0  0  0  0  0  0  0  0  0  0  0
  151.9329  139.7668  156.9193 H   0  0  0  0  0  0  0  0  0  0  0  0
  150.6590  139.0618  157.9130 H   0  0  0  0  0  0  0  0  0  0  0  0
  149.1381  140.8180  157.3609 H   0  0  0  0  0  0  0  0  0  0  0  0
  150.4708  141.0102  154.6792 H   0  0  0  0  0  0  0  0  0  0  0  0
  150.1775  139.3971  155.2389 H   0  0  0  0  0  0  0  0  0  0  0  0
  146.8801  141.8008  154.4077 H   0  0  0  0  0  0  0  0  0  0  0  0
  148.1852  141.6337  153.2176 H   0  0  0  0  0  0  0  0  0  0  0  0
  148.4364  142.5717  154.6894 H   0  0  0  0  0  0  0  0  0  0  0  0
  147.1257  136.7060  156.7488 H   0  0  0  0  0  0  0  0  0  0  0  0
  145.7397  138.6964  150.7868 H   0  0  0  0  0  0  0  0  0  0  0  0
  144.4147  135.9305  152.9519 H   0  0  0  0  0  0  0  0  0  0  0  0
  144.2937  136.6280  151.3521 H   0  0  0  0  0  0  0  0  0  0  0  0
  146.3735  135.5254  150.6355 H   0  0  0  0  0  0  0  0  0  0  0  0
  147.7426  135.1390  152.0913 H   0  0  0  0  0  0  0  0  0  0  0  0
  144.5451  133.5622  152.0546 H   0  0  0  0  0  0  0  0  0  0  0  0
  143.0386  134.0509  150.4345 H   0  0  0  0  0  0  0  0  0  0  0  0
  144.1668  134.9924  149.4700 H   0  0  0  0  0  0  0  0  0  0  0  0
  143.3857  132.3909  148.7826 H   0  0  0  0  0  0  0  0  0  0  0  0
  144.8865  133.1631  148.2671 H   0  0  0  0  0  0  0  0  0  0  0  0
  144.5048  131.3477  150.6817 H   0  0  0  0  0  0  0  0  0  0  0  0
  145.7569  131.2456  149.4340 H   0  0  0  0  0  0  0  0  0  0  0  0
  149.8600  143.0321  156.9643 H   0  0  0  0  0  0  0  0  0  0  0  0
  151.3587  142.5169  156.1819 H   0  0  0  0  0  0  0  0  0  0  0  0
  1  2  1  0  0  0  0
  1 29  1  0  0  0  0
  1 30  1  0  0  0  0
  1 31  1  0  0  0  0
  2  3  2  0  0  0  0
  2  4  1  0  0  0  0
  4 28  1  0  0  0  0
  4  5  1  0  0  0  0
  5  6  1  0  0  0  0
  5 32  1  0  0  0  0
  5 33  1  0  0  0  0
  6  7  1  0  0  0  0
  6 34  1  0  0  0  0
  6 35  1  0  0  0  0
  7  8  1  0  0  0  0
  7 28  1  0  0  0  0
  7 36  1  0  0  0  0
  8  9  1  0  0  0  0
  8 37  1  0  0  0  0
  8 38  1  0  0  0  0
  9 10  1  0  0  0  0
  9 11  1  0  0  0  0
 10 39  1  0  0  0  0
 10 40  1  0  0  0  0
 10 41  1  0  0  0  0
 11 16  1  0  0  0  0
 11 12  2  0  0  0  0
 12 13  1  0  0  0  0
 13 14  2  0  0  0  0
 13 42  1  0  0  0  0
 14 15  1  0  0  0  0
 15 19  1  0  0  0  0
 15 16  2  0  0  0  0
 16 17  1  0  0  0  0
 17 18  2  0  0  0  0
 18 19  1  0  0  0  0
 18 43  1  0  0  0  0
 19 20  1  0  0  0  0
 20 21  1  0  0  0  0
 20 44  1  0  0  0  0
 20 45  1  0  0  0  0
 21 22  1  0  0  0  0
 21 23  1  0  0  0  0
 21 46  1  0  0  0  0
 22 47  1  0  0  0  0
 23 27  1  0  0  0  0
 23 24  1  0  0  0  0
 23 48  1  0  0  0  0
 24 25  1  0  0  0  0
 24 49  1  0  0  0  0
 24 50  1  0  0  0  0
 25 26  1  0  0  0  0
 25 51  1  0  0  0  0
 25 52  1  0  0  0  0
 26 27  1  0  0  0  0
 26 53  1  0  0  0  0
 26 54  1  0  0  0  0
 28 55  1  0  0  0  0
 28 56  1  0  0  0  0
M  END
> <s_m_source_file>
AV-unprocessed.smi

> <i_m_source_file_index>
83

> <i_lp_mmshare_version>
43012

> <i_f3d_flags>
0

> <s_epik_input>
W0NIM11DKD1PKU4xW0NIMl1bQ0gyXVtDQEhdKFtDSDJdMSlbQ0gyXU4oW0NIM10pYyhuW2NIXW4yKWMoYzIzKW5bY0hdbjNbQ0gyXVtDQEhdKFtPSF0pW0NAQEhdNFtDSDJdW0NIMl1bQ0gyXU80

> <s_epik_cmdline>
J2VwaWtfcHl0aG9uJywgJy1waCcsICc3LjAnLCAnLXRuJywgJzgnLCAnLW1hJywgJzIwMCcsICctbWV0YWxfYmluZGluZycsICctaW1hZScsICc8aW5maWxlLm1hZT4nLCAnLW9tYWUnLCAnPG91dGZpbGUubWFlPic=

> <r_lp_tautomer_probability>
1

> <r_epik_Ionization_Penalty>
0.00109752

> <r_epik_Ionization_Penalty_Charging>
0

> <r_epik_Ionization_Penalty_Neutral>
0.00109752

> <r_epik_State_Penalty>
0.000634803

> <r_epik_Charging_Adjusted_Penalty>
0.000634803

> <i_epik_Tot_Q>
0

> <i_epik_Tot_abs_Q>
0

> <r_epik_Metal_State_Penalty>
-0

> <b_epik_Metal_Only>
0

> <s_lp_Force_Field>
OPLS_2005

> <r_lp_Energy>
54.4429

> <b_lp_Chiralities_Consistent>
1

> <s_lp_Variant>
AV-unprocessed.smi:83-8

> <Gold.Version>
5.8.1

> <Gold.Id.Protein>
6NUR|6NUR_protein|mol2

> <Gold.PLP.Fitness>
49.2968

> <Gold.PLP.PLP>
-46.8588

> <Gold.PLP.part.hbond>
-0.9537

> <Gold.PLP.part.metal>
0.0000

> <Gold.PLP.part.buried>
-4.9796

> <Gold.PLP.part.nonpolar>
-43.9277

> <Gold.PLP.part.repulsive>
2.4946

> <Gold.PLP.ligand.clash>
0.0000

> <Gold.PLP.ligand.torsion>
2.0253

> <Gold.PLP.Chemscore.Hbond>
1.0000

> <Gold.PLP.Chemscore.CHOScore>
0.9958

> <Gold.PLP.Chemscore.Metal>
0.0000

> <Gold.Chemscore.Hbonds>
donor molecule, donor type, donor heavy atom, donor atom, acceptor molecule, acceptor atom, score
      L1  H    22    47       P1  7948  1.00
      L1  C    18    43       P1 10171  1.00

> <Gold.PLP.Chemscore.Internal.Correction>
0.5013

> <Gold.Rescore>
     Score         DG    S(hbond)    S(metal)    S(lipo)     H(rot)  DE(clash)    DE(int)     intcor
     11.13     -13.29       0.98        0.00      95.95       2.62       0.23       1.93       ----

> <Gold.Chemscore.Fitness>
11.1331

> <Gold.Chemscore.DG>
-13.2913

> <Gold.Chemscore.ZeroCoef>
-5.4800

> <Gold.Chemscore.Hbond>
0.9820

> <Gold.Chemscore.Metal>
0.0000

> <Gold.Chemscore.Lipo>
95.9527

> <Gold.Chemscore.Internal_Hbond>
0.0000

> <Gold.Chemscore.DEClash>
0.2286

> <Gold.Chemscore.DEInternal>
1.9295

> <Gold.Chemscore.Rot>
2.6152

> <Gold.Chemscore.Internal.Correction>
   9.000000E+99

> <Gold.Chemscore.Hbonds>
donor molecule, donor type, donor heavy atom, donor atom, acceptor molecule, acceptor atom, score
      L1  H    22    47       P1  7948  0.91

> <Gold.Chemscore.Hbond.Weighted>
-3.2798

> <Gold.Chemscore.Metal.Weighted>
-0.0000

> <Gold.Chemscore.Lipo.Weighted>
-11.2265

> <Gold.Chemscore.Internal_Hbond.Weighted>
0.0000

> <Gold.Chemscore.DEClash.Weighted>
0.2286

> <Gold.Chemscore.DEInternal.Weighted>
1.9295

> <Gold.Chemscore.Rot.Weighted>
6.6949

> <Gold.Chemscore.Internal.Correction.Weighted>
   9.000000E+99

> <Gold.Protein.RotatedTorsions>
[ 6907 6896 6895 6894 ] final   74.67 input  -60.11 | X-H torsion
[ 7974 7965 7964 7962 ] final -126.09 input  175.53 | X-H torsion
[ 8008 7997 7996 7995 ] final  -76.26 input   59.86 | X-H torsion
[ 10167 10162 10161 10158 ] final   95.14 input  -65.29 | X-H torsion
[ 10718 10713 10712 10709 ] final  150.10 input   66.30 | X-H torsion
[ 10763 10752 10751 10750 ] final  -33.67 input  -60.55 | X-H torsion
[ 11005 11000 10999 10996 ] final   27.96 input  -57.11 | X-H torsion

> <Gold.Protein.ActiveResidues>
 VAL166  LYS551  ARG553  GLY616  TRP617  ASP618  TYR619  PRO620  LYS621  CYS622 
 ASP623  PHE694  ASN695  SER759  ASP760  ASP761  ALA762  ILE779  LEU786  VAL792 
 PHE793  MET794  SER795  GLU796  ALA797  LYS798  CYS799  TRP800  GLU811  SER814 

> <Gold.Protein.RotatedAtoms>
  152.4987  134.4236  159.9488 H   0  0  0  0  0  0  0  0  0  0  0  0  # atno 6907 bound_to 6896
  151.4211  133.3692  159.2764 H   0  0  0  0  0  0  0  0  0  0  0  0  # atno 6908 bound_to 6896
  150.9222  134.8662  159.7556 H   0  0  0  0  0  0  0  0  0  0  0  0  # atno 6909 bound_to 6896
  144.9909  140.7730  143.4555 H   0  0  0  0  0  0  0  0  0  0  0  0  # atno 7974 bound_to 7965
  154.5490  140.0730  156.8636 H   0  0  0  0  0  0  0  0  0  0  0  0  # atno 8008 bound_to 7997
  155.3031  140.3385  155.4228 H   0  0  0  0  0  0  0  0  0  0  0  0  # atno 8009 bound_to 7997
  156.1944  140.1698  156.8014 H   0  0  0  0  0  0  0  0  0  0  0  0  # atno 8010 bound_to 7997
  139.8017  144.6811  150.9756 H   0  0  0  0  0  0  0  0  0  0  0  0  # atno 10167 bound_to 10162
  157.2877  131.0847  151.1485 H   0  0  0  0  0  0  0  0  0  0  0  0  # atno 10718 bound_to 10713
  153.8341  135.6863  153.4811 H   0  0  0  0  0  0  0  0  0  0  0  0  # atno 10763 bound_to 10752
  153.1493  135.4625  154.9611 H   0  0  0  0  0  0  0  0  0  0  0  0  # atno 10764 bound_to 10752
  154.7874  135.3289  154.7801 H   0  0  0  0  0  0  0  0  0  0  0  0  # atno 10765 bound_to 10752
  140.3207  134.2547  155.7718 H   0  0  0  0  0  0  0  0  0  0  0  0  # atno 11005 bound_to 11000
  145.2288  139.2125  143.5054 LP  0  0  0  0  0  0  0  0  0  0  0  0  # atno 17320 bound_to 7965
  146.3431  140.2160  142.8590 LP  0  0  0  0  0  0  0  0  0  0  0  0  # atno 17321 bound_to 7965
  140.7820  143.4275  151.0746 LP  0  0  0  0  0  0  0  0  0  0  0  0  # atno 17342 bound_to 10162
  139.7946  143.8170  152.3156 LP  0  0  0  0  0  0  0  0  0  0  0  0  # atno 17343 bound_to 10162
  157.2893  130.6788  149.6106 LP  0  0  0  0  0  0  0  0  0  0  0  0  # atno 17370 bound_to 10713
  155.9666  130.4425  150.5386 LP  0  0  0  0  0  0  0  0  0  0  0  0  # atno 17371 bound_to 10713
  141.2087  133.7769  157.0041 LP  0  0  0  0  0  0  0  0  0  0  0  0  # atno 17394 bound_to 11000
  140.0945  134.9573  157.1827 LP  0  0  0  0  0  0  0  0  0  0  0  0  # atno 17395 bound_to 11000

$$$$
