#       Name:                AV-unprocessed.smi:1172
#       Creating user name   scv26
#       Creation time:       Fri Mar 27 03:52:56 2020


#       File generated by GOLD software.
#

@<TRIPOS>MOLECULE
AV-unprocessed.smi:1172
    43    44     1
SMALL
NO_CHARGES


@<TRIPOS>ATOM
      1 ****        -5.5252  -1.8924  -0.2516 N.am           1 S1                 0.0000
      2 ****        -5.6002  -0.6543   0.2440 C.2            1 S1                 0.0000
      3 ****        -6.1713  -0.4045   1.3032 O.2            1 S1                 0.0000
      4 ****        -4.9376   0.4638  -0.5633 C.3            1 S1                 0.0000
      5 ****        -3.6323   0.7978  -0.0214 N.pl3          1 S1                 0.0000
      6 ****        -2.4404   0.1194  -0.1875 C.2            1 S1                 0.0000
      7 ****        -1.5094   0.8275   0.5184 C.2            1 S1                 0.0000
      8 ****        -0.1241   0.5771   0.6886 N.am           1 S1                 0.0000
      9 ****         0.6019  -0.4350   0.1759 C.2            1 S1                 0.0000
     10 ****         0.1077  -1.3460  -0.4896 O.2            1 S1                 0.0000
     11 ****         1.9213  -0.3925   0.4944 N.am           1 S1                 0.0000
     12 ****         2.6431   0.7625   1.0588 C.3            1 S1                 0.0000
     13 ****         3.4824   1.4152  -0.0552 C.3            1 S1                 0.0000
     14 ****         4.4438   0.3921  -0.6889 C.3            1 S1                 0.0000
     15 ****         3.7059  -0.8973  -1.1029 C.3            1 S1                 0.0000
     16 ****         4.6463  -1.8711  -1.5027 O.3            1 S1                 0.0000
     17 ****         2.8560  -1.4408   0.0623 C.3            1 S1                 0.0000
     18 ****        -2.2068   1.9254   1.0855 C.2            1 S1                 0.0000
     19 ****        -3.4886   1.9019   0.7540 N.2            1 S1                 0.0000
     20 ****        -5.9501  -2.6581   0.2513 H              1 S1                 0.0000
     21 ****        -5.0462  -2.0608  -1.1244 H              1 S1                 0.0000
     22 ****        -4.8185   0.1665  -1.6062 H              1 S1                 0.0000
     23 ****        -5.5748   1.3497  -0.5544 H              1 S1                 0.0000
     24 ****        -2.3733  -0.7826  -0.7776 H              1 S1                 0.0000
     25 ****         0.3786   1.2523   1.2458 H              1 S1                 0.0000
     26 ****         1.9967   1.5099   1.5185 H              1 S1                 0.0000
     27 ****         3.2967   0.4175   1.8613 H              1 S1                 0.0000
     28 ****         2.8198   1.8194  -0.8217 H              1 S1                 0.0000
     29 ****         4.0461   2.2588   0.3437 H              1 S1                 0.0000
     30 ****         4.9503   0.8336  -1.5479 H              1 S1                 0.0000
     31 ****         5.2218   0.1481   0.0362 H              1 S1                 0.0000
     32 ****         3.0571  -0.6863  -1.9543 H              1 S1                 0.0000
     33 ****         5.2147  -2.0589  -0.7717 H              1 S1                 0.0000
     34 ****         3.4954  -1.7193   0.9018 H              1 S1                 0.0000
     35 ****         2.3476  -2.3591  -0.2363 H              1 S1                 0.0000
     36 ****        -1.8349   2.7221   1.7127 H              1 S1                 0.0000
     37 ****        -6.6004  -1.1413   1.8257 LP             1 S1                 0.0000
     38 ****        -6.2068   0.5355   1.6426 LP             1 S1                 0.0000
     39 ****        -0.8757  -1.3562  -0.6708 LP             1 S1                 0.0000
     40 ****         0.6899  -2.0755  -0.8486 LP             1 S1                 0.0000
     41 ****         5.1866  -1.5233  -2.2689 LP             1 S1                 0.0000
     42 ****         4.1700  -2.7049  -1.7820 LP             1 S1                 0.0000
     43 ****        -4.1972   2.5562   1.0180 LP             1 S1                 0.0000
@<TRIPOS>BOND
    1    1    2 am    
    2    1   20 1     
    3    1   21 1     
    4    2    3 2     
    5    2    4 1     
    6    4    5 1     
    7    4   22 1     
    8    4   23 1     
    9    5   19 1     
   10    5    6 1     
   11    6    7 2     
   12    6   24 1     
   13    7    8 1     
   14    7   18 1     
   15    8    9 am    
   16    8   25 1     
   17    9   10 2     
   18    9   11 am    
   19   11   17 1     
   20   11   12 1     
   21   12   13 1     
   22   12   26 1     
   23   12   27 1     
   24   13   14 1     
   25   13   28 1     
   26   13   29 1     
   27   14   15 1     
   28   14   30 1     
   29   14   31 1     
   30   15   16 1     
   31   15   17 1     
   32   15   32 1     
   33   16   33 1     
   34   17   34 1     
   35   17   35 1     
   36   18   19 2     
   37   18   36 1     
   38    3   37 1     
   39    3   38 1     
   40   10   39 1     
   41   10   40 1     
   42   16   41 1     
   43   16   42 1     
   44   19   43 1     
@<TRIPOS>SUBSTRUCTURE
      1 S1             1
@<TRIPOS>SET
LONE_PAIRS      STATIC     ATOMS    <user>   **** ""
7 37 38 39 40 41 42 43
DONOR_HYDROGENS      STATIC     ATOMS    <user>   **** ""
4 20 21 25 33
ATOM$BLUE        STATIC     ATOMS    COLORGROUP SYSTEM
7 37 38 39 40 41 42 43
ATOM$RED        STATIC     ATOMS    COLORGROUP SYSTEM
4 20 21 25 33
