AV-unprocessed.smi:3274|AV-procd|sdf|12522|dock6
  -GOLD-   2272018433D 1   1.00000     0.00000
 Structure written by MMmdl.
 43 44  0  0  0  0  0  0  0  0  2 V2000
  152.1876  144.3649  157.6521 C   0  0  0  0  0  0  0  0  0  0  0  0
  152.3397  143.8479  159.0731 C   0  0  0  0  0  0  0  0  0  0  0  0
  152.0080  144.6209  160.1262 C   0  0  0  0  0  0  0  0  0  0  0  0
  152.1680  144.2185  161.5816 C   0  0  0  0  0  0  0  0  0  0  0  0
  152.5735  142.7462  161.7596 C   0  0  0  0  0  0  0  0  0  0  0  0
  153.5576  142.2986  160.6655 C   0  0  1  0  0  0  0  0  0  0  0  0
  154.1593  140.9138  160.9606 C   0  0  0  0  0  0  0  0  0  0  0  0
  152.9217  142.4386  159.2529 C   0  0  1  0  0  0  0  0  0  0  0  0
  151.8768  141.3348  158.9456 C   0  0  0  0  0  0  0  0  0  0  0  0
  152.0528  140.7379  157.6044 N   0  3  0  0  0  0  0  0  0  0  0  0
  150.8025  140.3651  156.9069 C   0  0  2  0  0  0  0  0  0  0  0  0
  150.3807  141.5120  155.9730 C   0  0  0  0  0  0  0  0  0  0  0  0
  149.6943  139.9953  157.9206 C   0  0  0  0  0  0  0  0  0  0  0  0
  149.7821  138.6225  158.3838 N   0  0  0  0  0  0  0  0  0  0  0  0
  150.7853  137.9631  158.9660 C   0  0  0  0  0  0  0  0  0  0  0  0
  150.5055  136.6962  159.2377 N   0  0  0  0  0  0  0  0  0  0  0  0
  149.2291  136.6343  158.7541 C   0  0  0  0  0  0  0  0  0  0  0  0
  148.7499  137.7609  158.2262 N   0  0  0  0  0  0  0  0  0  0  0  0
  153.0981  144.1877  157.0794 H   0  0  0  0  0  0  0  0  0  0  0  0
  151.9968  145.4386  157.6452 H   0  0  0  0  0  0  0  0  0  0  0  0
  151.3533  143.8869  157.1412 H   0  0  0  0  0  0  0  0  0  0  0  0
  151.6239  145.6166  159.9578 H   0  0  0  0  0  0  0  0  0  0  0  0
  152.9318  144.8642  162.0160 H   0  0  0  0  0  0  0  0  0  0  0  0
  151.2416  144.4209  162.1201 H   0  0  0  0  0  0  0  0  0  0  0  0
  153.0134  142.6111  162.7484 H   0  0  0  0  0  0  0  0  0  0  0  0
  151.6849  142.1149  161.7369 H   0  0  0  0  0  0  0  0  0  0  0  0
  154.3986  142.9940  160.6976 H   0  0  0  0  0  0  0  0  0  0  0  0
  153.3902  140.1546  161.1030 H   0  0  0  0  0  0  0  0  0  0  0  0
  154.7542  140.9395  161.8740 H   0  0  0  0  0  0  0  0  0  0  0  0
  154.8153  140.5876  160.1531 H   0  0  0  0  0  0  0  0  0  0  0  0
  153.7377  142.3345  158.5360 H   0  0  0  0  0  0  0  0  0  0  0  0
  151.9540  140.5184  159.6621 H   0  0  0  0  0  0  0  0  0  0  0  0
  150.8720  141.7447  159.0403 H   0  0  0  0  0  0  0  0  0  0  0  0
  152.5714  141.3788  157.0211 H   0  0  0  0  0  0  0  0  0  0  0  0
  151.0162  139.4981  156.2795 H   0  0  0  0  0  0  0  0  0  0  0  0
  149.5106  141.2430  155.3736 H   0  0  0  0  0  0  0  0  0  0  0  0
  151.1819  141.7659  155.2781 H   0  0  0  0  0  0  0  0  0  0  0  0
  150.1315  142.4117  156.5368 H   0  0  0  0  0  0  0  0  0  0  0  0
  149.7324  140.6406  158.7981 H   0  0  0  0  0  0  0  0  0  0  0  0
  148.7114  140.1420  157.4701 H   0  0  0  0  0  0  0  0  0  0  0  0
  151.7381  138.4167  159.1968 H   0  0  0  0  0  0  0  0  0  0  0  0
  148.6362  135.7321  158.7900 H   0  0  0  0  0  0  0  0  0  0  0  0
  152.6026  139.8988  157.7229 H   0  0  0  0  0  0  0  0  0  0  0  0
  1  2  1  0  0  0  0
  1 19  1  0  0  0  0
  1 20  1  0  0  0  0
  1 21  1  0  0  0  0
  2  8  1  0  0  0  0
  2  3  2  0  0  0  0
  3  4  1  0  0  0  0
  3 22  1  0  0  0  0
  4  5  1  0  0  0  0
  4 23  1  0  0  0  0
  4 24  1  0  0  0  0
  5  6  1  0  0  0  0
  5 25  1  0  0  0  0
  5 26  1  0  0  0  0
  6  7  1  0  0  0  0
  6  8  1  0  0  0  0
  6 27  1  0  0  0  0
  7 28  1  0  0  0  0
  7 29  1  0  0  0  0
  7 30  1  0  0  0  0
  8  9  1  0  0  0  0
  8 31  1  0  0  0  0
  9 10  1  0  0  0  0
  9 32  1  0  0  0  0
  9 33  1  0  0  0  0
 10 11  1  0  0  0  0
 10 34  1  0  0  0  0
 10 43  1  0  0  0  0
 11 12  1  0  0  0  0
 11 13  1  0  0  0  0
 11 35  1  0  0  0  0
 12 36  1  0  0  0  0
 12 37  1  0  0  0  0
 12 38  1  0  0  0  0
 13 14  1  0  0  0  0
 13 39  1  0  0  0  0
 13 40  1  0  0  0  0
 14 18  1  0  0  0  0
 14 15  1  0  0  0  0
 15 16  2  0  0  0  0
 15 41  1  0  0  0  0
 16 17  1  0  0  0  0
 17 18  2  0  0  0  0
 17 42  1  0  0  0  0
M  CHG  1  10   1
M  END
> <s_m_source_file>
AV-unprocessed.smi

> <i_m_source_file_index>
3274

> <i_lp_mmshare_version>
43012

> <i_f3d_flags>
0

> <s_epik_input>
W0NIM11DMT1bQ0hdW0NIMl1bQ0gyXVtDQEBIXShbQ0gzXSlbQ0BIXTFbQ0gyXVtOSF1bQ0BIXShbQ0gzXSlbQ0gyXW4yW2NIXW5bY0hdbjI=

> <s_epik_cmdline>
J2VwaWtfcHl0aG9uJywgJy1waCcsICc3LjAnLCAnLXRuJywgJzgnLCAnLW1hJywgJzIwMCcsICctbWV0YWxfYmluZGluZycsICctaW1hZScsICc8aW5maWxlLm1hZT4nLCAnLW9tYWUnLCAnPG91dGZpbGUubWFlPic=

> <r_lp_tautomer_probability>
1

> <r_epik_Ionization_Penalty>
0.0017527

> <r_epik_Ionization_Penalty_Charging>
0.00175191

> <r_epik_Ionization_Penalty_Neutral>
7.94565e-07

> <r_epik_State_Penalty>
0.00118605

> <r_epik_Charging_Adjusted_Penalty>
0.00293796

> <i_epik_Tot_Q>
1

> <i_epik_Tot_abs_Q>
1

> <r_epik_Metal_State_Penalty>
-0

> <b_epik_Metal_Only>
0

> <s_lp_Force_Field>
OPLS_2005

> <r_lp_Energy>
17.2811

> <b_lp_Chiralities_Consistent>
1

> <s_lp_Variant>
AV-unprocessed.smi:3274-1

> <Gold.Version>
5.8.1

> <Gold.Id.Protein>
6NUR|6NUR_protein|mol2

> <Gold.PLP.Fitness>
45.1445

> <Gold.PLP.PLP>
-45.2506

> <Gold.PLP.part.hbond>
-1.0000

> <Gold.PLP.part.metal>
0.0000

> <Gold.PLP.part.buried>
-5.7894

> <Gold.PLP.part.nonpolar>
-38.3974

> <Gold.PLP.part.repulsive>
0.0924

> <Gold.PLP.ligand.clash>
0.0000

> <Gold.PLP.ligand.torsion>
1.5701

> <Gold.PLP.Chemscore.Hbond>
1.0000

> <Gold.PLP.Chemscore.CHOScore>
0.0000

> <Gold.PLP.Chemscore.Metal>
0.0000

> <Gold.Chemscore.Hbonds>
donor molecule, donor type, donor heavy atom, donor atom, acceptor molecule, acceptor atom, score
      P1  H  6896  6909       L1    16  1.00

> <Gold.PLP.Chemscore.Internal.Correction>
0.0341

> <Gold.Rescore>
     Score         DG    S(hbond)    S(metal)    S(lipo)     H(rot)  DE(clash)    DE(int)     intcor
     15.19     -16.82       0.96        0.00     121.30       2.36       0.02       1.61       ----

> <Gold.Chemscore.Fitness>
15.1868

> <Gold.Chemscore.DG>
-16.8202

> <Gold.Chemscore.ZeroCoef>
-5.4800

> <Gold.Chemscore.Hbond>
0.9561

> <Gold.Chemscore.Metal>
0.0000

> <Gold.Chemscore.Lipo>
121.3022

> <Gold.Chemscore.Internal_Hbond>
0.0000

> <Gold.Chemscore.DEClash>
0.0195

> <Gold.Chemscore.DEInternal>
1.6139

> <Gold.Chemscore.Rot>
2.3615

> <Gold.Chemscore.Internal.Correction>
   9.000000E+99

> <Gold.Chemscore.Hbonds>
donor molecule, donor type, donor heavy atom, donor atom, acceptor molecule, acceptor atom, score
      P1  H  6896  6909       L1    16  0.65

> <Gold.Chemscore.Hbond.Weighted>
-3.1933

> <Gold.Chemscore.Metal.Weighted>
-0.0000

> <Gold.Chemscore.Lipo.Weighted>
-14.1924

> <Gold.Chemscore.Internal_Hbond.Weighted>
0.0000

> <Gold.Chemscore.DEClash.Weighted>
0.0195

> <Gold.Chemscore.DEInternal.Weighted>
1.6139

> <Gold.Chemscore.Rot.Weighted>
6.0454

> <Gold.Chemscore.Internal.Correction.Weighted>
   9.000000E+99

> <Gold.Protein.RotatedTorsions>
[ 6907 6896 6895 6894 ] final   81.43 input  -60.11 | X-H torsion
[ 7974 7965 7964 7962 ] final  -17.86 input  175.53 | X-H torsion
[ 8008 7997 7996 7995 ] final  -88.24 input   59.86 | X-H torsion
[ 10167 10162 10161 10158 ] final    1.43 input  -65.29 | X-H torsion
[ 10718 10713 10712 10709 ] final   61.36 input   66.30 | X-H torsion
[ 10763 10752 10751 10750 ] final  174.64 input  -60.55 | X-H torsion
[ 11005 11000 10999 10996 ] final  126.68 input  -57.11 | X-H torsion

> <Gold.Protein.ActiveResidues>
 VAL166  LYS551  ARG553  GLY616  TRP617  ASP618  TYR619  PRO620  LYS621  CYS622 
 ASP623  PHE694  ASN695  SER759  ASP760  ASP761  ALA762  ILE779  LEU786  VAL792 
 PHE793  MET794  SER795  GLU796  ALA797  LYS798  CYS799  TRP800  GLU811  SER814 

> <Gold.Protein.RotatedAtoms>
  152.5268  134.3204  159.9146 H   0  0  0  0  0  0  0  0  0  0  0  0  # atno 6907 bound_to 6896
  151.3154  133.4056  159.2658 H   0  0  0  0  0  0  0  0  0  0  0  0  # atno 6908 bound_to 6896
  151.0004  134.9334  159.8008 H   0  0  0  0  0  0  0  0  0  0  0  0  # atno 6909 bound_to 6896
  146.1921  140.3839  142.8454 H   0  0  0  0  0  0  0  0  0  0  0  0  # atno 7974 bound_to 7965
  154.6726  140.0556  157.0181 H   0  0  0  0  0  0  0  0  0  0  0  0  # atno 8008 bound_to 7997
  155.1067  140.3234  155.4514 H   0  0  0  0  0  0  0  0  0  0  0  0  # atno 8009 bound_to 7997
  156.2663  140.2021  156.6192 H   0  0  0  0  0  0  0  0  0  0  0  0  # atno 8010 bound_to 7997
  140.6683  143.7119  150.7871 H   0  0  0  0  0  0  0  0  0  0  0  0  # atno 10167 bound_to 10162
  157.5822  130.8990  149.9451 H   0  0  0  0  0  0  0  0  0  0  0  0  # atno 10718 bound_to 10713
  154.4567  135.2766  155.1742 H   0  0  0  0  0  0  0  0  0  0  0  0  # atno 10763 bound_to 10752
  154.3547  135.6142  153.5664 H   0  0  0  0  0  0  0  0  0  0  0  0  # atno 10764 bound_to 10752
  152.9851  135.5820  154.4921 H   0  0  0  0  0  0  0  0  0  0  0  0  # atno 10765 bound_to 10752
  139.9468  134.9628  156.8743 H   0  0  0  0  0  0  0  0  0  0  0  0  # atno 11005 bound_to 11000
  144.8506  140.6996  143.6170 LP  0  0  0  0  0  0  0  0  0  0  0  0  # atno 17320 bound_to 7965
  145.3761  139.1647  143.4306 LP  0  0  0  0  0  0  0  0  0  0  0  0  # atno 17321 bound_to 7965
  140.0800  143.4978  152.2535 LP  0  0  0  0  0  0  0  0  0  0  0  0  # atno 17342 bound_to 10162
  139.5940  144.7560  151.3330 LP  0  0  0  0  0  0  0  0  0  0  0  0  # atno 17343 bound_to 10162
  156.0869  130.3667  150.0471 LP  0  0  0  0  0  0  0  0  0  0  0  0  # atno 17370 bound_to 10713
  156.8608  130.9491  151.3618 LP  0  0  0  0  0  0  0  0  0  0  0  0  # atno 17371 bound_to 10713
  140.5814  134.0348  155.7465 LP  0  0  0  0  0  0  0  0  0  0  0  0  # atno 17394 bound_to 11000
  141.1121  133.9599  157.2890 LP  0  0  0  0  0  0  0  0  0  0  0  0  # atno 17395 bound_to 11000

$$$$
