AV-unprocessed.smi:347|AV-procd|sdf|2394|dock10
  -GOLD-   2262022323D 1   1.00000     0.00000
 Structure written by MMmdl.
 45 46  0  0  0  0  0  0  0  0  2 V2000
  152.0390  145.5246  159.5801 C   0  0  0  0  0  0  0  0  0  0  0  0
  151.4976  144.2258  159.0893 C   0  0  0  0  0  0  0  0  0  0  0  0
  152.0312  143.2246  158.3274 C   0  0  0  0  0  0  0  0  0  0  0  0
  150.9683  142.2865  158.2422 C   0  0  0  0  0  0  0  0  0  0  0  0
  151.1240  141.0743  157.5232 N   0  0  0  0  0  0  0  0  0  0  0  0
  150.8227  140.8428  156.2344 C   0  0  0  0  0  0  0  0  0  0  0  0
  150.3846  141.6798  155.4452 O   0  0  0  0  0  0  0  0  0  0  0  0
  151.0559  139.5643  155.9036 N   0  0  0  0  0  0  0  0  0  0  0  0
  150.8252  138.9685  154.5892 C   0  0  0  0  0  0  0  0  0  0  0  0
  149.4064  139.2083  154.0372 C   0  0  0  0  0  0  0  0  0  0  0  0
  148.2945  138.3398  154.6777 C   0  0  0  0  0  0  0  0  0  0  0  0
  147.8430  138.8828  156.0516 C   0  0  0  0  0  0  0  0  0  0  0  0
  147.0596  138.3952  153.7569 C   0  0  0  0  0  0  0  0  0  0  0  0
  148.7059  136.9097  154.7598 N   0  3  0  0  0  0  0  0  0  0  0  0
  150.0773  136.5521  155.2220 C   0  0  0  0  0  0  0  0  0  0  0  0
  150.1705  136.5375  156.7641 C   0  0  0  0  0  0  0  0  0  0  0  0
  150.3393  135.1076  154.7528 C   0  0  0  0  0  0  0  0  0  0  0  0
  151.1502  137.4662  154.5739 C   0  0  0  0  0  0  0  0  0  0  0  0
  149.8842  142.6784  158.8935 N   0  0  0  0  0  0  0  0  0  0  0  0
  150.2175  143.9240  159.4388 O   0  0  0  0  0  0  0  0  0  0  0  0
  153.1287  145.5277  159.5506 H   0  0  0  0  0  0  0  0  0  0  0  0
  151.7289  145.7119  160.6083 H   0  0  0  0  0  0  0  0  0  0  0  0
  151.6813  146.3489  158.9630 H   0  0  0  0  0  0  0  0  0  0  0  0
  153.0223  143.1753  157.9019 H   0  0  0  0  0  0  0  0  0  0  0  0
  151.4909  140.2972  158.0522 H   0  0  0  0  0  0  0  0  0  0  0  0
  151.4260  138.9544  156.6181 H   0  0  0  0  0  0  0  0  0  0  0  0
  151.5310  139.4531  153.9115 H   0  0  0  0  0  0  0  0  0  0  0  0
  149.1408  140.2646  154.0945 H   0  0  0  0  0  0  0  0  0  0  0  0
  149.4446  138.9859  152.9695 H   0  0  0  0  0  0  0  0  0  0  0  0
  147.3977  139.8730  155.9484 H   0  0  0  0  0  0  0  0  0  0  0  0
  148.6504  138.9917  156.7679 H   0  0  0  0  0  0  0  0  0  0  0  0
  147.0906  138.2365  156.5048 H   0  0  0  0  0  0  0  0  0  0  0  0
  146.7051  139.4187  153.6274 H   0  0  0  0  0  0  0  0  0  0  0  0
  146.2313  137.8120  154.1622 H   0  0  0  0  0  0  0  0  0  0  0  0
  147.2792  137.9992  152.7645 H   0  0  0  0  0  0  0  0  0  0  0  0
  148.0297  136.4048  155.3150 H   0  0  0  0  0  0  0  0  0  0  0  0
  151.1245  136.1217  157.0902 H   0  0  0  0  0  0  0  0  0  0  0  0
  149.3844  135.9213  157.2019 H   0  0  0  0  0  0  0  0  0  0  0  0
  150.1009  137.5203  157.2179 H   0  0  0  0  0  0  0  0  0  0  0  0
  151.3398  134.7731  155.0301 H   0  0  0  0  0  0  0  0  0  0  0  0
  150.2547  135.0159  153.6689 H   0  0  0  0  0  0  0  0  0  0  0  0
  149.6268  134.4084  155.1929 H   0  0  0  0  0  0  0  0  0  0  0  0
  151.2621  137.1788  153.5271 H   0  0  0  0  0  0  0  0  0  0  0  0
  152.1270  137.2867  155.0260 H   0  0  0  0  0  0  0  0  0  0  0  0
  148.6446  136.5610  153.8139 H   0  0  0  0  0  0  0  0  0  0  0  0
  1  2  1  0  0  0  0
  1 21  1  0  0  0  0
  1 22  1  0  0  0  0
  1 23  1  0  0  0  0
  2 20  1  0  0  0  0
  2  3  2  0  0  0  0
  3  4  1  0  0  0  0
  3 24  1  0  0  0  0
  4  5  1  0  0  0  0
  4 19  2  0  0  0  0
  5  6  1  0  0  0  0
  5 25  1  0  0  0  0
  6  7  2  0  0  0  0
  6  8  1  0  0  0  0
  8  9  1  0  0  0  0
  8 26  1  0  0  0  0
  9 18  1  0  0  0  0
  9 10  1  0  0  0  0
  9 27  1  0  0  0  0
 10 11  1  0  0  0  0
 10 28  1  0  0  0  0
 10 29  1  0  0  0  0
 11 12  1  0  0  0  0
 11 13  1  0  0  0  0
 11 14  1  0  0  0  0
 12 30  1  0  0  0  0
 12 31  1  0  0  0  0
 12 32  1  0  0  0  0
 13 33  1  0  0  0  0
 13 34  1  0  0  0  0
 13 35  1  0  0  0  0
 14 15  1  0  0  0  0
 14 36  1  0  0  0  0
 14 45  1  0  0  0  0
 15 16  1  0  0  0  0
 15 17  1  0  0  0  0
 15 18  1  0  0  0  0
 16 37  1  0  0  0  0
 16 38  1  0  0  0  0
 16 39  1  0  0  0  0
 17 40  1  0  0  0  0
 17 41  1  0  0  0  0
 17 42  1  0  0  0  0
 18 43  1  0  0  0  0
 18 44  1  0  0  0  0
 19 20  1  0  0  0  0
M  CHG  1  14   1
M  END
> <s_m_source_file>
AV-unprocessed.smi

> <i_m_source_file_index>
347

> <i_lp_mmshare_version>
43012

> <i_f3d_flags>
0

> <s_epik_input>
W0NIM11jMVtjSF1jKG5vMSlbTkhdQyg9TylbTkhdW0NIXShbQ0gyXUMyKFtDSDNdKVtDSDNdKVtDSDJdQyhbTkhdMikoW0NIM10pW0NIM10=

> <s_epik_cmdline>
J2VwaWtfcHl0aG9uJywgJy1waCcsICc3LjAnLCAnLXRuJywgJzgnLCAnLW1hJywgJzIwMCcsICctbWV0YWxfYmluZGluZycsICctaW1hZScsICc8aW5maWxlLm1hZT4nLCAnLW9tYWUnLCAnPG91dGZpbGUubWFlPic=

> <r_lp_tautomer_probability>
1

> <r_epik_Ionization_Penalty>
0.000125139

> <r_epik_Ionization_Penalty_Charging>
0.000103024

> <r_epik_Ionization_Penalty_Neutral>
2.21147e-05

> <r_epik_State_Penalty>
-0

> <r_epik_Charging_Adjusted_Penalty>
0.000103024

> <i_epik_Tot_Q>
1

> <i_epik_Tot_abs_Q>
1

> <r_epik_Metal_State_Penalty>
-0

> <b_epik_Metal_Only>
0

> <s_lp_Force_Field>
OPLS_2005

> <r_lp_Energy>
23.9758

> <b_lp_Chiralities_Consistent>
1

> <s_lp_Variant>
AV-unprocessed.smi:347-1

> <Gold.Version>
5.8.1

> <Gold.Id.Protein>
6NUR|6NUR_protein|mol2

> <Gold.PLP.Fitness>
36.4138

> <Gold.PLP.PLP>
-31.9607

> <Gold.PLP.part.hbond>
-2.5324

> <Gold.PLP.part.metal>
0.0000

> <Gold.PLP.part.buried>
-3.6739

> <Gold.PLP.part.nonpolar>
-26.6886

> <Gold.PLP.part.repulsive>
0.4848

> <Gold.PLP.ligand.clash>
0.0000

> <Gold.PLP.ligand.torsion>
0.7815

> <Gold.PLP.Chemscore.Hbond>
2.0000

> <Gold.PLP.Chemscore.CHOScore>
0.0000

> <Gold.PLP.Chemscore.Metal>
0.0000

> <Gold.Chemscore.Hbonds>
donor molecule, donor type, donor heavy atom, donor atom, acceptor molecule, acceptor atom, score
      L1  H    14    45       P1  7948  2.00
      P1  H  7989  7998       L1     7  0.01

> <Gold.PLP.Chemscore.Internal.Correction>
0.0162

> <Gold.Rescore>
     Score         DG    S(hbond)    S(metal)    S(lipo)     H(rot)  DE(clash)    DE(int)     intcor
     14.43     -16.37       1.25        0.00      79.18       1.00       1.19       0.76       ----

> <Gold.Chemscore.Fitness>
14.4271

> <Gold.Chemscore.DG>
-16.3750

> <Gold.Chemscore.ZeroCoef>
-5.4800

> <Gold.Chemscore.Hbond>
1.2546

> <Gold.Chemscore.Metal>
0.0000

> <Gold.Chemscore.Lipo>
79.1848

> <Gold.Chemscore.Internal_Hbond>
0.0000

> <Gold.Chemscore.DEClash>
1.1883

> <Gold.Chemscore.DEInternal>
0.7595

> <Gold.Chemscore.Rot>
1.0000

> <Gold.Chemscore.Internal.Correction>
   9.000000E+99

> <Gold.Chemscore.Hbonds>
donor molecule, donor type, donor heavy atom, donor atom, acceptor molecule, acceptor atom, score
      L1  H    14    45       P1  7948  0.97

> <Gold.Chemscore.Hbond.Weighted>
-4.1903

> <Gold.Chemscore.Metal.Weighted>
-0.0000

> <Gold.Chemscore.Lipo.Weighted>
-9.2646

> <Gold.Chemscore.Internal_Hbond.Weighted>
0.0000

> <Gold.Chemscore.DEClash.Weighted>
1.1883

> <Gold.Chemscore.DEInternal.Weighted>
0.7595

> <Gold.Chemscore.Rot.Weighted>
2.5600

> <Gold.Chemscore.Internal.Correction.Weighted>
   9.000000E+99

> <Gold.Protein.RotatedTorsions>
[ 6907 6896 6895 6894 ] final  112.79 input  -60.11 | X-H torsion
[ 7974 7965 7964 7962 ] final   71.41 input  175.53 | X-H torsion
[ 8008 7997 7996 7995 ] final -108.14 input   59.86 | X-H torsion
[ 10167 10162 10161 10158 ] final -129.17 input  -65.29 | X-H torsion
[ 10718 10713 10712 10709 ] final  -88.34 input   66.30 | X-H torsion
[ 10763 10752 10751 10750 ] final  119.85 input  -60.55 | X-H torsion
[ 11005 11000 10999 10996 ] final -141.60 input  -57.11 | X-H torsion

> <Gold.Protein.ActiveResidues>
 VAL166  LYS551  ARG553  GLY616  TRP617  ASP618  TYR619  PRO620  LYS621  CYS622 
 ASP623  PHE694  ASN695  SER759  ASP760  ASP761  ALA762  ILE779  LEU786  VAL792 
 PHE793  MET794  SER795  GLU796  ALA797  LYS798  CYS799  TRP800  GLU811  SER814 

> <Gold.Protein.RotatedAtoms>
  152.4897  133.8466  159.7179 H   0  0  0  0  0  0  0  0  0  0  0  0  # atno 6907 bound_to 6896
  150.9015  133.7103  159.2884 H   0  0  0  0  0  0  0  0  0  0  0  0  # atno 6908 bound_to 6896
  151.4543  135.1037  159.9759 H   0  0  0  0  0  0  0  0  0  0  0  0  # atno 6909 bound_to 6896
  145.7661  139.2822  143.1348 H   0  0  0  0  0  0  0  0  0  0  0  0  # atno 7974 bound_to 7965
  154.9398  140.0403  157.2091 H   0  0  0  0  0  0  0  0  0  0  0  0  # atno 8008 bound_to 7997
  154.8080  140.2863  155.5852 H   0  0  0  0  0  0  0  0  0  0  0  0  # atno 8009 bound_to 7997
  156.2968  140.2542  156.2962 H   0  0  0  0  0  0  0  0  0  0  0  0  # atno 8010 bound_to 7997
  139.9426  143.6146  152.2499 H   0  0  0  0  0  0  0  0  0  0  0  0  # atno 10167 bound_to 10162
  155.9984  130.4832  150.5005 H   0  0  0  0  0  0  0  0  0  0  0  0  # atno 10718 bound_to 10713
  153.5894  135.3469  155.2905 H   0  0  0  0  0  0  0  0  0  0  0  0  # atno 10763 bound_to 10752
  154.8655  135.4201  154.2533 H   0  0  0  0  0  0  0  0  0  0  0  0  # atno 10764 bound_to 10752
  153.3337  135.7046  153.6997 H   0  0  0  0  0  0  0  0  0  0  0  0  # atno 10765 bound_to 10752
  140.8308  134.2519  157.4857 H   0  0  0  0  0  0  0  0  0  0  0  0  # atno 11005 bound_to 11000
  146.0216  140.8343  142.9920 LP  0  0  0  0  0  0  0  0  0  0  0  0  # atno 17320 bound_to 7965
  144.6821  140.2637  143.7315 LP  0  0  0  0  0  0  0  0  0  0  0  0  # atno 17321 bound_to 7965
  139.6692  144.7661  151.1815 LP  0  0  0  0  0  0  0  0  0  0  0  0  # atno 17342 bound_to 10162
  140.7606  143.5891  150.8815 LP  0  0  0  0  0  0  0  0  0  0  0  0  # atno 17343 bound_to 10162
  157.2989  131.0641  151.2082 LP  0  0  0  0  0  0  0  0  0  0  0  0  # atno 17370 bound_to 10713
  157.3068  130.6870  149.6194 LP  0  0  0  0  0  0  0  0  0  0  0  0  # atno 17371 bound_to 10713
  139.8705  134.9585  156.4302 LP  0  0  0  0  0  0  0  0  0  0  0  0  # atno 17394 bound_to 11000
  140.9000  133.7786  155.9669 LP  0  0  0  0  0  0  0  0  0  0  0  0  # atno 17395 bound_to 11000

$$$$
