#       Name:                AV-unprocessed.smi:1738
#       Creating user name   scv26
#       Creation time:       Fri Mar 27 08:21:26 2020


#       File generated by GOLD software.
#

@<TRIPOS>MOLECULE
AV-unprocessed.smi:1738
    49    51     1
SMALL
NO_CHARGES


@<TRIPOS>ATOM
      1 ****        -7.6730   1.9455  -0.5948 C.3            1 S1                 0.0000
      2 ****        -7.1693   0.1986  -0.3161 S.o2           1 S1                 0.0000
      3 ****        -7.6211  -0.1919   1.0286 O.2            1 S1                 0.0000
      4 ****        -7.5889  -0.5943  -1.4821 O.2            1 S1                 0.0000
      5 ****        -5.3813   0.2664  -0.3111 C.ar           1 S1                 0.0000
      6 ****        -4.6643   0.1326   0.8947 C.ar           1 S1                 0.0000
      7 ****        -3.2611   0.2380   0.8490 C.ar           1 S1                 0.0000
      8 ****        -2.6318   0.4868  -0.3967 C.ar           1 S1                 0.0000
      9 ****        -1.2284   0.6166  -0.5914 N.am           1 S1                 0.0000
     10 ****        -0.2412   0.6871   0.3184 C.2            1 S1                 0.0000
     11 ****        -0.3807   0.6124   1.5381 O.2            1 S1                 0.0000
     12 ****         0.9500   0.8503  -0.2755 N.am           1 S1                 0.0000
     13 ****         2.2274   0.9891   0.4223 C.3            1 S1                 0.0000
     14 ****         3.2455   1.8532  -0.3455 C.3            1 S1                 0.0000
     15 ****         4.5879   1.1463  -0.1317 C.3            1 S1                 0.0000
     16 ****         4.2059  -0.2698  -0.0839 N.4            1 S1                 1.0000
     17 ****         5.2095  -1.2621   0.3506 C.3            1 S1                 0.0000
     18 ****         4.6261  -2.6738   0.1233 C.3            1 S1                 0.0000
     19 ****         3.2314  -2.8444   0.7685 C.3            1 S1                 0.0000
     20 ****         2.2718  -1.6982   0.3801 C.3            1 S1                 0.0000
     21 ****         2.9525  -0.3521   0.6856 C.3            1 S1                 0.0000
     22 ****        -3.4566   0.6082  -1.5361 C.ar           1 S1                 0.0000
     23 ****        -4.8018   0.5102  -1.5050 N.ar           1 S1                 0.0000
     24 ****        -8.7605   2.0114  -0.6089 H              1 S1                 0.0000
     25 ****        -7.2765   2.2909  -1.5494 H              1 S1                 0.0000
     26 ****        -7.2812   2.5696   0.2079 H              1 S1                 0.0000
     27 ****        -5.1696  -0.0479   1.8318 H              1 S1                 0.0000
     28 ****        -2.7102   0.1234   1.7682 H              1 S1                 0.0000
     29 ****        -0.9416   0.7088  -1.5549 H              1 S1                 0.0000
     30 ****         0.9733   0.8985  -1.2836 H              1 S1                 0.0000
     31 ****         2.0505   1.4726   1.3854 H              1 S1                 0.0000
     32 ****         3.0097   1.8607  -1.4110 H              1 S1                 0.0000
     33 ****         3.2603   2.8890  -0.0047 H              1 S1                 0.0000
     34 ****         5.3039   1.3513  -0.9283 H              1 S1                 0.0000
     35 ****         5.0311   1.4420   0.8206 H              1 S1                 0.0000
     36 ****         6.1262  -1.1368  -0.2264 H              1 S1                 0.0000
     37 ****         5.4618  -1.1075   1.4006 H              1 S1                 0.0000
     38 ****         4.5448  -2.8569  -0.9489 H              1 S1                 0.0000
     39 ****         5.3113  -3.4287   0.5099 H              1 S1                 0.0000
     40 ****         2.8022  -3.8051   0.4828 H              1 S1                 0.0000
     41 ****         3.3405  -2.8684   1.8534 H              1 S1                 0.0000
     42 ****         2.0177  -1.7652  -0.6786 H              1 S1                 0.0000
     43 ****         1.3406  -1.7937   0.9391 H              1 S1                 0.0000
     44 ****         3.2180  -0.3482   1.7451 H              1 S1                 0.0000
     45 ****        -3.0227   0.7966  -2.5074 H              1 S1                 0.0000
     46 ****         3.9622  -0.5104  -1.0340 H              1 S1                 0.0000
     47 ****        -1.2921   0.4881   1.9305 LP             1 S1                 0.0000
     48 ****         0.4173   0.6759   2.1375 LP             1 S1                 0.0000
     49 ****        -5.3489   0.6143  -2.3355 LP             1 S1                 0.0000
@<TRIPOS>BOND
    1    1    2 1     
    2    1   24 1     
    3    1   25 1     
    4    1   26 1     
    5    2    3 2     
    6    2    4 2     
    7    2    5 1     
    8    5   23 ar    
    9    5    6 ar    
   10    6    7 ar    
   11    6   27 1     
   12    7    8 ar    
   13    7   28 1     
   14    8    9 1     
   15    8   22 ar    
   16    9   10 am    
   17    9   29 1     
   18   10   11 2     
   19   10   12 am    
   20   12   13 1     
   21   12   30 1     
   22   13   21 1     
   23   13   14 1     
   24   13   31 1     
   25   14   15 1     
   26   14   32 1     
   27   14   33 1     
   28   15   16 1     
   29   15   34 1     
   30   15   35 1     
   31   16   21 1     
   32   16   17 1     
   33   16   46 1     
   34   17   18 1     
   35   17   36 1     
   36   17   37 1     
   37   18   19 1     
   38   18   38 1     
   39   18   39 1     
   40   19   20 1     
   41   19   40 1     
   42   19   41 1     
   43   20   21 1     
   44   20   42 1     
   45   20   43 1     
   46   21   44 1     
   47   22   23 ar    
   48   22   45 1     
   49   11   47 1     
   50   11   48 1     
   51   23   49 1     
@<TRIPOS>SUBSTRUCTURE
      1 S1             1
@<TRIPOS>SET
LONE_PAIRS      STATIC     ATOMS    <user>   **** ""
5 3 4 47 48 49
DONOR_HYDROGENS      STATIC     ATOMS    <user>   **** ""
3 29 30 46
ATOM$BLUE        STATIC     ATOMS    COLORGROUP SYSTEM
5 3 4 47 48 49
ATOM$RED        STATIC     ATOMS    COLORGROUP SYSTEM
3 29 30 46
