AV-unprocessed.smi:2175|AV-procd|sdf|8845|dock5
  -GOLD-   2272012 33D 1   1.00000     0.00000
 Structure written by MMmdl.
 33 34  0  0  0  0  0  0  0  0  2 V2000
  148.0446  135.6225  160.5726 C   0  0  0  0  0  0  0  0  0  0  0  0
  148.7483  136.7146  159.7960 C   0  0  0  0  0  0  0  0  0  0  0  0
  148.0527  137.6241  159.2277 N   0  0  0  0  0  0  0  0  0  0  0  0
  148.7008  138.6415  158.5073 C   0  0  0  0  0  0  0  0  0  0  0  0
  147.7958  139.6827  157.8719 C   0  0  0  0  0  0  0  0  0  0  0  0
  150.0601  138.6747  158.3999 C   0  0  0  0  0  0  0  0  0  0  0  0
  150.8099  139.7657  157.6357 C   0  0  0  0  0  0  0  0  0  0  0  0
  151.9442  140.4536  158.3993 C   0  0  0  0  0  0  0  0  0  0  0  0
  153.0520  139.9229  158.4809 O   0  0  0  0  0  0  0  0  0  0  0  0
  151.6542  141.6415  158.9513 N   0  0  0  0  0  0  0  0  0  0  0  0
  152.5899  142.4659  159.7045 C   0  0  0  0  0  0  0  0  0  0  0  0
  152.6563  143.9182  159.2717 C   0  0  0  0  0  0  0  0  0  0  0  0
  151.6611  144.9315  159.7864 C   0  0  0  0  0  0  0  0  0  0  0  0
  151.6086  144.4874  158.3441 C   0  0  0  0  0  0  0  0  0  0  0  0
  150.8251  137.6041  159.0647 C   0  0  0  0  0  0  0  0  0  0  0  0
  152.0528  137.5782  158.9888 O   0  0  0  0  0  0  0  0  0  0  0  0
  150.1232  136.6585  159.7525 N   0  5  0  0  0  0  0  0  0  0  0  0
  146.9657  135.6621  160.4160 H   0  0  0  0  0  0  0  0  0  0  0  0
  148.2411  135.7336  161.6392 H   0  0  0  0  0  0  0  0  0  0  0  0
  148.3980  134.6410  160.2548 H   0  0  0  0  0  0  0  0  0  0  0  0
  147.9889  140.6679  158.2967 H   0  0  0  0  0  0  0  0  0  0  0  0
  146.7441  139.4464  158.0397 H   0  0  0  0  0  0  0  0  0  0  0  0
  147.9590  139.7291  156.7951 H   0  0  0  0  0  0  0  0  0  0  0  0
  151.2140  139.3224  156.7249 H   0  0  0  0  0  0  0  0  0  0  0  0
  150.1232  140.5355  157.2832 H   0  0  0  0  0  0  0  0  0  0  0  0
  150.7179  142.0013  158.8360 H   0  0  0  0  0  0  0  0  0  0  0  0
  152.3367  142.4294  160.7652 H   0  0  0  0  0  0  0  0  0  0  0  0
  153.5804  142.0192  159.6133 H   0  0  0  0  0  0  0  0  0  0  0  0
  153.6692  144.2814  159.1072 H   0  0  0  0  0  0  0  0  0  0  0  0
  150.8739  144.5783  160.4498 H   0  0  0  0  0  0  0  0  0  0  0  0
  152.0282  145.9349  159.9915 H   0  0  0  0  0  0  0  0  0  0  0  0
  151.9386  145.1960  157.5872 H   0  0  0  0  0  0  0  0  0  0  0  0
  150.7851  143.8401  158.0491 H   0  0  0  0  0  0  0  0  0  0  0  0
  1  2  1  0  0  0  0
  1 18  1  0  0  0  0
  1 19  1  0  0  0  0
  1 20  1  0  0  0  0
  2 17  1  0  0  0  0
  2  3  2  0  0  0  0
  3  4  1  0  0  0  0
  4  5  1  0  0  0  0
  4  6  2  0  0  0  0
  5 21  1  0  0  0  0
  5 22  1  0  0  0  0
  5 23  1  0  0  0  0
  6  7  1  0  0  0  0
  6 15  1  0  0  0  0
  7  8  1  0  0  0  0
  7 24  1  0  0  0  0
  7 25  1  0  0  0  0
  8  9  2  0  0  0  0
  8 10  1  0  0  0  0
 10 11  1  0  0  0  0
 10 26  1  0  0  0  0
 11 12  1  0  0  0  0
 11 27  1  0  0  0  0
 11 28  1  0  0  0  0
 12 14  1  0  0  0  0
 12 13  1  0  0  0  0
 12 29  1  0  0  0  0
 13 14  1  0  0  0  0
 13 30  1  0  0  0  0
 13 31  1  0  0  0  0
 14 32  1  0  0  0  0
 14 33  1  0  0  0  0
 15 16  2  0  0  0  0
 15 17  1  0  0  0  0
M  CHG  1  17  -1
M  END
> <s_m_source_file>
AV-unprocessed.smi

> <i_m_source_file_index>
2175

> <i_lp_mmshare_version>
43012

> <i_f3d_flags>
0

> <s_epik_input>
W0NIM11jMW5jKFtDSDNdKWMoYyg9TylbbkhdMSlbQ0gyXUMoPU8pW05IXVtDSDJdW0NIXTJbQ0gyXVtDSDJdMg==

> <s_epik_cmdline>
J2VwaWtfcHl0aG9uJywgJy1waCcsICc3LjAnLCAnLXRuJywgJzgnLCAnLW1hJywgJzIwMCcsICctbWV0YWxfYmluZGluZycsICctaW1hZScsICc8aW5maWxlLm1hZT4nLCAnLW9tYWUnLCAnPG91dGZpbGUubWFlPic=

> <r_lp_tautomer_probability>
0.839158

> <r_epik_Ionization_Penalty>
6.60351

> <r_epik_Ionization_Penalty_Charging>
6.70818e-08

> <r_epik_Ionization_Penalty_Neutral>
6.60351

> <r_epik_State_Penalty>
4.42903

> <r_epik_Charging_Adjusted_Penalty>
4.42903

> <i_epik_Tot_Q>
-1

> <i_epik_Tot_abs_Q>
1

> <r_epik_Metal_State_Penalty>
0.797668

> <b_epik_Metal_Only>
1

> <s_lp_Force_Field>
OPLS_2005

> <r_lp_Energy>
17.43

> <b_lp_Chiralities_Consistent>
1

> <s_lp_Variant>
AV-unprocessed.smi:2175-3

> <Gold.Version>
5.8.1

> <Gold.Id.Protein>
6NUR|6NUR_protein|mol2

> <Gold.PLP.Fitness>
40.7513

> <Gold.PLP.PLP>
-32.9774

> <Gold.PLP.part.hbond>
-2.9279

> <Gold.PLP.part.metal>
0.0000

> <Gold.PLP.part.buried>
-4.9149

> <Gold.PLP.part.nonpolar>
-26.1256

> <Gold.PLP.part.repulsive>
0.0945

> <Gold.PLP.ligand.clash>
0.0000

> <Gold.PLP.ligand.torsion>
0.8842

> <Gold.PLP.Chemscore.Hbond>
3.0000

> <Gold.PLP.Chemscore.CHOScore>
0.0000

> <Gold.PLP.Chemscore.Metal>
0.0000

> <Gold.Chemscore.Hbonds>
donor molecule, donor type, donor heavy atom, donor atom, acceptor molecule, acceptor atom, score
      P1  H  6896  6909       L1    17  2.00
      P1  H  6934  6947       L1     3  0.07
      P1  H  7997  8008       L1     9  0.75

> <Gold.PLP.Chemscore.Internal.Correction>
0.5423

> <Gold.Rescore>
     Score         DG    S(hbond)    S(metal)    S(lipo)     H(rot)  DE(clash)    DE(int)     intcor
     13.55     -15.70       1.93        0.00      69.54       1.70       0.04       2.10       ----

> <Gold.Chemscore.Fitness>
13.5528

> <Gold.Chemscore.DG>
-15.6971

> <Gold.Chemscore.ZeroCoef>
-5.4800

> <Gold.Chemscore.Hbond>
1.9268

> <Gold.Chemscore.Metal>
0.0000

> <Gold.Chemscore.Lipo>
69.5388

> <Gold.Chemscore.Internal_Hbond>
0.0000

> <Gold.Chemscore.DEClash>
0.0444

> <Gold.Chemscore.DEInternal>
2.0999

> <Gold.Chemscore.Rot>
1.7009

> <Gold.Chemscore.Internal.Correction>
   9.000000E+99

> <Gold.Chemscore.Hbonds>
donor molecule, donor type, donor heavy atom, donor atom, acceptor molecule, acceptor atom, score
      P1  H  6896  6909       L1    17  0.83
      P1  H  6934  6947       L1     3  0.01
      P1  H  7997  8008       L1     9  0.73

> <Gold.Chemscore.Hbond.Weighted>
-6.4354

> <Gold.Chemscore.Metal.Weighted>
-0.0000

> <Gold.Chemscore.Lipo.Weighted>
-8.1360

> <Gold.Chemscore.Internal_Hbond.Weighted>
0.0000

> <Gold.Chemscore.DEClash.Weighted>
0.0444

> <Gold.Chemscore.DEInternal.Weighted>
2.0999

> <Gold.Chemscore.Rot.Weighted>
4.3543

> <Gold.Chemscore.Internal.Correction.Weighted>
   9.000000E+99

> <Gold.Protein.RotatedTorsions>
[ 6907 6896 6895 6894 ] final   82.11 input  -60.11 | X-H torsion
[ 7974 7965 7964 7962 ] final   58.34 input  175.53 | X-H torsion
[ 8008 7997 7996 7995 ] final  -94.29 input   59.86 | X-H torsion
[ 10167 10162 10161 10158 ] final -129.02 input  -65.29 | X-H torsion
[ 10718 10713 10712 10709 ] final   71.34 input   66.30 | X-H torsion
[ 10763 10752 10751 10750 ] final  142.09 input  -60.55 | X-H torsion
[ 11005 11000 10999 10996 ] final  -43.44 input  -57.11 | X-H torsion

> <Gold.Protein.ActiveResidues>
 VAL166  LYS551  ARG553  GLY616  TRP617  ASP618  TYR619  PRO620  LYS621  CYS622 
 ASP623  PHE694  ASN695  SER759  ASP760  ASP761  ALA762  ILE779  LEU786  VAL792 
 PHE793  MET794  SER795  GLU796  ALA797  LYS798  CYS799  TRP800  GLU811  SER814 

> <Gold.Protein.RotatedAtoms>
  152.5289  134.3100  159.9109 H   0  0  0  0  0  0  0  0  0  0  0  0  # atno 6907 bound_to 6896
  151.3050  133.4099  159.2650 H   0  0  0  0  0  0  0  0  0  0  0  0  # atno 6908 bound_to 6896
  151.0087  134.9396  159.8052 H   0  0  0  0  0  0  0  0  0  0  0  0  # atno 6909 bound_to 6896
  145.9192  139.3716  143.0488 H   0  0  0  0  0  0  0  0  0  0  0  0  # atno 7974 bound_to 7965
  154.7466  140.0490  157.0857 H   0  0  0  0  0  0  0  0  0  0  0  0  # atno 8008 bound_to 7997
  155.0111  140.3136  155.4810 H   0  0  0  0  0  0  0  0  0  0  0  0  # atno 8009 bound_to 7997
  156.2876  140.2184  156.5225 H   0  0  0  0  0  0  0  0  0  0  0  0  # atno 8010 bound_to 7997
  139.9441  143.6130  152.2495 H   0  0  0  0  0  0  0  0  0  0  0  0  # atno 10167 bound_to 10162
  157.6447  130.9523  150.0776 H   0  0  0  0  0  0  0  0  0  0  0  0  # atno 10718 bound_to 10713
  153.9500  135.2971  155.3439 H   0  0  0  0  0  0  0  0  0  0  0  0  # atno 10763 bound_to 10752
  154.7431  135.5015  153.9160 H   0  0  0  0  0  0  0  0  0  0  0  0  # atno 10764 bound_to 10752
  153.0999  135.6731  153.9801 H   0  0  0  0  0  0  0  0  0  0  0  0  # atno 10765 bound_to 10752
  141.0384  133.6790  156.2734 H   0  0  0  0  0  0  0  0  0  0  0  0  # atno 11005 bound_to 11000
  145.8572  140.9496  143.0719 LP  0  0  0  0  0  0  0  0  0  0  0  0  # atno 17320 bound_to 7965
  144.6751  140.0483  143.7479 LP  0  0  0  0  0  0  0  0  0  0  0  0  # atno 17321 bound_to 7965
  139.6681  144.7661  151.1835 LP  0  0  0  0  0  0  0  0  0  0  0  0  # atno 17342 bound_to 10162
  140.7602  143.5907  150.8799 LP  0  0  0  0  0  0  0  0  0  0  0  0  # atno 17343 bound_to 10162
  156.1762  130.3648  149.9098 LP  0  0  0  0  0  0  0  0  0  0  0  0  # atno 17370 bound_to 10713
  156.7061  130.8952  151.3604 LP  0  0  0  0  0  0  0  0  0  0  0  0  # atno 17371 bound_to 10713
  140.6279  134.5294  157.5556 LP  0  0  0  0  0  0  0  0  0  0  0  0  # atno 17394 bound_to 11000
  139.9257  134.8060  156.1075 LP  0  0  0  0  0  0  0  0  0  0  0  0  # atno 17395 bound_to 11000

$$$$
