#       Name:                AV-unprocessed.smi:818
#       Creating user name   scv26
#       Creation time:       Fri Mar 27 01:27:29 2020


#       File generated by GOLD software.
#

@<TRIPOS>MOLECULE
AV-unprocessed.smi:818
    49    50     1
SMALL
NO_CHARGES


@<TRIPOS>ATOM
      1 ****        -5.4533   3.4847   0.1251 C.3            1 S1                 0.0000
      2 ****        -4.8069   3.4768  -1.2649 C.3            1 S1                 0.0000
      3 ****        -4.2912   2.1660  -1.6075 N.pl3          1 S1                 0.0000
      4 ****        -2.9982   1.6981  -1.4816 C.2            1 S1                 0.0000
      5 ****        -3.0279   0.4075  -1.9289 C.2            1 S1                 0.0000
      6 ****        -1.9760  -0.5391  -2.0149 N.am           1 S1                 0.0000
      7 ****        -0.6919  -0.3647  -1.6623 C.2            1 S1                 0.0000
      8 ****        -0.2163   0.6774  -1.2105 O.2            1 S1                 0.0000
      9 ****         0.0242  -1.4812  -1.8615 N.am           1 S1                 0.0000
     10 ****         1.4443  -1.6376  -1.5500 C.3            1 S1                 0.0000
     11 ****         1.9764  -2.8444  -2.3405 C.3            1 S1                 0.0000
     12 ****         1.6405  -1.9210  -0.0521 C.2            1 S1                 0.0000
     13 ****         0.8717  -2.6719   0.5507 O.2            1 S1                 0.0000
     14 ****         2.6869  -1.3181   0.5318 N.am           1 S1                 0.0000
     15 ****         3.0475  -1.4453   1.9407 C.3            1 S1                 0.0000
     16 ****         2.1544  -0.5645   2.8401 C.3            1 S1                 0.0000
     17 ****         3.1059   0.2214   3.7440 C.3            1 S1                 0.0000
     18 ****         4.3800   0.3636   2.9178 C.3            1 S1                 0.0000
     19 ****         4.4923  -0.9679   2.1748 C.3            1 S1                 0.0000
     20 ****        -4.3721   0.1604  -2.3103 C.2            1 S1                 0.0000
     21 ****        -5.1303   1.2282  -2.1130 N.2            1 S1                 0.0000
     22 ****        -5.8337   4.4765   0.3696 H              1 S1                 0.0000
     23 ****        -4.7337   3.2047   0.8951 H              1 S1                 0.0000
     24 ****        -6.2890   2.7859   0.1766 H              1 S1                 0.0000
     25 ****        -5.5302   3.7810  -2.0229 H              1 S1                 0.0000
     26 ****        -3.9868   4.1947  -1.3030 H              1 S1                 0.0000
     27 ****        -2.2009   2.3137  -1.0920 H              1 S1                 0.0000
     28 ****        -2.2307  -1.4479  -2.3730 H              1 S1                 0.0000
     29 ****        -0.4508  -2.2921  -2.2299 H              1 S1                 0.0000
     30 ****         1.9914  -0.7386  -1.8412 H              1 S1                 0.0000
     31 ****         3.0378  -3.0071  -2.1482 H              1 S1                 0.0000
     32 ****         1.8629  -2.6870  -3.4136 H              1 S1                 0.0000
     33 ****         1.4472  -3.7638  -2.0850 H              1 S1                 0.0000
     34 ****         3.2678  -0.7193  -0.0368 H              1 S1                 0.0000
     35 ****         2.9709  -2.4923   2.2403 H              1 S1                 0.0000
     36 ****         1.5760   0.1390   2.2385 H              1 S1                 0.0000
     37 ****         1.4409  -1.1554   3.4156 H              1 S1                 0.0000
     38 ****         2.6944   1.1833   4.0512 H              1 S1                 0.0000
     39 ****         3.3168  -0.3548   4.6459 H              1 S1                 0.0000
     40 ****         4.2644   1.1775   2.2007 H              1 S1                 0.0000
     41 ****         5.2566   0.5786   3.5297 H              1 S1                 0.0000
     42 ****         5.0084  -1.6887   2.8104 H              1 S1                 0.0000
     43 ****         5.0749  -0.8779   1.2567 H              1 S1                 0.0000
     44 ****        -4.8144  -0.7387  -2.7137 H              1 S1                 0.0000
     45 ****        -0.8003   1.4788  -1.0814 LP             1 S1                 0.0000
     46 ****         0.7540   0.7223  -0.9726 LP             1 S1                 0.0000
     47 ****         0.1113  -3.1035   0.0654 LP             1 S1                 0.0000
     48 ****         1.0081  -2.8497   1.5253 LP             1 S1                 0.0000
     49 ****        -6.1087   1.3224  -2.2968 LP             1 S1                 0.0000
@<TRIPOS>BOND
    1    1    2 1     
    2    1   22 1     
    3    1   23 1     
    4    1   24 1     
    5    2    3 1     
    6    2   25 1     
    7    2   26 1     
    8    3   21 1     
    9    3    4 1     
   10    4    5 2     
   11    4   27 1     
   12    5    6 1     
   13    5   20 1     
   14    6    7 am    
   15    6   28 1     
   16    7    8 2     
   17    7    9 am    
   18    9   10 1     
   19    9   29 1     
   20   10   11 1     
   21   10   12 1     
   22   10   30 1     
   23   11   31 1     
   24   11   32 1     
   25   11   33 1     
   26   12   13 2     
   27   12   14 am    
   28   14   15 1     
   29   14   34 1     
   30   15   19 1     
   31   15   16 1     
   32   15   35 1     
   33   16   17 1     
   34   16   36 1     
   35   16   37 1     
   36   17   18 1     
   37   17   38 1     
   38   17   39 1     
   39   18   19 1     
   40   18   40 1     
   41   18   41 1     
   42   19   42 1     
   43   19   43 1     
   44   20   21 2     
   45   20   44 1     
   46    8   45 1     
   47    8   46 1     
   48   13   47 1     
   49   13   48 1     
   50   21   49 1     
@<TRIPOS>SUBSTRUCTURE
      1 S1             1
@<TRIPOS>SET
LONE_PAIRS      STATIC     ATOMS    <user>   **** ""
5 45 46 47 48 49
DONOR_HYDROGENS      STATIC     ATOMS    <user>   **** ""
3 28 29 34
ATOM$BLUE        STATIC     ATOMS    COLORGROUP SYSTEM
5 45 46 47 48 49
ATOM$RED        STATIC     ATOMS    COLORGROUP SYSTEM
3 28 29 34
