AV-unprocessed.smi:1596|AV-procd|sdf|6419|dock3
  -GOLD-   22720 7 53D 1   1.00000     0.00000
 Structure written by MMmdl.
 48 49  0  0  0  0  0  0  0  0  1 V2000
  151.6369  142.0826  157.2725 C   0  0  0  0  0  0  0  0  0  0  0  0
  150.5274  142.0072  156.2110 C   0  0  0  0  0  0  0  0  0  0  0  0
  150.7206  140.9267  155.2438 N   0  0  0  0  0  0  0  0  0  0  0  0
  151.5095  139.7990  155.7388 C   0  0  0  0  0  0  0  0  0  0  0  0
  151.9644  138.8344  154.6312 C   0  0  0  0  0  0  0  0  0  0  0  0
  149.5295  140.5237  154.6136 C   0  0  0  0  0  0  0  0  0  0  0  0
  148.6952  141.5021  154.0338 C   0  0  0  0  0  0  0  0  0  0  0  0
  147.5060  141.0937  153.4006 C   0  0  0  0  0  0  0  0  0  0  0  0
  147.1909  139.7147  153.3614 C   0  0  0  0  0  0  0  0  0  0  0  0
  146.0117  139.1811  152.7748 N   0  0  0  0  0  0  0  0  0  0  0  0
  145.6293  137.8955  152.6903 C   0  0  0  0  0  0  0  0  0  0  0  0
  146.2370  136.9396  153.1721 O   0  0  0  0  0  0  0  0  0  0  0  0
  144.4710  137.7776  152.0253 N   0  0  0  0  0  0  0  0  0  0  0  0
  143.7706  136.5232  151.7661 C   0  0  2  0  0  0  0  0  0  0  0  0
  143.2108  135.9610  153.0852 C   0  0  0  0  0  0  0  0  0  0  0  0
  142.5036  134.6116  152.8681 C   0  0  0  0  0  0  0  0  0  0  0  0
  143.4118  133.5825  152.1688 C   0  0  2  0  0  0  0  0  0  0  0  0
  144.4410  133.1703  153.0464 O   0  0  0  0  0  0  0  0  0  0  0  0
  144.0188  134.1510  150.8721 C   0  0  0  0  0  0  0  0  0  0  0  0
  144.7151  135.5051  151.0967 C   0  0  0  0  0  0  0  0  0  0  0  0
  148.0851  138.8193  153.9836 C   0  0  0  0  0  0  0  0  0  0  0  0
  149.2281  139.2037  154.5898 N   0  0  0  0  0  0  0  0  0  0  0  0
  151.4128  142.8569  158.0061 H   0  0  0  0  0  0  0  0  0  0  0  0
  152.6054  142.3215  156.8326 H   0  0  0  0  0  0  0  0  0  0  0  0
  151.7335  141.1376  157.8076 H   0  0  0  0  0  0  0  0  0  0  0  0
  149.5734  141.8531  156.7160 H   0  0  0  0  0  0  0  0  0  0  0  0
  150.4456  142.9613  155.6887 H   0  0  0  0  0  0  0  0  0  0  0  0
  152.3933  140.1888  156.2448 H   0  0  0  0  0  0  0  0  0  0  0  0
  150.9395  139.2554  156.4933 H   0  0  0  0  0  0  0  0  0  0  0  0
  152.6009  138.0518  155.0441 H   0  0  0  0  0  0  0  0  0  0  0  0
  152.5377  139.3584  153.8657 H   0  0  0  0  0  0  0  0  0  0  0  0
  151.1205  138.3441  154.1450 H   0  0  0  0  0  0  0  0  0  0  0  0
  148.9594  142.5487  154.0767 H   0  0  0  0  0  0  0  0  0  0  0  0
  146.8574  141.8431  152.9748 H   0  0  0  0  0  0  0  0  0  0  0  0
  145.3598  139.8634  152.4158 H   0  0  0  0  0  0  0  0  0  0  0  0
  144.0386  138.6185  151.6719 H   0  0  0  0  0  0  0  0  0  0  0  0
  142.9283  136.7152  151.0983 H   0  0  0  0  0  0  0  0  0  0  0  0
  144.0186  135.8361  153.8079 H   0  0  0  0  0  0  0  0  0  0  0  0
  142.5114  136.6719  153.5267 H   0  0  0  0  0  0  0  0  0  0  0  0
  142.1477  134.2170  153.8205 H   0  0  0  0  0  0  0  0  0  0  0  0
  141.6152  134.7741  152.2564 H   0  0  0  0  0  0  0  0  0  0  0  0
  142.8254  132.6950  151.9286 H   0  0  0  0  0  0  0  0  0  0  0  0
  144.0463  132.7615  153.8016 H   0  0  0  0  0  0  0  0  0  0  0  0
  144.7186  133.4371  150.4364 H   0  0  0  0  0  0  0  0  0  0  0  0
  143.2240  134.2828  150.1370 H   0  0  0  0  0  0  0  0  0  0  0  0
  145.0694  135.8932  150.1410 H   0  0  0  0  0  0  0  0  0  0  0  0
  145.6013  135.3602  151.7162 H   0  0  0  0  0  0  0  0  0  0  0  0
  147.8817  137.7583  153.9920 H   0  0  0  0  0  0  0  0  0  0  0  0
  1  2  1  0  0  0  0
  1 23  1  0  0  0  0
  1 24  1  0  0  0  0
  1 25  1  0  0  0  0
  2  3  1  0  0  0  0
  2 26  1  0  0  0  0
  2 27  1  0  0  0  0
  3  4  1  0  0  0  0
  3  6  1  0  0  0  0
  4  5  1  0  0  0  0
  4 28  1  0  0  0  0
  4 29  1  0  0  0  0
  5 30  1  0  0  0  0
  5 31  1  0  0  0  0
  5 32  1  0  0  0  0
  6 22  1  0  0  0  0
  6  7  2  0  0  0  0
  7  8  1  0  0  0  0
  7 33  1  0  0  0  0
  8  9  2  0  0  0  0
  8 34  1  0  0  0  0
  9 10  1  0  0  0  0
  9 21  1  0  0  0  0
 10 11  1  0  0  0  0
 10 35  1  0  0  0  0
 11 12  2  0  0  0  0
 11 13  1  0  0  0  0
 13 14  1  0  0  0  0
 13 36  1  0  0  0  0
 14 20  1  0  0  0  0
 14 15  1  0  0  0  0
 14 37  1  0  0  0  0
 15 16  1  0  0  0  0
 15 38  1  0  0  0  0
 15 39  1  0  0  0  0
 16 17  1  0  0  0  0
 16 40  1  0  0  0  0
 16 41  1  0  0  0  0
 17 18  1  0  0  0  0
 17 19  1  0  0  0  0
 17 42  1  0  0  0  0
 18 43  1  0  0  0  0
 19 20  1  0  0  0  0
 19 44  1  0  0  0  0
 19 45  1  0  0  0  0
 20 46  1  0  0  0  0
 20 47  1  0  0  0  0
 21 22  2  0  0  0  0
 21 48  1  0  0  0  0
M  END
> <s_m_source_file>
AV-unprocessed.smi

> <i_m_source_file_index>
1596

> <i_lp_mmshare_version>
43012

> <i_f3d_flags>
0

> <s_epik_input>
W0NIM11bQ0gyXU4oW0NIMl1bQ0gzXSljMVtjSF1bY0hdYyhbY0hdbjEpW05IXUMoPU8pW05IXVtDQEBIXTJbQ0gyXVtDSDJdW0NAQEhdKFtPSF0pW0NIMl1bQ0gyXTI=

> <s_epik_cmdline>
J2VwaWtfcHl0aG9uJywgJy1waCcsICc3LjAnLCAnLXRuJywgJzgnLCAnLW1hJywgJzIwMCcsICctbWV0YWxfYmluZGluZycsICctaW1hZScsICc8aW5maWxlLm1hZT4nLCAnLW9tYWUnLCAnPG91dGZpbGUubWFlPic=

> <r_lp_tautomer_probability>
1

> <r_epik_Ionization_Penalty>
0.709395

> <r_epik_Ionization_Penalty_Charging>
0

> <r_epik_Ionization_Penalty_Neutral>
0.709395

> <r_epik_State_Penalty>
2.20721

> <r_epik_Charging_Adjusted_Penalty>
2.20721

> <i_epik_Tot_Q>
0

> <i_epik_Tot_abs_Q>
0

> <r_epik_Metal_State_Penalty>
1.55411

> <b_epik_Metal_Only>
0

> <s_lp_Force_Field>
OPLS_2005

> <r_lp_Energy>
19.3677

> <b_lp_Chiralities_Consistent>
1

> <s_lp_Variant>
AV-unprocessed.smi:1596-4

> <Gold.Version>
5.8.1

> <Gold.Id.Protein>
6NUR|6NUR_protein|mol2

> <Gold.PLP.Fitness>
48.5255

> <Gold.PLP.PLP>
-39.6319

> <Gold.PLP.part.hbond>
-4.6911

> <Gold.PLP.part.metal>
0.0000

> <Gold.PLP.part.buried>
-3.4606

> <Gold.PLP.part.nonpolar>
-33.6284

> <Gold.PLP.part.repulsive>
0.9575

> <Gold.PLP.ligand.clash>
0.0000

> <Gold.PLP.ligand.torsion>
0.5418

> <Gold.PLP.Chemscore.Hbond>
2.9388

> <Gold.PLP.Chemscore.CHOScore>
0.2991

> <Gold.PLP.Chemscore.Metal>
0.0000

> <Gold.Chemscore.Hbonds>
donor molecule, donor type, donor heavy atom, donor atom, acceptor molecule, acceptor atom, score
      L1  H    10    35       P1 10175  0.93
      L1  H    13    36       P1 10175  0.70
      L1  H    18    43       P1 10957  1.00
      P1  H  7989  7998       L1     3  0.23
      L1  C    21    48       P1  7948  0.19

> <Gold.PLP.Chemscore.Internal.Correction>
0.2634

> <Gold.Rescore>
     Score         DG    S(hbond)    S(metal)    S(lipo)     H(rot)  DE(clash)    DE(int)     intcor
     15.69     -19.15       2.69        0.00      84.01       2.01       0.20       3.26       ----

> <Gold.Chemscore.Fitness>
15.6908

> <Gold.Chemscore.DG>
-19.1546

> <Gold.Chemscore.ZeroCoef>
-5.4800

> <Gold.Chemscore.Hbond>
2.6882

> <Gold.Chemscore.Metal>
0.0000

> <Gold.Chemscore.Lipo>
84.0107

> <Gold.Chemscore.Internal_Hbond>
0.0000

> <Gold.Chemscore.DEClash>
0.2047

> <Gold.Chemscore.DEInternal>
3.2590

> <Gold.Chemscore.Rot>
2.0052

> <Gold.Chemscore.Internal.Correction>
   9.000000E+99

> <Gold.Chemscore.Hbonds>
donor molecule, donor type, donor heavy atom, donor atom, acceptor molecule, acceptor atom, score
      L1  H    10    35       P1 10175  0.88
      L1  H    13    36       P1 10175  0.66
      L1  H    18    43       P1 10957  0.76

> <Gold.Chemscore.Hbond.Weighted>
-8.9787

> <Gold.Chemscore.Metal.Weighted>
-0.0000

> <Gold.Chemscore.Lipo.Weighted>
-9.8293

> <Gold.Chemscore.Internal_Hbond.Weighted>
0.0000

> <Gold.Chemscore.DEClash.Weighted>
0.2047

> <Gold.Chemscore.DEInternal.Weighted>
3.2590

> <Gold.Chemscore.Rot.Weighted>
5.1334

> <Gold.Chemscore.Internal.Correction.Weighted>
   9.000000E+99

> <Gold.Protein.RotatedTorsions>
[ 6907 6896 6895 6894 ] final  -68.19 input  -60.11 | X-H torsion
[ 7974 7965 7964 7962 ] final  132.51 input  175.53 | X-H torsion
[ 8008 7997 7996 7995 ] final   59.24 input   59.86 | X-H torsion
[ 10167 10162 10161 10158 ] final  169.53 input  -65.29 | X-H torsion
[ 10718 10713 10712 10709 ] final -154.41 input   66.30 | X-H torsion
[ 10763 10752 10751 10750 ] final  145.36 input  -60.55 | X-H torsion
[ 11005 11000 10999 10996 ] final  150.36 input  -57.11 | X-H torsion

> <Gold.Protein.ActiveResidues>
 VAL166  LYS551  ARG553  GLY616  TRP617  ASP618  TYR619  PRO620  LYS621  CYS622 
 ASP623  PHE694  ASN695  SER759  ASP760  ASP761  ALA762  ILE779  LEU786  VAL792 
 PHE793  MET794  SER795  GLU796  ALA797  LYS798  CYS799  TRP800  GLU811  SER814 

> <Gold.Protein.RotatedAtoms>
  150.7369  134.5774  159.5921 H   0  0  0  0  0  0  0  0  0  0  0  0  # atno 6907 bound_to 6896
  152.3197  134.7392  160.0326 H   0  0  0  0  0  0  0  0  0  0  0  0  # atno 6908 bound_to 6896
  151.7912  133.3324  159.3536 H   0  0  0  0  0  0  0  0  0  0  0  0  # atno 6909 bound_to 6896
  144.9961  139.4358  143.5315 H   0  0  0  0  0  0  0  0  0  0  0  0  # atno 7974 bound_to 7965
  155.5630  140.3488  155.4496 H   0  0  0  0  0  0  0  0  0  0  0  0  # atno 8008 bound_to 7997
  156.0500  140.1315  157.0086 H   0  0  0  0  0  0  0  0  0  0  0  0  # atno 8009 bound_to 7997
  154.4430  140.1006  156.6348 H   0  0  0  0  0  0  0  0  0  0  0  0  # atno 8010 bound_to 7997
  139.4995  144.3696  151.9739 H   0  0  0  0  0  0  0  0  0  0  0  0  # atno 10167 bound_to 10162
  156.4990  130.8382  151.2601 H   0  0  0  0  0  0  0  0  0  0  0  0  # atno 10718 bound_to 10713
  154.0042  135.2920  155.3399 H   0  0  0  0  0  0  0  0  0  0  0  0  # atno 10763 bound_to 10752
  154.7142  135.5137  153.8715 H   0  0  0  0  0  0  0  0  0  0  0  0  # atno 10764 bound_to 10752
  153.0752  135.6661  154.0280 H   0  0  0  0  0  0  0  0  0  0  0  0  # atno 10765 bound_to 10752
  140.1124  134.8915  157.1956 H   0  0  0  0  0  0  0  0  0  0  0  0  # atno 11005 bound_to 11000
  146.3442  139.9321  142.8752 LP  0  0  0  0  0  0  0  0  0  0  0  0  # atno 17320 bound_to 7965
  145.2218  140.9938  143.4041 LP  0  0  0  0  0  0  0  0  0  0  0  0  # atno 17321 bound_to 7965
  140.3132  144.3514  150.6028 LP  0  0  0  0  0  0  0  0  0  0  0  0  # atno 17342 bound_to 10162
  140.5782  143.2175  151.7476 LP  0  0  0  0  0  0  0  0  0  0  0  0  # atno 17343 bound_to 10162
  157.7465  130.9988  150.2866 LP  0  0  0  0  0  0  0  0  0  0  0  0  # atno 17370 bound_to 10713
  156.3352  130.3806  149.7457 LP  0  0  0  0  0  0  0  0  0  0  0  0  # atno 17371 bound_to 10713
  140.3073  134.3064  155.7275 LP  0  0  0  0  0  0  0  0  0  0  0  0  # atno 17394 bound_to 11000
  141.2133  133.7628  156.9726 LP  0  0  0  0  0  0  0  0  0  0  0  0  # atno 17395 bound_to 11000

$$$$
