AV-unprocessed.smi:1053|AV-procd|sdf|4617|dock8
  -GOLD-   22720 3123D 1   1.00000     0.00000
 Structure written by MMmdl.
 38 39  0  0  0  0  0  0  0  0  2 V2000
  146.5071  138.3994  152.8771 C   0  0  0  0  0  0  0  0  0  0  0  0
  147.7017  139.0844  153.5556 C   0  0  0  0  0  0  0  0  0  0  0  0
  148.6910  138.1132  154.0858 N   0  3  1  0  0  0  0  0  0  0  0  0
  150.0007  138.7448  154.3725 C   0  0  0  0  0  0  0  0  0  0  0  0
  151.0045  137.6966  154.8773 C   0  0  0  0  0  0  0  0  0  0  0  0
  150.4709  137.0485  156.0238 O   0  0  0  0  0  0  0  0  0  0  0  0
  149.2677  136.3424  155.7383 C   0  0  1  0  0  0  0  0  0  0  0  0
  148.8150  135.5973  157.0053 C   0  0  0  0  0  0  0  0  0  0  0  0
  148.7800  136.4659  158.1747 N   0  0  0  0  0  0  0  0  0  0  0  0
  148.3634  136.0802  159.4361 C   0  0  0  0  0  0  0  0  0  0  0  0
  148.1836  137.0248  160.3664 N   0  0  0  0  0  0  0  0  0  0  0  0
  147.7757  136.6158  161.5869 C   0  0  0  0  0  0  0  0  0  0  0  0
  147.5481  135.2560  161.8755 C   0  0  0  0  0  0  0  0  0  0  0  0
  147.7687  134.3457  160.8177 C   0  0  0  0  0  0  0  0  0  0  0  0
  147.5634  132.8474  160.9833 C   0  0  0  0  0  0  0  0  0  0  0  0
  147.7923  132.2318  159.8232 F   0  0  0  0  0  0  0  0  0  0  0  0
  148.3864  132.3392  161.9013 F   0  0  0  0  0  0  0  0  0  0  0  0
  146.3080  132.6039  161.3600 F   0  0  0  0  0  0  0  0  0  0  0  0
  148.1774  134.7690  159.5985 N   0  0  0  0  0  0  0  0  0  0  0  0
  148.2091  137.3615  155.2718 C   0  0  0  0  0  0  0  0  0  0  0  0
  145.8533  139.1404  152.4167 H   0  0  0  0  0  0  0  0  0  0  0  0
  145.9028  137.8330  153.5852 H   0  0  0  0  0  0  0  0  0  0  0  0
  146.8366  137.7176  152.0925 H   0  0  0  0  0  0  0  0  0  0  0  0
  148.1892  139.7171  152.8127 H   0  0  0  0  0  0  0  0  0  0  0  0
  147.3629  139.7480  154.3523 H   0  0  0  0  0  0  0  0  0  0  0  0
  150.3904  139.2206  153.4718 H   0  0  0  0  0  0  0  0  0  0  0  0
  149.8728  139.5287  155.1208 H   0  0  0  0  0  0  0  0  0  0  0  0
  151.2327  136.9647  154.1007 H   0  0  0  0  0  0  0  0  0  0  0  0
  151.9449  138.1764  155.1489 H   0  0  0  0  0  0  0  0  0  0  0  0
  149.4454  135.6166  154.9420 H   0  0  0  0  0  0  0  0  0  0  0  0
  147.8489  135.1156  156.8497 H   0  0  0  0  0  0  0  0  0  0  0  0
  149.5218  134.7972  157.2261 H   0  0  0  0  0  0  0  0  0  0  0  0
  148.9607  137.4498  158.0372 H   0  0  0  0  0  0  0  0  0  0  0  0
  147.6311  137.3783  162.3380 H   0  0  0  0  0  0  0  0  0  0  0  0
  147.2219  134.9375  162.8544 H   0  0  0  0  0  0  0  0  0  0  0  0
  147.9793  138.0607  156.0777 H   0  0  0  0  0  0  0  0  0  0  0  0
  147.2858  136.8346  155.0330 H   0  0  0  0  0  0  0  0  0  0  0  0
  148.8563  137.4377  153.3531 H   0  0  0  0  0  0  0  0  0  0  0  0
  1  2  1  0  0  0  0
  1 21  1  0  0  0  0
  1 22  1  0  0  0  0
  1 23  1  0  0  0  0
  2  3  1  0  0  0  0
  2 24  1  0  0  0  0
  2 25  1  0  0  0  0
  3 20  1  0  0  0  0
  3  4  1  0  0  0  0
  3 38  1  0  0  0  0
  4  5  1  0  0  0  0
  4 26  1  0  0  0  0
  4 27  1  0  0  0  0
  5  6  1  0  0  0  0
  5 28  1  0  0  0  0
  5 29  1  0  0  0  0
  6  7  1  0  0  0  0
  7  8  1  0  0  0  0
  7 20  1  0  0  0  0
  7 30  1  0  0  0  0
  8  9  1  0  0  0  0
  8 31  1  0  0  0  0
  8 32  1  0  0  0  0
  9 10  1  0  0  0  0
  9 33  1  0  0  0  0
 10 19  1  0  0  0  0
 10 11  2  0  0  0  0
 11 12  1  0  0  0  0
 12 13  2  0  0  0  0
 12 34  1  0  0  0  0
 13 14  1  0  0  0  0
 13 35  1  0  0  0  0
 14 15  1  0  0  0  0
 14 19  2  0  0  0  0
 15 16  1  0  0  0  0
 15 17  1  0  0  0  0
 15 18  1  0  0  0  0
 20 36  1  0  0  0  0
 20 37  1  0  0  0  0
M  CHG  1   3   1
M  END
> <s_m_source_file>
AV-unprocessed.smi

> <i_m_source_file_index>
1053

> <i_lp_mmshare_version>
43012

> <i_f3d_flags>
0

> <s_epik_input>
W0NIM11bQ0gyXU4xW0NIMl1bQ0gyXU9bQ0BIXShbQ0gyXTEpW0NIMl1bTkhdYzJuW2NIXVtjSF1jKG4yKUMoRikoRilG

> <s_epik_cmdline>
J2VwaWtfcHl0aG9uJywgJy1waCcsICc3LjAnLCAnLXRuJywgJzgnLCAnLW1hJywgJzIwMCcsICctbWV0YWxfYmluZGluZycsICctaW1hZScsICc8aW5maWxlLm1hZT4nLCAnLW9tYWUnLCAnPG91dGZpbGUubWFlPic=

> <r_lp_tautomer_probability>
1

> <r_epik_Ionization_Penalty>
0.178506

> <r_epik_Ionization_Penalty_Charging>
0.178504

> <r_epik_Ionization_Penalty_Neutral>
2.47619e-06

> <r_epik_State_Penalty>
0.167974

> <r_epik_Charging_Adjusted_Penalty>
0.346478

> <i_epik_Tot_Q>
1

> <i_epik_Tot_abs_Q>
1

> <r_epik_Metal_State_Penalty>
0.167974

> <b_epik_Metal_Only>
0

> <s_lp_Force_Field>
OPLS_2005

> <r_lp_Energy>
10.9386

> <b_lp_Chiralities_Consistent>
1

> <s_lp_Variant>
AV-unprocessed.smi:1053-1

> <Gold.Version>
5.8.1

> <Gold.Id.Protein>
6NUR|6NUR_protein|mol2

> <Gold.PLP.Fitness>
34.3726

> <Gold.PLP.PLP>
-28.4423

> <Gold.PLP.part.hbond>
-2.8065

> <Gold.PLP.part.metal>
0.0000

> <Gold.PLP.part.buried>
-3.3668

> <Gold.PLP.part.nonpolar>
-22.2060

> <Gold.PLP.part.repulsive>
0.1114

> <Gold.PLP.ligand.clash>
0.0000

> <Gold.PLP.ligand.torsion>
0.1826

> <Gold.PLP.Chemscore.Hbond>
2.0917

> <Gold.PLP.Chemscore.CHOScore>
0.0000

> <Gold.PLP.Chemscore.Metal>
0.0000

> <Gold.Chemscore.Hbonds>
donor molecule, donor type, donor heavy atom, donor atom, acceptor molecule, acceptor atom, score
      L1  H     3    38       P1  7948  2.00
      P1  H  6934  6947       L1    11  0.06

> <Gold.PLP.Chemscore.Internal.Correction>
0.0205

> <Gold.Rescore>
     Score         DG    S(hbond)    S(metal)    S(lipo)     H(rot)  DE(clash)    DE(int)     intcor
     11.88     -12.08       1.00        0.00      61.84       1.55       0.00       0.19       ----

> <Gold.Chemscore.Fitness>
11.8827

> <Gold.Chemscore.DG>
-12.0752

> <Gold.Chemscore.ZeroCoef>
-5.4800

> <Gold.Chemscore.Hbond>
1.0002

> <Gold.Chemscore.Metal>
0.0000

> <Gold.Chemscore.Lipo>
61.8383

> <Gold.Chemscore.Internal_Hbond>
0.0000

> <Gold.Chemscore.DEClash>
0.0000

> <Gold.Chemscore.DEInternal>
0.1925

> <Gold.Chemscore.Rot>
1.5549

> <Gold.Chemscore.Internal.Correction>
   9.000000E+99

> <Gold.Chemscore.Hbonds>
donor molecule, donor type, donor heavy atom, donor atom, acceptor molecule, acceptor atom, score
      L1  H     3    38       P1  7948  1.00

> <Gold.Chemscore.Hbond.Weighted>
-3.3406

> <Gold.Chemscore.Metal.Weighted>
-0.0000

> <Gold.Chemscore.Lipo.Weighted>
-7.2351

> <Gold.Chemscore.Internal_Hbond.Weighted>
0.0000

> <Gold.Chemscore.DEClash.Weighted>
0.0000

> <Gold.Chemscore.DEInternal.Weighted>
0.1925

> <Gold.Chemscore.Rot.Weighted>
3.9806

> <Gold.Chemscore.Internal.Correction.Weighted>
   9.000000E+99

> <Gold.Protein.RotatedTorsions>
[ 6907 6896 6895 6894 ] final   46.34 input  -60.11 | X-H torsion
[ 7974 7965 7964 7962 ] final  127.59 input  175.53 | X-H torsion
[ 8008 7997 7996 7995 ] final  172.69 input   59.86 | X-H torsion
[ 10167 10162 10161 10158 ] final -108.37 input  -65.29 | X-H torsion
[ 10718 10713 10712 10709 ] final -143.71 input   66.30 | X-H torsion
[ 10763 10752 10751 10750 ] final   73.02 input  -60.55 | X-H torsion
[ 11005 11000 10999 10996 ] final -133.53 input  -57.11 | X-H torsion

> <Gold.Protein.ActiveResidues>
 VAL166  LYS551  ARG553  GLY616  TRP617  ASP618  TYR619  PRO620  LYS621  CYS622 
 ASP623  PHE694  ASN695  SER759  ASP760  ASP761  ALA762  ILE779  LEU786  VAL792 
 PHE793  MET794  SER795  GLU796  ALA797  LYS798  CYS799  TRP800  GLU811  SER814 

> <Gold.Protein.RotatedAtoms>
  152.2552  134.8091  160.0439 H   0  0  0  0  0  0  0  0  0  0  0  0  # atno 6907 bound_to 6896
  151.8757  133.3479  159.3757 H   0  0  0  0  0  0  0  0  0  0  0  0  # atno 6908 bound_to 6896
  150.7097  134.4996  159.5599 H   0  0  0  0  0  0  0  0  0  0  0  0  # atno 6909 bound_to 6896
  145.0489  139.3899  143.5064 H   0  0  0  0  0  0  0  0  0  0  0  0  # atno 7974 bound_to 7965
  156.1150  140.1479  156.9285 H   0  0  0  0  0  0  0  0  0  0  0  0  # atno 8008 bound_to 7997
  154.4794  140.0884  156.7383 H   0  0  0  0  0  0  0  0  0  0  0  0  # atno 8009 bound_to 7997
  155.4530  140.3435  155.4305 H   0  0  0  0  0  0  0  0  0  0  0  0  # atno 8010 bound_to 7997
  140.1669  143.4074  152.1383 H   0  0  0  0  0  0  0  0  0  0  0  0  # atno 10167 bound_to 10162
  156.3613  130.7739  151.1907 H   0  0  0  0  0  0  0  0  0  0  0  0  # atno 10718 bound_to 10713
  153.0495  135.5078  154.7830 H   0  0  0  0  0  0  0  0  0  0  0  0  # atno 10763 bound_to 10752
  154.6704  135.2952  154.9752 H   0  0  0  0  0  0  0  0  0  0  0  0  # atno 10764 bound_to 10752
  154.0572  135.6696  153.4860 H   0  0  0  0  0  0  0  0  0  0  0  0  # atno 10765 bound_to 10752
  140.9072  134.1615  157.4417 H   0  0  0  0  0  0  0  0  0  0  0  0  # atno 11005 bound_to 11000
  146.3516  140.0129  142.8665 LP  0  0  0  0  0  0  0  0  0  0  0  0  # atno 17320 bound_to 7965
  145.1552  140.9644  143.4409 LP  0  0  0  0  0  0  0  0  0  0  0  0  # atno 17321 bound_to 7965
  139.5355  144.7205  151.4907 LP  0  0  0  0  0  0  0  0  0  0  0  0  # atno 17342 bound_to 10162
  140.6607  143.8504  150.6885 LP  0  0  0  0  0  0  0  0  0  0  0  0  # atno 17343 bound_to 10162
  157.7474  131.0399  150.4573 LP  0  0  0  0  0  0  0  0  0  0  0  0  # atno 17370 bound_to 10713
  156.4784  130.4068  149.6476 LP  0  0  0  0  0  0  0  0  0  0  0  0  # atno 17371 bound_to 10713
  139.8751  134.9921  156.5582 LP  0  0  0  0  0  0  0  0  0  0  0  0  # atno 17394 bound_to 11000
  140.8156  133.8394  155.8849 LP  0  0  0  0  0  0  0  0  0  0  0  0  # atno 17395 bound_to 11000

$$$$
