AV-unprocessed.smi:64|AV-procd|sdf|609|dock6
  -GOLD-   2262016503D 1   1.00000     0.00000
 Structure written by MMmdl.
 32 33  0  0  0  0  0  0  0  0  1 V2000
  152.8882  143.4341  162.0684 C   0  0  0  0  0  0  0  0  0  0  0  0
  152.7379  143.4297  160.5522 C   0  0  0  0  0  0  0  0  0  0  0  0
  152.8933  142.4000  159.8958 O   0  0  0  0  0  0  0  0  0  0  0  0
  152.4302  144.6392  160.0607 O   0  0  0  0  0  0  0  0  0  0  0  0
  152.3751  144.8336  158.6569 C   0  0  0  0  0  0  0  0  0  0  0  0
  151.3106  143.9081  158.0622 C   0  0  0  0  0  0  0  0  0  0  0  0
  151.9563  142.9242  157.2706 O   0  0  0  0  0  0  0  0  0  0  0  0
  151.0994  142.2809  156.3882 C   0  0  0  0  0  0  0  0  0  0  0  0
  151.4820  140.8834  156.3520 N   0  0  0  0  0  0  0  0  0  0  0  0
  152.3692  140.2134  157.1569 C   0  0  0  0  0  0  0  0  0  0  0  0
  152.4918  138.9470  156.8698 N   0  0  0  0  0  0  0  0  0  0  0  0
  151.6214  138.7536  155.8005 C   0  0  0  0  0  0  0  0  0  0  0  0
  151.3195  137.5645  155.0547 C   0  0  0  0  0  0  0  0  0  0  0  0
  151.7803  136.4346  155.2028 O   0  0  0  0  0  0  0  0  0  0  0  0
  150.3729  137.7988  154.0487 N   0  0  0  0  0  0  0  0  0  0  0  0
  149.7911  139.0390  153.7954 C   0  0  0  0  0  0  0  0  0  0  0  0
  148.9021  139.0955  152.7951 N   0  0  0  0  0  0  0  0  0  0  0  0
  150.0715  140.1333  154.4808 N   0  0  0  0  0  0  0  0  0  0  0  0
  150.9934  139.9401  155.4745 C   0  0  0  0  0  0  0  0  0  0  0  0
  150.1066  137.0084  153.4803 H   0  0  0  0  0  0  0  0  0  0  0  0
  152.8038  144.4455  162.4670 H   0  0  0  0  0  0  0  0  0  0  0  0
  153.8622  143.0341  162.3502 H   0  0  0  0  0  0  0  0  0  0  0  0
  152.1152  142.8164  162.5257 H   0  0  0  0  0  0  0  0  0  0  0  0
  152.1524  145.8747  158.4185 H   0  0  0  0  0  0  0  0  0  0  0  0
  153.3502  144.5990  158.2280 H   0  0  0  0  0  0  0  0  0  0  0  0
  150.7623  143.4190  158.8684 H   0  0  0  0  0  0  0  0  0  0  0  0
  150.5909  144.4801  157.4741 H   0  0  0  0  0  0  0  0  0  0  0  0
  150.0611  142.3595  156.7160 H   0  0  0  0  0  0  0  0  0  0  0  0
  151.1944  142.6981  155.3842 H   0  0  0  0  0  0  0  0  0  0  0  0
  152.9167  140.6879  157.9582 H   0  0  0  0  0  0  0  0  0  0  0  0
  148.6862  138.2608  152.2691 H   0  0  0  0  0  0  0  0  0  0  0  0
  148.4469  139.9674  152.5667 H   0  0  0  0  0  0  0  0  0  0  0  0
  1  2  1  0  0  0  0
  1 21  1  0  0  0  0
  1 22  1  0  0  0  0
  1 23  1  0  0  0  0
  2  3  2  0  0  0  0
  2  4  1  0  0  0  0
  4  5  1  0  0  0  0
  5  6  1  0  0  0  0
  5 24  1  0  0  0  0
  5 25  1  0  0  0  0
  6  7  1  0  0  0  0
  6 26  1  0  0  0  0
  6 27  1  0  0  0  0
  7  8  1  0  0  0  0
  8  9  1  0  0  0  0
  8 28  1  0  0  0  0
  8 29  1  0  0  0  0
  9 19  1  0  0  0  0
  9 10  1  0  0  0  0
 10 11  2  0  0  0  0
 10 30  1  0  0  0  0
 11 12  1  0  0  0  0
 12 19  2  0  0  0  0
 12 13  1  0  0  0  0
 13 14  2  0  0  0  0
 13 15  1  0  0  0  0
 15 20  1  0  0  0  0
 15 16  1  0  0  0  0
 16 17  1  0  0  0  0
 16 18  2  0  0  0  0
 17 31  1  0  0  0  0
 17 32  1  0  0  0  0
 18 19  1  0  0  0  0
M  END
> <s_m_source_file>
AV-unprocessed.smi

> <i_m_source_file_index>
64

> <i_lp_mmshare_version>
43012

> <i_f3d_flags>
0

> <s_epik_input>
W0NIM11DKD1PKU9bQ0gyXVtDSDJdT1tDSDJdbihbY0hdbjEpYyhjMTIpbmMoW05IMl0pW25IXWMyPU8=

> <s_epik_cmdline>
J2VwaWtfcHl0aG9uJywgJy1waCcsICc3LjAnLCAnLXRuJywgJzgnLCAnLW1hJywgJzIwMCcsICctbWV0YWxfYmluZGluZycsICctaW1hZScsICc8aW5maWxlLm1hZT4nLCAnLW9tYWUnLCAnPG91dGZpbGUubWFlPic=

> <r_lp_tautomer_probability>
1

> <r_epik_Ionization_Penalty>
0.00155449

> <r_epik_Ionization_Penalty_Charging>
0.00148332

> <r_epik_Ionization_Penalty_Neutral>
7.1171e-05

> <r_epik_State_Penalty>
-0

> <r_epik_Charging_Adjusted_Penalty>
0.00148332

> <i_epik_Tot_Q>
0

> <i_epik_Tot_abs_Q>
0

> <r_epik_Metal_State_Penalty>
0.320128

> <b_epik_Metal_Only>
0

> <s_epik_Chemistry_Notes>
This compound has an ester and may undergo hydrolysis at high or low pH. This compound contains an acetal/aminal-like group ( X-CH(R)-Y where X, Y are N, S, or O) that may be acid/base labile, releasing an aldehyde.

> <s_lp_Force_Field>
OPLS_2005

> <r_lp_Energy>
2.66723

> <b_lp_Chiralities_Consistent>
1

> <s_lp_Variant>
AV-unprocessed.smi:64-1

> <Gold.Version>
5.8.1

> <Gold.Id.Protein>
6NUR|6NUR_protein|mol2

> <Gold.PLP.Fitness>
43.2744

> <Gold.PLP.PLP>
-36.0505

> <Gold.PLP.part.hbond>
-3.7505

> <Gold.PLP.part.metal>
0.0000

> <Gold.PLP.part.buried>
-3.9871

> <Gold.PLP.part.nonpolar>
-28.6090

> <Gold.PLP.part.repulsive>
0.4785

> <Gold.PLP.ligand.clash>
0.0000

> <Gold.PLP.ligand.torsion>
0.8119

> <Gold.PLP.Chemscore.Hbond>
2.9289

> <Gold.PLP.Chemscore.CHOScore>
0.0000

> <Gold.PLP.Chemscore.Metal>
0.0000

> <Gold.Chemscore.Hbonds>
donor molecule, donor type, donor heavy atom, donor atom, acceptor molecule, acceptor atom, score
      L1  H    15    20       P1  7948  0.77
      L1  H    17    31       P1  7948  0.96
      P1  H  7989  7998       L1    18  0.20
      P1  H 10752 10764       L1    14  1.00

> <Gold.PLP.Chemscore.Internal.Correction>
0.0609

> <Gold.Rescore>
     Score         DG    S(hbond)    S(metal)    S(lipo)     H(rot)  DE(clash)    DE(int)     intcor
      6.11      -8.22       2.38        0.00      41.80       3.95       0.12       1.98       ----

> <Gold.Chemscore.Fitness>
6.1149

> <Gold.Chemscore.DG>
-8.2176

> <Gold.Chemscore.ZeroCoef>
-5.4800

> <Gold.Chemscore.Hbond>
2.3843

> <Gold.Chemscore.Metal>
0.0000

> <Gold.Chemscore.Lipo>
41.7995

> <Gold.Chemscore.Internal_Hbond>
0.0000

> <Gold.Chemscore.DEClash>
0.1235

> <Gold.Chemscore.DEInternal>
1.9792

> <Gold.Chemscore.Rot>
3.9518

> <Gold.Chemscore.Internal.Correction>
   9.000000E+99

> <Gold.Chemscore.Hbonds>
donor molecule, donor type, donor heavy atom, donor atom, acceptor molecule, acceptor atom, score
      L1  H    15    20       P1  7948  0.14
      L1  H    17    31       P1  7948  0.86
      P1  H 10752 10764       L1    14  0.97

> <Gold.Chemscore.Hbond.Weighted>
-7.9636

> <Gold.Chemscore.Metal.Weighted>
-0.0000

> <Gold.Chemscore.Lipo.Weighted>
-4.8905

> <Gold.Chemscore.Internal_Hbond.Weighted>
0.0000

> <Gold.Chemscore.DEClash.Weighted>
0.1235

> <Gold.Chemscore.DEInternal.Weighted>
1.9792

> <Gold.Chemscore.Rot.Weighted>
10.1165

> <Gold.Chemscore.Internal.Correction.Weighted>
   9.000000E+99

> <Gold.Protein.RotatedTorsions>
[ 6907 6896 6895 6894 ] final -135.15 input  -60.11 | X-H torsion
[ 7974 7965 7964 7962 ] final  116.28 input  175.53 | X-H torsion
[ 8008 7997 7996 7995 ] final   94.70 input   59.86 | X-H torsion
[ 10167 10162 10161 10158 ] final  124.66 input  -65.29 | X-H torsion
[ 10718 10713 10712 10709 ] final  134.65 input   66.30 | X-H torsion
[ 10763 10752 10751 10750 ] final  -66.13 input  -60.55 | X-H torsion
[ 11005 11000 10999 10996 ] final  154.29 input  -57.11 | X-H torsion

> <Gold.Protein.ActiveResidues>
 VAL166  LYS551  ARG553  GLY616  TRP617  ASP618  TYR619  PRO620  LYS621  CYS622 
 ASP623  PHE694  ASN695  SER759  ASP760  ASP761  ALA762  ILE779  LEU786  VAL792 
 PHE793  MET794  SER795  GLU796  ALA797  LYS798  CYS799  TRP800  GLU811  SER814 

> <Gold.Protein.RotatedAtoms>
  150.9944  133.6117  159.2703 H   0  0  0  0  0  0  0  0  0  0  0  0  # atno 6907 bound_to 6896
  151.3326  135.0844  159.9353 H   0  0  0  0  0  0  0  0  0  0  0  0  # atno 6908 bound_to 6896
  152.5255  133.9571  159.7754 H   0  0  0  0  0  0  0  0  0  0  0  0  # atno 6909 bound_to 6896
  145.1816  139.3047  143.4415 H   0  0  0  0  0  0  0  0  0  0  0  0  # atno 7974 bound_to 7965
  156.0608  140.3296  155.7459 H   0  0  0  0  0  0  0  0  0  0  0  0  # atno 8008 bound_to 7997
  155.5458  140.0606  157.2878 H   0  0  0  0  0  0  0  0  0  0  0  0  # atno 8009 bound_to 7997
  154.4480  140.1903  156.0625 H   0  0  0  0  0  0  0  0  0  0  0  0  # atno 8010 bound_to 7997
  139.5729  144.6948  151.3730 H   0  0  0  0  0  0  0  0  0  0  0  0  # atno 10167 bound_to 10162
  157.4651  131.1076  150.9872 H   0  0  0  0  0  0  0  0  0  0  0  0  # atno 10718 bound_to 10713
  154.3553  135.6127  153.5663 H   0  0  0  0  0  0  0  0  0  0  0  0  # atno 10763 bound_to 10752
  152.9796  135.5802  154.4695 H   0  0  0  0  0  0  0  0  0  0  0  0  # atno 10764 bound_to 10752
  154.4424  135.2850  155.1816 H   0  0  0  0  0  0  0  0  0  0  0  0  # atno 10765 bound_to 10752
  140.1476  134.8697  157.2412 H   0  0  0  0  0  0  0  0  0  0  0  0  # atno 11005 bound_to 11000
  146.3452  140.1997  142.8589 LP  0  0  0  0  0  0  0  0  0  0  0  0  # atno 17320 bound_to 7965
  145.0131  140.8731  143.5212 LP  0  0  0  0  0  0  0  0  0  0  0  0  # atno 17321 bound_to 7965
  140.7013  143.7625  150.7407 LP  0  0  0  0  0  0  0  0  0  0  0  0  # atno 17342 bound_to 10162
  140.1136  143.4676  152.2355 LP  0  0  0  0  0  0  0  0  0  0  0  0  # atno 17343 bound_to 10162
  157.0656  130.5843  149.5393 LP  0  0  0  0  0  0  0  0  0  0  0  0  # atno 17370 bound_to 10713
  156.0047  130.5131  150.7787 LP  0  0  0  0  0  0  0  0  0  0  0  0  # atno 17371 bound_to 10713
  140.2645  134.3532  155.7395 LP  0  0  0  0  0  0  0  0  0  0  0  0  # atno 17394 bound_to 11000
  141.2194  133.7388  156.9130 LP  0  0  0  0  0  0  0  0  0  0  0  0  # atno 17395 bound_to 11000

$$$$
