AV-unprocessed.smi:3336|AV-procd|sdf|12859|dock1
  -GOLD-   2272019253D 1   1.00000     0.00000
 Structure written by MMmdl.
 41 42  0  0  0  0  0  0  0  0  1 V2000
  149.5536  142.4181  158.2704 C   0  0  0  0  0  0  0  0  0  0  0  0
  150.7424  142.5046  157.2995 C   0  0  2  0  0  0  0  0  0  0  0  0
  151.5525  143.7969  157.5228 C   0  0  0  0  0  0  0  0  0  0  0  0
  151.7588  144.0805  158.9323 N   0  0  0  0  0  0  0  0  0  0  0  0
  151.4380  145.2239  159.6338 C   0  0  0  0  0  0  0  0  0  0  0  0
  151.8355  145.0323  160.9260 C   0  0  0  0  0  0  0  0  0  0  0  0
  152.3960  143.7243  160.9166 C   0  0  0  0  0  0  0  0  0  0  0  0
  152.3460  143.1556  159.7227 N   0  0  0  0  0  0  0  0  0  0  0  0
  150.2390  142.4959  155.9250 N   0  0  0  0  0  0  0  0  0  0  0  0
  149.4635  141.2959  155.5536 C   0  0  1  0  0  0  0  0  0  0  0  0
  148.6043  141.6153  154.3194 C   0  0  0  0  0  0  0  0  0  0  0  0
  150.3506  140.0586  155.2734 C   0  0  0  0  0  0  0  0  0  0  0  0
  150.5504  139.7423  154.0989 O   0  0  0  0  0  0  0  0  0  0  0  0
  150.8849  139.3509  156.3008 N   0  0  0  0  0  0  0  0  0  0  0  0
  151.7678  138.1976  156.0924 C   0  0  0  0  0  0  0  0  0  0  0  0
  151.0753  136.9396  156.6442 C   0  0  0  0  0  0  0  0  0  0  0  0
  150.7863  137.1255  158.0267 O   0  0  0  0  0  0  0  0  0  0  0  0
  149.9470  138.2505  158.2704 C   0  0  0  0  0  0  0  0  0  0  0  0
  150.6138  139.5303  157.7326 C   0  0  0  0  0  0  0  0  0  0  0  0
  149.8954  142.4479  159.3055 H   0  0  0  0  0  0  0  0  0  0  0  0
  148.9941  141.4914  158.1437 H   0  0  0  0  0  0  0  0  0  0  0  0
  148.8613  143.2485  158.1278 H   0  0  0  0  0  0  0  0  0  0  0  0
  151.4021  141.6561  157.4845 H   0  0  0  0  0  0  0  0  0  0  0  0
  152.5236  143.7399  157.0288 H   0  0  0  0  0  0  0  0  0  0  0  0
  151.0310  144.6476  157.0816 H   0  0  0  0  0  0  0  0  0  0  0  0
  150.9652  146.0707  159.1583 H   0  0  0  0  0  0  0  0  0  0  0  0
  151.7436  145.7228  161.7511 H   0  0  0  0  0  0  0  0  0  0  0  0
  152.8345  143.1748  161.7365 H   0  0  0  0  0  0  0  0  0  0  0  0
  149.7303  143.3490  155.7434 H   0  0  0  0  0  0  0  0  0  0  0  0
  148.7987  141.0885  156.3894 H   0  0  0  0  0  0  0  0  0  0  0  0
  147.9792  140.7694  154.0323 H   0  0  0  0  0  0  0  0  0  0  0  0
  149.2231  141.8750  153.4592 H   0  0  0  0  0  0  0  0  0  0  0  0
  147.9391  142.4572  154.5137 H   0  0  0  0  0  0  0  0  0  0  0  0
  152.0319  138.0415  155.0457 H   0  0  0  0  0  0  0  0  0  0  0  0
  152.7102  138.3670  156.6157 H   0  0  0  0  0  0  0  0  0  0  0  0
  150.1571  136.7262  156.0945 H   0  0  0  0  0  0  0  0  0  0  0  0
  151.7249  136.0713  156.5327 H   0  0  0  0  0  0  0  0  0  0  0  0
  148.9727  138.0954  157.8043 H   0  0  0  0  0  0  0  0  0  0  0  0
  149.7769  138.3361  159.3437 H   0  0  0  0  0  0  0  0  0  0  0  0
  151.5537  139.7129  158.2554 H   0  0  0  0  0  0  0  0  0  0  0  0
  149.9716  140.3751  157.9672 H   0  0  0  0  0  0  0  0  0  0  0  0
  1  2  1  0  0  0  0
  1 20  1  0  0  0  0
  1 21  1  0  0  0  0
  1 22  1  0  0  0  0
  2  3  1  0  0  0  0
  2  9  1  0  0  0  0
  2 23  1  0  0  0  0
  3  4  1  0  0  0  0
  3 24  1  0  0  0  0
  3 25  1  0  0  0  0
  4  8  1  0  0  0  0
  4  5  1  0  0  0  0
  5  6  2  0  0  0  0
  5 26  1  0  0  0  0
  6  7  1  0  0  0  0
  6 27  1  0  0  0  0
  7  8  2  0  0  0  0
  7 28  1  0  0  0  0
  9 10  1  0  0  0  0
  9 29  1  0  0  0  0
 10 11  1  0  0  0  0
 10 12  1  0  0  0  0
 10 30  1  0  0  0  0
 11 31  1  0  0  0  0
 11 32  1  0  0  0  0
 11 33  1  0  0  0  0
 12 13  2  0  0  0  0
 12 14  1  0  0  0  0
 14 19  1  0  0  0  0
 14 15  1  0  0  0  0
 15 16  1  0  0  0  0
 15 34  1  0  0  0  0
 15 35  1  0  0  0  0
 16 17  1  0  0  0  0
 16 36  1  0  0  0  0
 16 37  1  0  0  0  0
 17 18  1  0  0  0  0
 18 19  1  0  0  0  0
 18 38  1  0  0  0  0
 18 39  1  0  0  0  0
 19 40  1  0  0  0  0
 19 41  1  0  0  0  0
M  END
> <s_m_source_file>
AV-unprocessed.smi

> <i_m_source_file_index>
3336

> <i_lp_mmshare_version>
43012

> <i_f3d_flags>
0

> <s_epik_input>
bjFbY0hdW2NIXVtjSF1uMVtDSDJdW0NAQEhdKFtDSDNdKVtOSF1bQ0BIXShbQ0gzXSlDKD1PKU4yW0NIMl1bQ0gyXU9bQ0gyXVtDSDJdMg==

> <s_epik_cmdline>
J2VwaWtfcHl0aG9uJywgJy1waCcsICc3LjAnLCAnLXRuJywgJzgnLCAnLW1hJywgJzIwMCcsICctbWV0YWxfYmluZGluZycsICctaW1hZScsICc8aW5maWxlLm1hZT4nLCAnLW9tYWUnLCAnPG91dGZpbGUubWFlPic=

> <r_lp_tautomer_probability>
1

> <r_epik_Ionization_Penalty>
0.739958

> <r_epik_Ionization_Penalty_Charging>
0

> <r_epik_Ionization_Penalty_Neutral>
0.739958

> <r_epik_State_Penalty>
0.765967

> <r_epik_Charging_Adjusted_Penalty>
0.765967

> <i_epik_Tot_Q>
0

> <i_epik_Tot_abs_Q>
0

> <r_epik_Metal_State_Penalty>
0.765947

> <b_epik_Metal_Only>
0

> <s_lp_Force_Field>
OPLS_2005

> <r_lp_Energy>
28.023

> <b_lp_Chiralities_Consistent>
1

> <s_lp_Variant>
AV-unprocessed.smi:3336-7

> <Gold.Version>
5.8.1

> <Gold.Id.Protein>
6NUR|6NUR_protein|mol2

> <Gold.PLP.Fitness>
42.5660

> <Gold.PLP.PLP>
-38.0549

> <Gold.PLP.part.hbond>
-2.0000

> <Gold.PLP.part.metal>
0.0000

> <Gold.PLP.part.buried>
-4.3608

> <Gold.PLP.part.nonpolar>
-31.8517

> <Gold.PLP.part.repulsive>
0.4232

> <Gold.PLP.ligand.clash>
0.0000

> <Gold.PLP.ligand.torsion>
0.8342

> <Gold.PLP.Chemscore.Hbond>
2.0000

> <Gold.PLP.Chemscore.CHOScore>
0.0000

> <Gold.PLP.Chemscore.Metal>
0.0000

> <Gold.Chemscore.Hbonds>
donor molecule, donor type, donor heavy atom, donor atom, acceptor molecule, acceptor atom, score
      L1  H     9    29       P1  8028  1.00
      P1  H  7989  7998       L1    13  1.00

> <Gold.PLP.Chemscore.Internal.Correction>
0.1795

> <Gold.Rescore>
     Score         DG    S(hbond)    S(metal)    S(lipo)     H(rot)  DE(clash)    DE(int)     intcor
     16.78     -17.86       1.95        0.00      89.32       1.79       0.01       1.07       ----

> <Gold.Chemscore.Fitness>
16.7808

> <Gold.Chemscore.DG>
-17.8620

> <Gold.Chemscore.ZeroCoef>
-5.4800

> <Gold.Chemscore.Hbond>
1.9528

> <Gold.Chemscore.Metal>
0.0000

> <Gold.Chemscore.Lipo>
89.3234

> <Gold.Chemscore.Internal_Hbond>
0.0000

> <Gold.Chemscore.DEClash>
0.0119

> <Gold.Chemscore.DEInternal>
1.0693

> <Gold.Chemscore.Rot>
1.7935

> <Gold.Chemscore.Internal.Correction>
   9.000000E+99

> <Gold.Chemscore.Hbonds>
donor molecule, donor type, donor heavy atom, donor atom, acceptor molecule, acceptor atom, score
      L1  H     9    29       P1  8028  0.99
      P1  H  7989  7998       L1    13  0.60

> <Gold.Chemscore.Hbond.Weighted>
-6.5224

> <Gold.Chemscore.Metal.Weighted>
-0.0000

> <Gold.Chemscore.Lipo.Weighted>
-10.4508

> <Gold.Chemscore.Internal_Hbond.Weighted>
0.0000

> <Gold.Chemscore.DEClash.Weighted>
0.0119

> <Gold.Chemscore.DEInternal.Weighted>
1.0693

> <Gold.Chemscore.Rot.Weighted>
4.5912

> <Gold.Chemscore.Internal.Correction.Weighted>
   9.000000E+99

> <Gold.Protein.RotatedTorsions>
[ 6907 6896 6895 6894 ] final   81.65 input  -60.11 | X-H torsion
[ 7974 7965 7964 7962 ] final   98.36 input  175.53 | X-H torsion
[ 8008 7997 7996 7995 ] final -110.19 input   59.86 | X-H torsion
[ 10167 10162 10161 10158 ] final   38.07 input  -65.29 | X-H torsion
[ 10718 10713 10712 10709 ] final -133.73 input   66.30 | X-H torsion
[ 10763 10752 10751 10750 ] final  117.42 input  -60.55 | X-H torsion
[ 11005 11000 10999 10996 ] final -136.77 input  -57.11 | X-H torsion

> <Gold.Protein.ActiveResidues>
 VAL166  LYS551  ARG553  GLY616  TRP617  ASP618  TYR619  PRO620  LYS621  CYS622 
 ASP623  PHE694  ASN695  SER759  ASP760  ASP761  ALA762  ILE779  LEU786  VAL792 
 PHE793  MET794  SER795  GLU796  ALA797  LYS798  CYS799  TRP800  GLU811  SER814 

> <Gold.Protein.RotatedAtoms>
  152.5275  134.3171  159.9134 H   0  0  0  0  0  0  0  0  0  0  0  0  # atno 6907 bound_to 6896
  151.3120  133.4070  159.2655 H   0  0  0  0  0  0  0  0  0  0  0  0  # atno 6908 bound_to 6896
  151.0030  134.9354  159.8022 H   0  0  0  0  0  0  0  0  0  0  0  0  # atno 6909 bound_to 6896
  145.4132  139.2331  143.3237 H   0  0  0  0  0  0  0  0  0  0  0  0  # atno 7974 bound_to 7965
  154.9708  140.0397  157.2233 H   0  0  0  0  0  0  0  0  0  0  0  0  # atno 8008 bound_to 7997
  154.7803  140.2817  155.6047 H   0  0  0  0  0  0  0  0  0  0  0  0  # atno 8009 bound_to 7997
  156.2935  140.2593  156.2626 H   0  0  0  0  0  0  0  0  0  0  0  0  # atno 8010 bound_to 7997
  140.3972  144.1772  150.6132 H   0  0  0  0  0  0  0  0  0  0  0  0  # atno 10167 bound_to 10162
  156.2479  130.7135  151.1023 H   0  0  0  0  0  0  0  0  0  0  0  0  # atno 10718 bound_to 10713
  153.5521  135.3537  155.2764 H   0  0  0  0  0  0  0  0  0  0  0  0  # atno 10763 bound_to 10752
  154.8705  135.4116  154.2925 H   0  0  0  0  0  0  0  0  0  0  0  0  # atno 10764 bound_to 10752
  153.3654  135.7062  153.6748 H   0  0  0  0  0  0  0  0  0  0  0  0  # atno 10765 bound_to 10752
  140.8774  134.1974  157.4613 H   0  0  0  0  0  0  0  0  0  0  0  0  # atno 11005 bound_to 11000
  146.2694  140.4846  142.8820 LP  0  0  0  0  0  0  0  0  0  0  0  0  # atno 17320 bound_to 7965
  144.8295  140.6683  143.6300 LP  0  0  0  0  0  0  0  0  0  0  0  0  # atno 17321 bound_to 7965
  140.4778  143.2390  151.8999 LP  0  0  0  0  0  0  0  0  0  0  0  0  # atno 17342 bound_to 10162
  139.4786  144.5302  151.8677 LP  0  0  0  0  0  0  0  0  0  0  0  0  # atno 17343 bound_to 10162
  157.7203  131.0686  150.6164 LP  0  0  0  0  0  0  0  0  0  0  0  0  # atno 17370 bound_to 10713
  156.6242  130.4414  149.5811 LP  0  0  0  0  0  0  0  0  0  0  0  0  # atno 17371 bound_to 10713
  139.8717  134.9802  156.5066 LP  0  0  0  0  0  0  0  0  0  0  0  0  # atno 17394 bound_to 11000
  140.8501  133.8138  155.9160 LP  0  0  0  0  0  0  0  0  0  0  0  0  # atno 17395 bound_to 11000

$$$$
