AV-unprocessed.smi:1936|AV-procd|sdf|7831|dock4
  -GOLD-   22720 9573D 1   1.00000     0.00000
 Structure written by MMmdl.
 39 40  0  0  0  0  0  0  0  0  2 V2000
  145.6551  135.7914  155.2884 C   0  0  0  0  0  0  0  0  0  0  0  0
  146.0269  136.9349  154.3347 C   0  0  2  0  0  0  0  0  0  0  0  0
  145.0002  138.0872  154.4138 C   0  0  0  0  0  0  0  0  0  0  0  0
  145.6158  139.4280  154.2447 N   0  3  0  0  0  0  0  0  0  0  0  0
  145.8010  140.1475  155.5262 C   0  0  0  0  0  0  0  0  0  0  0  0
  146.3692  141.5539  155.2692 C   0  0  0  0  0  0  0  0  0  0  0  0
  147.5920  141.4527  154.5496 O   0  0  0  0  0  0  0  0  0  0  0  0
  147.4149  140.8334  153.2811 C   0  0  0  0  0  0  0  0  0  0  0  0
  146.8843  139.4035  153.4764 C   0  0  0  0  0  0  0  0  0  0  0  0
  146.1301  136.4041  152.9753 N   0  0  0  0  0  0  0  0  0  0  0  0
  145.1181  135.9243  152.2328 C   0  0  0  0  0  0  0  0  0  0  0  0
  143.9653  135.8186  152.6503 O   0  0  0  0  0  0  0  0  0  0  0  0
  145.4580  135.4717  150.8098 C   0  0  0  0  0  0  0  0  0  0  0  0
  145.2026  134.0545  150.6133 N   0  0  0  0  0  0  0  0  0  0  0  0
  143.9890  133.3993  150.5731 C   0  0  0  0  0  0  0  0  0  0  0  0
  144.2488  132.0742  150.3708 C   0  0  0  0  0  0  0  0  0  0  0  0
  145.6686  132.0154  150.2960 C   0  0  0  0  0  0  0  0  0  0  0  0
  146.2363  133.2020  150.4398 N   0  0  0  0  0  0  0  0  0  0  0  0
  145.6101  136.1409  156.3203 H   0  0  0  0  0  0  0  0  0  0  0  0
  146.3923  134.9888  155.2461 H   0  0  0  0  0  0  0  0  0  0  0  0
  144.6828  135.3642  155.0400 H   0  0  0  0  0  0  0  0  0  0  0  0
  147.0044  137.3016  154.6511 H   0  0  0  0  0  0  0  0  0  0  0  0
  144.2583  137.9323  153.6285 H   0  0  0  0  0  0  0  0  0  0  0  0
  144.4527  138.0532  155.3571 H   0  0  0  0  0  0  0  0  0  0  0  0
  144.8464  140.2292  156.0473 H   0  0  0  0  0  0  0  0  0  0  0  0
  146.4743  139.5808  156.1717 H   0  0  0  0  0  0  0  0  0  0  0  0
  145.6565  142.1666  154.7145 H   0  0  0  0  0  0  0  0  0  0  0  0
  146.5570  142.0620  156.2152 H   0  0  0  0  0  0  0  0  0  0  0  0
  146.7320  141.4216  152.6658 H   0  0  0  0  0  0  0  0  0  0  0  0
  148.3732  140.8112  152.7618 H   0  0  0  0  0  0  0  0  0  0  0  0
  147.6240  138.8009  154.0061 H   0  0  0  0  0  0  0  0  0  0  0  0
  146.7312  138.9379  152.5032 H   0  0  0  0  0  0  0  0  0  0  0  0
  147.0428  136.4475  152.5446 H   0  0  0  0  0  0  0  0  0  0  0  0
  144.8644  136.0426  150.0949 H   0  0  0  0  0  0  0  0  0  0  0  0
  146.5074  135.6752  150.5898 H   0  0  0  0  0  0  0  0  0  0  0  0
  143.0522  133.9241  150.6919 H   0  0  0  0  0  0  0  0  0  0  0  0
  143.5341  131.2688  150.2881 H   0  0  0  0  0  0  0  0  0  0  0  0
  146.2995  131.1519  150.1429 H   0  0  0  0  0  0  0  0  0  0  0  0
  144.9586  139.9753  153.7067 H   0  0  0  0  0  0  0  0  0  0  0  0
  1  2  1  0  0  0  0
  1 19  1  0  0  0  0
  1 20  1  0  0  0  0
  1 21  1  0  0  0  0
  2  3  1  0  0  0  0
  2 10  1  0  0  0  0
  2 22  1  0  0  0  0
  3  4  1  0  0  0  0
  3 23  1  0  0  0  0
  3 24  1  0  0  0  0
  4  9  1  0  0  0  0
  4  5  1  0  0  0  0
  4 39  1  0  0  0  0
  5  6  1  0  0  0  0
  5 25  1  0  0  0  0
  5 26  1  0  0  0  0
  6  7  1  0  0  0  0
  6 27  1  0  0  0  0
  6 28  1  0  0  0  0
  7  8  1  0  0  0  0
  8  9  1  0  0  0  0
  8 29  1  0  0  0  0
  8 30  1  0  0  0  0
  9 31  1  0  0  0  0
  9 32  1  0  0  0  0
 10 11  1  0  0  0  0
 10 33  1  0  0  0  0
 11 12  2  0  0  0  0
 11 13  1  0  0  0  0
 13 14  1  0  0  0  0
 13 34  1  0  0  0  0
 13 35  1  0  0  0  0
 14 18  1  0  0  0  0
 14 15  1  0  0  0  0
 15 16  2  0  0  0  0
 15 36  1  0  0  0  0
 16 17  1  0  0  0  0
 16 37  1  0  0  0  0
 17 18  2  0  0  0  0
 17 38  1  0  0  0  0
M  CHG  1   4   1
M  END
> <s_m_source_file>
AV-unprocessed.smi

> <i_m_source_file_index>
1936

> <i_lp_mmshare_version>
43012

> <i_f3d_flags>
0

> <s_epik_input>
W0NIMl0xW0NIMl1PW0NIMl1bQ0gyXU4xW0NIMl1bQ0BASF0oW0NIM10pW05IXUMoPU8pW0NIMl1uMltjSF1bY0hdW2NIXW4y

> <s_epik_cmdline>
J2VwaWtfcHl0aG9uJywgJy1waCcsICc3LjAnLCAnLXRuJywgJzgnLCAnLW1hJywgJzIwMCcsICctbWV0YWxfYmluZGluZycsICctaW1hZScsICc8aW5maWxlLm1hZT4nLCAnLW9tYWUnLCAnPG91dGZpbGUubWFlPic=

> <r_lp_tautomer_probability>
1

> <r_epik_Ionization_Penalty>
0.748405

> <r_epik_Ionization_Penalty_Charging>
0.748396

> <r_epik_Ionization_Penalty_Neutral>
9.02181e-06

> <r_epik_State_Penalty>
0.775162

> <r_epik_Charging_Adjusted_Penalty>
1.52356

> <i_epik_Tot_Q>
1

> <i_epik_Tot_abs_Q>
1

> <r_epik_Metal_State_Penalty>
0.775167

> <b_epik_Metal_Only>
0

> <s_lp_Force_Field>
OPLS_2005

> <r_lp_Energy>
23.0503

> <b_lp_Chiralities_Consistent>
1

> <s_lp_Variant>
AV-unprocessed.smi:1936-3

> <Gold.Version>
5.8.1

> <Gold.Id.Protein>
6NUR|6NUR_protein|mol2

> <Gold.PLP.Fitness>
38.6962

> <Gold.PLP.PLP>
-25.8385

> <Gold.PLP.part.hbond>
-2.0000

> <Gold.PLP.part.metal>
0.0000

> <Gold.PLP.part.buried>
-4.3304

> <Gold.PLP.part.nonpolar>
-19.8972

> <Gold.PLP.part.repulsive>
0.4584

> <Gold.PLP.ligand.clash>
0.0000

> <Gold.PLP.ligand.torsion>
1.0994

> <Gold.PLP.Chemscore.Hbond>
3.0000

> <Gold.PLP.Chemscore.CHOScore>
2.0000

> <Gold.PLP.Chemscore.Metal>
0.0000

> <Gold.Chemscore.Hbonds>
donor molecule, donor type, donor heavy atom, donor atom, acceptor molecule, acceptor atom, score
      L1  H     4    39       P1 10175  2.00
      L1  H    10    33       P1  7948  1.00
      L1  C    15    36       P1 10186  1.00
      L1  C    17    38       P1 10747  0.62

> <Gold.PLP.Chemscore.Internal.Correction>
0.0563

> <Gold.Rescore>
     Score         DG    S(hbond)    S(metal)    S(lipo)     H(rot)  DE(clash)    DE(int)     intcor
     12.36     -14.20       1.99        0.00      59.89       1.93       0.17       1.66       ----

> <Gold.Chemscore.Fitness>
12.3635

> <Gold.Chemscore.DG>
-14.1952

> <Gold.Chemscore.ZeroCoef>
-5.4800

> <Gold.Chemscore.Hbond>
1.9939

> <Gold.Chemscore.Metal>
0.0000

> <Gold.Chemscore.Lipo>
59.8858

> <Gold.Chemscore.Internal_Hbond>
0.0000

> <Gold.Chemscore.DEClash>
0.1669

> <Gold.Chemscore.DEInternal>
1.6647

> <Gold.Chemscore.Rot>
1.9340

> <Gold.Chemscore.Internal.Correction>
   9.000000E+99

> <Gold.Chemscore.Hbonds>
donor molecule, donor type, donor heavy atom, donor atom, acceptor molecule, acceptor atom, score
      L1  H     4    39       P1 10175  1.00
      L1  H    10    33       P1  7948  0.93

> <Gold.Chemscore.Hbond.Weighted>
-6.6596

> <Gold.Chemscore.Metal.Weighted>
-0.0000

> <Gold.Chemscore.Lipo.Weighted>
-7.0066

> <Gold.Chemscore.Internal_Hbond.Weighted>
0.0000

> <Gold.Chemscore.DEClash.Weighted>
0.1669

> <Gold.Chemscore.DEInternal.Weighted>
1.6647

> <Gold.Chemscore.Rot.Weighted>
4.9510

> <Gold.Chemscore.Internal.Correction.Weighted>
   9.000000E+99

> <Gold.Protein.RotatedTorsions>
[ 6907 6896 6895 6894 ] final   92.58 input  -60.11 | X-H torsion
[ 7974 7965 7964 7962 ] final -108.80 input  175.53 | X-H torsion
[ 8008 7997 7996 7995 ] final  -48.32 input   59.86 | X-H torsion
[ 10167 10162 10161 10158 ] final -177.40 input  -65.29 | X-H torsion
[ 10718 10713 10712 10709 ] final  165.55 input   66.30 | X-H torsion
[ 10763 10752 10751 10750 ] final  156.30 input  -60.55 | X-H torsion
[ 11005 11000 10999 10996 ] final -174.20 input  -57.11 | X-H torsion

> <Gold.Protein.ActiveResidues>
 VAL166  LYS551  ARG553  GLY616  TRP617  ASP618  TYR619  PRO620  LYS621  CYS622 
 ASP623  PHE694  ASN695  SER759  ASP760  ASP761  ALA762  ILE779  LEU786  VAL792 
 PHE793  MET794  SER795  GLU796  ALA797  LYS798  CYS799  TRP800  GLU811  SER814 

> <Gold.Protein.RotatedAtoms>
  152.5453  134.1480  159.8506 H   0  0  0  0  0  0  0  0  0  0  0  0  # atno 6907 bound_to 6896
  151.1509  133.4901  159.2603 H   0  0  0  0  0  0  0  0  0  0  0  0  # atno 6908 bound_to 6896
  151.1473  135.0220  159.8707 H   0  0  0  0  0  0  0  0  0  0  0  0  # atno 6909 bound_to 6896
  145.1884  140.9003  143.3439 H   0  0  0  0  0  0  0  0  0  0  0  0  # atno 7974 bound_to 7965
  154.4027  140.1324  156.4320 H   0  0  0  0  0  0  0  0  0  0  0  0  # atno 8008 bound_to 7997
  155.7542  140.3487  155.5145 H   0  0  0  0  0  0  0  0  0  0  0  0  # atno 8009 bound_to 7997
  155.8921  140.1005  157.1401 H   0  0  0  0  0  0  0  0  0  0  0  0  # atno 8010 bound_to 7997
  139.5482  144.2179  152.1028 H   0  0  0  0  0  0  0  0  0  0  0  0  # atno 10167 bound_to 10162
  157.0786  131.0386  151.2584 H   0  0  0  0  0  0  0  0  0  0  0  0  # atno 10718 bound_to 10713
  154.1821  135.2799  155.3049 H   0  0  0  0  0  0  0  0  0  0  0  0  # atno 10763 bound_to 10752
  154.5994  135.5534  153.7362 H   0  0  0  0  0  0  0  0  0  0  0  0  # atno 10764 bound_to 10752
  153.0135  135.6388  154.1960 H   0  0  0  0  0  0  0  0  0  0  0  0  # atno 10765 bound_to 10752
  140.4772  134.6109  157.4905 H   0  0  0  0  0  0  0  0  0  0  0  0  # atno 11005 bound_to 11000
  145.0066  139.3548  143.6141 LP  0  0  0  0  0  0  0  0  0  0  0  0  # atno 17320 bound_to 7965
  146.3441  139.9311  142.8753 LP  0  0  0  0  0  0  0  0  0  0  0  0  # atno 17321 bound_to 7965
  140.1669  144.4973  150.6601 LP  0  0  0  0  0  0  0  0  0  0  0  0  # atno 17342 bound_to 10162
  140.6737  143.2296  151.5561 LP  0  0  0  0  0  0  0  0  0  0  0  0  # atno 17343 bound_to 10162
  157.4819  130.7770  149.7422 LP  0  0  0  0  0  0  0  0  0  0  0  0  # atno 17370 bound_to 10713
  155.9930  130.3927  150.2919 LP  0  0  0  0  0  0  0  0  0  0  0  0  # atno 17371 bound_to 10713
  139.9849  134.7078  155.9793 LP  0  0  0  0  0  0  0  0  0  0  0  0  # atno 17394 bound_to 11000
  141.1549  133.6544  156.4128 LP  0  0  0  0  0  0  0  0  0  0  0  0  # atno 17395 bound_to 11000

$$$$
