#       Name:                AV-unprocessed.smi:16
#       Creating user name   scv26
#       Creation time:       Thu Mar 26 15:23:29 2020


#       File generated by GOLD software.
#

@<TRIPOS>MOLECULE
AV-unprocessed.smi:16
    70    74     1
SMALL
NO_CHARGES


@<TRIPOS>ATOM
      1 ****        -2.0296   0.6387   4.8608 C.3            1 S1                 0.0000
      2 ****        -3.1475  -0.2776   4.3416 C.3            1 S1                 0.0000
      3 ****        -3.6889   0.1669   3.0321 N.4            1 S1                 1.0000
      4 ****        -5.0547  -0.3653   2.7837 C.3            1 S1                 0.0000
      5 ****        -5.6465   0.1932   1.4791 C.3            1 S1                 0.0000
      6 ****        -4.7169  -0.1069   0.2985 C.3            1 S1                 0.0000
      7 ****        -5.2488   0.4634  -0.8913 O.3            1 S1                 0.0000
      8 ****        -4.4511   0.1442  -2.0268 C.3            1 S1                 0.0000
      9 ****        -3.0335   0.7080  -1.8352 C.3            1 S1                 0.0000
     10 ****        -2.4547   0.2352  -0.5811 N.3            1 S1                 0.0000
     11 ****        -1.1663   0.6323  -0.4706 C.ar           1 S1                 0.0000
     12 ****        -0.8698   1.8769  -0.0106 N.ar           1 S1                 0.0000
     13 ****         0.4061   2.2619   0.0939 C.ar           1 S1                 0.0000
     14 ****         1.5123   1.5752  -0.2016 N.ar           1 S1                 0.0000
     15 ****         1.2135   0.3297  -0.6712 C.ar           1 S1                 0.0000
     16 ****        -0.0894  -0.2168  -0.8337 C.ar           1 S1                 0.0000
     17 ****        -0.0079  -1.5157  -1.3170 N.2            1 S1                 0.0000
     18 ****         1.2753  -1.7288  -1.4290 C.2            1 S1                 0.0000
     19 ****         2.0807  -0.6648  -1.0869 N.pl3          1 S1                 0.0000
     20 ****         3.5135  -0.6358  -1.0765 C.3            1 S1                 0.0000
     21 ****         4.2816   0.5370  -1.6893 C.3            1 S1                 0.0000
     22 ****         5.4210  -0.4284  -2.0885 C.3            1 S1                 0.0000
     23 ****         6.0226  -0.2039  -3.4854 C.3            1 S1                 0.0000
     24 ****         6.7256  -1.3469  -3.9284 O.3            1 S1                 0.0000
     25 ****         6.5622  -0.5591  -1.0596 C.3            1 S1                 0.0000
     26 ****         7.2778   0.6521  -0.9239 O.3            1 S1                 0.0000
     27 ****         4.3368  -1.5257  -2.0106 C.3            1 S1                 0.0000
     28 ****        -3.3204   0.4862   0.5750 C.3            1 S1                 0.0000
     29 ****        -2.7712  -0.1105   1.8935 C.3            1 S1                 0.0000
     30 ****        -4.6472  -1.1897   0.1740 H              1 S1                 0.0000
     31 ****        -3.4224   1.5663   0.6953 H              1 S1                 0.0000
     32 ****        -1.7272   0.3405   5.8650 H              1 S1                 0.0000
     33 ****        -2.3621   1.6759   4.9118 H              1 S1                 0.0000
     34 ****        -1.1397   0.6002   4.2334 H              1 S1                 0.0000
     35 ****        -2.8007  -1.3097   4.2741 H              1 S1                 0.0000
     36 ****        -3.9489  -0.2700   5.0815 H              1 S1                 0.0000
     37 ****        -5.0179  -1.4552   2.7431 H              1 S1                 0.0000
     38 ****        -5.7106  -0.1006   3.6140 H              1 S1                 0.0000
     39 ****        -6.6300  -0.2423   1.2998 H              1 S1                 0.0000
     40 ****        -5.7947   1.2701   1.5712 H              1 S1                 0.0000
     41 ****        -4.4233  -0.9364  -2.1760 H              1 S1                 0.0000
     42 ****        -4.9100   0.5765  -2.9161 H              1 S1                 0.0000
     43 ****        -2.4029   0.4102  -2.6744 H              1 S1                 0.0000
     44 ****        -3.0687   1.7986  -1.8317 H              1 S1                 0.0000
     45 ****         0.5641   3.2634   0.4664 H              1 S1                 0.0000
     46 ****         1.6702  -2.6748  -1.7708 H              1 S1                 0.0000
     47 ****         3.8093  -0.7889  -0.0373 H              1 S1                 0.0000
     48 ****         3.7644   0.9678  -2.5487 H              1 S1                 0.0000
     49 ****         4.5594   1.3128  -0.9751 H              1 S1                 0.0000
     50 ****         5.2397   0.0073  -4.2143 H              1 S1                 0.0000
     51 ****         6.6937   0.6551  -3.5019 H              1 S1                 0.0000
     52 ****         7.0738  -1.1706  -4.7890 H              1 S1                 0.0000
     53 ****         6.1772  -0.8290  -0.0761 H              1 S1                 0.0000
     54 ****         7.2605  -1.3494  -1.3359 H              1 S1                 0.0000
     55 ****         7.9616   0.5265  -0.2838 H              1 S1                 0.0000
     56 ****         4.6664  -2.4650  -1.5656 H              1 S1                 0.0000
     57 ****         3.8422  -1.6995  -2.9682 H              1 S1                 0.0000
     58 ****        -1.7930   0.3139   2.1131 H              1 S1                 0.0000
     59 ****        -2.6299  -1.1877   1.7903 H              1 S1                 0.0000
     60 ****        -3.7869   1.1706   3.0908 H              1 S1                 0.0000
     61 ****        -5.2830   1.4574  -0.7877 LP             1 S1                 0.0000
     62 ****        -6.1736   0.1111  -1.0349 LP             1 S1                 0.0000
     63 ****        -2.4109  -0.7638  -0.5954 LP             1 S1                 0.0000
     64 ****        -1.6048   2.5032   0.2491 LP             1 S1                 0.0000
     65 ****         2.4414   1.9287  -0.0926 LP             1 S1                 0.0000
     66 ****        -0.7576  -2.1423  -1.5298 LP             1 S1                 0.0000
     67 ****         6.1047  -2.1297  -3.9698 LP             1 S1                 0.0000
     68 ****         7.4741  -1.5483  -3.2966 LP             1 S1                 0.0000
     69 ****         6.6597   1.3767  -0.6193 LP             1 S1                 0.0000
     70 ****         7.6813   0.9058  -1.8030 LP             1 S1                 0.0000
@<TRIPOS>BOND
    1    1    2 1     
    2    1   32 1     
    3    1   33 1     
    4    1   34 1     
    5    2    3 1     
    6    2   35 1     
    7    2   36 1     
    8    3   29 1     
    9    3    4 1     
   10    3   60 1     
   11    4    5 1     
   12    4   37 1     
   13    4   38 1     
   14    5    6 1     
   15    5   39 1     
   16    5   40 1     
   17    6   30 1     
   18    6   28 1     
   19    6    7 1     
   20    7    8 1     
   21    8    9 1     
   22    8   41 1     
   23    8   42 1     
   24    9   10 1     
   25    9   43 1     
   26    9   44 1     
   27   10   11 1     
   28   10   28 1     
   29   11   16 ar    
   30   11   12 ar    
   31   12   13 ar    
   32   13   14 ar    
   33   13   45 1     
   34   14   15 ar    
   35   15   19 1     
   36   15   16 ar    
   37   16   17 1     
   38   17   18 2     
   39   18   19 1     
   40   18   46 1     
   41   19   20 1     
   42   20   27 1     
   43   20   21 1     
   44   20   47 1     
   45   21   22 1     
   46   21   48 1     
   47   21   49 1     
   48   22   23 1     
   49   22   25 1     
   50   22   27 1     
   51   23   24 1     
   52   23   50 1     
   53   23   51 1     
   54   24   52 1     
   55   25   26 1     
   56   25   53 1     
   57   25   54 1     
   58   26   55 1     
   59   27   56 1     
   60   27   57 1     
   61   28   31 1     
   62   28   29 1     
   63   29   58 1     
   64   29   59 1     
   65    7   61 1     
   66    7   62 1     
   67   10   63 1     
   68   12   64 1     
   69   14   65 1     
   70   17   66 1     
   71   24   67 1     
   72   24   68 1     
   73   26   69 1     
   74   26   70 1     
@<TRIPOS>SUBSTRUCTURE
      1 S1             1
@<TRIPOS>SET
LONE_PAIRS      STATIC     ATOMS    <user>   **** ""
10 61 62 63 64 65 66 67 68 69 70
DONOR_HYDROGENS      STATIC     ATOMS    <user>   **** ""
3 60 52 55
ATOM$BLUE        STATIC     ATOMS    COLORGROUP SYSTEM
10 61 62 63 64 65 66 67 68 69 70
ATOM$RED        STATIC     ATOMS    COLORGROUP SYSTEM
3 60 52 55
