AV-unprocessed.smi:2784|AV-procd|sdf|10734|dock10
  -GOLD-   2272015173D 1   1.00000     0.00000
 Structure written by MMmdl.
 31 32  0  0  0  0  0  0  0  0  1 V2000
  151.9093  144.6299  157.8577 C   0  0  0  0  0  0  0  0  0  0  0  0
  152.2624  144.4936  159.2253 O   0  0  0  0  0  0  0  0  0  0  0  0
  151.9186  143.2305  159.7781 C   0  0  2  0  0  0  0  0  0  0  0  0
  152.5377  143.0979  161.1721 C   0  0  0  0  0  0  0  0  0  0  0  0
  152.7295  141.5974  161.3600 C   0  0  0  0  0  0  0  0  0  0  0  0
  153.1644  141.1076  159.9791 C   0  0  0  0  0  0  0  0  0  0  0  0
  152.4773  142.0415  158.9626 C   0  0  1  0  0  0  0  0  0  0  0  0
  151.3990  141.3503  158.2599 N   0  0  0  0  0  0  0  0  0  0  0  0
  151.5369  140.2434  157.5156 C   0  0  0  0  0  0  0  0  0  0  0  0
  152.6331  139.6942  157.3667 O   0  0  0  0  0  0  0  0  0  0  0  0
  150.3174  139.8843  156.9616 N   0  0  0  0  0  0  0  0  0  0  0  0
  150.2924  139.1988  155.8599 C   0  0  0  0  0  0  0  0  0  0  0  0
  151.2939  138.7165  155.0213 N   0  0  0  0  0  0  0  0  0  0  0  0
  150.6988  138.0600  153.9807 C   0  0  0  0  0  0  0  0  0  0  0  0
  149.3818  138.1247  154.1522 C   0  0  0  0  0  0  0  0  0  0  0  0
  149.1031  138.8156  155.2932 O   0  0  0  0  0  0  0  0  0  0  0  0
  152.1795  145.6267  157.5098 H   0  0  0  0  0  0  0  0  0  0  0  0
  150.8356  144.5045  157.7132 H   0  0  0  0  0  0  0  0  0  0  0  0
  152.4322  143.9060  157.2322 H   0  0  0  0  0  0  0  0  0  0  0  0
  150.8347  143.1501  159.8870 H   0  0  0  0  0  0  0  0  0  0  0  0
  153.5110  143.5904  161.1963 H   0  0  0  0  0  0  0  0  0  0  0  0
  151.9193  143.5466  161.9500 H   0  0  0  0  0  0  0  0  0  0  0  0
  153.4553  141.3596  162.1380 H   0  0  0  0  0  0  0  0  0  0  0  0
  151.7800  141.1357  161.6340 H   0  0  0  0  0  0  0  0  0  0  0  0
  154.2461  141.2129  159.8861 H   0  0  0  0  0  0  0  0  0  0  0  0
  152.9330  140.0522  159.8282 H   0  0  0  0  0  0  0  0  0  0  0  0
  153.2213  142.3986  158.2479 H   0  0  0  0  0  0  0  0  0  0  0  0
  150.4767  141.7543  158.3345 H   0  0  0  0  0  0  0  0  0  0  0  0
  152.2943  138.8112  155.1244 H   0  0  0  0  0  0  0  0  0  0  0  0
  151.2985  137.6041  153.2068 H   0  0  0  0  0  0  0  0  0  0  0  0
  148.5480  137.7477  153.5786 H   0  0  0  0  0  0  0  0  0  0  0  0
  1  2  1  0  0  0  0
  1 17  1  0  0  0  0
  1 18  1  0  0  0  0
  1 19  1  0  0  0  0
  2  3  1  0  0  0  0
  3  7  1  0  0  0  0
  3  4  1  0  0  0  0
  3 20  1  0  0  0  0
  4  5  1  0  0  0  0
  4 21  1  0  0  0  0
  4 22  1  0  0  0  0
  5  6  1  0  0  0  0
  5 23  1  0  0  0  0
  5 24  1  0  0  0  0
  6  7  1  0  0  0  0
  6 25  1  0  0  0  0
  6 26  1  0  0  0  0
  7  8  1  0  0  0  0
  7 27  1  0  0  0  0
  8 28  1  0  0  0  0
  8  9  1  0  0  0  0
  9 11  1  0  0  0  0
  9 10  2  0  0  0  0
 11 12  2  0  0  0  0
 12 16  1  0  0  0  0
 12 13  1  0  0  0  0
 13 29  1  0  0  0  0
 13 14  1  0  0  0  0
 14 30  1  0  0  0  0
 14 15  2  0  0  0  0
 15 31  1  0  0  0  0
 15 16  1  0  0  0  0
M  END
> <s_m_source_file>
AV-unprocessed.smi

> <i_m_source_file_index>
2784

> <i_lp_mmshare_version>
43012

> <i_f3d_flags>
0

> <s_epik_input>
W0NIM11PW0NAQEhdMVtDSDJdW0NIMl1bQ0gyXVtDQEhdMVtOSF1DKD1PKVtOSF1jMm5bY0hdW2NIXW8y

> <s_epik_cmdline>
J2VwaWtfcHl0aG9uJywgJy1waCcsICc3LjAnLCAnLXRuJywgJzgnLCAnLW1hJywgJzIwMCcsICctbWV0YWxfYmluZGluZycsICctaW1hZScsICc8aW5maWxlLm1hZT4nLCAnLW9tYWUnLCAnPG91dGZpbGUubWFlPic=

> <r_lp_tautomer_probability>
0.107061

> <r_epik_Ionization_Penalty>
1.29244

> <r_epik_Ionization_Penalty_Charging>
1.29208

> <r_epik_Ionization_Penalty_Neutral>
0.000359742

> <r_epik_State_Penalty>
2.59896

> <r_epik_Charging_Adjusted_Penalty>
3.89105

> <i_epik_Tot_Q>
0

> <i_epik_Tot_abs_Q>
0

> <r_epik_Metal_State_Penalty>
3.62496

> <b_epik_Metal_Only>
0

> <s_lp_Force_Field>
OPLS_2005

> <r_lp_Energy>
42.7812

> <b_lp_Chiralities_Consistent>
1

> <s_lp_Variant>
AV-unprocessed.smi:2784-9

> <Gold.Version>
5.8.1

> <Gold.Id.Protein>
6NUR|6NUR_protein|mol2

> <Gold.PLP.Fitness>
39.7306

> <Gold.PLP.PLP>
-31.1393

> <Gold.PLP.part.hbond>
-1.0000

> <Gold.PLP.part.metal>
0.0000

> <Gold.PLP.part.buried>
-3.5157

> <Gold.PLP.part.nonpolar>
-26.1260

> <Gold.PLP.part.repulsive>
0.3165

> <Gold.PLP.ligand.clash>
0.0000

> <Gold.PLP.ligand.torsion>
0.1715

> <Gold.PLP.Chemscore.Hbond>
1.0000

> <Gold.PLP.Chemscore.CHOScore>
1.9759

> <Gold.PLP.Chemscore.Metal>
0.0000

> <Gold.Chemscore.Hbonds>
donor molecule, donor type, donor heavy atom, donor atom, acceptor molecule, acceptor atom, score
      P1  H  7997  8008       L1    10  1.00
      L1  C    14    30       P1  7949  1.00
      L1  C    15    31       P1  7948  0.77

> <Gold.PLP.Chemscore.Internal.Correction>
0.0066

> <Gold.Rescore>
     Score         DG    S(hbond)    S(metal)    S(lipo)     H(rot)  DE(clash)    DE(int)     intcor
     13.71     -15.34       0.99        0.00      84.83       1.32       0.02       1.61       ----

> <Gold.Chemscore.Fitness>
13.7061

> <Gold.Chemscore.DG>
-15.3351

> <Gold.Chemscore.ZeroCoef>
-5.4800

> <Gold.Chemscore.Hbond>
0.9936

> <Gold.Chemscore.Metal>
0.0000

> <Gold.Chemscore.Lipo>
84.8258

> <Gold.Chemscore.Internal_Hbond>
0.0000

> <Gold.Chemscore.DEClash>
0.0154

> <Gold.Chemscore.DEInternal>
1.6136

> <Gold.Chemscore.Rot>
1.3235

> <Gold.Chemscore.Internal.Correction>
   9.000000E+99

> <Gold.Chemscore.Hbonds>
donor molecule, donor type, donor heavy atom, donor atom, acceptor molecule, acceptor atom, score
      P1  H  7997  8008       L1    10  0.93

> <Gold.Chemscore.Hbond.Weighted>
-3.3187

> <Gold.Chemscore.Metal.Weighted>
-0.0000

> <Gold.Chemscore.Lipo.Weighted>
-9.9246

> <Gold.Chemscore.Internal_Hbond.Weighted>
0.0000

> <Gold.Chemscore.DEClash.Weighted>
0.0154

> <Gold.Chemscore.DEInternal.Weighted>
1.6136

> <Gold.Chemscore.Rot.Weighted>
3.3882

> <Gold.Chemscore.Internal.Correction.Weighted>
   9.000000E+99

> <Gold.Protein.RotatedTorsions>
[ 6907 6896 6895 6894 ] final  -39.76 input  -60.11 | X-H torsion
[ 7974 7965 7964 7962 ] final  117.52 input  175.53 | X-H torsion
[ 8008 7997 7996 7995 ] final  -82.69 input   59.86 | X-H torsion
[ 10167 10162 10161 10158 ] final -146.37 input  -65.29 | X-H torsion
[ 10718 10713 10712 10709 ] final -139.26 input   66.30 | X-H torsion
[ 10763 10752 10751 10750 ] final  155.18 input  -60.55 | X-H torsion
[ 11005 11000 10999 10996 ] final -153.41 input  -57.11 | X-H torsion

> <Gold.Protein.ActiveResidues>
 VAL166  LYS551  ARG553  GLY616  TRP617  ASP618  TYR619  PRO620  LYS621  CYS622 
 ASP623  PHE694  ASN695  SER759  ASP760  ASP761  ALA762  ILE779  LEU786  VAL792 
 PHE793  MET794  SER795  GLU796  ALA797  LYS798  CYS799  TRP800  GLU811  SER814 

> <Gold.Protein.RotatedAtoms>
  150.9865  134.9209  159.7874 H   0  0  0  0  0  0  0  0  0  0  0  0  # atno 6907 bound_to 6896
  152.5238  134.3339  159.9203 H   0  0  0  0  0  0  0  0  0  0  0  0  # atno 6908 bound_to 6896
  151.3346  133.3945  159.2700 H   0  0  0  0  0  0  0  0  0  0  0  0  # atno 6909 bound_to 6896
  145.1663  139.3126  143.4491 H   0  0  0  0  0  0  0  0  0  0  0  0  # atno 7974 bound_to 7965
  154.6112  140.0629  156.9496 H   0  0  0  0  0  0  0  0  0  0  0  0  # atno 8008 bound_to 7997
  155.1969  140.3312  155.4331 H   0  0  0  0  0  0  0  0  0  0  0  0  # atno 8009 bound_to 7997
  156.2378  140.1871  156.7056 H   0  0  0  0  0  0  0  0  0  0  0  0  # atno 8010 bound_to 7997
  139.7720  143.8225  152.2626 H   0  0  0  0  0  0  0  0  0  0  0  0  # atno 10167 bound_to 10162
  156.3087  130.7469  151.1540 H   0  0  0  0  0  0  0  0  0  0  0  0  # atno 10718 bound_to 10713
  154.1643  135.2808  155.3100 H   0  0  0  0  0  0  0  0  0  0  0  0  # atno 10763 bound_to 10752
  154.6123  135.5494  153.7490 H   0  0  0  0  0  0  0  0  0  0  0  0  # atno 10764 bound_to 10752
  153.0183  135.6418  154.1784 H   0  0  0  0  0  0  0  0  0  0  0  0  # atno 10765 bound_to 10752
  140.7085  134.3859  157.5201 H   0  0  0  0  0  0  0  0  0  0  0  0  # atno 11005 bound_to 11000
  146.3475  140.1792  142.8589 LP  0  0  0  0  0  0  0  0  0  0  0  0  # atno 17320 bound_to 7965
  145.0278  140.8846  143.5127 LP  0  0  0  0  0  0  0  0  0  0  0  0  # atno 17321 bound_to 7965
  139.8262  144.7274  150.9509 LP  0  0  0  0  0  0  0  0  0  0  0  0  # atno 17342 bound_to 10162
  140.7814  143.4113  151.0989 LP  0  0  0  0  0  0  0  0  0  0  0  0  # atno 17343 bound_to 10162
  157.7386  131.0539  150.5286 LP  0  0  0  0  0  0  0  0  0  0  0  0  # atno 17370 bound_to 10713
  156.5423  130.4211  149.6148 LP  0  0  0  0  0  0  0  0  0  0  0  0  # atno 17371 bound_to 10713
  139.8878  134.8873  156.2509 LP  0  0  0  0  0  0  0  0  0  0  0  0  # atno 17394 bound_to 11000
  141.0105  133.7098  156.1103 LP  0  0  0  0  0  0  0  0  0  0  0  0  # atno 17395 bound_to 11000

$$$$
