#       Name:                AV-unprocessed.smi:2462
#       Creating user name   scv26
#       Creation time:       Fri Mar 27 13:35:55 2020


#       File generated by GOLD software.
#

@<TRIPOS>MOLECULE
AV-unprocessed.smi:2462
    45    46     1
SMALL
NO_CHARGES


@<TRIPOS>ATOM
      1 ****        -4.9428   0.3433  -1.8603 C.3            1 S1                 0.0000
      2 ****        -3.4567   0.0415  -1.7800 C.2            1 S1                 0.0000
      3 ****        -2.6085   1.1411  -1.9338 N.2            1 S1                 0.0000
      4 ****        -1.3277   0.9818  -1.8612 C.2            1 S1                 0.0000
      5 ****        -0.7491  -0.2788  -1.6266 N.am           1 S1                 0.0000
      6 ****         0.7260  -0.3290  -1.5569 C.3            1 S1                 0.0000
      7 ****         1.3210  -0.2683  -0.1175 C.3            1 S1                 0.0000
      8 ****         1.2851  -1.5828   0.4072 O.3            1 S1                 0.0000
      9 ****         2.8147   0.1316  -0.1966 C.3            1 S1                 0.0000
     10 ****         3.4825   0.2783   1.1829 C.3            1 S1                 0.0000
     11 ****         2.7163   1.2644   2.0811 C.3            1 S1                 0.0000
     12 ****         3.3896   1.4169   3.4522 C.3            1 S1                 0.0000
     13 ****         1.2496   0.8219   2.2186 C.3            1 S1                 0.0000
     14 ****         0.5656   0.6813   0.8470 C.3            1 S1                 0.0000
     15 ****        -1.5052  -1.4090  -1.5074 C.2            1 S1                 0.0000
     16 ****        -0.9937  -2.5195  -1.3554 O.2            1 S1                 0.0000
     17 ****        -2.9621  -1.2091  -1.5722 C.2            1 S1                 0.0000
     18 ****        -3.8381  -2.4433  -1.3963 C.3            1 S1                 0.0000
     19 ****        -5.4084  -0.2335  -2.6599 H              1 S1                 0.0000
     20 ****        -5.1237   1.3998  -2.0625 H              1 S1                 0.0000
     21 ****        -5.4329   0.0949  -0.9186 H              1 S1                 0.0000
     22 ****        -0.6250   1.8098  -1.9689 H              1 S1                 0.0000
     23 ****         1.1000  -1.2106  -2.0814 H              1 S1                 0.0000
     24 ****         1.1339   0.4999  -2.1387 H              1 S1                 0.0000
     25 ****         1.6753  -1.5728   1.2678 H              1 S1                 0.0000
     26 ****         3.3684  -0.5929  -0.7957 H              1 S1                 0.0000
     27 ****         2.9051   1.0842  -0.7207 H              1 S1                 0.0000
     28 ****         3.5445  -0.6960   1.6697 H              1 S1                 0.0000
     29 ****         4.5104   0.6179   1.0516 H              1 S1                 0.0000
     30 ****         2.7297   2.2425   1.5976 H              1 S1                 0.0000
     31 ****         3.4127   0.4692   3.9910 H              1 S1                 0.0000
     32 ****         2.8585   2.1396   4.0725 H              1 S1                 0.0000
     33 ****         4.4173   1.7657   3.3479 H              1 S1                 0.0000
     34 ****         1.1972  -0.1265   2.7550 H              1 S1                 0.0000
     35 ****         0.6992   1.5438   2.8229 H              1 S1                 0.0000
     36 ****         0.4944   1.6707   0.3937 H              1 S1                 0.0000
     37 ****        -0.4589   0.3391   0.9982 H              1 S1                 0.0000
     38 ****        -3.6255  -2.9223  -0.4397 H              1 S1                 0.0000
     39 ****        -3.6342  -3.1647  -2.1885 H              1 S1                 0.0000
     40 ****        -4.9038  -2.2214  -1.4194 H              1 S1                 0.0000
     41 ****        -2.9916   2.0498  -2.0997 LP             1 S1                 0.0000
     42 ****         1.7999  -2.1983  -0.1895 LP             1 S1                 0.0000
     43 ****         0.3372  -1.8951   0.4702 LP             1 S1                 0.0000
     44 ****         0.0014  -2.6105  -1.3164 LP             1 S1                 0.0000
     45 ****        -1.5736  -3.3298  -1.2710 LP             1 S1                 0.0000
@<TRIPOS>BOND
    1    1    2 1     
    2    1   19 1     
    3    1   20 1     
    4    1   21 1     
    5    2   17 2     
    6    2    3 1     
    7    3    4 2     
    8    4    5 1     
    9    4   22 1     
   10    5    6 1     
   11    5   15 am    
   12    6    7 1     
   13    6   23 1     
   14    6   24 1     
   15    7   14 1     
   16    7    8 1     
   17    7    9 1     
   18    8   25 1     
   19    9   10 1     
   20    9   26 1     
   21    9   27 1     
   22   10   11 1     
   23   10   28 1     
   24   10   29 1     
   25   11   12 1     
   26   11   13 1     
   27   11   30 1     
   28   12   31 1     
   29   12   32 1     
   30   12   33 1     
   31   13   14 1     
   32   13   34 1     
   33   13   35 1     
   34   14   36 1     
   35   14   37 1     
   36   15   16 2     
   37   15   17 1     
   38   17   18 1     
   39   18   38 1     
   40   18   39 1     
   41   18   40 1     
   42    3   41 1     
   43    8   42 1     
   44    8   43 1     
   45   16   44 1     
   46   16   45 1     
@<TRIPOS>SUBSTRUCTURE
      1 S1             1
@<TRIPOS>SET
LONE_PAIRS      STATIC     ATOMS    <user>   **** ""
5 41 42 43 44 45
DONOR_HYDROGENS      STATIC     ATOMS    <user>   **** ""
1 25
ATOM$BLUE        STATIC     ATOMS    COLORGROUP SYSTEM
5 41 42 43 44 45
ATOM$RED        STATIC     ATOMS    COLORGROUP SYSTEM
1 25
