AV-unprocessed.smi:2095|AV-procd|sdf|8558|dock4
  -GOLD-   2272011283D 1   1.00000     0.00000
 Structure written by MMmdl.
 42 43  0  0  0  0  0  0  0  0  2 V2000
  152.3323  144.7208  159.0735 C   0  0  0  0  0  0  0  0  0  0  0  0
  151.0343  144.2346  158.4136 C   0  0  2  0  0  0  0  0  0  0  0  0
  149.9768  143.8688  159.4651 C   0  0  0  0  0  0  0  0  0  0  0  0
  148.7035  143.3721  158.7744 C   0  0  0  0  0  0  0  0  0  0  0  0
  149.0040  142.2025  157.8223 C   0  0  0  0  0  0  0  0  0  0  0  0
  150.0375  142.5724  156.8115 N   0  3  2  0  0  0  0  0  0  0  0  0
  150.3157  141.5548  155.7441 C   0  0  1  0  0  0  0  0  0  0  0  0
  151.0815  140.3050  156.2441 C   0  0  0  0  0  0  0  0  0  0  0  0
  148.9881  141.1373  155.0666 C   0  0  0  0  0  0  0  0  0  0  0  0
  148.2225  142.2869  154.5994 N   0  0  0  0  0  0  0  0  0  0  0  0
  146.9517  142.2311  154.1751 C   0  0  0  0  0  0  0  0  0  0  0  0
  146.2955  141.1908  154.1388 O   0  0  0  0  0  0  0  0  0  0  0  0
  146.3228  143.5497  153.7254 C   0  0  0  0  0  0  0  0  0  0  0  0
  145.2943  143.9754  154.6551 N   0  0  0  0  0  0  0  0  0  0  0  0
  144.0168  144.3076  154.4585 C   0  0  0  0  0  0  0  0  0  0  0  0
  143.4149  144.6260  155.5944 N   0  0  0  0  0  0  0  0  0  0  0  0
  144.4173  144.4695  156.5371 N   0  0  0  0  0  0  0  0  0  0  0  0
  145.5348  144.0827  155.9859 N   0  0  0  0  0  0  0  0  0  0  0  0
  151.2879  143.0336  157.4813 C   0  0  0  0  0  0  0  0  0  0  0  0
  152.7775  143.9432  159.6949 H   0  0  0  0  0  0  0  0  0  0  0  0
  152.1485  145.5884  159.7079 H   0  0  0  0  0  0  0  0  0  0  0  0
  153.0697  145.0118  158.3249 H   0  0  0  0  0  0  0  0  0  0  0  0
  150.6454  145.0563  157.8100 H   0  0  0  0  0  0  0  0  0  0  0  0
  150.3610  143.0935  160.1297 H   0  0  0  0  0  0  0  0  0  0  0  0
  149.7479  144.7324  160.0907 H   0  0  0  0  0  0  0  0  0  0  0  0
  147.9715  143.0647  159.5220 H   0  0  0  0  0  0  0  0  0  0  0  0
  148.2478  144.1909  158.2158 H   0  0  0  0  0  0  0  0  0  0  0  0
  149.3369  141.3300  158.3868 H   0  0  0  0  0  0  0  0  0  0  0  0
  148.0632  141.9397  157.3401 H   0  0  0  0  0  0  0  0  0  0  0  0
  150.9541  142.0258  154.9944 H   0  0  0  0  0  0  0  0  0  0  0  0
  151.2601  139.5926  155.4390 H   0  0  0  0  0  0  0  0  0  0  0  0
  150.5261  139.7804  157.0225 H   0  0  0  0  0  0  0  0  0  0  0  0
  152.0668  140.5588  156.6357 H   0  0  0  0  0  0  0  0  0  0  0  0
  149.2006  140.4784  154.2225 H   0  0  0  0  0  0  0  0  0  0  0  0
  148.3524  140.5734  155.7487 H   0  0  0  0  0  0  0  0  0  0  0  0
  148.6863  143.1841  154.6021 H   0  0  0  0  0  0  0  0  0  0  0  0
  147.0841  144.3273  153.6448 H   0  0  0  0  0  0  0  0  0  0  0  0
  145.8761  143.4320  152.7373 H   0  0  0  0  0  0  0  0  0  0  0  0
  143.5320  144.3114  153.4935 H   0  0  0  0  0  0  0  0  0  0  0  0
  152.0338  143.3189  156.7406 H   0  0  0  0  0  0  0  0  0  0  0  0
  151.7185  142.2059  158.0478 H   0  0  0  0  0  0  0  0  0  0  0  0
  149.6578  143.3735  156.3277 H   0  0  0  0  0  0  0  0  0  0  0  0
  1  2  1  0  0  0  0
  1 20  1  0  0  0  0
  1 21  1  0  0  0  0
  1 22  1  0  0  0  0
  2 19  1  0  0  0  0
  2  3  1  0  0  0  0
  2 23  1  0  0  0  0
  3  4  1  0  0  0  0
  3 24  1  0  0  0  0
  3 25  1  0  0  0  0
  4  5  1  0  0  0  0
  4 26  1  0  0  0  0
  4 27  1  0  0  0  0
  5  6  1  0  0  0  0
  5 28  1  0  0  0  0
  5 29  1  0  0  0  0
  6  7  1  0  0  0  0
  6 19  1  0  0  0  0
  6 42  1  0  0  0  0
  7  8  1  0  0  0  0
  7  9  1  0  0  0  0
  7 30  1  0  0  0  0
  8 31  1  0  0  0  0
  8 32  1  0  0  0  0
  8 33  1  0  0  0  0
  9 10  1  0  0  0  0
  9 34  1  0  0  0  0
  9 35  1  0  0  0  0
 10 11  1  0  0  0  0
 10 36  1  0  0  0  0
 11 12  2  0  0  0  0
 11 13  1  0  0  0  0
 13 14  1  0  0  0  0
 13 37  1  0  0  0  0
 13 38  1  0  0  0  0
 14 18  1  0  0  0  0
 14 15  1  0  0  0  0
 15 16  2  0  0  0  0
 15 39  1  0  0  0  0
 16 17  1  0  0  0  0
 17 18  2  0  0  0  0
 19 40  1  0  0  0  0
 19 41  1  0  0  0  0
M  CHG  1   6   1
M  END
> <s_m_source_file>
AV-unprocessed.smi

> <i_m_source_file_index>
2095

> <i_lp_mmshare_version>
43012

> <i_f3d_flags>
0

> <s_epik_input>
W0NIM11bQ0BASF0xW0NIMl1bQ0gyXVtDSDJdTihbQ0gyXTEpW0NASF0oW0NIM10pW0NIMl1bTkhdQyg9TylbQ0gyXW4yW2NIXW5ubjI=

> <s_epik_cmdline>
J2VwaWtfcHl0aG9uJywgJy1waCcsICc3LjAnLCAnLXRuJywgJzgnLCAnLW1hJywgJzIwMCcsICctbWV0YWxfYmluZGluZycsICctaW1hZScsICc8aW5maWxlLm1hZT4nLCAnLW9tYWUnLCAnPG91dGZpbGUubWFlPic=

> <r_lp_tautomer_probability>
1

> <r_epik_Ionization_Penalty>
0.00268321

> <r_epik_Ionization_Penalty_Charging>
0.00267875

> <r_epik_Ionization_Penalty_Neutral>
4.46125e-06

> <r_epik_State_Penalty>
0.00186642

> <r_epik_Charging_Adjusted_Penalty>
0.00454517

> <i_epik_Tot_Q>
1

> <i_epik_Tot_abs_Q>
1

> <r_epik_Metal_State_Penalty>
-0

> <b_epik_Metal_Only>
0

> <s_lp_Force_Field>
OPLS_2005

> <r_lp_Energy>
25.5327

> <b_lp_Chiralities_Consistent>
1

> <s_lp_Variant>
AV-unprocessed.smi:2095-5

> <Gold.Version>
5.8.1

> <Gold.Id.Protein>
6NUR|6NUR_protein|mol2

> <Gold.PLP.Fitness>
46.0415

> <Gold.PLP.PLP>
-34.5377

> <Gold.PLP.part.hbond>
-2.0000

> <Gold.PLP.part.metal>
0.0000

> <Gold.PLP.part.buried>
-5.7700

> <Gold.PLP.part.nonpolar>
-28.8407

> <Gold.PLP.part.repulsive>
0.5943

> <Gold.PLP.ligand.clash>
0.0000

> <Gold.PLP.ligand.torsion>
0.2468

> <Gold.PLP.Chemscore.Hbond>
2.9760

> <Gold.PLP.Chemscore.CHOScore>
1.0000

> <Gold.PLP.Chemscore.Metal>
0.0000

> <Gold.Chemscore.Hbonds>
donor molecule, donor type, donor heavy atom, donor atom, acceptor molecule, acceptor atom, score
      L1  H     6    42       P1  8028  2.00
      L1  H    10    36       P1  8028  0.83
      L1  C    15    39       P1 10174  1.00

> <Gold.PLP.Chemscore.Internal.Correction>
0.0694

> <Gold.Rescore>
     Score         DG    S(hbond)    S(metal)    S(lipo)     H(rot)  DE(clash)    DE(int)     intcor
     14.11     -14.39       1.98        0.00      77.53       2.64       0.01       0.27       ----

> <Gold.Chemscore.Fitness>
14.1130

> <Gold.Chemscore.DG>
-14.3895

> <Gold.Chemscore.ZeroCoef>
-5.4800

> <Gold.Chemscore.Hbond>
1.9780

> <Gold.Chemscore.Metal>
0.0000

> <Gold.Chemscore.Lipo>
77.5349

> <Gold.Chemscore.Internal_Hbond>
0.0000

> <Gold.Chemscore.DEClash>
0.0073

> <Gold.Chemscore.DEInternal>
0.2692

> <Gold.Chemscore.Rot>
2.6439

> <Gold.Chemscore.Internal.Correction>
   9.000000E+99

> <Gold.Chemscore.Hbonds>
donor molecule, donor type, donor heavy atom, donor atom, acceptor molecule, acceptor atom, score
      L1  H     6    42       P1  8028  1.00
      L1  H    10    36       P1  8028  0.83

> <Gold.Chemscore.Hbond.Weighted>
-6.6064

> <Gold.Chemscore.Metal.Weighted>
-0.0000

> <Gold.Chemscore.Lipo.Weighted>
-9.0716

> <Gold.Chemscore.Internal_Hbond.Weighted>
0.0000

> <Gold.Chemscore.DEClash.Weighted>
0.0073

> <Gold.Chemscore.DEInternal.Weighted>
0.2692

> <Gold.Chemscore.Rot.Weighted>
6.7685

> <Gold.Chemscore.Internal.Correction.Weighted>
   9.000000E+99

> <Gold.Protein.RotatedTorsions>
[ 6907 6896 6895 6894 ] final   -7.99 input  -60.11 | X-H torsion
[ 7974 7965 7964 7962 ] final   17.62 input  175.53 | X-H torsion
[ 8008 7997 7996 7995 ] final  -58.18 input   59.86 | X-H torsion
[ 10167 10162 10161 10158 ] final  167.31 input  -65.29 | X-H torsion
[ 10718 10713 10712 10709 ] final -165.07 input   66.30 | X-H torsion
[ 10763 10752 10751 10750 ] final    8.85 input  -60.55 | X-H torsion
[ 11005 11000 10999 10996 ] final  118.99 input  -57.11 | X-H torsion

> <Gold.Protein.ActiveResidues>
 VAL166  LYS551  ARG553  GLY616  TRP617  ASP618  TYR619  PRO620  LYS621  CYS622 
 ASP623  PHE694  ASN695  SER759  ASP760  ASP761  ALA762  ILE779  LEU786  VAL792 
 PHE793  MET794  SER795  GLU796  ALA797  LYS798  CYS799  TRP800  GLU811  SER814 

> <Gold.Protein.RotatedAtoms>
  151.4407  135.1020  159.9669 H   0  0  0  0  0  0  0  0  0  0  0  0  # atno 6907 bound_to 6896
  152.4923  133.8531  159.7222 H   0  0  0  0  0  0  0  0  0  0  0  0  # atno 6908 bound_to 6896
  150.9090  133.6963  159.2887 H   0  0  0  0  0  0  0  0  0  0  0  0  # atno 6909 bound_to 6896
  146.2212  139.8576  142.8610 H   0  0  0  0  0  0  0  0  0  0  0  0  # atno 7974 bound_to 7965
  154.4298  140.1090  156.5916 H   0  0  0  0  0  0  0  0  0  0  0  0  # atno 8008 bound_to 7997
  155.6006  140.3493  155.4574 H   0  0  0  0  0  0  0  0  0  0  0  0  # atno 8009 bound_to 7997
  156.0176  140.1232  157.0380 H   0  0  0  0  0  0  0  0  0  0  0  0  # atno 8010 bound_to 7997
  139.4942  144.3935  151.9490 H   0  0  0  0  0  0  0  0  0  0  0  0  # atno 10167 bound_to 10162
  156.6481  130.8996  151.3008 H   0  0  0  0  0  0  0  0  0  0  0  0  # atno 10718 bound_to 10713
  153.2204  135.6880  153.8007 H   0  0  0  0  0  0  0  0  0  0  0  0  # atno 10763 bound_to 10752
  153.7207  135.3268  155.3267 H   0  0  0  0  0  0  0  0  0  0  0  0  # atno 10764 bound_to 10752
  154.8267  135.4612  154.1049 H   0  0  0  0  0  0  0  0  0  0  0  0  # atno 10765 bound_to 10752
  139.9130  134.9625  156.7588 H   0  0  0  0  0  0  0  0  0  0  0  0  # atno 11005 bound_to 11000
  145.2737  141.0117  143.3757 LP  0  0  0  0  0  0  0  0  0  0  0  0  # atno 17320 bound_to 7965
  144.9203  139.4419  143.6544 LP  0  0  0  0  0  0  0  0  0  0  0  0  # atno 17321 bound_to 7965
  140.3373  144.3245  150.5974 LP  0  0  0  0  0  0  0  0  0  0  0  0  # atno 17342 bound_to 10162
  140.5595  143.2194  151.7789 LP  0  0  0  0  0  0  0  0  0  0  0  0  # atno 17343 bound_to 10162
  157.7150  130.9486  150.1222 LP  0  0  0  0  0  0  0  0  0  0  0  0  # atno 17370 bound_to 10713
  156.2106  130.3666  149.8675 LP  0  0  0  0  0  0  0  0  0  0  0  0  # atno 17371 bound_to 10713
  140.6714  133.9556  155.7859 LP  0  0  0  0  0  0  0  0  0  0  0  0  # atno 17394 bound_to 11000
  141.0575  134.0395  157.3703 LP  0  0  0  0  0  0  0  0  0  0  0  0  # atno 17395 bound_to 11000

$$$$
