AV-unprocessed.smi:651|AV-procd|sdf|3191|dock3
  -GOLD-   22720 0113D 1   1.00000     0.00000
 Structure written by MMmdl.
 39 40  0  0  0  0  0  0  0  0  2 V2000
  152.0849  145.2157  158.7390 C   0  0  0  0  0  0  0  0  0  0  0  0
  151.8511  143.7855  158.3008 C   0  0  0  0  0  0  0  0  0  0  0  0
  152.5559  142.6996  158.8630 C   0  0  0  0  0  0  0  0  0  0  0  0
  152.2822  141.3921  158.4103 C   0  0  0  0  0  0  0  0  0  0  0  0
  151.3097  141.1954  157.4049 C   0  0  0  0  0  0  0  0  0  0  0  0
  150.9858  139.7993  156.9016 C   0  0  0  0  0  0  0  0  0  0  0  0
  149.9155  139.8653  155.8121 C   0  0  0  0  0  0  0  0  0  0  0  0
  150.1978  140.3322  154.7095 O   0  0  0  0  0  0  0  0  0  0  0  0
  148.6951  139.4091  156.1443 N   0  0  0  0  0  0  0  0  0  0  0  0
  147.4868  139.4015  155.3135 C   0  0  1  0  0  0  0  0  0  0  0  0
  147.0848  140.7954  154.7871 C   0  0  0  0  0  0  0  0  0  0  0  0
  147.1775  140.7115  153.2632 C   0  0  0  0  0  0  0  0  0  0  0  0
  146.9104  139.2428  152.9411 C   0  0  0  0  0  0  0  0  0  0  0  0
  147.5872  138.4643  154.0800 C   0  0  2  0  0  0  0  0  0  0  0  0
  146.9591  137.0832  154.3191 C   0  0  0  0  0  0  0  0  0  0  0  0
  147.1490  136.1578  153.3755 N   0  0  0  0  0  0  0  0  0  0  0  0
  146.3125  136.8514  155.3392 O   0  0  0  0  0  0  0  0  0  0  0  0
  150.6398  142.3211  156.8767 C   0  0  0  0  0  0  0  0  0  0  0  0
  150.9290  143.5569  157.3390 N   0  3  0  0  0  0  0  0  0  0  0  0
  152.9713  145.2927  159.3693 H   0  0  0  0  0  0  0  0  0  0  0  0
  151.2290  145.5821  159.3067 H   0  0  0  0  0  0  0  0  0  0  0  0
  152.2273  145.8635  157.8736 H   0  0  0  0  0  0  0  0  0  0  0  0
  153.2961  142.8632  159.6329 H   0  0  0  0  0  0  0  0  0  0  0  0
  152.8128  140.5515  158.8336 H   0  0  0  0  0  0  0  0  0  0  0  0
  151.8901  139.3375  156.5025 H   0  0  0  0  0  0  0  0  0  0  0  0
  150.6441  139.1665  157.7222 H   0  0  0  0  0  0  0  0  0  0  0  0
  148.5833  139.0407  157.0777 H   0  0  0  0  0  0  0  0  0  0  0  0
  146.6865  139.0677  155.9761 H   0  0  0  0  0  0  0  0  0  0  0  0
  146.0522  141.0015  155.0715 H   0  0  0  0  0  0  0  0  0  0  0  0
  147.6907  141.6084  155.1885 H   0  0  0  0  0  0  0  0  0  0  0  0
  146.4795  141.3839  152.7636 H   0  0  0  0  0  0  0  0  0  0  0  0
  148.1837  140.9797  152.9394 H   0  0  0  0  0  0  0  0  0  0  0  0
  145.8337  139.0658  152.9264 H   0  0  0  0  0  0  0  0  0  0  0  0
  147.3030  138.9651  151.9623 H   0  0  0  0  0  0  0  0  0  0  0  0
  148.6329  138.3300  153.7992 H   0  0  0  0  0  0  0  0  0  0  0  0
  146.7596  135.2331  153.4891 H   0  0  0  0  0  0  0  0  0  0  0  0
  147.6868  136.3864  152.5519 H   0  0  0  0  0  0  0  0  0  0  0  0
  149.8811  142.2695  156.1091 H   0  0  0  0  0  0  0  0  0  0  0  0
  150.4273  144.3533  156.9451 H   0  0  0  0  0  0  0  0  0  0  0  0
  1  2  1  0  0  0  0
  1 20  1  0  0  0  0
  1 21  1  0  0  0  0
  1 22  1  0  0  0  0
  2 19  1  0  0  0  0
  2  3  2  0  0  0  0
  3  4  1  0  0  0  0
  3 23  1  0  0  0  0
  4  5  2  0  0  0  0
  4 24  1  0  0  0  0
  5  6  1  0  0  0  0
  5 18  1  0  0  0  0
  6  7  1  0  0  0  0
  6 25  1  0  0  0  0
  6 26  1  0  0  0  0
  7  8  2  0  0  0  0
  7  9  1  0  0  0  0
  9 10  1  0  0  0  0
  9 27  1  0  0  0  0
 10 14  1  0  0  0  0
 10 11  1  0  0  0  0
 10 28  1  0  0  0  0
 11 12  1  0  0  0  0
 11 29  1  0  0  0  0
 11 30  1  0  0  0  0
 12 13  1  0  0  0  0
 12 31  1  0  0  0  0
 12 32  1  0  0  0  0
 13 14  1  0  0  0  0
 13 33  1  0  0  0  0
 13 34  1  0  0  0  0
 14 15  1  0  0  0  0
 14 35  1  0  0  0  0
 15 16  1  0  0  0  0
 15 17  2  0  0  0  0
 16 36  1  0  0  0  0
 16 37  1  0  0  0  0
 18 19  2  0  0  0  0
 18 38  1  0  0  0  0
 19 39  1  0  0  0  0
M  CHG  1  19   1
M  END
> <s_m_source_file>
AV-unprocessed.smi

> <i_m_source_file_index>
651

> <i_lp_mmshare_version>
43012

> <i_f3d_flags>
0

> <s_epik_input>
W0NIM11jMVtjSF1bY0hdYyhbY0hdbjEpW0NIMl1DKD1PKVtOSF1bQ0BASF0yW0NIMl1bQ0gyXVtDSDJdW0NASF0yQyg9TylbTkgyXQ==

> <s_epik_cmdline>
J2VwaWtfcHl0aG9uJywgJy1waCcsICc3LjAnLCAnLXRuJywgJzgnLCAnLW1hJywgJzIwMCcsICctbWV0YWxfYmluZGluZycsICctaW1hZScsICc8aW5maWxlLm1hZT4nLCAnLW9tYWUnLCAnPG91dGZpbGUubWFlPic=

> <r_epik_Ionization_Penalty>
2.14971

> <r_epik_Ionization_Penalty_Charging>
2.14971

> <r_epik_Ionization_Penalty_Neutral>
1.65229e-07

> <r_epik_State_Penalty>
2.28946

> <r_epik_Charging_Adjusted_Penalty>
4.43917

> <i_epik_Tot_Q>
1

> <i_epik_Tot_abs_Q>
1

> <r_epik_Metal_State_Penalty>
2.30508

> <b_epik_Metal_Only>
0

> <s_lp_Force_Field>
OPLS_2005

> <r_lp_Energy>
21.472

> <b_lp_Chiralities_Consistent>
1

> <s_lp_Variant>
AV-unprocessed.smi:651-8

> <Gold.Version>
5.8.1

> <Gold.Id.Protein>
6NUR|6NUR_protein|mol2

> <Gold.PLP.Fitness>
41.8259

> <Gold.PLP.PLP>
-31.7136

> <Gold.PLP.part.hbond>
-2.8759

> <Gold.PLP.part.metal>
0.0000

> <Gold.PLP.part.buried>
-4.4544

> <Gold.PLP.part.nonpolar>
-25.1398

> <Gold.PLP.part.repulsive>
0.1072

> <Gold.PLP.ligand.clash>
0.0000

> <Gold.PLP.ligand.torsion>
0.2841

> <Gold.PLP.Chemscore.Hbond>
3.5543

> <Gold.PLP.Chemscore.CHOScore>
0.0000

> <Gold.PLP.Chemscore.Metal>
0.0000

> <Gold.Chemscore.Hbonds>
donor molecule, donor type, donor heavy atom, donor atom, acceptor molecule, acceptor atom, score
      L1  H    16    37       P1  7948  0.72
      L1  H    19    39       P1  8028  1.63
      P1  H  7989  7998       L1     8  1.00

> <Gold.PLP.Chemscore.Internal.Correction>
0.0175

> <Gold.Rescore>
     Score         DG    S(hbond)    S(metal)    S(lipo)     H(rot)  DE(clash)    DE(int)     intcor
     18.41     -20.00       2.75        0.00      90.05       2.04       1.20       0.39       ----

> <Gold.Chemscore.Fitness>
18.4080

> <Gold.Chemscore.DG>
-19.9957

> <Gold.Chemscore.ZeroCoef>
-5.4800

> <Gold.Chemscore.Hbond>
2.7542

> <Gold.Chemscore.Metal>
0.0000

> <Gold.Chemscore.Lipo>
90.0465

> <Gold.Chemscore.Internal_Hbond>
0.0000

> <Gold.Chemscore.DEClash>
1.1951

> <Gold.Chemscore.DEInternal>
0.3926

> <Gold.Chemscore.Rot>
2.0386

> <Gold.Chemscore.Internal.Correction>
   9.000000E+99

> <Gold.Chemscore.Hbonds>
donor molecule, donor type, donor heavy atom, donor atom, acceptor molecule, acceptor atom, score
      L1  H    16    37       P1  7948  0.71
      L1  H    19    39       P1  8028  0.72
      P1  H  7989  7998       L1     8  0.95

> <Gold.Chemscore.Hbond.Weighted>
-9.1991

> <Gold.Chemscore.Metal.Weighted>
-0.0000

> <Gold.Chemscore.Lipo.Weighted>
-10.5354

> <Gold.Chemscore.Internal_Hbond.Weighted>
0.0000

> <Gold.Chemscore.DEClash.Weighted>
1.1951

> <Gold.Chemscore.DEInternal.Weighted>
0.3926

> <Gold.Chemscore.Rot.Weighted>
5.2188

> <Gold.Chemscore.Internal.Correction.Weighted>
   9.000000E+99

> <Gold.Protein.RotatedTorsions>
[ 6907 6896 6895 6894 ] final -153.64 input  -60.11 | X-H torsion
[ 7974 7965 7964 7962 ] final  142.75 input  175.53 | X-H torsion
[ 8008 7997 7996 7995 ] final  -65.60 input   59.86 | X-H torsion
[ 10167 10162 10161 10158 ] final  -60.31 input  -65.29 | X-H torsion
[ 10718 10713 10712 10709 ] final -131.35 input   66.30 | X-H torsion
[ 10763 10752 10751 10750 ] final  -73.90 input  -60.55 | X-H torsion
[ 11005 11000 10999 10996 ] final   67.54 input  -57.11 | X-H torsion

> <Gold.Protein.ActiveResidues>
 VAL166  LYS551  ARG553  GLY616  TRP617  ASP618  TYR619  PRO620  LYS621  CYS622 
 ASP623  PHE694  ASN695  SER759  ASP760  ASP761  ALA762  ILE779  LEU786  VAL792 
 PHE793  MET794  SER795  GLU796  ALA797  LYS798  CYS799  TRP800  GLU811  SER814 

> <Gold.Protein.RotatedAtoms>
  151.2456  133.4377  159.2608 H   0  0  0  0  0  0  0  0  0  0  0  0  # atno 6907 bound_to 6896
  151.0665  134.9771  159.8297 H   0  0  0  0  0  0  0  0  0  0  0  0  # atno 6908 bound_to 6896
  152.5406  134.2403  159.8912 H   0  0  0  0  0  0  0  0  0  0  0  0  # atno 6909 bound_to 6896
  144.8980  139.5463  143.5767 H   0  0  0  0  0  0  0  0  0  0  0  0  # atno 7974 bound_to 7965
  154.4682  140.0930  156.7075 H   0  0  0  0  0  0  0  0  0  0  0  0  # atno 8008 bound_to 7997
  155.4799  140.3467  155.4320 H   0  0  0  0  0  0  0  0  0  0  0  0  # atno 8009 bound_to 7997
  156.0993  140.1418  156.9478 H   0  0  0  0  0  0  0  0  0  0  0  0  # atno 8010 bound_to 7997
  140.6079  143.2378  151.5778 H   0  0  0  0  0  0  0  0  0  0  0  0  # atno 10167 bound_to 10162
  156.2236  130.6994  151.0782 H   0  0  0  0  0  0  0  0  0  0  0  0  # atno 10718 bound_to 10713
  154.4658  135.5882  153.6287 H   0  0  0  0  0  0  0  0  0  0  0  0  # atno 10763 bound_to 10752
  152.9828  135.6055  154.3429 H   0  0  0  0  0  0  0  0  0  0  0  0  # atno 10764 bound_to 10752
  154.3306  135.2842  155.2453 H   0  0  0  0  0  0  0  0  0  0  0  0  # atno 10765 bound_to 10752
  139.9765  134.6814  156.0344 H   0  0  0  0  0  0  0  0  0  0  0  0  # atno 11005 bound_to 11000
  146.3092  139.7687  142.9033 LP  0  0  0  0  0  0  0  0  0  0  0  0  # atno 17320 bound_to 7965
  145.3666  141.0335  143.3254 LP  0  0  0  0  0  0  0  0  0  0  0  0  # atno 17321 bound_to 7965
  139.5339  144.2837  152.1208 LP  0  0  0  0  0  0  0  0  0  0  0  0  # atno 17342 bound_to 10162
  140.2030  144.4638  150.6422 LP  0  0  0  0  0  0  0  0  0  0  0  0  # atno 17343 bound_to 10162
  157.7099  131.0739  150.6536 LP  0  0  0  0  0  0  0  0  0  0  0  0  # atno 17370 bound_to 10713
  156.6600  130.4509  149.5691 LP  0  0  0  0  0  0  0  0  0  0  0  0  # atno 17371 bound_to 10713
  141.1441  133.6559  156.3816 LP  0  0  0  0  0  0  0  0  0  0  0  0  # atno 17394 bound_to 11000
  140.5184  134.6327  157.5309 LP  0  0  0  0  0  0  0  0  0  0  0  0  # atno 17395 bound_to 11000

$$$$
