AV-unprocessed.smi:1403|AV-procd|sdf|5703|dock3
  -GOLD-   22720 5333D 1   1.00000     0.00000
 Structure written by MMmdl.
 35 36  0  0  0  0  0  0  0  0  2 V2000
  149.8878  141.4078  157.9152 C   0  0  0  0  0  0  0  0  0  0  0  0
  151.2808  141.5839  157.2942 C   0  0  2  0  0  0  0  0  0  0  0  0
  151.6767  140.3250  156.6682 N   0  0  0  0  0  0  0  0  0  0  0  0
  151.3291  139.8987  155.4414 C   0  0  0  0  0  0  0  0  0  0  0  0
  150.6171  140.5543  154.6815 O   0  0  0  0  0  0  0  0  0  0  0  0
  151.8652  138.5359  154.9694 C   0  0  0  0  0  0  0  0  0  0  0  0
  151.3016  137.3697  155.6742 N   0  0  0  0  0  0  0  0  0  0  0  0
  150.5511  136.4540  154.9160 C   0  0  0  0  0  0  0  0  0  0  0  0
  150.0027  135.3550  155.4680 C   0  0  0  0  0  0  0  0  0  0  0  0
  150.2035  135.1253  156.8933 C   0  0  0  0  0  0  0  0  0  0  0  0
  149.7080  134.1285  157.4150 O   0  0  0  0  0  0  0  0  0  0  0  0
  150.9428  136.0406  157.5854 N   0  5  0  0  0  0  0  0  0  0  0  0
  151.4965  137.1528  157.0103 C   0  0  0  0  0  0  0  0  0  0  0  0
  152.1695  137.9604  157.6511 O   0  0  0  0  0  0  0  0  0  0  0  0
  152.3261  142.0108  158.3444 C   0  0  1  0  0  0  0  0  0  0  0  0
  152.0700  143.3675  159.0005 C   0  0  0  0  0  0  0  0  0  0  0  0
  152.8494  143.2734  160.3002 C   0  0  0  0  0  0  0  0  0  0  0  0
  153.0032  141.7667  160.5305 C   0  0  0  0  0  0  0  0  0  0  0  0
  152.3007  141.1395  159.4646 O   0  0  0  0  0  0  0  0  0  0  0  0
  149.5371  142.3363  158.3664 H   0  0  0  0  0  0  0  0  0  0  0  0
  149.8923  140.6414  158.6913 H   0  0  0  0  0  0  0  0  0  0  0  0
  149.1569  141.1132  157.1614 H   0  0  0  0  0  0  0  0  0  0  0  0
  151.2083  142.3675  156.5379 H   0  0  0  0  0  0  0  0  0  0  0  0
  152.2614  139.7131  157.2199 H   0  0  0  0  0  0  0  0  0  0  0  0
  151.6933  138.4499  153.8952 H   0  0  0  0  0  0  0  0  0  0  0  0
  152.9504  138.5452  155.0794 H   0  0  0  0  0  0  0  0  0  0  0  0
  150.4556  136.6950  153.8672 H   0  0  0  0  0  0  0  0  0  0  0  0
  149.4311  134.6600  154.8707 H   0  0  0  0  0  0  0  0  0  0  0  0
  153.3278  141.9971  157.9103 H   0  0  0  0  0  0  0  0  0  0  0  0
  152.3820  144.2067  158.3781 H   0  0  0  0  0  0  0  0  0  0  0  0
  151.0073  143.4844  159.2179 H   0  0  0  0  0  0  0  0  0  0  0  0
  153.8296  143.7403  160.1986 H   0  0  0  0  0  0  0  0  0  0  0  0
  152.3247  143.7664  161.1190 H   0  0  0  0  0  0  0  0  0  0  0  0
  154.0541  141.4777  160.4920 H   0  0  0  0  0  0  0  0  0  0  0  0
  152.5990  141.4501  161.4922 H   0  0  0  0  0  0  0  0  0  0  0  0
  1  2  1  0  0  0  0
  1 20  1  0  0  0  0
  1 21  1  0  0  0  0
  1 22  1  0  0  0  0
  2  3  1  0  0  0  0
  2 15  1  0  0  0  0
  2 23  1  0  0  0  0
  3  4  1  0  0  0  0
  3 24  1  0  0  0  0
  4  5  2  0  0  0  0
  4  6  1  0  0  0  0
  6  7  1  0  0  0  0
  6 25  1  0  0  0  0
  6 26  1  0  0  0  0
  7 13  1  0  0  0  0
  7  8  1  0  0  0  0
  8  9  2  0  0  0  0
  8 27  1  0  0  0  0
  9 10  1  0  0  0  0
  9 28  1  0  0  0  0
 10 11  2  0  0  0  0
 10 12  1  0  0  0  0
 12 13  1  0  0  0  0
 13 14  2  0  0  0  0
 15 19  1  0  0  0  0
 15 16  1  0  0  0  0
 15 29  1  0  0  0  0
 16 17  1  0  0  0  0
 16 30  1  0  0  0  0
 16 31  1  0  0  0  0
 17 18  1  0  0  0  0
 17 32  1  0  0  0  0
 17 33  1  0  0  0  0
 18 19  1  0  0  0  0
 18 34  1  0  0  0  0
 18 35  1  0  0  0  0
M  CHG  1  12  -1
M  END
> <s_m_source_file>
AV-unprocessed.smi

> <i_m_source_file_index>
1403

> <i_lp_mmshare_version>
43012

> <i_f3d_flags>
0

> <s_epik_input>
TzFbQ0gyXVtDSDJdW0NIMl1bQ0BIXTFbQ0BIXShbQ0gzXSlbTkhdQyg9TylbQ0gyXW4yW2NIXVtjSF1jKD1PKVtuSF1jMj1P

> <s_epik_cmdline>
J2VwaWtfcHl0aG9uJywgJy1waCcsICc3LjAnLCAnLXRuJywgJzgnLCAnLW1hJywgJzIwMCcsICctbWV0YWxfYmluZGluZycsICctaW1hZScsICc8aW5maWxlLm1hZT4nLCAnLW9tYWUnLCAnPG91dGZpbGUubWFlPic=

> <r_lp_tautomer_probability>
0.999537

> <r_epik_Ionization_Penalty>
3.07438

> <r_epik_Ionization_Penalty_Charging>
2.82466e-08

> <r_epik_Ionization_Penalty_Neutral>
3.07438

> <r_epik_State_Penalty>
3.07341

> <r_epik_Charging_Adjusted_Penalty>
3.07341

> <i_epik_Tot_Q>
-1

> <i_epik_Tot_abs_Q>
1

> <r_epik_Metal_State_Penalty>
0.45947

> <b_epik_Metal_Only>
1

> <s_lp_Force_Field>
OPLS_2005

> <r_lp_Energy>
26.9379

> <b_lp_Chiralities_Consistent>
1

> <s_lp_Variant>
AV-unprocessed.smi:1403-7

> <Gold.Version>
5.8.1

> <Gold.Id.Protein>
6NUR|6NUR_protein|mol2

> <Gold.PLP.Fitness>
40.2608

> <Gold.PLP.PLP>
-32.2592

> <Gold.PLP.part.hbond>
-3.0000

> <Gold.PLP.part.metal>
0.0000

> <Gold.PLP.part.buried>
-4.6320

> <Gold.PLP.part.nonpolar>
-24.9716

> <Gold.PLP.part.repulsive>
0.2162

> <Gold.PLP.ligand.clash>
0.0000

> <Gold.PLP.ligand.torsion>
0.4768

> <Gold.PLP.Chemscore.Hbond>
1.9440

> <Gold.PLP.Chemscore.CHOScore>
1.0325

> <Gold.PLP.Chemscore.Metal>
0.0000

> <Gold.Chemscore.Hbonds>
donor molecule, donor type, donor heavy atom, donor atom, acceptor molecule, acceptor atom, score
      P1  H  6896  6908       L1    11  0.63
      P1  H  7989  7998       L1     5  1.00
      L1  C     8    27       P1  7948  0.63
      L1  C     8    27       P1  7949  0.40

> <Gold.PLP.Chemscore.Internal.Correction>
0.0257

> <Gold.Rescore>
     Score         DG    S(hbond)    S(metal)    S(lipo)     H(rot)  DE(clash)    DE(int)     intcor
     11.86     -14.12       1.57        0.00      72.60       1.99       0.22       2.04       ----

> <Gold.Chemscore.Fitness>
11.8615

> <Gold.Chemscore.DG>
-14.1159

> <Gold.Chemscore.ZeroCoef>
-5.4800

> <Gold.Chemscore.Hbond>
1.5709

> <Gold.Chemscore.Metal>
0.0000

> <Gold.Chemscore.Lipo>
72.5973

> <Gold.Chemscore.Internal_Hbond>
0.0000

> <Gold.Chemscore.DEClash>
0.2162

> <Gold.Chemscore.DEInternal>
2.0382

> <Gold.Chemscore.Rot>
1.9940

> <Gold.Chemscore.Internal.Correction>
   9.000000E+99

> <Gold.Chemscore.Hbonds>
donor molecule, donor type, donor heavy atom, donor atom, acceptor molecule, acceptor atom, score
      P1  H  6896  6908       L1    11  0.33
      P1  H  7989  7998       L1     5  0.32

> <Gold.Chemscore.Hbond.Weighted>
-5.2467

> <Gold.Chemscore.Metal.Weighted>
-0.0000

> <Gold.Chemscore.Lipo.Weighted>
-8.4939

> <Gold.Chemscore.Internal_Hbond.Weighted>
0.0000

> <Gold.Chemscore.DEClash.Weighted>
0.2162

> <Gold.Chemscore.DEInternal.Weighted>
2.0382

> <Gold.Chemscore.Rot.Weighted>
5.1047

> <Gold.Chemscore.Internal.Correction.Weighted>
   9.000000E+99

> <Gold.Protein.RotatedTorsions>
[ 6907 6896 6895 6894 ] final  117.42 input  -60.11 | X-H torsion
[ 7974 7965 7964 7962 ] final   87.91 input  175.53 | X-H torsion
[ 8008 7997 7996 7995 ] final   65.08 input   59.86 | X-H torsion
[ 10167 10162 10161 10158 ] final  -36.32 input  -65.29 | X-H torsion
[ 10718 10713 10712 10709 ] final  -88.62 input   66.30 | X-H torsion
[ 10763 10752 10751 10750 ] final -159.98 input  -60.55 | X-H torsion
[ 11005 11000 10999 10996 ] final -142.38 input  -57.11 | X-H torsion

> <Gold.Protein.ActiveResidues>
 VAL166  LYS551  ARG553  GLY616  TRP617  ASP618  TYR619  PRO620  LYS621  CYS622 
 ASP623  PHE694  ASN695  SER759  ASP760  ASP761  ALA762  ILE779  LEU786  VAL792 
 PHE793  MET794  SER795  GLU796  ALA797  LYS798  CYS799  TRP800  GLU811  SER814 

> <Gold.Protein.RotatedAtoms>
  152.4613  133.7828  159.6859 H   0  0  0  0  0  0  0  0  0  0  0  0  # atno 6907 bound_to 6896
  150.8558  133.7707  159.3015 H   0  0  0  0  0  0  0  0  0  0  0  0  # atno 6908 bound_to 6896
  151.5288  135.1071  159.9949 H   0  0  0  0  0  0  0  0  0  0  0  0  # atno 6909 bound_to 6896
  145.5527  139.2297  143.2504 H   0  0  0  0  0  0  0  0  0  0  0  0  # atno 7974 bound_to 7965
  155.6561  140.3497  155.4765 H   0  0  0  0  0  0  0  0  0  0  0  0  # atno 8008 bound_to 7997
  155.9807  140.1174  157.0752 H   0  0  0  0  0  0  0  0  0  0  0  0  # atno 8009 bound_to 7997
  154.4191  140.1139  156.5418 H   0  0  0  0  0  0  0  0  0  0  0  0  # atno 8010 bound_to 7997
  140.7145  143.3417  151.2343 H   0  0  0  0  0  0  0  0  0  0  0  0  # atno 10167 bound_to 10162
  155.9983  130.4842  150.5048 H   0  0  0  0  0  0  0  0  0  0  0  0  # atno 10718 bound_to 10713
  154.7429  135.3073  154.8696 H   0  0  0  0  0  0  0  0  0  0  0  0  # atno 10763 bound_to 10752
  153.9505  135.6764  153.4748 H   0  0  0  0  0  0  0  0  0  0  0  0  # atno 10764 bound_to 10752
  153.1027  135.4904  154.8821 H   0  0  0  0  0  0  0  0  0  0  0  0  # atno 10765 bound_to 10752
  140.8231  134.2607  157.4891 H   0  0  0  0  0  0  0  0  0  0  0  0  # atno 11005 bound_to 11000
  146.1906  140.6350  142.9147 LP  0  0  0  0  0  0  0  0  0  0  0  0  # atno 17320 bound_to 7965
  144.7521  140.5218  143.6794 LP  0  0  0  0  0  0  0  0  0  0  0  0  # atno 17321 bound_to 7965
  139.6926  143.9667  152.2867 LP  0  0  0  0  0  0  0  0  0  0  0  0  # atno 17342 bound_to 10162
  139.9333  144.6728  150.8340 LP  0  0  0  0  0  0  0  0  0  0  0  0  # atno 17343 bound_to 10162
  157.3028  131.0648  151.2056 LP  0  0  0  0  0  0  0  0  0  0  0  0  # atno 17370 bound_to 10713
  157.3030  130.6852  149.6174 LP  0  0  0  0  0  0  0  0  0  0  0  0  # atno 17371 bound_to 10713
  139.8707  134.9546  156.4181 LP  0  0  0  0  0  0  0  0  0  0  0  0  # atno 17394 bound_to 11000
  140.9078  133.7733  155.9755 LP  0  0  0  0  0  0  0  0  0  0  0  0  # atno 17395 bound_to 11000

$$$$
