#       Name:                AV-unprocessed.smi:1067
#       Creating user name   scv26
#       Creation time:       Fri Mar 27 03:18:47 2020


#       File generated by GOLD software.
#

@<TRIPOS>MOLECULE
AV-unprocessed.smi:1067
    57    59     1
SMALL
NO_CHARGES


@<TRIPOS>ATOM
      1 ****        -4.6925   1.1240   0.7786 N.am           1 S1                 0.0000
      2 ****        -3.8435   1.6961  -0.0810 C.2            1 S1                 0.0000
      3 ****        -2.9747   2.4727   0.3140 O.2            1 S1                 0.0000
      4 ****        -3.9654   1.3420  -1.5911 C.3            1 S1                 0.0000
      5 ****        -3.0707   0.1092  -1.9003 C.3            1 S1                 0.0000
      6 ****        -1.6491   0.3327  -1.6278 N.am           1 S1                 0.0000
      7 ****        -0.9027  -0.3542  -0.7510 C.2            1 S1                 0.0000
      8 ****        -1.3338  -1.2827  -0.0677 O.2            1 S1                 0.0000
      9 ****         0.3533   0.1223  -0.7053 N.am           1 S1                 0.0000
     10 ****         1.4558  -0.3641   0.0485 C.ar           1 S1                 0.0000
     11 ****         2.5536   0.4998   0.2458 C.ar           1 S1                 0.0000
     12 ****         3.6786   0.0512   0.9678 C.ar           1 S1                 0.0000
     13 ****         3.7028  -1.2676   1.4795 C.ar           1 S1                 0.0000
     14 ****         4.7902  -1.7844   2.2094 N.pl3          1 S1                 0.0000
     15 ****         4.8799  -3.1982   2.5393 C.3            1 S1                 0.0000
     16 ****         6.2689  -3.3644   3.1536 C.3            1 S1                 0.0000
     17 ****         7.1032  -2.3219   2.4092 C.3            1 S1                 0.0000
     18 ****         6.1149  -1.1851   2.1221 C.3            1 S1                 0.0000
     19 ****         2.6291  -2.0641   1.2619 N.pl3          1 S1                 1.0000
     20 ****         1.5317  -1.6746   0.5780 C.ar           1 S1                 0.0000
     21 ****        -5.4280   1.0183  -2.0036 C.3            1 S1                 0.0000
     22 ****        -6.3448   2.2566  -1.9613 C.3            1 S1                 0.0000
     23 ****        -5.8224   3.2719  -2.8093 O.3            1 S1                 0.0000
     24 ****        -4.5304   3.7154  -2.4129 C.3            1 S1                 0.0000
     25 ****        -3.5309   2.5436  -2.4754 C.3            1 S1                 0.0000
     26 ****        -4.6278   1.3383   1.7632 H              1 S1                 0.0000
     27 ****        -5.3924   0.4785   0.4431 H              1 S1                 0.0000
     28 ****        -3.4438  -0.7607  -1.3568 H              1 S1                 0.0000
     29 ****        -3.1547  -0.1525  -2.9557 H              1 S1                 0.0000
     30 ****        -1.2082   1.0851  -2.1364 H              1 S1                 0.0000
     31 ****         0.5332   0.9506  -1.2536 H              1 S1                 0.0000
     32 ****         2.5361   1.5055  -0.1486 H              1 S1                 0.0000
     33 ****         4.5074   0.7260   1.1228 H              1 S1                 0.0000
     34 ****         4.0943  -3.5029   3.2314 H              1 S1                 0.0000
     35 ****         4.7896  -3.7919   1.6286 H              1 S1                 0.0000
     36 ****         6.2364  -3.1198   4.2161 H              1 S1                 0.0000
     37 ****         6.6603  -4.3770   3.0518 H              1 S1                 0.0000
     38 ****         7.9748  -1.9916   2.9748 H              1 S1                 0.0000
     39 ****         7.4568  -2.7453   1.4681 H              1 S1                 0.0000
     40 ****         6.3065  -0.7419   1.1445 H              1 S1                 0.0000
     41 ****         6.1969  -0.4022   2.8766 H              1 S1                 0.0000
     42 ****         0.7710  -2.4337   0.4742 H              1 S1                 0.0000
     43 ****        -5.4358   0.6289  -3.0227 H              1 S1                 0.0000
     44 ****        -5.8493   0.2202  -1.3913 H              1 S1                 0.0000
     45 ****        -7.3420   1.9911  -2.3124 H              1 S1                 0.0000
     46 ****        -6.4619   2.6379  -0.9462 H              1 S1                 0.0000
     47 ****        -4.2136   4.5090  -3.0897 H              1 S1                 0.0000
     48 ****        -4.5729   4.1542  -1.4150 H              1 S1                 0.0000
     49 ****        -2.5361   2.8994  -2.2041 H              1 S1                 0.0000
     50 ****        -3.4496   2.2175  -3.5132 H              1 S1                 0.0000
     51 ****         2.6509  -3.0149   1.6307 H              1 S1                 0.0000
     52 ****        -2.8974   2.6826   1.2886 LP             1 S1                 0.0000
     53 ****        -2.3459   2.8938  -0.3396 LP             1 S1                 0.0000
     54 ****        -2.2904  -1.5621  -0.1503 LP             1 S1                 0.0000
     55 ****        -0.7274  -1.7577   0.5700 LP             1 S1                 0.0000
     56 ****        -6.4465   4.0530  -2.7933 LP             1 S1                 0.0000
     57 ****        -5.7639   2.9110  -3.7401 LP             1 S1                 0.0000
@<TRIPOS>BOND
    1    1    2 am    
    2    1   26 1     
    3    1   27 1     
    4    2    3 2     
    5    2    4 1     
    6    4   25 1     
    7    4    5 1     
    8    4   21 1     
    9    5    6 1     
   10    5   28 1     
   11    5   29 1     
   12    6    7 am    
   13    6   30 1     
   14    7    8 2     
   15    7    9 am    
   16    9   10 1     
   17    9   31 1     
   18   10   20 ar    
   19   10   11 ar    
   20   11   12 ar    
   21   11   32 1     
   22   12   13 ar    
   23   12   33 1     
   24   13   14 1     
   25   13   19 ar    
   26   14   18 1     
   27   14   15 1     
   28   15   16 1     
   29   15   34 1     
   30   15   35 1     
   31   16   17 1     
   32   16   36 1     
   33   16   37 1     
   34   17   18 1     
   35   17   38 1     
   36   17   39 1     
   37   18   40 1     
   38   18   41 1     
   39   19   20 ar    
   40   19   51 1     
   41   20   42 1     
   42   21   22 1     
   43   21   43 1     
   44   21   44 1     
   45   22   23 1     
   46   22   45 1     
   47   22   46 1     
   48   23   24 1     
   49   24   25 1     
   50   24   47 1     
   51   24   48 1     
   52   25   49 1     
   53   25   50 1     
   54    3   52 1     
   55    3   53 1     
   56    8   54 1     
   57    8   55 1     
   58   23   56 1     
   59   23   57 1     
@<TRIPOS>SUBSTRUCTURE
      1 S1             1
@<TRIPOS>SET
LONE_PAIRS      STATIC     ATOMS    <user>   **** ""
6 52 53 54 55 56 57
DONOR_HYDROGENS      STATIC     ATOMS    <user>   **** ""
5 26 27 30 31 51
ATOM$BLUE        STATIC     ATOMS    COLORGROUP SYSTEM
6 52 53 54 55 56 57
ATOM$RED        STATIC     ATOMS    COLORGROUP SYSTEM
5 26 27 30 31 51
