AV-unprocessed.smi:794|AV-procd|sdf|3763|dock2
  -GOLD-   22720 1193D 1   1.00000     0.00000
 Structure written by MMmdl.
 41 43  0  0  0  0  0  0  0  0  1 V2000
  146.9275  142.3136  154.4823 C   0  0  0  0  0  0  0  0  0  0  0  0
  147.6654  141.0101  154.4873 C   0  0  0  0  0  0  0  0  0  0  0  0
  147.1330  139.9147  153.8010 N   0  0  0  0  0  0  0  0  0  0  0  0
  147.9087  138.8303  153.8995 C   0  0  0  0  0  0  0  0  0  0  0  0
  147.6175  137.5790  153.2965 N   0  0  0  0  0  0  0  0  0  0  0  0
  146.4956  136.8461  153.4023 C   0  0  0  0  0  0  0  0  0  0  0  0
  145.5123  137.1414  154.0822 O   0  0  0  0  0  0  0  0  0  0  0  0
  146.5763  135.7309  152.6636 N   0  0  0  0  0  0  0  0  0  0  0  0
  145.5280  134.7202  152.5527 C   0  0  1  0  0  0  0  0  0  0  0  0
  144.1851  135.3738  152.1594 C   0  0  2  0  0  0  0  0  0  0  0  0
  143.0485  134.3771  152.4483 C   0  0  0  0  0  0  0  0  0  0  0  0
  143.2360  133.3282  151.3359 C   0  0  0  0  0  0  0  0  0  0  0  0
  144.4669  133.8543  150.5660 C   0  0  1  0  0  0  0  0  0  0  0  0
  144.2288  135.3573  150.6337 C   0  0  0  0  0  0  0  0  0  0  0  0
  145.7725  133.7245  151.3902 C   0  0  2  0  0  0  0  0  0  0  0  0
  146.1504  132.3025  151.8486 C   0  0  0  0  0  0  0  0  0  0  0  0
  146.3169  131.4542  150.7325 O   0  0  0  0  0  0  0  0  0  0  0  0
  149.3590  139.0857  154.8537 S   0  0  0  0  0  0  0  0  0  0  0  0
  148.8641  140.7410  155.1072 C   0  0  0  0  0  0  0  0  0  0  0  0
  149.7041  141.6744  155.9139 C   0  0  0  0  0  0  0  0  0  0  0  0
  146.9035  142.7573  155.4777 H   0  0  0  0  0  0  0  0  0  0  0  0
  145.8947  142.1914  154.1542 H   0  0  0  0  0  0  0  0  0  0  0  0
  147.4041  143.0297  153.8127 H   0  0  0  0  0  0  0  0  0  0  0  0
  148.3435  137.2050  152.7035 H   0  0  0  0  0  0  0  0  0  0  0  0
  147.4225  135.5662  152.1382 H   0  0  0  0  0  0  0  0  0  0  0  0
  145.4264  134.2066  153.5110 H   0  0  0  0  0  0  0  0  0  0  0  0
  144.0196  136.3546  152.6069 H   0  0  0  0  0  0  0  0  0  0  0  0
  143.1153  133.9438  153.4469 H   0  0  0  0  0  0  0  0  0  0  0  0
  142.0749  134.8605  152.3593 H   0  0  0  0  0  0  0  0  0  0  0  0
  143.3642  132.3183  151.7226 H   0  0  0  0  0  0  0  0  0  0  0  0
  142.3611  133.3129  150.6846 H   0  0  0  0  0  0  0  0  0  0  0  0
  144.5505  133.4555  149.5545 H   0  0  0  0  0  0  0  0  0  0  0  0
  143.2913  135.6697  150.1703 H   0  0  0  0  0  0  0  0  0  0  0  0
  145.0461  135.9467  150.2147 H   0  0  0  0  0  0  0  0  0  0  0  0
  146.5898  134.0950  150.7676 H   0  0  0  0  0  0  0  0  0  0  0  0
  147.0906  132.3281  152.3998 H   0  0  0  0  0  0  0  0  0  0  0  0
  145.4076  131.8789  152.5234 H   0  0  0  0  0  0  0  0  0  0  0  0
  147.2335  131.4367  150.5028 H   0  0  0  0  0  0  0  0  0  0  0  0
  149.7884  142.6439  155.4228 H   0  0  0  0  0  0  0  0  0  0  0  0
  150.7117  141.2806  156.0501 H   0  0  0  0  0  0  0  0  0  0  0  0
  149.2673  141.8314  156.9003 H   0  0  0  0  0  0  0  0  0  0  0  0
  1  2  1  0  0  0  0
  1 21  1  0  0  0  0
  1 22  1  0  0  0  0
  1 23  1  0  0  0  0
  2 19  2  0  0  0  0
  2  3  1  0  0  0  0
  3  4  2  0  0  0  0
  4  5  1  0  0  0  0
  4 18  1  0  0  0  0
  5  6  1  0  0  0  0
  5 24  1  0  0  0  0
  6  7  2  0  0  0  0
  6  8  1  0  0  0  0
  8  9  1  0  0  0  0
  8 25  1  0  0  0  0
  9 15  1  0  0  0  0
  9 10  1  0  0  0  0
  9 26  1  0  0  0  0
 10 14  1  0  0  0  0
 10 11  1  0  0  0  0
 10 27  1  0  0  0  0
 11 12  1  0  0  0  0
 11 28  1  0  0  0  0
 11 29  1  0  0  0  0
 12 13  1  0  0  0  0
 12 30  1  0  0  0  0
 12 31  1  0  0  0  0
 13 14  1  0  0  0  0
 13 15  1  0  0  0  0
 13 32  1  0  0  0  0
 14 33  1  0  0  0  0
 14 34  1  0  0  0  0
 15 16  1  0  0  0  0
 15 35  1  0  0  0  0
 16 17  1  0  0  0  0
 16 36  1  0  0  0  0
 16 37  1  0  0  0  0
 17 38  1  0  0  0  0
 18 19  1  0  0  0  0
 19 20  1  0  0  0  0
 20 39  1  0  0  0  0
 20 40  1  0  0  0  0
 20 41  1  0  0  0  0
M  END
> <s_m_source_file>
AV-unprocessed.smi

> <i_m_source_file_index>
794

> <i_lp_mmshare_version>
43012

> <i_f3d_flags>
0

> <s_epik_input>
W0NIM11jMW5jKHNjMVtDSDNdKVtOSF1DKD1PKVtOSF1bQ0BIXShbQ0BASF0yMylbQ0BIXShbQ0gyXVtPSF0pW0NAQEhdKFtDSDJdMylbQ0gyXVtDSDJdMg==

> <s_epik_cmdline>
J2VwaWtfcHl0aG9uJywgJy1waCcsICc3LjAnLCAnLXRuJywgJzgnLCAnLW1hJywgJzIwMCcsICctbWV0YWxfYmluZGluZycsICctaW1hZScsICc8aW5maWxlLm1hZT4nLCAnLW9tYWUnLCAnPG91dGZpbGUubWFlPic=

> <r_lp_tautomer_probability>
0.999

> <r_epik_Ionization_Penalty>
0.000713029

> <r_epik_Ionization_Penalty_Charging>
0

> <r_epik_Ionization_Penalty_Neutral>
0.000713029

> <r_epik_State_Penalty>
0.000177984

> <r_epik_Charging_Adjusted_Penalty>
0.000177984

> <i_epik_Tot_Q>
0

> <i_epik_Tot_abs_Q>
0

> <r_epik_Metal_State_Penalty>
-0

> <b_epik_Metal_Only>
0

> <s_lp_Force_Field>
OPLS_2005

> <r_lp_Energy>
46.861

> <b_lp_Chiralities_Consistent>
1

> <s_lp_Variant>
AV-unprocessed.smi:794-8

> <Gold.Version>
5.8.1

> <Gold.Id.Protein>
6NUR|6NUR_protein|mol2

> <Gold.PLP.Fitness>
40.2612

> <Gold.PLP.PLP>
-32.7170

> <Gold.PLP.part.hbond>
-2.8324

> <Gold.PLP.part.metal>
0.0000

> <Gold.PLP.part.buried>
-0.1020

> <Gold.PLP.part.nonpolar>
-30.4848

> <Gold.PLP.part.repulsive>
0.3885

> <Gold.PLP.ligand.clash>
0.0000

> <Gold.PLP.ligand.torsion>
0.5851

> <Gold.PLP.Chemscore.Hbond>
2.8960

> <Gold.PLP.Chemscore.CHOScore>
0.0000

> <Gold.PLP.Chemscore.Metal>
0.0000

> <Gold.Chemscore.Hbonds>
donor molecule, donor type, donor heavy atom, donor atom, acceptor molecule, acceptor atom, score
      L1  H     5    24       P1  7948  0.71
      L1  H     8    25       P1  7948  0.86
      L1  H    17    38       P1 10747  1.00

> <Gold.PLP.Chemscore.Internal.Correction>
0.0264

> <Gold.Rescore>
     Score         DG    S(hbond)    S(metal)    S(lipo)     H(rot)  DE(clash)    DE(int)     intcor
     18.01     -18.64       2.87        0.00      69.33       1.78       0.02       0.60       ----

> <Gold.Chemscore.Fitness>
18.0126

> <Gold.Chemscore.DG>
-18.6370

> <Gold.Chemscore.ZeroCoef>
-5.4800

> <Gold.Chemscore.Hbond>
2.8746

> <Gold.Chemscore.Metal>
0.0000

> <Gold.Chemscore.Lipo>
69.3323

> <Gold.Chemscore.Internal_Hbond>
0.0000

> <Gold.Chemscore.DEClash>
0.0222

> <Gold.Chemscore.DEInternal>
0.6022

> <Gold.Chemscore.Rot>
1.7798

> <Gold.Chemscore.Internal.Correction>
   9.000000E+99

> <Gold.Chemscore.Hbonds>
donor molecule, donor type, donor heavy atom, donor atom, acceptor molecule, acceptor atom, score
      L1  H     5    24       P1  7948  0.70
      L1  H     8    25       P1  7948  0.85
      L1  H    17    38       P1 10747  1.00

> <Gold.Chemscore.Hbond.Weighted>
-9.6013

> <Gold.Chemscore.Metal.Weighted>
-0.0000

> <Gold.Chemscore.Lipo.Weighted>
-8.1119

> <Gold.Chemscore.Internal_Hbond.Weighted>
0.0000

> <Gold.Chemscore.DEClash.Weighted>
0.0222

> <Gold.Chemscore.DEInternal.Weighted>
0.6022

> <Gold.Chemscore.Rot.Weighted>
4.5562

> <Gold.Chemscore.Internal.Correction.Weighted>
   9.000000E+99

> <Gold.Protein.RotatedTorsions>
[ 6907 6896 6895 6894 ] final  -96.36 input  -60.11 | X-H torsion
[ 7974 7965 7964 7962 ] final -104.10 input  175.53 | X-H torsion
[ 8008 7997 7996 7995 ] final    3.22 input   59.86 | X-H torsion
[ 10167 10162 10161 10158 ] final -150.65 input  -65.29 | X-H torsion
[ 10718 10713 10712 10709 ] final   20.12 input   66.30 | X-H torsion
[ 10763 10752 10751 10750 ] final  -72.40 input  -60.55 | X-H torsion
[ 11005 11000 10999 10996 ] final   37.36 input  -57.11 | X-H torsion

> <Gold.Protein.ActiveResidues>
 VAL166  LYS551  ARG553  GLY616  TRP617  ASP618  TYR619  PRO620  LYS621  CYS622 
 ASP623  PHE694  ASN695  SER759  ASP760  ASP761  ALA762  ILE779  LEU786  VAL792 
 PHE793  MET794  SER795  GLU796  ALA797  LYS798  CYS799  TRP800  GLU811  SER814 

> <Gold.Protein.RotatedAtoms>
  150.6987  134.1515  159.4141 H   0  0  0  0  0  0  0  0  0  0  0  0  # atno 6907 bound_to 6896
  151.9497  135.0172  160.0550 H   0  0  0  0  0  0  0  0  0  0  0  0  # atno 6908 bound_to 6896
  152.2021  133.4814  159.5101 H   0  0  0  0  0  0  0  0  0  0  0  0  # atno 6909 bound_to 6896
  145.2474  140.9226  143.3115 H   0  0  0  0  0  0  0  0  0  0  0  0  # atno 7974 bound_to 7965
  154.7010  140.2673  155.6719 H   0  0  0  0  0  0  0  0  0  0  0  0  # atno 8008 bound_to 7997
  156.2765  140.2772  156.1544 H   0  0  0  0  0  0  0  0  0  0  0  0  # atno 8009 bound_to 7997
  155.0764  140.0372  157.2615 H   0  0  0  0  0  0  0  0  0  0  0  0  # atno 8010 bound_to 7997
  139.7336  143.8770  152.2542 H   0  0  0  0  0  0  0  0  0  0  0  0  # atno 10167 bound_to 10162
  157.1200  130.6545  149.5921 H   0  0  0  0  0  0  0  0  0  0  0  0  # atno 10718 bound_to 10713
  154.4451  135.5931  153.6155 H   0  0  0  0  0  0  0  0  0  0  0  0  # atno 10763 bound_to 10752
  152.9808  135.6007  154.3674 H   0  0  0  0  0  0  0  0  0  0  0  0  # atno 10764 bound_to 10752
  154.3529  135.2841  155.2341 H   0  0  0  0  0  0  0  0  0  0  0  0  # atno 10765 bound_to 10752
  140.2233  134.3615  155.7995 H   0  0  0  0  0  0  0  0  0  0  0  0  # atno 11005 bound_to 11000
  144.9534  139.4058  143.6391 LP  0  0  0  0  0  0  0  0  0  0  0  0  # atno 17320 bound_to 7965
  146.3312  139.8552  142.8866 LP  0  0  0  0  0  0  0  0  0  0  0  0  # atno 17321 bound_to 7965
  139.8701  144.7073  150.8998 LP  0  0  0  0  0  0  0  0  0  0  0  0  # atno 17342 bound_to 10162
  140.7775  143.3746  151.1587 LP  0  0  0  0  0  0  0  0  0  0  0  0  # atno 17343 bound_to 10162
  155.9830  130.4848  150.6913 LP  0  0  0  0  0  0  0  0  0  0  0  0  # atno 17370 bound_to 10713
  157.4484  131.0869  151.0871 LP  0  0  0  0  0  0  0  0  0  0  0  0  # atno 17371 bound_to 10713
  141.2222  133.7205  156.8611 LP  0  0  0  0  0  0  0  0  0  0  0  0  # atno 17394 bound_to 11000
  140.1827  134.9022  157.2967 LP  0  0  0  0  0  0  0  0  0  0  0  0  # atno 17395 bound_to 11000

$$$$
