#       Name:                AV-unprocessed.smi:767
#       Creating user name   scv26
#       Creation time:       Fri Mar 27 01:08:01 2020


#       File generated by GOLD software.
#

@<TRIPOS>MOLECULE
AV-unprocessed.smi:767
    52    54     1
SMALL
NO_CHARGES


@<TRIPOS>ATOM
      1 ****        -8.0035   0.6995   0.9033 C.3            1 S1                 0.0000
      2 ****        -6.4930   0.6658   1.0034 C.ar           1 S1                 0.0000
      3 ****        -5.8189   0.6712   2.2435 C.ar           1 S1                 0.0000
      4 ****        -4.4090   0.6398   2.2610 C.ar           1 S1                 0.0000
      5 ****        -3.7018   0.6035   1.0394 C.ar           1 S1                 0.0000
      6 ****        -2.1864   0.5634   1.0248 C.3            1 S1                 0.0000
      7 ****        -1.6470  -0.8744   1.0929 C.3            1 S1                 0.0000
      8 ****        -0.1898  -0.9019   1.0802 N.am           1 S1                 0.0000
      9 ****         0.5680  -0.7961  -0.0200 C.2            1 S1                 0.0000
     10 ****         0.1168  -0.6563  -1.1571 O.2            1 S1                 0.0000
     11 ****         1.8746  -0.8552   0.2676 N.am           1 S1                 0.0000
     12 ****         2.9409  -0.7788  -0.7259 C.3            1 S1                 0.0000
     13 ****         4.3338  -0.9784  -0.1083 C.3            1 S1                 0.0000
     14 ****         5.1512  -2.1861  -0.4775 C.3            1 S1                 0.0000
     15 ****         6.0455  -1.6613  -1.6047 C.3            1 S1                 0.0000
     16 ****         5.3581  -0.5182  -2.1083 O.3            1 S1                 0.0000
     17 ****         4.7954   0.1693  -0.9934 C.3            1 S1                 0.0000
     18 ****         3.3396   0.6600  -1.1433 C.3            1 S1                 0.0000
     19 ****         2.9208   1.0958  -2.5483 C.3            1 S1                 0.0000
     20 ****         2.9619   1.8056  -0.1933 C.3            1 S1                 0.0000
     21 ****        -4.4290   0.5983  -0.1702 C.ar           1 S1                 0.0000
     22 ****        -5.7795   0.6299  -0.1446 N.pl3          1 S1                 1.0000
     23 ****        -8.4627   0.7117   1.8923 H              1 S1                 0.0000
     24 ****        -8.3691  -0.1783   0.3696 H              1 S1                 0.0000
     25 ****        -8.3290   1.5906   0.3662 H              1 S1                 0.0000
     26 ****        -6.3720   0.6993   3.1711 H              1 S1                 0.0000
     27 ****        -3.8787   0.6418   3.2023 H              1 S1                 0.0000
     28 ****        -1.8303   1.0601   0.1212 H              1 S1                 0.0000
     29 ****        -1.8064   1.1466   1.8647 H              1 S1                 0.0000
     30 ****        -1.9861  -1.3566   2.0101 H              1 S1                 0.0000
     31 ****        -2.0371  -1.4697   0.2655 H              1 S1                 0.0000
     32 ****         0.2736  -1.0151   1.9701 H              1 S1                 0.0000
     33 ****         2.1517  -0.9704   1.2314 H              1 S1                 0.0000
     34 ****         2.7842  -1.4304  -1.5886 H              1 S1                 0.0000
     35 ****         4.3699  -0.7081   0.9488 H              1 S1                 0.0000
     36 ****         5.7396  -2.5664   0.3578 H              1 S1                 0.0000
     37 ****         4.5118  -2.9947  -0.8328 H              1 S1                 0.0000
     38 ****         7.0136  -1.3475  -1.2114 H              1 S1                 0.0000
     39 ****         6.2176  -2.4021  -2.3857 H              1 S1                 0.0000
     40 ****         5.4895   0.8564  -0.5068 H              1 S1                 0.0000
     41 ****         3.4565   1.9908  -2.8660 H              1 S1                 0.0000
     42 ****         1.8534   1.3128  -2.5986 H              1 S1                 0.0000
     43 ****         3.1232   0.3199  -3.2869 H              1 S1                 0.0000
     44 ****         3.4754   2.7294  -0.4612 H              1 S1                 0.0000
     45 ****         3.2303   1.5806   0.8393 H              1 S1                 0.0000
     46 ****         1.8910   2.0102  -0.2134 H              1 S1                 0.0000
     47 ****        -3.9756   0.5693  -1.1505 H              1 S1                 0.0000
     48 ****        -6.2835   0.6263  -1.0318 H              1 S1                 0.0000
     49 ****        -0.8719  -0.6156  -1.3012 LP             1 S1                 0.0000
     50 ****         0.7391  -0.5835  -1.9364 LP             1 S1                 0.0000
     51 ****         4.6328  -0.8044  -2.7344 LP             1 S1                 0.0000
     52 ****         5.9981   0.0799  -2.5906 LP             1 S1                 0.0000
@<TRIPOS>BOND
    1    1    2 1     
    2    1   23 1     
    3    1   24 1     
    4    1   25 1     
    5    2   22 ar    
    6    2    3 ar    
    7    3    4 ar    
    8    3   26 1     
    9    4    5 ar    
   10    4   27 1     
   11    5    6 1     
   12    5   21 ar    
   13    6    7 1     
   14    6   28 1     
   15    6   29 1     
   16    7    8 1     
   17    7   30 1     
   18    7   31 1     
   19    8    9 am    
   20    8   32 1     
   21    9   10 2     
   22    9   11 am    
   23   11   12 1     
   24   11   33 1     
   25   12   18 1     
   26   12   13 1     
   27   12   34 1     
   28   13   17 1     
   29   13   14 1     
   30   13   35 1     
   31   14   15 1     
   32   14   36 1     
   33   14   37 1     
   34   15   16 1     
   35   15   38 1     
   36   15   39 1     
   37   16   17 1     
   38   17   18 1     
   39   17   40 1     
   40   18   19 1     
   41   18   20 1     
   42   19   41 1     
   43   19   42 1     
   44   19   43 1     
   45   20   44 1     
   46   20   45 1     
   47   20   46 1     
   48   21   22 ar    
   49   21   47 1     
   50   22   48 1     
   51   10   49 1     
   52   10   50 1     
   53   16   51 1     
   54   16   52 1     
@<TRIPOS>SUBSTRUCTURE
      1 S1             1
@<TRIPOS>SET
LONE_PAIRS      STATIC     ATOMS    <user>   **** ""
4 49 50 51 52
DONOR_HYDROGENS      STATIC     ATOMS    <user>   **** ""
3 32 33 48
ATOM$BLUE        STATIC     ATOMS    COLORGROUP SYSTEM
4 49 50 51 52
ATOM$RED        STATIC     ATOMS    COLORGROUP SYSTEM
3 32 33 48
