#       Name:                AV-unprocessed.smi:492
#       Creating user name   scv26
#       Creation time:       Thu Mar 26 23:15:32 2020


#       File generated by GOLD software.
#

@<TRIPOS>MOLECULE
AV-unprocessed.smi:492
    53    55     1
SMALL
NO_CHARGES


@<TRIPOS>ATOM
      1 ****        -7.1011   1.9889   0.4341 C.3            1 S1                 0.0000
      2 ****        -6.2625   2.9773  -0.1460 O.3            1 S1                 0.0000
      3 ****        -4.9098   2.9122   0.1111 C.ar           1 S1                 0.0000
      4 ****        -4.0981   3.9084  -0.4693 C.ar           1 S1                 0.0000
      5 ****        -2.7057   3.9183  -0.2596 C.ar           1 S1                 0.0000
      6 ****        -2.1022   2.9219   0.5334 C.ar           1 S1                 0.0000
      7 ****        -0.6050   2.9384   0.7740 C.3            1 S1                 0.0000
      8 ****        -0.0461   1.6374   0.7000 O.3            1 S1                 0.0000
      9 ****         1.3525   1.6210   0.9374 C.3            1 S1                 0.0000
     10 ****         1.8910   0.1851   0.8303 C.3            1 S1                 0.0000
     11 ****         1.5711  -0.5243   2.0102 O.3            1 S1                 0.0000
     12 ****         1.4077  -0.5668  -0.4275 C.3            1 S1                 0.0000
     13 ****         1.9382  -1.9357  -0.5117 N.pl3          1 S1                 0.0000
     14 ****         1.3548  -3.1292  -0.2034 C.2            1 S1                 0.0000
     15 ****        -0.0289  -3.3385   0.3140 C.3            1 S1                 0.0000
     16 ****         2.2733  -4.1043  -0.4559 N.pl3          1 S1                 1.0000
     17 ****         3.4524  -3.5301  -0.9343 C.ar           1 S1                 0.0000
     18 ****         4.6566  -4.1085  -1.3241 C.ar           1 S1                 0.0000
     19 ****         5.6659  -3.2294  -1.7688 C.ar           1 S1                 0.0000
     20 ****         5.4585  -1.8352  -1.8144 C.ar           1 S1                 0.0000
     21 ****         4.2337  -1.2601  -1.4159 C.ar           1 S1                 0.0000
     22 ****         3.2421  -2.1364  -0.9762 C.ar           1 S1                 0.0000
     23 ****        -2.9058   1.9268   1.1260 C.ar           1 S1                 0.0000
     24 ****        -4.2985   1.9177   0.9157 C.ar           1 S1                 0.0000
     25 ****        -8.1335   2.1754   0.1393 H              1 S1                 0.0000
     26 ****        -7.0590   2.0201   1.5238 H              1 S1                 0.0000
     27 ****        -6.8358   0.9882   0.0903 H              1 S1                 0.0000
     28 ****        -4.5484   4.6758  -1.0816 H              1 S1                 0.0000
     29 ****        -2.1045   4.6934  -0.7115 H              1 S1                 0.0000
     30 ****        -0.1235   3.5866   0.0399 H              1 S1                 0.0000
     31 ****        -0.4202   3.3680   1.7597 H              1 S1                 0.0000
     32 ****         1.8434   2.2432   0.1874 H              1 S1                 0.0000
     33 ****         1.5873   2.0492   1.9135 H              1 S1                 0.0000
     34 ****         2.9793   0.2451   0.8066 H              1 S1                 0.0000
     35 ****         1.9690  -1.3799   1.9619 H              1 S1                 0.0000
     36 ****         0.3195  -0.6376  -0.4378 H              1 S1                 0.0000
     37 ****         1.6876  -0.0298  -1.3347 H              1 S1                 0.0000
     38 ****        -0.1769  -4.3790   0.6038 H              1 S1                 0.0000
     39 ****        -0.7588  -3.0843  -0.4547 H              1 S1                 0.0000
     40 ****        -0.2072  -2.7077   1.1852 H              1 S1                 0.0000
     41 ****         4.8181  -5.1761  -1.2910 H              1 S1                 0.0000
     42 ****         6.6183  -3.6325  -2.0816 H              1 S1                 0.0000
     43 ****         6.2552  -1.1934  -2.1617 H              1 S1                 0.0000
     44 ****         4.0841  -0.1911  -1.4541 H              1 S1                 0.0000
     45 ****        -2.4561   1.1650   1.7460 H              1 S1                 0.0000
     46 ****        -4.8767   1.1364   1.3851 H              1 S1                 0.0000
     47 ****         2.1025  -5.0913  -0.3120 H              1 S1                 0.0000
     48 ****        -6.5840   3.8671   0.1779 LP             1 S1                 0.0000
     49 ****        -6.3794   2.9215  -1.1376 LP             1 S1                 0.0000
     50 ****        -0.2187   1.2678  -0.2130 LP             1 S1                 0.0000
     51 ****        -0.4921   1.0595   1.3834 LP             1 S1                 0.0000
     52 ****         0.5787  -0.6176   2.0893 LP             1 S1                 0.0000
     53 ****         1.9242  -0.0323   2.8060 LP             1 S1                 0.0000
@<TRIPOS>BOND
    1    1    2 1     
    2    1   25 1     
    3    1   26 1     
    4    1   27 1     
    5    2    3 1     
    6    3   24 ar    
    7    3    4 ar    
    8    4    5 ar    
    9    4   28 1     
   10    5    6 ar    
   11    5   29 1     
   12    6    7 1     
   13    6   23 ar    
   14    7    8 1     
   15    7   30 1     
   16    7   31 1     
   17    8    9 1     
   18    9   10 1     
   19    9   32 1     
   20    9   33 1     
   21   10   11 1     
   22   10   12 1     
   23   10   34 1     
   24   11   35 1     
   25   12   13 1     
   26   12   36 1     
   27   12   37 1     
   28   13   22 1     
   29   13   14 1     
   30   14   15 1     
   31   14   16 2     
   32   15   38 1     
   33   15   39 1     
   34   15   40 1     
   35   16   17 1     
   36   16   47 1     
   37   17   22 ar    
   38   17   18 ar    
   39   18   19 ar    
   40   18   41 1     
   41   19   20 ar    
   42   19   42 1     
   43   20   21 ar    
   44   20   43 1     
   45   21   22 ar    
   46   21   44 1     
   47   23   24 ar    
   48   23   45 1     
   49   24   46 1     
   50    2   48 1     
   51    2   49 1     
   52    8   50 1     
   53    8   51 1     
   54   11   52 1     
   55   11   53 1     
@<TRIPOS>SUBSTRUCTURE
      1 S1             1
@<TRIPOS>SET
LONE_PAIRS      STATIC     ATOMS    <user>   **** ""
6 48 49 50 51 52 53
DONOR_HYDROGENS      STATIC     ATOMS    <user>   **** ""
2 35 47
ATOM$BLUE        STATIC     ATOMS    COLORGROUP SYSTEM
6 48 49 50 51 52 53
ATOM$RED        STATIC     ATOMS    COLORGROUP SYSTEM
2 35 47
