AV-unprocessed.smi:1914|AV-procd|sdf|7758|dock8
  -GOLD-   22720 9503D 1   1.00000     0.00000
 Structure written by MMmdl.
 44 45  0  0  0  0  0  0  0  0  2 V2000
  146.7891  133.3481  150.8873 C   0  0  0  0  0  0  0  0  0  0  0  0
  145.6970  133.6081  151.9397 C   0  0  2  0  0  0  0  0  0  0  0  0
  144.6728  134.6660  151.4888 C   0  0  0  0  0  0  0  0  0  0  0  0
  145.2704  136.0791  151.5447 C   0  0  0  0  0  0  0  0  0  0  0  0
  145.8628  136.3723  152.9322 C   0  0  0  0  0  0  0  0  0  0  0  0
  146.8735  135.3511  153.3100 N   0  3  1  0  0  0  0  0  0  0  0  0
  147.5714  135.6937  154.5747 C   0  0  0  0  0  0  0  0  0  0  0  0
  146.6071  136.2083  155.6556 C   0  0  0  0  0  0  0  0  0  0  0  0
  147.3306  136.4976  156.8856 N   0  0  0  0  0  0  0  0  0  0  0  0
  147.0622  135.9336  158.0715 C   0  0  0  0  0  0  0  0  0  0  0  0
  146.1716  135.0981  158.2309 O   0  0  0  0  0  0  0  0  0  0  0  0
  147.9537  136.3690  159.2436 C   0  0  0  0  0  0  0  0  0  0  0  0
  147.7088  135.6024  160.4767 N   0  0  0  0  0  0  0  0  0  0  0  0
  147.8606  134.2033  160.4054 C   0  0  0  0  0  0  0  0  0  0  0  0
  147.6623  133.4125  161.4719 C   0  0  0  0  0  0  0  0  0  0  0  0
  147.2822  134.0316  162.7194 C   0  0  0  0  0  0  0  0  0  0  0  0
  147.1314  135.3687  162.7982 C   0  0  0  0  0  0  0  0  0  0  0  0
  147.3472  136.2368  161.6348 C   0  0  0  0  0  0  0  0  0  0  0  0
  147.2118  137.4593  161.6963 O   0  0  0  0  0  0  0  0  0  0  0  0
  146.2909  133.9812  153.3138 C   0  0  0  0  0  0  0  0  0  0  0  0
  147.4088  134.2284  150.7158 H   0  0  0  0  0  0  0  0  0  0  0  0
  146.3513  133.0599  149.9311 H   0  0  0  0  0  0  0  0  0  0  0  0
  147.4488  132.5388  151.2013 H   0  0  0  0  0  0  0  0  0  0  0  0
  145.1581  132.6674  152.0607 H   0  0  0  0  0  0  0  0  0  0  0  0
  144.3111  134.4461  150.4838 H   0  0  0  0  0  0  0  0  0  0  0  0
  143.8008  134.6227  152.1428 H   0  0  0  0  0  0  0  0  0  0  0  0
  146.0435  136.1886  150.7834 H   0  0  0  0  0  0  0  0  0  0  0  0
  144.5023  136.8155  151.3064 H   0  0  0  0  0  0  0  0  0  0  0  0
  146.3219  137.3615  152.9186 H   0  0  0  0  0  0  0  0  0  0  0  0
  145.0719  136.4000  153.6837 H   0  0  0  0  0  0  0  0  0  0  0  0
  148.0652  134.8024  154.9648 H   0  0  0  0  0  0  0  0  0  0  0  0
  148.3601  136.4212  154.3764 H   0  0  0  0  0  0  0  0  0  0  0  0
  146.0998  137.1168  155.3307 H   0  0  0  0  0  0  0  0  0  0  0  0
  145.8368  135.4615  155.8554 H   0  0  0  0  0  0  0  0  0  0  0  0
  148.0793  137.1737  156.8363 H   0  0  0  0  0  0  0  0  0  0  0  0
  148.9940  136.2710  158.9304 H   0  0  0  0  0  0  0  0  0  0  0  0
  147.8134  137.4346  159.4352 H   0  0  0  0  0  0  0  0  0  0  0  0
  148.1397  133.8183  159.4353 H   0  0  0  0  0  0  0  0  0  0  0  0
  147.7800  132.3415  161.3973 H   0  0  0  0  0  0  0  0  0  0  0  0
  147.1158  133.4192  163.5934 H   0  0  0  0  0  0  0  0  0  0  0  0
  146.8453  135.8143  163.7397 H   0  0  0  0  0  0  0  0  0  0  0  0
  145.5123  133.9289  154.0764 H   0  0  0  0  0  0  0  0  0  0  0  0
  147.0429  133.2434  153.5912 H   0  0  0  0  0  0  0  0  0  0  0  0
  147.5749  135.3704  152.5833 H   0  0  0  0  0  0  0  0  0  0  0  0
  1  2  1  0  0  0  0
  1 21  1  0  0  0  0
  1 22  1  0  0  0  0
  1 23  1  0  0  0  0
  2 20  1  0  0  0  0
  2  3  1  0  0  0  0
  2 24  1  0  0  0  0
  3  4  1  0  0  0  0
  3 25  1  0  0  0  0
  3 26  1  0  0  0  0
  4  5  1  0  0  0  0
  4 27  1  0  0  0  0
  4 28  1  0  0  0  0
  5  6  1  0  0  0  0
  5 29  1  0  0  0  0
  5 30  1  0  0  0  0
  6  7  1  0  0  0  0
  6 20  1  0  0  0  0
  6 44  1  0  0  0  0
  7  8  1  0  0  0  0
  7 31  1  0  0  0  0
  7 32  1  0  0  0  0
  8  9  1  0  0  0  0
  8 33  1  0  0  0  0
  8 34  1  0  0  0  0
  9 10  1  0  0  0  0
  9 35  1  0  0  0  0
 10 11  2  0  0  0  0
 10 12  1  0  0  0  0
 12 13  1  0  0  0  0
 12 36  1  0  0  0  0
 12 37  1  0  0  0  0
 13 18  1  0  0  0  0
 13 14  1  0  0  0  0
 14 15  2  0  0  0  0
 14 38  1  0  0  0  0
 15 16  1  0  0  0  0
 15 39  1  0  0  0  0
 16 17  2  0  0  0  0
 16 40  1  0  0  0  0
 17 18  1  0  0  0  0
 17 41  1  0  0  0  0
 18 19  2  0  0  0  0
 20 42  1  0  0  0  0
 20 43  1  0  0  0  0
M  CHG  1   6   1
M  END
> <s_m_source_file>
AV-unprocessed.smi

> <i_m_source_file_index>
1914

> <i_lp_mmshare_version>
43012

> <i_f3d_flags>
0

> <s_epik_input>
W0NIM11bQ0BASF0xW0NIMl1bQ0gyXVtDSDJdTihbQ0gyXTEpW0NIMl1bQ0gyXVtOSF1DKD1PKVtDSDJdbjJbY0hdW2NIXVtjSF1bY0hdYzI9Tw==

> <s_epik_cmdline>
J2VwaWtfcHl0aG9uJywgJy1waCcsICc3LjAnLCAnLXRuJywgJzgnLCAnLW1hJywgJzIwMCcsICctbWV0YWxfYmluZGluZycsICctaW1hZScsICc8aW5maWxlLm1hZT4nLCAnLW9tYWUnLCAnPG91dGZpbGUubWFlPic=

> <r_lp_tautomer_probability>
1

> <r_epik_Ionization_Penalty>
0.00192477

> <r_epik_Ionization_Penalty_Charging>
0.00192469

> <r_epik_Ionization_Penalty_Neutral>
8.16761e-08

> <r_epik_State_Penalty>
0.00131115

> <r_epik_Charging_Adjusted_Penalty>
0.00323584

> <i_epik_Tot_Q>
1

> <i_epik_Tot_abs_Q>
1

> <r_epik_Metal_State_Penalty>
-0

> <b_epik_Metal_Only>
0

> <s_lp_Force_Field>
OPLS_2005

> <r_lp_Energy>
28.3213

> <b_lp_Chiralities_Consistent>
1

> <s_lp_Variant>
AV-unprocessed.smi:1914-3

> <Gold.Version>
5.8.1

> <Gold.Id.Protein>
6NUR|6NUR_protein|mol2

> <Gold.PLP.Fitness>
42.3885

> <Gold.PLP.PLP>
-32.1796

> <Gold.PLP.part.hbond>
-3.0000

> <Gold.PLP.part.metal>
0.0000

> <Gold.PLP.part.buried>
-2.4605

> <Gold.PLP.part.nonpolar>
-26.5999

> <Gold.PLP.part.repulsive>
0.0000

> <Gold.PLP.ligand.clash>
0.0000

> <Gold.PLP.ligand.torsion>
0.2385

> <Gold.PLP.Chemscore.Hbond>
3.5520

> <Gold.PLP.Chemscore.CHOScore>
0.0000

> <Gold.PLP.Chemscore.Metal>
0.0000

> <Gold.Chemscore.Hbonds>
donor molecule, donor type, donor heavy atom, donor atom, acceptor molecule, acceptor atom, score
      L1  H     6    44       P1  7948  1.95
      P1  H  6931  6943       L1    19  0.74
      P1  H  6934  6947       L1    19  0.83

> <Gold.PLP.Chemscore.Internal.Correction>
0.0299

> <Gold.Rescore>
     Score         DG    S(hbond)    S(metal)    S(lipo)     H(rot)  DE(clash)    DE(int)     intcor
     15.33     -16.96       2.55        0.00      65.88       1.86       0.14       1.49       ----

> <Gold.Chemscore.Fitness>
15.3261

> <Gold.Chemscore.DG>
-16.9565

> <Gold.Chemscore.ZeroCoef>
-5.4800

> <Gold.Chemscore.Hbond>
2.5528

> <Gold.Chemscore.Metal>
0.0000

> <Gold.Chemscore.Lipo>
65.8833

> <Gold.Chemscore.Internal_Hbond>
0.0000

> <Gold.Chemscore.DEClash>
0.1392

> <Gold.Chemscore.DEInternal>
1.4912

> <Gold.Chemscore.Rot>
1.8586

> <Gold.Chemscore.Internal.Correction>
   9.000000E+99

> <Gold.Chemscore.Hbonds>
donor molecule, donor type, donor heavy atom, donor atom, acceptor molecule, acceptor atom, score
      L1  H     6    44       P1  7948  0.93
      P1  H  6931  6943       L1    19  0.47
      P1  H  6934  6947       L1    19  0.83

> <Gold.Chemscore.Hbond.Weighted>
-8.5263

> <Gold.Chemscore.Metal.Weighted>
-0.0000

> <Gold.Chemscore.Lipo.Weighted>
-7.7083

> <Gold.Chemscore.Internal_Hbond.Weighted>
0.0000

> <Gold.Chemscore.DEClash.Weighted>
0.1392

> <Gold.Chemscore.DEInternal.Weighted>
1.4912

> <Gold.Chemscore.Rot.Weighted>
4.7581

> <Gold.Chemscore.Internal.Correction.Weighted>
   9.000000E+99

> <Gold.Protein.RotatedTorsions>
[ 6907 6896 6895 6894 ] final -143.32 input  -60.11 | X-H torsion
[ 7974 7965 7964 7962 ] final -155.96 input  175.53 | X-H torsion
[ 8008 7997 7996 7995 ] final  161.81 input   59.86 | X-H torsion
[ 10167 10162 10161 10158 ] final  175.81 input  -65.29 | X-H torsion
[ 10718 10713 10712 10709 ] final  148.72 input   66.30 | X-H torsion
[ 10763 10752 10751 10750 ] final   71.36 input  -60.55 | X-H torsion
[ 11005 11000 10999 10996 ] final -132.03 input  -57.11 | X-H torsion

> <Gold.Protein.ActiveResidues>
 VAL166  LYS551  ARG553  GLY616  TRP617  ASP618  TYR619  PRO620  LYS621  CYS622 
 ASP623  PHE694  ASN695  SER759  ASP760  ASP761  ALA762  ILE779  LEU786  VAL792 
 PHE793  MET794  SER795  GLU796  ALA797  LYS798  CYS799  TRP800  GLU811  SER814 

> <Gold.Protein.RotatedAtoms>
  151.0989  133.5258  159.2610 H   0  0  0  0  0  0  0  0  0  0  0  0  # atno 6907 bound_to 6896
  151.2097  135.0475  159.8916 H   0  0  0  0  0  0  0  0  0  0  0  0  # atno 6908 bound_to 6896
  152.5441  134.0806  159.8287 H   0  0  0  0  0  0  0  0  0  0  0  0  # atno 6909 bound_to 6896
  144.7615  140.4176  143.5973 H   0  0  0  0  0  0  0  0  0  0  0  0  # atno 7974 bound_to 7965
  156.2077  140.1767  156.7765 H   0  0  0  0  0  0  0  0  0  0  0  0  # atno 8008 bound_to 7997
  154.5677  140.0688  156.8947 H   0  0  0  0  0  0  0  0  0  0  0  0  # atno 8009 bound_to 7997
  155.2729  140.3344  155.4266 H   0  0  0  0  0  0  0  0  0  0  0  0  # atno 8010 bound_to 7997
  139.5191  144.2989  152.0397 H   0  0  0  0  0  0  0  0  0  0  0  0  # atno 10167 bound_to 10162
  157.3051  131.0878  151.1360 H   0  0  0  0  0  0  0  0  0  0  0  0  # atno 10718 bound_to 10713
  153.0395  135.5139  154.7582 H   0  0  0  0  0  0  0  0  0  0  0  0  # atno 10763 bound_to 10752
  154.6531  135.2928  154.9964 H   0  0  0  0  0  0  0  0  0  0  0  0  # atno 10764 bound_to 10752
  154.0841  135.6660  153.4895 H   0  0  0  0  0  0  0  0  0  0  0  0  # atno 10765 bound_to 10752
  140.9207  134.1448  157.4316 H   0  0  0  0  0  0  0  0  0  0  0  0  # atno 11005 bound_to 11000
  145.6604  139.1580  143.2811 LP  0  0  0  0  0  0  0  0  0  0  0  0  # atno 17320 bound_to 7965
  146.1682  140.6685  142.9245 LP  0  0  0  0  0  0  0  0  0  0  0  0  # atno 17321 bound_to 7965
  140.2437  144.4242  150.6249 LP  0  0  0  0  0  0  0  0  0  0  0  0  # atno 17342 bound_to 10162
  140.6273  143.2183  151.6570 LP  0  0  0  0  0  0  0  0  0  0  0  0  # atno 17343 bound_to 10162
  157.2704  130.6701  149.6017 LP  0  0  0  0  0  0  0  0  0  0  0  0  # atno 17370 bound_to 10713
  155.9674  130.4481  150.5605 LP  0  0  0  0  0  0  0  0  0  0  0  0  # atno 17371 bound_to 10713
  139.8775  134.9970  156.5824 LP  0  0  0  0  0  0  0  0  0  0  0  0  # atno 17394 bound_to 11000
  140.7992  133.8519  155.8712 LP  0  0  0  0  0  0  0  0  0  0  0  0  # atno 17395 bound_to 11000

$$$$
