AV-unprocessed.smi:310|AV-procd|sdf|2296|dock7
  -GOLD-   2262022193D 1   1.00000     0.00000
 Structure written by MMmdl.
 40 42  0  0  0  0  0  0  0  0  2 V2000
  146.8188  134.2482  162.7938 C   0  0  0  0  0  0  0  0  0  0  0  0
  147.3283  135.1562  161.7272 C   0  0  0  0  0  0  0  0  0  0  0  0
  147.7493  134.9370  160.4464 C   0  0  0  0  0  0  0  0  0  0  0  0
  148.1063  136.2369  159.9944 C   0  0  0  0  0  0  0  0  0  0  0  0
  148.5744  136.5477  158.7758 N   0  5  0  0  0  0  0  0  0  0  0  0
  149.7799  137.1481  158.6424 C   0  0  0  0  0  0  0  0  0  0  0  0
  150.8781  136.6443  158.8901 O   0  0  0  0  0  0  0  0  0  0  0  0
  149.7082  138.4105  158.1949 N   0  0  0  0  0  0  0  0  0  0  0  0
  150.8391  139.3035  157.9564 C   0  0  0  0  0  0  0  0  0  0  0  0
  151.7497  139.3773  159.2045 C   0  0  0  0  0  0  0  0  0  0  0  0
  152.8248  140.4656  159.0412 C   0  0  0  0  0  0  0  0  0  0  0  0
  152.1628  141.7491  158.7698 N   0  0  0  0  0  0  0  0  0  0  0  0
  152.0960  142.8088  159.6143 C   0  0  0  0  0  0  0  0  0  0  0  0
  152.5486  142.7628  160.7595 O   0  0  0  0  0  0  0  0  0  0  0  0
  151.4666  144.0643  159.0891 C   0  0  0  0  0  0  0  0  0  0  0  0
  152.1355  144.7767  157.9267 C   0  0  0  0  0  0  0  0  0  0  0  0
  152.2238  145.3559  159.3144 C   0  0  0  0  0  0  0  0  0  0  0  0
  151.4704  141.7242  157.4757 C   0  0  0  0  0  0  0  0  0  0  0  0
  150.3219  140.7012  157.5526 C   0  0  0  0  0  0  0  0  0  0  0  0
  147.9038  137.1652  160.9144 N   0  0  0  0  0  0  0  0  0  0  0  0
  147.4112  136.4794  162.0312 O   0  0  0  0  0  0  0  0  0  0  0  0
  145.9135  133.7384  162.4648 H   0  0  0  0  0  0  0  0  0  0  0  0
  146.5835  134.8016  163.7032 H   0  0  0  0  0  0  0  0  0  0  0  0
  147.5627  133.4912  163.0422 H   0  0  0  0  0  0  0  0  0  0  0  0
  147.7993  133.9972  159.9175 H   0  0  0  0  0  0  0  0  0  0  0  0
  148.7883  138.7806  158.0055 H   0  0  0  0  0  0  0  0  0  0  0  0
  151.4282  138.9190  157.1215 H   0  0  0  0  0  0  0  0  0  0  0  0
  151.1503  139.5939  160.0900 H   0  0  0  0  0  0  0  0  0  0  0  0
  152.2248  138.4119  159.3818 H   0  0  0  0  0  0  0  0  0  0  0  0
  153.4846  140.4837  159.9075 H   0  0  0  0  0  0  0  0  0  0  0  0
  153.4734  140.2157  158.2004 H   0  0  0  0  0  0  0  0  0  0  0  0
  150.3790  144.1071  159.0975 H   0  0  0  0  0  0  0  0  0  0  0  0
  153.0506  144.3665  157.5034 H   0  0  0  0  0  0  0  0  0  0  0  0
  151.4818  145.2688  157.2098 H   0  0  0  0  0  0  0  0  0  0  0  0
  151.6329  146.2413  159.5390 H   0  0  0  0  0  0  0  0  0  0  0  0
  153.1882  145.3048  159.8172 H   0  0  0  0  0  0  0  0  0  0  0  0
  151.0763  142.6984  157.1840 H   0  0  0  0  0  0  0  0  0  0  0  0
  152.1733  141.4419  156.6905 H   0  0  0  0  0  0  0  0  0  0  0  0
  149.8063  140.6468  156.5934 H   0  0  0  0  0  0  0  0  0  0  0  0
  149.5857  141.0475  158.2801 H   0  0  0  0  0  0  0  0  0  0  0  0
  1  2  1  0  0  0  0
  1 22  1  0  0  0  0
  1 23  1  0  0  0  0
  1 24  1  0  0  0  0
  2 21  1  0  0  0  0
  2  3  2  0  0  0  0
  3  4  1  0  0  0  0
  3 25  1  0  0  0  0
  4  5  1  0  0  0  0
  4 20  2  0  0  0  0
  5  6  1  0  0  0  0
  6  7  2  0  0  0  0
  6  8  1  0  0  0  0
  8  9  1  0  0  0  0
  8 26  1  0  0  0  0
  9 19  1  0  0  0  0
  9 10  1  0  0  0  0
  9 27  1  0  0  0  0
 10 11  1  0  0  0  0
 10 28  1  0  0  0  0
 10 29  1  0  0  0  0
 11 12  1  0  0  0  0
 11 30  1  0  0  0  0
 11 31  1  0  0  0  0
 12 13  1  0  0  0  0
 12 18  1  0  0  0  0
 13 14  2  0  0  0  0
 13 15  1  0  0  0  0
 15 17  1  0  0  0  0
 15 16  1  0  0  0  0
 15 32  1  0  0  0  0
 16 17  1  0  0  0  0
 16 33  1  0  0  0  0
 16 34  1  0  0  0  0
 17 35  1  0  0  0  0
 17 36  1  0  0  0  0
 18 19  1  0  0  0  0
 18 37  1  0  0  0  0
 18 38  1  0  0  0  0
 19 39  1  0  0  0  0
 19 40  1  0  0  0  0
 20 21  1  0  0  0  0
M  CHG  1   5  -1
M  END
> <s_m_source_file>
AV-unprocessed.smi

> <i_m_source_file_index>
310

> <i_lp_mmshare_version>
43012

> <i_f3d_flags>
0

> <s_epik_input>
W0NIM11jMVtjSF1jKG5vMSlbTkhdQyg9TylbTkhdW0NIXTJbQ0gyXVtDSDJdTihbQ0gyXVtDSDJdMilDKD1PKVtDSF0zW0NIMl1bQ0gyXTM=

> <s_epik_cmdline>
J2VwaWtfcHl0aG9uJywgJy1waCcsICc3LjAnLCAnLXRuJywgJzgnLCAnLW1hJywgJzIwMCcsICctbWV0YWxfYmluZGluZycsICctaW1hZScsICc8aW5maWxlLm1hZT4nLCAnLW9tYWUnLCAnPG91dGZpbGUubWFlPic=

> <r_lp_tautomer_probability>
1

> <r_epik_Ionization_Penalty>
6.54503

> <r_epik_Ionization_Penalty_Charging>
6.5449

> <r_epik_Ionization_Penalty_Neutral>
0.000132868

> <r_epik_State_Penalty>
6.54489

> <r_epik_Charging_Adjusted_Penalty>
13.0898

> <i_epik_Tot_Q>
-1

> <i_epik_Tot_abs_Q>
1

> <r_epik_Metal_State_Penalty>
2.47073

> <b_epik_Metal_Only>
1

> <s_lp_Force_Field>
OPLS_2005

> <r_lp_Energy>
23.2172

> <b_lp_Chiralities_Consistent>
1

> <s_lp_Variant>
AV-unprocessed.smi:310-2

> <Gold.Version>
5.8.1

> <Gold.Id.Protein>
6NUR|6NUR_protein|mol2

> <Gold.PLP.Fitness>
46.5000

> <Gold.PLP.PLP>
-41.7117

> <Gold.PLP.part.hbond>
-3.0000

> <Gold.PLP.part.metal>
0.0000

> <Gold.PLP.part.buried>
-7.0115

> <Gold.PLP.part.nonpolar>
-32.0769

> <Gold.PLP.part.repulsive>
0.1546

> <Gold.PLP.ligand.clash>
0.0000

> <Gold.PLP.ligand.torsion>
1.4145

> <Gold.PLP.Chemscore.Hbond>
2.4960

> <Gold.PLP.Chemscore.CHOScore>
0.0000

> <Gold.PLP.Chemscore.Metal>
0.0000

> <Gold.Chemscore.Hbonds>
donor molecule, donor type, donor heavy atom, donor atom, acceptor molecule, acceptor atom, score
      P1  H  6896  6909       L1     7  1.00
      P1  H  6931  6943       L1    20  0.68
      P1  H  6934  6947       L1    20  0.80

> <Gold.PLP.Chemscore.Internal.Correction>
0.1293

> <Gold.Rescore>
     Score         DG    S(hbond)    S(metal)    S(lipo)     H(rot)  DE(clash)    DE(int)     intcor
     17.88     -20.55       2.41        0.00      87.21       1.25       0.12       2.54       ----

> <Gold.Chemscore.Fitness>
17.8814

> <Gold.Chemscore.DG>
-20.5457

> <Gold.Chemscore.ZeroCoef>
-5.4800

> <Gold.Chemscore.Hbond>
2.4131

> <Gold.Chemscore.Metal>
0.0000

> <Gold.Chemscore.Lipo>
87.2130

> <Gold.Chemscore.Internal_Hbond>
0.0000

> <Gold.Chemscore.DEClash>
0.1220

> <Gold.Chemscore.DEInternal>
2.5423

> <Gold.Chemscore.Rot>
1.2493

> <Gold.Chemscore.Internal.Correction>
   9.000000E+99

> <Gold.Chemscore.Hbonds>
donor molecule, donor type, donor heavy atom, donor atom, acceptor molecule, acceptor atom, score
      P1  H  6896  6909       L1     7  0.95
      P1  H  6931  6943       L1    20  0.08
      P1  H  6934  6947       L1    20  0.54

> <Gold.Chemscore.Hbond.Weighted>
-8.0599

> <Gold.Chemscore.Metal.Weighted>
-0.0000

> <Gold.Chemscore.Lipo.Weighted>
-10.2039

> <Gold.Chemscore.Internal_Hbond.Weighted>
0.0000

> <Gold.Chemscore.DEClash.Weighted>
0.1220

> <Gold.Chemscore.DEInternal.Weighted>
2.5423

> <Gold.Chemscore.Rot.Weighted>
3.1981

> <Gold.Chemscore.Internal.Correction.Weighted>
   9.000000E+99

> <Gold.Protein.RotatedTorsions>
[ 6907 6896 6895 6894 ] final   91.52 input  -60.11 | X-H torsion
[ 7974 7965 7964 7962 ] final -112.52 input  175.53 | X-H torsion
[ 8008 7997 7996 7995 ] final -178.20 input   59.86 | X-H torsion
[ 10167 10162 10161 10158 ] final  -11.87 input  -65.29 | X-H torsion
[ 10718 10713 10712 10709 ] final   93.25 input   66.30 | X-H torsion
[ 10763 10752 10751 10750 ] final -152.13 input  -60.55 | X-H torsion
[ 11005 11000 10999 10996 ] final -118.01 input  -57.11 | X-H torsion

> <Gold.Protein.ActiveResidues>
 VAL166  LYS551  ARG553  GLY616  TRP617  ASP618  TYR619  PRO620  LYS621  CYS622 
 ASP623  PHE694  ASN695  SER759  ASP760  ASP761  ALA762  ILE779  LEU786  VAL792 
 PHE793  MET794  SER795  GLU796  ALA797  LYS798  CYS799  TRP800  GLU811  SER814 

> <Gold.Protein.RotatedAtoms>
  152.5450  134.1644  159.8570 H   0  0  0  0  0  0  0  0  0  0  0  0  # atno 6907 bound_to 6896
  151.1659  133.4808  159.2601 H   0  0  0  0  0  0  0  0  0  0  0  0  # atno 6908 bound_to 6896
  151.1325  135.0148  159.8644 H   0  0  0  0  0  0  0  0  0  0  0  0  # atno 6909 bound_to 6896
  145.1430  140.8788  143.3691 H   0  0  0  0  0  0  0  0  0  0  0  0  # atno 7974 bound_to 7965
  156.0160  140.1251  157.0406 H   0  0  0  0  0  0  0  0  0  0  0  0  # atno 8008 bound_to 7997
  154.4293  140.1078  156.5966 H   0  0  0  0  0  0  0  0  0  0  0  0  # atno 8009 bound_to 7997
  155.6012  140.3470  155.4597 H   0  0  0  0  0  0  0  0  0  0  0  0  # atno 8010 bound_to 7997
  140.7148  143.5593  150.9214 H   0  0  0  0  0  0  0  0  0  0  0  0  # atno 10167 bound_to 10162
  157.6955  131.0472  150.4006 H   0  0  0  0  0  0  0  0  0  0  0  0  # atno 10718 bound_to 10713
  154.8013  135.3243  154.7541 H   0  0  0  0  0  0  0  0  0  0  0  0  # atno 10763 bound_to 10752
  153.8209  135.6887  153.4832 H   0  0  0  0  0  0  0  0  0  0  0  0  # atno 10764 bound_to 10752
  153.1732  135.4615  154.9874 H   0  0  0  0  0  0  0  0  0  0  0  0  # atno 10765 bound_to 10752
  141.0316  133.9973  157.3135 H   0  0  0  0  0  0  0  0  0  0  0  0  # atno 11005 bound_to 11000
  145.0512  139.3180  143.5927 LP  0  0  0  0  0  0  0  0  0  0  0  0  # atno 17320 bound_to 7965
  146.3503  139.9921  142.8684 LP  0  0  0  0  0  0  0  0  0  0  0  0  # atno 17321 bound_to 7965
  139.9318  143.6484  152.3074 LP  0  0  0  0  0  0  0  0  0  0  0  0  # atno 17342 bound_to 10162
  139.6938  144.7644  151.1392 LP  0  0  0  0  0  0  0  0  0  0  0  0  # atno 17343 bound_to 10162
  156.4399  130.3989  149.6704 LP  0  0  0  0  0  0  0  0  0  0  0  0  # atno 17370 bound_to 10713
  156.3891  130.7618  151.2617 LP  0  0  0  0  0  0  0  0  0  0  0  0  # atno 17371 bound_to 10713
  139.9211  135.0200  156.8068 LP  0  0  0  0  0  0  0  0  0  0  0  0  # atno 17394 bound_to 11000
  140.6397  133.9829  155.7701 LP  0  0  0  0  0  0  0  0  0  0  0  0  # atno 17395 bound_to 11000

$$$$
