AV-unprocessed.smi:1634|AV-procd|sdf|6538|dock1
  -GOLD-   22720 7223D 1   1.00000     0.00000
 Structure written by MMmdl.
 37 37  0  0  0  0  0  0  0  0  2 V2000
  146.9558  140.5660  153.4356 C   0  0  0  0  0  0  0  0  0  0  0  0
  147.3360  139.1522  152.9716 C   0  0  0  0  0  0  0  0  0  0  0  0
  146.3528  138.6449  151.9049 C   0  0  0  0  0  0  0  0  0  0  0  0
  147.4212  138.1861  154.1640 C   0  0  0  0  0  0  0  0  0  0  0  0
  148.3538  138.6928  155.1132 O   0  0  0  0  0  0  0  0  0  0  0  0
  149.6069  139.1122  154.5789 C   0  0  2  0  0  0  0  0  0  0  0  0
  150.5182  137.8777  154.5119 C   0  0  0  0  0  0  0  0  0  0  0  0
  150.2203  140.2136  155.4587 C   0  0  0  0  0  0  0  0  0  0  0  0
  151.3973  140.5328  155.2923 O   0  0  0  0  0  0  0  0  0  0  0  0
  149.3936  140.7300  156.3894 N   0  0  0  0  0  0  0  0  0  0  0  0
  149.6265  141.7256  157.3539 C   0  0  0  0  0  0  0  0  0  0  0  0
  150.7614  142.4727  157.4514 C   0  0  0  0  0  0  0  0  0  0  0  0
  150.9348  143.4948  158.4766 C   0  0  0  0  0  0  0  0  0  0  0  0
  152.1881  144.3336  158.6468 C   0  0  0  0  0  0  0  0  0  0  0  0
  153.2241  143.5541  158.9547 F   0  0  0  0  0  0  0  0  0  0  0  0
  152.4751  144.9712  157.5121 F   0  0  0  0  0  0  0  0  0  0  0  0
  152.0415  145.2397  159.6137 F   0  0  0  0  0  0  0  0  0  0  0  0
  149.8327  143.6062  159.3003 C   0  0  0  0  0  0  0  0  0  0  0  0
  148.6706  142.9187  159.2640 N   0  5  0  0  0  0  0  0  0  0  0  0
  148.5200  141.9620  158.3050 C   0  0  0  0  0  0  0  0  0  0  0  0
  147.4872  141.2969  158.2165 O   0  0  0  0  0  0  0  0  0  0  0  0
  145.9717  140.5769  153.9057 H   0  0  0  0  0  0  0  0  0  0  0  0
  146.9322  141.2629  152.5971 H   0  0  0  0  0  0  0  0  0  0  0  0
  147.6746  140.9495  154.1604 H   0  0  0  0  0  0  0  0  0  0  0  0
  148.3255  139.2112  152.5165 H   0  0  0  0  0  0  0  0  0  0  0  0
  145.3426  138.5595  152.3064 H   0  0  0  0  0  0  0  0  0  0  0  0
  146.6446  137.6631  151.5309 H   0  0  0  0  0  0  0  0  0  0  0  0
  146.3156  139.3213  151.0507 H   0  0  0  0  0  0  0  0  0  0  0  0
  146.4431  138.0942  154.6384 H   0  0  0  0  0  0  0  0  0  0  0  0
  147.7064  137.1932  153.8137 H   0  0  0  0  0  0  0  0  0  0  0  0
  149.4612  139.4837  153.5624 H   0  0  0  0  0  0  0  0  0  0  0  0
  151.5071  138.1356  154.1311 H   0  0  0  0  0  0  0  0  0  0  0  0
  150.0967  137.1233  153.8474 H   0  0  0  0  0  0  0  0  0  0  0  0
  150.6451  137.4179  155.4929 H   0  0  0  0  0  0  0  0  0  0  0  0
  148.4700  140.3240  156.4341 H   0  0  0  0  0  0  0  0  0  0  0  0
  151.5740  142.3400  156.7576 H   0  0  0  0  0  0  0  0  0  0  0  0
  149.8982  144.3619  160.1122 H   0  0  0  0  0  0  0  0  0  0  0  0
  1  2  1  0  0  0  0
  1 22  1  0  0  0  0
  1 23  1  0  0  0  0
  1 24  1  0  0  0  0
  2  3  1  0  0  0  0
  2  4  1  0  0  0  0
  2 25  1  0  0  0  0
  3 26  1  0  0  0  0
  3 27  1  0  0  0  0
  3 28  1  0  0  0  0
  4  5  1  0  0  0  0
  4 29  1  0  0  0  0
  4 30  1  0  0  0  0
  5  6  1  0  0  0  0
  6  7  1  0  0  0  0
  6  8  1  0  0  0  0
  6 31  1  0  0  0  0
  7 32  1  0  0  0  0
  7 33  1  0  0  0  0
  7 34  1  0  0  0  0
  8  9  2  0  0  0  0
  8 10  1  0  0  0  0
 10 11  1  0  0  0  0
 10 35  1  0  0  0  0
 11 20  1  0  0  0  0
 11 12  2  0  0  0  0
 12 13  1  0  0  0  0
 12 36  1  0  0  0  0
 13 14  1  0  0  0  0
 13 18  2  0  0  0  0
 14 15  1  0  0  0  0
 14 16  1  0  0  0  0
 14 17  1  0  0  0  0
 18 19  1  0  0  0  0
 18 37  1  0  0  0  0
 19 20  1  0  0  0  0
 20 21  2  0  0  0  0
M  CHG  1  19  -1
M  END
> <s_m_source_file>
AV-unprocessed.smi

> <i_m_source_file_index>
1634

> <i_lp_mmshare_version>
43012

> <i_f3d_flags>
0

> <s_epik_input>
W0NIM11bQ0hdKFtDSDNdKVtDSDJdT1tDQEhdKFtDSDNdKUMoPU8pW05IXWMxW2NIXWMoQyhGKShGKUYpW2NIXVtuSF1jMT1P

> <s_epik_cmdline>
J2VwaWtfcHl0aG9uJywgJy1waCcsICc3LjAnLCAnLXRuJywgJzgnLCAnLW1hJywgJzIwMCcsICctbWV0YWxfYmluZGluZycsICctaW1hZScsICc8aW5maWxlLm1hZT4nLCAnLW9tYWUnLCAnPG91dGZpbGUubWFlPic=

> <r_epik_Ionization_Penalty>
2.55349

> <r_epik_Ionization_Penalty_Charging>
0.0582825

> <r_epik_Ionization_Penalty_Neutral>
2.49521

> <r_epik_State_Penalty>
2.65983

> <r_epik_Charging_Adjusted_Penalty>
2.71812

> <i_epik_Tot_Q>
-1

> <i_epik_Tot_abs_Q>
1

> <r_epik_Metal_State_Penalty>
0.516727

> <b_epik_Metal_Only>
0

> <s_lp_Force_Field>
OPLS_2005

> <r_lp_Energy>
22.0513

> <b_lp_Chiralities_Consistent>
1

> <s_lp_Variant>
AV-unprocessed.smi:1634-3

> <Gold.Version>
5.8.1

> <Gold.Id.Protein>
6NUR|6NUR_protein|mol2

> <Gold.PLP.Fitness>
44.2906

> <Gold.PLP.PLP>
-42.3111

> <Gold.PLP.part.hbond>
-2.5197

> <Gold.PLP.part.metal>
0.0000

> <Gold.PLP.part.buried>
-3.7532

> <Gold.PLP.part.nonpolar>
-38.4968

> <Gold.PLP.part.repulsive>
0.3073

> <Gold.PLP.ligand.clash>
0.0000

> <Gold.PLP.ligand.torsion>
0.6621

> <Gold.PLP.Chemscore.Hbond>
1.0586

> <Gold.PLP.Chemscore.CHOScore>
0.0000

> <Gold.PLP.Chemscore.Metal>
0.0000

> <Gold.Chemscore.Hbonds>
donor molecule, donor type, donor heavy atom, donor atom, acceptor molecule, acceptor atom, score
      P1  H  6933  6944       L1    19  0.35
      P1  H  7989  7998       L1     9  0.86

> <Gold.PLP.Chemscore.Internal.Correction>
0.1278

> <Gold.Rescore>
     Score         DG    S(hbond)    S(metal)    S(lipo)     H(rot)  DE(clash)    DE(int)     intcor
     11.41     -13.51       0.89        0.00      81.68       1.75       0.45       1.65       ----

> <Gold.Chemscore.Fitness>
11.4103

> <Gold.Chemscore.DG>
-13.5087

> <Gold.Chemscore.ZeroCoef>
-5.4800

> <Gold.Chemscore.Hbond>
0.8868

> <Gold.Chemscore.Metal>
0.0000

> <Gold.Chemscore.Lipo>
81.6812

> <Gold.Chemscore.Internal_Hbond>
0.0000

> <Gold.Chemscore.DEClash>
0.4496

> <Gold.Chemscore.DEInternal>
1.6489

> <Gold.Chemscore.Rot>
1.7538

> <Gold.Chemscore.Internal.Correction>
   9.000000E+99

> <Gold.Chemscore.Hbonds>
donor molecule, donor type, donor heavy atom, donor atom, acceptor molecule, acceptor atom, score
      P1  H  6933  6944       L1    19  0.04
      P1  H  7989  7998       L1     9  0.55

> <Gold.Chemscore.Hbond.Weighted>
-2.9618

> <Gold.Chemscore.Metal.Weighted>
-0.0000

> <Gold.Chemscore.Lipo.Weighted>
-9.5567

> <Gold.Chemscore.Internal_Hbond.Weighted>
0.0000

> <Gold.Chemscore.DEClash.Weighted>
0.4496

> <Gold.Chemscore.DEInternal.Weighted>
1.6489

> <Gold.Chemscore.Rot.Weighted>
4.4898

> <Gold.Chemscore.Internal.Correction.Weighted>
   9.000000E+99

> <Gold.Protein.RotatedTorsions>
[ 6907 6896 6895 6894 ] final  -89.46 input  -60.11 | X-H torsion
[ 7974 7965 7964 7962 ] final   -2.22 input  175.53 | X-H torsion
[ 8008 7997 7996 7995 ] final  123.39 input   59.86 | X-H torsion
[ 10167 10162 10161 10158 ] final -156.78 input  -65.29 | X-H torsion
[ 10718 10713 10712 10709 ] final  140.86 input   66.30 | X-H torsion
[ 10763 10752 10751 10750 ] final  -18.47 input  -60.55 | X-H torsion
[ 11005 11000 10999 10996 ] final   63.83 input  -57.11 | X-H torsion

> <Gold.Protein.ActiveResidues>
 VAL166  LYS551  ARG553  GLY616  TRP617  ASP618  TYR619  PRO620  LYS621  CYS622 
 ASP623  PHE694  ASN695  SER759  ASP760  ASP761  ALA762  ILE779  LEU786  VAL792 
 PHE793  MET794  SER795  GLU796  ALA797  LYS798  CYS799  TRP800  GLU811  SER814 

> <Gold.Protein.RotatedAtoms>
  150.6874  134.2583  159.4538 H   0  0  0  0  0  0  0  0  0  0  0  0  # atno 6907 bound_to 6896
  152.0515  134.9648  160.0584 H   0  0  0  0  0  0  0  0  0  0  0  0  # atno 6908 bound_to 6896
  152.1110  133.4266  159.4668 H   0  0  0  0  0  0  0  0  0  0  0  0  # atno 6909 bound_to 6896
  146.2407  140.1538  142.8333 H   0  0  0  0  0  0  0  0  0  0  0  0  # atno 7974 bound_to 7965
  156.2764  140.2764  156.1620 H   0  0  0  0  0  0  0  0  0  0  0  0  # atno 8008 bound_to 7997
  155.0744  140.0387  157.2636 H   0  0  0  0  0  0  0  0  0  0  0  0  # atno 8009 bound_to 7997
  154.7014  140.2650  155.6721 H   0  0  0  0  0  0  0  0  0  0  0  0  # atno 8010 bound_to 7997
  139.6823  143.9561  152.2343 H   0  0  0  0  0  0  0  0  0  0  0  0  # atno 10167 bound_to 10162
  157.3986  131.1014  151.0575 H   0  0  0  0  0  0  0  0  0  0  0  0  # atno 10718 bound_to 10713
  153.5898  135.7002  153.5428 H   0  0  0  0  0  0  0  0  0  0  0  0  # atno 10763 bound_to 10752
  153.3188  135.4080  155.1399 H   0  0  0  0  0  0  0  0  0  0  0  0  # atno 10764 bound_to 10752
  154.8602  135.3690  154.5429 H   0  0  0  0  0  0  0  0  0  0  0  0  # atno 10765 bound_to 10752
  139.9999  134.6459  155.9948 H   0  0  0  0  0  0  0  0  0  0  0  0  # atno 11005 bound_to 11000
  145.0146  140.8742  143.5204 LP  0  0  0  0  0  0  0  0  0  0  0  0  # atno 17320 bound_to 7965
  145.1577  139.2477  143.5408 LP  0  0  0  0  0  0  0  0  0  0  0  0  # atno 17321 bound_to 7965
  139.9354  144.6715  150.8320 LP  0  0  0  0  0  0  0  0  0  0  0  0  # atno 17342 bound_to 10162
  140.7656  143.3280  151.2473 LP  0  0  0  0  0  0  0  0  0  0  0  0  # atno 17343 bound_to 10162
  157.1582  130.6214  149.5603 LP  0  0  0  0  0  0  0  0  0  0  0  0  # atno 17370 bound_to 10713
  155.9817  130.4826  150.6841 LP  0  0  0  0  0  0  0  0  0  0  0  0  # atno 17371 bound_to 10713
  141.1633  133.6538  156.4394 LP  0  0  0  0  0  0  0  0  0  0  0  0  # atno 17394 bound_to 11000
  140.4748  134.6719  157.5145 LP  0  0  0  0  0  0  0  0  0  0  0  0  # atno 17395 bound_to 11000

$$$$
