AV-unprocessed.smi:1225|AV-procd|sdf|5140|dock4
  -GOLD-   22720 4203D 1   1.00000     0.00000
 Structure written by MMmdl.
 49 51  0  0  0  0  0  0  0  0  2 V2000
  152.7346  130.1283  164.8150 C   0  0  0  0  0  0  0  0  0  0  0  0
  153.4194  131.4347  164.6025 C   0  0  0  0  0  0  0  0  0  0  0  0
  153.6353  132.3200  165.5777 N   0  0  0  0  0  0  0  0  0  0  0  0
  154.2987  133.4622  165.1251 C   0  0  0  0  0  0  0  0  0  0  0  0
  154.5818  133.4439  163.7814 C   0  0  0  0  0  0  0  0  0  0  0  0
  155.2788  134.4985  162.9825 C   0  0  0  0  0  0  0  0  0  0  0  0
  154.4788  135.7423  162.8505 N   0  3  1  0  0  0  0  0  0  0  0  0
  154.3136  136.4217  164.1573 C   0  0  0  0  0  0  0  0  0  0  0  0
  154.9783  136.6507  161.7824 C   0  0  0  0  0  0  0  0  0  0  0  0
  153.8669  137.5317  161.1795 C   0  0  2  0  0  0  0  0  0  0  0  0
  153.0462  136.7295  160.3518 O   0  0  0  0  0  0  0  0  0  0  0  0
  154.4490  138.6873  160.3440 C   0  0  0  0  0  0  0  0  0  0  0  0
  154.2021  139.9836  160.9483 N   0  0  0  0  0  0  0  0  0  0  0  0
  154.7204  140.4637  162.0955 C   0  0  0  0  0  0  0  0  0  0  0  0
  154.3538  141.6884  162.4623 N   0  0  0  0  0  0  0  0  0  0  0  0
  153.4916  142.0413  161.4381 C   0  0  0  0  0  0  0  0  0  0  0  0
  152.7529  143.2259  161.2266 C   0  0  0  0  0  0  0  0  0  0  0  0
  151.9211  143.3685  160.0929 C   0  0  0  0  0  0  0  0  0  0  0  0
  151.1413  144.6580  159.9064 C   0  0  0  0  0  0  0  0  0  0  0  0
  151.8215  142.3164  159.1472 C   0  0  0  0  0  0  0  0  0  0  0  0
  150.9334  142.4467  157.9225 C   0  0  0  0  0  0  0  0  0  0  0  0
  152.5540  141.1269  159.3424 C   0  0  0  0  0  0  0  0  0  0  0  0
  153.3757  140.9964  160.4755 C   0  0  0  0  0  0  0  0  0  0  0  0
  154.0314  131.9625  163.0400 S   0  0  0  0  0  0  0  0  0  0  0  0
  151.9225  130.2385  165.5341 H   0  0  0  0  0  0  0  0  0  0  0  0
  153.4438  129.3931  165.1956 H   0  0  0  0  0  0  0  0  0  0  0  0
  152.3201  129.7621  163.8756 H   0  0  0  0  0  0  0  0  0  0  0  0
  154.5277  134.2470  165.8310 H   0  0  0  0  0  0  0  0  0  0  0  0
  156.2251  134.7266  163.4751 H   0  0  0  0  0  0  0  0  0  0  0  0
  155.5337  134.1226  161.9905 H   0  0  0  0  0  0  0  0  0  0  0  0
  155.2717  136.7826  164.5335 H   0  0  0  0  0  0  0  0  0  0  0  0
  153.8956  135.7378  164.8968 H   0  0  0  0  0  0  0  0  0  0  0  0
  153.6322  137.2685  164.0889 H   0  0  0  0  0  0  0  0  0  0  0  0
  155.7803  137.2707  162.1859 H   0  0  0  0  0  0  0  0  0  0  0  0
  155.4256  136.0753  160.9719 H   0  0  0  0  0  0  0  0  0  0  0  0
  153.2464  137.9539  161.9693 H   0  0  0  0  0  0  0  0  0  0  0  0
  152.9248  137.1753  159.5266 H   0  0  0  0  0  0  0  0  0  0  0  0
  155.5276  138.5672  160.2349 H   0  0  0  0  0  0  0  0  0  0  0  0
  154.0318  138.6829  159.3356 H   0  0  0  0  0  0  0  0  0  0  0  0
  155.4085  139.8835  162.6929 H   0  0  0  0  0  0  0  0  0  0  0  0
  152.8292  144.0274  161.9466 H   0  0  0  0  0  0  0  0  0  0  0  0
  151.4462  145.1584  158.9870 H   0  0  0  0  0  0  0  0  0  0  0  0
  151.3069  145.3479  160.7344 H   0  0  0  0  0  0  0  0  0  0  0  0
  150.0720  144.4535  159.8513 H   0  0  0  0  0  0  0  0  0  0  0  0
  150.9873  141.5567  157.2950 H   0  0  0  0  0  0  0  0  0  0  0  0
  151.2384  143.3011  157.3180 H   0  0  0  0  0  0  0  0  0  0  0  0
  149.8932  142.5849  158.2184 H   0  0  0  0  0  0  0  0  0  0  0  0
  152.4867  140.3175  158.6308 H   0  0  0  0  0  0  0  0  0  0  0  0
  153.5568  135.4475  162.5609 H   0  0  0  0  0  0  0  0  0  0  0  0
  1  2  1  0  0  0  0
  1 25  1  0  0  0  0
  1 26  1  0  0  0  0
  1 27  1  0  0  0  0
  2 24  1  0  0  0  0
  2  3  2  0  0  0  0
  3  4  1  0  0  0  0
  4  5  2  0  0  0  0
  4 28  1  0  0  0  0
  5  6  1  0  0  0  0
  5 24  1  0  0  0  0
  6  7  1  0  0  0  0
  6 29  1  0  0  0  0
  6 30  1  0  0  0  0
  7  8  1  0  0  0  0
  7  9  1  0  0  0  0
  7 49  1  0  0  0  0
  8 31  1  0  0  0  0
  8 32  1  0  0  0  0
  8 33  1  0  0  0  0
  9 10  1  0  0  0  0
  9 34  1  0  0  0  0
  9 35  1  0  0  0  0
 10 11  1  0  0  0  0
 10 12  1  0  0  0  0
 10 36  1  0  0  0  0
 11 37  1  0  0  0  0
 12 13  1  0  0  0  0
 12 38  1  0  0  0  0
 12 39  1  0  0  0  0
 13 23  1  0  0  0  0
 13 14  1  0  0  0  0
 14 15  2  0  0  0  0
 14 40  1  0  0  0  0
 15 16  1  0  0  0  0
 16 23  2  0  0  0  0
 16 17  1  0  0  0  0
 17 18  2  0  0  0  0
 17 41  1  0  0  0  0
 18 19  1  0  0  0  0
 18 20  1  0  0  0  0
 19 42  1  0  0  0  0
 19 43  1  0  0  0  0
 19 44  1  0  0  0  0
 20 21  1  0  0  0  0
 20 22  2  0  0  0  0
 21 45  1  0  0  0  0
 21 46  1  0  0  0  0
 21 47  1  0  0  0  0
 22 23  1  0  0  0  0
 22 48  1  0  0  0  0
M  CHG  1   7   1
M  END
> <s_m_source_file>
AV-unprocessed.smi

> <i_m_source_file_index>
1225

> <i_lp_mmshare_version>
43012

> <i_f3d_flags>
0

> <s_epik_input>
W0NIM11jMW5bY0hdYyhzMSlbQ0gyXU4oW0NIM10pW0NIMl1bQ0BIXShbT0hdKVtDSDJdbihbY0hdbjIpYyhjMjMpW2NIXWMoW0NIM10pYyhbY0hdMylbQ0gzXQ==

> <s_epik_cmdline>
J2VwaWtfcHl0aG9uJywgJy1waCcsICc3LjAnLCAnLXRuJywgJzgnLCAnLW1hJywgJzIwMCcsICctbWV0YWxfYmluZGluZycsICctaW1hZScsICc8aW5maWxlLm1hZT4nLCAnLW9tYWUnLCAnPG91dGZpbGUubWFlPic=

> <r_epik_Ionization_Penalty>
1.62543

> <r_epik_Ionization_Penalty_Charging>
1.53932

> <r_epik_Ionization_Penalty_Neutral>
0.0861152

> <r_epik_State_Penalty>
1.73127

> <r_epik_Charging_Adjusted_Penalty>
3.27059

> <i_epik_Tot_Q>
1

> <i_epik_Tot_abs_Q>
1

> <r_epik_Metal_State_Penalty>
1.71387

> <b_epik_Metal_Only>
0

> <s_lp_Force_Field>
OPLS_2005

> <r_lp_Energy>
11.3728

> <b_lp_Chiralities_Consistent>
1

> <s_lp_Variant>
AV-unprocessed.smi:1225-5

> <Gold.Version>
5.8.1

> <Gold.Id.Protein>
6NUR|6NUR_protein|mol2

> <Gold.PLP.Fitness>
54.3346

> <Gold.PLP.PLP>
-53.7108

> <Gold.PLP.part.hbond>
-1.9122

> <Gold.PLP.part.metal>
0.0000

> <Gold.PLP.part.buried>
-5.7047

> <Gold.PLP.part.nonpolar>
-46.8121

> <Gold.PLP.part.repulsive>
0.1483

> <Gold.PLP.ligand.clash>
0.0000

> <Gold.PLP.ligand.torsion>
1.2623

> <Gold.PLP.Chemscore.Hbond>
0.9588

> <Gold.PLP.Chemscore.CHOScore>
0.0000

> <Gold.PLP.Chemscore.Metal>
0.0000

> <Gold.Chemscore.Hbonds>
donor molecule, donor type, donor heavy atom, donor atom, acceptor molecule, acceptor atom, score
      P1  H  6896  6907       L1    11  1.00

> <Gold.PLP.Chemscore.Internal.Correction>
0.2721

> <Gold.Rescore>
     Score         DG    S(hbond)    S(metal)    S(lipo)     H(rot)  DE(clash)    DE(int)     intcor
     18.84     -20.34       0.88        0.00     153.96       2.37       0.25       1.25       ----

> <Gold.Chemscore.Fitness>
18.8413

> <Gold.Chemscore.DG>
-20.3418

> <Gold.Chemscore.ZeroCoef>
-5.4800

> <Gold.Chemscore.Hbond>
0.8768

> <Gold.Chemscore.Metal>
0.0000

> <Gold.Chemscore.Lipo>
153.9605

> <Gold.Chemscore.Internal_Hbond>
0.0000

> <Gold.Chemscore.DEClash>
0.2457

> <Gold.Chemscore.DEInternal>
1.2548

> <Gold.Chemscore.Rot>
2.3750

> <Gold.Chemscore.Internal.Correction>
   9.000000E+99

> <Gold.Chemscore.Hbonds>
donor molecule, donor type, donor heavy atom, donor atom, acceptor molecule, acceptor atom, score
      P1  H  6896  6907       L1    11  0.34

> <Gold.Chemscore.Hbond.Weighted>
-2.9284

> <Gold.Chemscore.Metal.Weighted>
-0.0000

> <Gold.Chemscore.Lipo.Weighted>
-18.0134

> <Gold.Chemscore.Internal_Hbond.Weighted>
0.0000

> <Gold.Chemscore.DEClash.Weighted>
0.2457

> <Gold.Chemscore.DEInternal.Weighted>
1.2548

> <Gold.Chemscore.Rot.Weighted>
6.0800

> <Gold.Chemscore.Internal.Correction.Weighted>
   9.000000E+99

> <Gold.Protein.RotatedTorsions>
[ 6907 6896 6895 6894 ] final   28.25 input  -60.11 | X-H torsion
[ 7974 7965 7964 7962 ] final  141.90 input  175.53 | X-H torsion
[ 8008 7997 7996 7995 ] final   55.64 input   59.86 | X-H torsion
[ 10167 10162 10161 10158 ] final  130.91 input  -65.29 | X-H torsion
[ 10718 10713 10712 10709 ] final -139.03 input   66.30 | X-H torsion
[ 10763 10752 10751 10750 ] final  -25.57 input  -60.55 | X-H torsion
[ 11005 11000 10999 10996 ] final   16.53 input  -57.11 | X-H torsion

> <Gold.Protein.ActiveResidues>
 VAL166  LYS551  ARG553  GLY616  TRP617  ASP618  TYR619  PRO620  LYS621  CYS622 
 ASP623  PHE694  ASN695  SER759  ASP760  ASP761  ALA762  ILE779  LEU786  VAL792 
 PHE793  MET794  SER795  GLU796  ALA797  LYS798  CYS799  TRP800  GLU811  SER814 

> <Gold.Protein.RotatedAtoms>
  152.0142  134.9859  160.0568 H   0  0  0  0  0  0  0  0  0  0  0  0  # atno 6907 bound_to 6896
  152.1399  133.4453  159.4770 H   0  0  0  0  0  0  0  0  0  0  0  0  # atno 6908 bound_to 6896
  150.6864  134.2236  159.4449 H   0  0  0  0  0  0  0  0  0  0  0  0  # atno 6909 bound_to 6896
  144.9055  139.5364  143.5733 H   0  0  0  0  0  0  0  0  0  0  0  0  # atno 7974 bound_to 7965
  155.5044  140.3475  155.4377 H   0  0  0  0  0  0  0  0  0  0  0  0  # atno 8008 bound_to 7997
  156.0892  140.1406  156.9642 H   0  0  0  0  0  0  0  0  0  0  0  0  # atno 8009 bound_to 7997
  154.4625  140.0930  156.6907 H   0  0  0  0  0  0  0  0  0  0  0  0  # atno 8010 bound_to 7997
  139.5408  144.6728  151.4631 H   0  0  0  0  0  0  0  0  0  0  0  0  # atno 10167 bound_to 10162
  156.3061  130.7455  151.1519 H   0  0  0  0  0  0  0  0  0  0  0  0  # atno 10718 bound_to 10713
  153.7019  135.6956  153.5061 H   0  0  0  0  0  0  0  0  0  0  0  0  # atno 10763 bound_to 10752
  153.2336  135.4329  155.0621 H   0  0  0  0  0  0  0  0  0  0  0  0  # atno 10764 bound_to 10752
  154.8341  135.3490  154.6558 H   0  0  0  0  0  0  0  0  0  0  0  0  # atno 10765 bound_to 10752
  140.4460  134.1272  155.7696 H   0  0  0  0  0  0  0  0  0  0  0  0  # atno 11005 bound_to 11000
  146.3131  139.7820  142.9004 LP  0  0  0  0  0  0  0  0  0  0  0  0  # atno 17320 bound_to 7965
  145.3543  141.0313  143.3321 LP  0  0  0  0  0  0  0  0  0  0  0  0  # atno 17321 bound_to 7965
  140.6637  143.8444  150.6917 LP  0  0  0  0  0  0  0  0  0  0  0  0  # atno 17342 bound_to 10162
  140.1846  143.4086  152.1908 LP  0  0  0  0  0  0  0  0  0  0  0  0  # atno 17343 bound_to 10162
  157.7380  131.0546  150.5323 LP  0  0  0  0  0  0  0  0  0  0  0  0  # atno 17370 bound_to 10713
  156.5456  130.4219  149.6132 LP  0  0  0  0  0  0  0  0  0  0  0  0  # atno 17371 bound_to 10713
  141.1685  133.8656  157.1643 LP  0  0  0  0  0  0  0  0  0  0  0  0  # atno 17394 bound_to 11000
  140.0038  135.0017  157.0247 LP  0  0  0  0  0  0  0  0  0  0  0  0  # atno 17395 bound_to 11000

$$$$
