AV-unprocessed.smi:358|AV-procd|sdf|2417|dock7
  -GOLD-   2262022353D 1   1.00000     0.00000
 Structure written by MMmdl.
 37 39  0  0  0  0  0  0  0  0  1 V2000
  149.5345  138.5551  153.1071 N   0  0  0  0  0  0  0  0  0  0  0  0
  149.2656  138.9854  154.3418 C   0  0  0  0  0  0  0  0  0  0  0  0
  149.2904  140.1790  154.6370 O   0  0  0  0  0  0  0  0  0  0  0  0
  148.9238  137.9169  155.3856 C   0  0  0  0  0  0  0  0  0  0  0  0
  150.0211  136.9793  155.5964 N   0  0  0  0  0  0  0  0  0  0  0  0
  151.3056  137.2275  155.9261 C   0  0  0  0  0  0  0  0  0  0  0  0
  151.9329  138.8524  156.1740 S   0  0  0  0  0  0  0  0  0  0  0  0
  152.5674  138.5962  157.8564 C   0  0  0  0  0  0  0  0  0  0  0  0
  153.3103  139.8022  158.4336 C   0  0  0  0  0  0  0  0  0  0  0  0
  154.4831  139.7052  158.7968 O   0  0  0  0  0  0  0  0  0  0  0  0
  152.6097  140.9441  158.4984 N   0  0  0  0  0  0  0  0  0  0  0  0
  153.0980  142.1915  158.9904 C   0  0  0  0  0  0  0  0  0  0  0  0
  153.4184  142.2860  160.4666 C   0  0  0  0  0  0  0  0  0  0  0  0
  152.2015  142.9804  159.9202 C   0  0  0  0  0  0  0  0  0  0  0  0
  152.0494  136.1272  156.0610 N   0  0  0  0  0  0  0  0  0  0  0  0
  151.1999  135.0745  155.8021 N   0  0  0  0  0  0  0  0  0  0  0  0
  150.0211  135.6325  155.5167 C   0  0  0  0  0  0  0  0  0  0  0  0
  148.7907  134.8436  155.1982 C   0  0  0  0  0  0  0  0  0  0  0  0
  148.6868  133.3768  155.5547 C   0  0  0  0  0  0  0  0  0  0  0  0
  148.7956  133.7912  154.1112 C   0  0  0  0  0  0  0  0  0  0  0  0
  149.7634  139.2224  152.3844 H   0  0  0  0  0  0  0  0  0  0  0  0
  149.5070  137.5679  152.8976 H   0  0  0  0  0  0  0  0  0  0  0  0
  148.6769  138.4023  156.3300 H   0  0  0  0  0  0  0  0  0  0  0  0
  148.0367  137.3596  155.0821 H   0  0  0  0  0  0  0  0  0  0  0  0
  151.7318  138.3562  158.5144 H   0  0  0  0  0  0  0  0  0  0  0  0
  153.2292  137.7291  157.8479 H   0  0  0  0  0  0  0  0  0  0  0  0
  151.6534  140.9282  158.1748 H   0  0  0  0  0  0  0  0  0  0  0  0
  153.7349  142.7760  158.3280 H   0  0  0  0  0  0  0  0  0  0  0  0
  153.2582  141.4018  161.0807 H   0  0  0  0  0  0  0  0  0  0  0  0
  154.2629  142.9073  160.7578 H   0  0  0  0  0  0  0  0  0  0  0  0
  152.2328  144.0654  159.8450 H   0  0  0  0  0  0  0  0  0  0  0  0
  151.2288  142.5594  160.1683 H   0  0  0  0  0  0  0  0  0  0  0  0
  147.8999  135.4584  155.3099 H   0  0  0  0  0  0  0  0  0  0  0  0
  149.5554  132.8976  156.0023 H   0  0  0  0  0  0  0  0  0  0  0  0
  147.7223  133.0122  155.9019 H   0  0  0  0  0  0  0  0  0  0  0  0
  147.9045  133.7046  153.4929 H   0  0  0  0  0  0  0  0  0  0  0  0
  149.7366  133.5848  153.6053 H   0  0  0  0  0  0  0  0  0  0  0  0
  1  2  1  0  0  0  0
  1 21  1  0  0  0  0
  1 22  1  0  0  0  0
  2  3  2  0  0  0  0
  2  4  1  0  0  0  0
  4  5  1  0  0  0  0
  4 23  1  0  0  0  0
  4 24  1  0  0  0  0
  5 17  1  0  0  0  0
  5  6  1  0  0  0  0
  6  7  1  0  0  0  0
  6 15  2  0  0  0  0
  7  8  1  0  0  0  0
  8  9  1  0  0  0  0
  8 25  1  0  0  0  0
  8 26  1  0  0  0  0
  9 10  2  0  0  0  0
  9 11  1  0  0  0  0
 11 12  1  0  0  0  0
 11 27  1  0  0  0  0
 12 14  1  0  0  0  0
 12 13  1  0  0  0  0
 12 28  1  0  0  0  0
 13 14  1  0  0  0  0
 13 29  1  0  0  0  0
 13 30  1  0  0  0  0
 14 31  1  0  0  0  0
 14 32  1  0  0  0  0
 15 16  1  0  0  0  0
 16 17  2  0  0  0  0
 17 18  1  0  0  0  0
 18 20  1  0  0  0  0
 18 19  1  0  0  0  0
 18 33  1  0  0  0  0
 19 20  1  0  0  0  0
 19 34  1  0  0  0  0
 19 35  1  0  0  0  0
 20 36  1  0  0  0  0
 20 37  1  0  0  0  0
M  END
> <s_m_source_file>
AV-unprocessed.smi

> <i_m_source_file_index>
358

> <i_lp_mmshare_version>
43012

> <i_f3d_flags>
0

> <s_epik_input>
W0NIMl0xW0NIMl1bQ0hdMWMybm5jKG4yW0NIMl1DKD1PKVtOSDJdKVNbQ0gyXUMoPU8pW05IXVtDSF0zW0NIMl1bQ0gyXTM=

> <s_epik_cmdline>
J2VwaWtfcHl0aG9uJywgJy1waCcsICc3LjAnLCAnLXRuJywgJzgnLCAnLW1hJywgJzIwMCcsICctbWV0YWxfYmluZGluZycsICctaW1hZScsICc8aW5maWxlLm1hZT4nLCAnLW9tYWUnLCAnPG91dGZpbGUubWFlPic=

> <r_lp_tautomer_probability>
1

> <r_epik_Ionization_Penalty>
5.83215e-07

> <r_epik_Ionization_Penalty_Charging>
0

> <r_epik_Ionization_Penalty_Neutral>
5.83215e-07

> <r_epik_State_Penalty>
-0

> <r_epik_Charging_Adjusted_Penalty>
0

> <i_epik_Tot_Q>
0

> <i_epik_Tot_abs_Q>
0

> <r_epik_Metal_State_Penalty>
-0

> <b_epik_Metal_Only>
0

> <s_lp_Force_Field>
OPLS_2005

> <r_lp_Energy>
18.9456

> <b_lp_Chiralities_Consistent>
1

> <s_lp_Variant>
AV-unprocessed.smi:358-1

> <Gold.Version>
5.8.1

> <Gold.Id.Protein>
6NUR|6NUR_protein|mol2

> <Gold.PLP.Fitness>
39.6295

> <Gold.PLP.PLP>
-29.2236

> <Gold.PLP.part.hbond>
-4.9172

> <Gold.PLP.part.metal>
0.0000

> <Gold.PLP.part.buried>
-2.5024

> <Gold.PLP.part.nonpolar>
-22.4087

> <Gold.PLP.part.repulsive>
0.3567

> <Gold.PLP.ligand.clash>
0.0000

> <Gold.PLP.ligand.torsion>
0.5059

> <Gold.PLP.Chemscore.Hbond>
3.7280

> <Gold.PLP.Chemscore.CHOScore>
0.0000

> <Gold.PLP.Chemscore.Metal>
0.0000

> <Gold.Chemscore.Hbonds>
donor molecule, donor type, donor heavy atom, donor atom, acceptor molecule, acceptor atom, score
      L1  H     1    21       P1  7957  0.84
      L1  H     1    22       P1  7948  0.99
      P1  H  7997  8009       L1    10  0.82
      P1  H 10752 10764       L1    15  0.65

> <Gold.PLP.Chemscore.Internal.Correction>
0.2337

> <Gold.Rescore>
     Score         DG    S(hbond)    S(metal)    S(lipo)     H(rot)  DE(clash)    DE(int)     intcor
     13.99     -14.61       3.45        0.00      51.85       3.30       0.00       0.62       ----

> <Gold.Chemscore.Fitness>
13.9875

> <Gold.Chemscore.DG>
-14.6092

> <Gold.Chemscore.ZeroCoef>
-5.4800

> <Gold.Chemscore.Hbond>
3.4451

> <Gold.Chemscore.Metal>
0.0000

> <Gold.Chemscore.Lipo>
51.8491

> <Gold.Chemscore.Internal_Hbond>
0.0000

> <Gold.Chemscore.DEClash>
0.0000

> <Gold.Chemscore.DEInternal>
0.6217

> <Gold.Chemscore.Rot>
3.2984

> <Gold.Chemscore.Internal.Correction>
   9.000000E+99

> <Gold.Chemscore.Hbonds>
donor molecule, donor type, donor heavy atom, donor atom, acceptor molecule, acceptor atom, score
      L1  H     1    21       P1  7957  0.70
      L1  H     1    22       P1  7948  0.74
      P1  H  7997  8009       L1    10  0.36
      P1  H 10752 10764       L1    15  0.06

> <Gold.Chemscore.Hbond.Weighted>
-11.5066

> <Gold.Chemscore.Metal.Weighted>
-0.0000

> <Gold.Chemscore.Lipo.Weighted>
-6.0663

> <Gold.Chemscore.Internal_Hbond.Weighted>
0.0000

> <Gold.Chemscore.DEClash.Weighted>
0.0000

> <Gold.Chemscore.DEInternal.Weighted>
0.6217

> <Gold.Chemscore.Rot.Weighted>
8.4438

> <Gold.Chemscore.Internal.Correction.Weighted>
   9.000000E+99

> <Gold.Protein.RotatedTorsions>
[ 6907 6896 6895 6894 ] final   87.75 input  -60.11 | X-H torsion
[ 7974 7965 7964 7962 ] final   36.58 input  175.53 | X-H torsion
[ 8008 7997 7996 7995 ] final  102.51 input   59.86 | X-H torsion
[ 10167 10162 10161 10158 ] final  -96.15 input  -65.29 | X-H torsion
[ 10718 10713 10712 10709 ] final    3.29 input   66.30 | X-H torsion
[ 10763 10752 10751 10750 ] final  -15.70 input  -60.55 | X-H torsion
[ 11005 11000 10999 10996 ] final   84.59 input  -57.11 | X-H torsion

> <Gold.Protein.ActiveResidues>
 VAL166  LYS551  ARG553  GLY616  TRP617  ASP618  TYR619  PRO620  LYS621  CYS622 
 ASP623  PHE694  ASN695  SER759  ASP760  ASP761  ALA762  ILE779  LEU786  VAL792 
 PHE793  MET794  SER795  GLU796  ALA797  LYS798  CYS799  TRP800  GLU811  SER814 

> <Gold.Protein.RotatedAtoms>
  152.5416  134.2227  159.8793 H   0  0  0  0  0  0  0  0  0  0  0  0  # atno 6907 bound_to 6896
  151.2203  133.4499  159.2608 H   0  0  0  0  0  0  0  0  0  0  0  0  # atno 6908 bound_to 6896
  151.0811  134.9872  159.8412 H   0  0  0  0  0  0  0  0  0  0  0  0  # atno 6909 bound_to 6896
  146.1200  139.6000  142.9296 H   0  0  0  0  0  0  0  0  0  0  0  0  # atno 7974 bound_to 7965
  156.1400  140.3180  155.8480 H   0  0  0  0  0  0  0  0  0  0  0  0  # atno 8008 bound_to 7997
  155.4172  140.0510  157.3045 H   0  0  0  0  0  0  0  0  0  0  0  0  # atno 8009 bound_to 7997
  154.4968  140.2114  155.9442 H   0  0  0  0  0  0  0  0  0  0  0  0  # atno 8010 bound_to 7997
  140.2968  143.3187  152.0289 H   0  0  0  0  0  0  0  0  0  0  0  0  # atno 10167 bound_to 10162
  156.8757  130.5636  149.5655 H   0  0  0  0  0  0  0  0  0  0  0  0  # atno 10718 bound_to 10713
  153.5474  135.7012  153.5608 H   0  0  0  0  0  0  0  0  0  0  0  0  # atno 10763 bound_to 10752
  153.3547  135.3986  155.1672 H   0  0  0  0  0  0  0  0  0  0  0  0  # atno 10764 bound_to 10752
  154.8666  135.3774  154.4982 H   0  0  0  0  0  0  0  0  0  0  0  0  # atno 10765 bound_to 10752
  139.8996  134.8227  156.2466 H   0  0  0  0  0  0  0  0  0  0  0  0  # atno 11005 bound_to 11000
  145.5485  141.0415  143.2291 LP  0  0  0  0  0  0  0  0  0  0  0  0  # atno 17320 bound_to 7965
  144.7589  139.7006  143.7243 LP  0  0  0  0  0  0  0  0  0  0  0  0  # atno 17321 bound_to 7965
  139.4924  144.6485  151.6727 LP  0  0  0  0  0  0  0  0  0  0  0  0  # atno 17342 bound_to 10162
  140.5685  144.0149  150.6204 LP  0  0  0  0  0  0  0  0  0  0  0  0  # atno 17343 bound_to 10162
  156.0703  130.5737  150.9370 LP  0  0  0  0  0  0  0  0  0  0  0  0  # atno 17370 bound_to 10713
  157.6170  131.0932  150.8693 LP  0  0  0  0  0  0  0  0  0  0  0  0  # atno 17371 bound_to 10713
  141.0251  133.7020  156.1333 LP  0  0  0  0  0  0  0  0  0  0  0  0  # atno 17394 bound_to 11000
  140.7178  134.4391  157.5577 LP  0  0  0  0  0  0  0  0  0  0  0  0  # atno 17395 bound_to 11000

$$$$
