AV-unprocessed.smi:1601|AV-procd|sdf|6436|dock6
  -GOLD-   22720 7 83D 1   1.00000     0.00000
 Structure written by MMmdl.
 42 43  0  0  0  0  0  0  0  0  2 V2000
  146.5093  142.6161  154.3674 C   0  0  0  0  0  0  0  0  0  0  0  0
  147.1155  141.3177  153.7775 C   0  0  1  0  0  0  0  0  0  0  0  0
  148.5432  141.0889  154.3424 C   0  0  0  0  0  0  0  0  0  0  0  0
  148.6886  141.5850  155.7056 N   0  0  0  0  0  0  0  0  0  0  0  0
  149.7796  141.4159  156.4675 C   0  0  0  0  0  0  0  0  0  0  0  0
  150.7915  140.8375  156.0696 O   0  0  0  0  0  0  0  0  0  0  0  0
  149.7025  141.9850  157.8932 C   0  0  2  0  0  0  0  0  0  0  0  0
  148.4601  142.8657  158.1253 C   0  0  0  0  0  0  0  0  0  0  0  0
  150.9268  142.7086  158.2124 N   0  0  0  0  0  0  0  0  0  0  0  0
  151.4233  143.8656  157.6433 C   0  0  0  0  0  0  0  0  0  0  0  0
  152.6065  144.1508  158.2617 C   0  0  0  0  0  0  0  0  0  0  0  0
  152.7569  143.0967  159.2050 C   0  0  0  0  0  0  0  0  0  0  0  0
  151.7542  142.2341  159.1701 N   0  0  0  0  0  0  0  0  0  0  0  0
  146.2186  140.1346  154.0064 N   0  3  0  0  0  0  0  0  0  0  0  0
  146.6895  138.8905  153.3340 C   0  0  0  0  0  0  0  0  0  0  0  0
  145.7313  137.7140  153.5844 C   0  0  0  0  0  0  0  0  0  0  0  0
  145.5903  137.5010  154.9794 O   0  0  0  0  0  0  0  0  0  0  0  0
  145.0183  138.6327  155.6144 C   0  0  0  0  0  0  0  0  0  0  0  0
  145.9427  139.8502  155.4435 C   0  0  0  0  0  0  0  0  0  0  0  0
  147.1809  143.4688  154.2703 H   0  0  0  0  0  0  0  0  0  0  0  0
  146.2830  142.5003  155.4277 H   0  0  0  0  0  0  0  0  0  0  0  0
  145.5964  142.9175  153.8560 H   0  0  0  0  0  0  0  0  0  0  0  0
  147.2068  141.4547  152.6986 H   0  0  0  0  0  0  0  0  0  0  0  0
  148.7890  140.0260  154.3043 H   0  0  0  0  0  0  0  0  0  0  0  0
  149.2938  141.6188  153.7574 H   0  0  0  0  0  0  0  0  0  0  0  0
  147.8992  142.0705  156.1080 H   0  0  0  0  0  0  0  0  0  0  0  0
  149.6255  141.1328  158.5715 H   0  0  0  0  0  0  0  0  0  0  0  0
  147.5416  142.3169  157.9147 H   0  0  0  0  0  0  0  0  0  0  0  0
  148.4686  143.7555  157.4943 H   0  0  0  0  0  0  0  0  0  0  0  0
  148.4095  143.1981  159.1626 H   0  0  0  0  0  0  0  0  0  0  0  0
  150.8985  144.3831  156.8535 H   0  0  0  0  0  0  0  0  0  0  0  0
  153.2650  144.9846  158.0691 H   0  0  0  0  0  0  0  0  0  0  0  0
  153.5610  142.9323  159.9073 H   0  0  0  0  0  0  0  0  0  0  0  0
  146.7554  139.0258  152.2562 H   0  0  0  0  0  0  0  0  0  0  0  0
  147.6891  138.6387  153.6913 H   0  0  0  0  0  0  0  0  0  0  0  0
  144.7571  137.8986  153.1282 H   0  0  0  0  0  0  0  0  0  0  0  0
  146.1266  136.8060  153.1293 H   0  0  0  0  0  0  0  0  0  0  0  0
  144.0269  138.8347  155.2058 H   0  0  0  0  0  0  0  0  0  0  0  0
  144.8844  138.4107  156.6734 H   0  0  0  0  0  0  0  0  0  0  0  0
  146.8833  139.6823  155.9707 H   0  0  0  0  0  0  0  0  0  0  0  0
  145.4456  140.6913  155.9227 H   0  0  0  0  0  0  0  0  0  0  0  0
  145.3288  140.3659  153.5879 H   0  0  0  0  0  0  0  0  0  0  0  0
  1  2  1  0  0  0  0
  1 20  1  0  0  0  0
  1 21  1  0  0  0  0
  1 22  1  0  0  0  0
  2  3  1  0  0  0  0
  2 14  1  0  0  0  0
  2 23  1  0  0  0  0
  3  4  1  0  0  0  0
  3 24  1  0  0  0  0
  3 25  1  0  0  0  0
  4  5  1  0  0  0  0
  4 26  1  0  0  0  0
  5  6  2  0  0  0  0
  5  7  1  0  0  0  0
  7  8  1  0  0  0  0
  7  9  1  0  0  0  0
  7 27  1  0  0  0  0
  8 28  1  0  0  0  0
  8 29  1  0  0  0  0
  8 30  1  0  0  0  0
  9 13  1  0  0  0  0
  9 10  1  0  0  0  0
 10 11  2  0  0  0  0
 10 31  1  0  0  0  0
 11 12  1  0  0  0  0
 11 32  1  0  0  0  0
 12 13  2  0  0  0  0
 12 33  1  0  0  0  0
 14 19  1  0  0  0  0
 14 15  1  0  0  0  0
 14 42  1  0  0  0  0
 15 16  1  0  0  0  0
 15 34  1  0  0  0  0
 15 35  1  0  0  0  0
 16 17  1  0  0  0  0
 16 36  1  0  0  0  0
 16 37  1  0  0  0  0
 17 18  1  0  0  0  0
 18 19  1  0  0  0  0
 18 38  1  0  0  0  0
 18 39  1  0  0  0  0
 19 40  1  0  0  0  0
 19 41  1  0  0  0  0
M  CHG  1  14   1
M  END
> <s_m_source_file>
AV-unprocessed.smi

> <i_m_source_file_index>
1601

> <i_lp_mmshare_version>
43012

> <i_f3d_flags>
0

> <s_epik_input>
W0NIMl0xW0NIMl1PW0NIMl1bQ0gyXU4xW0NASF0oW0NIM10pW0NIMl1bTkhdQyg9TylbQ0BIXShbQ0gzXSluMltjSF1bY0hdW2NIXW4y

> <s_epik_cmdline>
J2VwaWtfcHl0aG9uJywgJy1waCcsICc3LjAnLCAnLXRuJywgJzgnLCAnLW1hJywgJzIwMCcsICctbWV0YWxfYmluZGluZycsICctaW1hZScsICc8aW5maWxlLm1hZT4nLCAnLW9tYWUnLCAnPG91dGZpbGUubWFlPic=

> <r_lp_tautomer_probability>
1

> <r_epik_Ionization_Penalty>
0.732551

> <r_epik_Ionization_Penalty_Charging>
0.732531

> <r_epik_Ionization_Penalty_Neutral>
2.04647e-05

> <r_epik_State_Penalty>
0.757939

> <r_epik_Charging_Adjusted_Penalty>
1.49047

> <i_epik_Tot_Q>
1

> <i_epik_Tot_abs_Q>
1

> <r_epik_Metal_State_Penalty>
0.757952

> <b_epik_Metal_Only>
0

> <s_lp_Force_Field>
OPLS_2005

> <r_lp_Energy>
25.0975

> <b_lp_Chiralities_Consistent>
1

> <s_lp_Variant>
AV-unprocessed.smi:1601-6

> <Gold.Version>
5.8.1

> <Gold.Id.Protein>
6NUR|6NUR_protein|mol2

> <Gold.PLP.Fitness>
44.8705

> <Gold.PLP.PLP>
-36.0974

> <Gold.PLP.part.hbond>
-2.8439

> <Gold.PLP.part.metal>
0.0000

> <Gold.PLP.part.buried>
-1.7206

> <Gold.PLP.part.nonpolar>
-31.6261

> <Gold.PLP.part.repulsive>
0.2740

> <Gold.PLP.ligand.clash>
0.1017

> <Gold.PLP.ligand.torsion>
0.7136

> <Gold.PLP.Chemscore.Hbond>
2.3848

> <Gold.PLP.Chemscore.CHOScore>
1.0000

> <Gold.PLP.Chemscore.Metal>
0.0000

> <Gold.Chemscore.Hbonds>
donor molecule, donor type, donor heavy atom, donor atom, acceptor molecule, acceptor atom, score
      L1  H    14    42       P1 10175  2.00
      L1  C    10    31       P1  8028  1.00

> <Gold.PLP.Chemscore.Internal.Correction>
0.1477

> <Gold.Rescore>
     Score         DG    S(hbond)    S(metal)    S(lipo)     H(rot)  DE(clash)    DE(int)     intcor
     14.14     -15.28       1.62        0.00      78.30       1.86       0.39       0.75       ----

> <Gold.Chemscore.Fitness>
14.1418

> <Gold.Chemscore.DG>
-15.2768

> <Gold.Chemscore.ZeroCoef>
-5.4800

> <Gold.Chemscore.Hbond>
1.6184

> <Gold.Chemscore.Metal>
0.0000

> <Gold.Chemscore.Lipo>
78.2988

> <Gold.Chemscore.Internal_Hbond>
0.0000

> <Gold.Chemscore.DEClash>
0.3898

> <Gold.Chemscore.DEInternal>
0.7452

> <Gold.Chemscore.Rot>
1.8631

> <Gold.Chemscore.Internal.Correction>
   9.000000E+99

> <Gold.Chemscore.Hbonds>
donor molecule, donor type, donor heavy atom, donor atom, acceptor molecule, acceptor atom, score
      L1  H    14    42       P1 10175  0.97

> <Gold.Chemscore.Hbond.Weighted>
-5.4055

> <Gold.Chemscore.Metal.Weighted>
-0.0000

> <Gold.Chemscore.Lipo.Weighted>
-9.1610

> <Gold.Chemscore.Internal_Hbond.Weighted>
0.0000

> <Gold.Chemscore.DEClash.Weighted>
0.3898

> <Gold.Chemscore.DEInternal.Weighted>
0.7452

> <Gold.Chemscore.Rot.Weighted>
4.7697

> <Gold.Chemscore.Internal.Correction.Weighted>
   9.000000E+99

> <Gold.Protein.RotatedTorsions>
[ 6907 6896 6895 6894 ] final  165.25 input  -60.11 | X-H torsion
[ 7974 7965 7964 7962 ] final  -83.48 input  175.53 | X-H torsion
[ 8008 7997 7996 7995 ] final   24.11 input   59.86 | X-H torsion
[ 10167 10162 10161 10158 ] final  140.93 input  -65.29 | X-H torsion
[ 10718 10713 10712 10709 ] final -155.37 input   66.30 | X-H torsion
[ 10763 10752 10751 10750 ] final   56.99 input  -60.55 | X-H torsion
[ 11005 11000 10999 10996 ] final  141.80 input  -57.11 | X-H torsion

> <Gold.Protein.ActiveResidues>
 VAL166  LYS551  ARG553  GLY616  TRP617  ASP618  TYR619  PRO620  LYS621  CYS622 
 ASP623  PHE694  ASN695  SER759  ASP760  ASP761  ALA762  ILE779  LEU786  VAL792 
 PHE793  MET794  SER795  GLU796  ALA797  LYS798  CYS799  TRP800  GLU811  SER814 

> <Gold.Protein.RotatedAtoms>
  151.8973  133.3530  159.3818 H   0  0  0  0  0  0  0  0  0  0  0  0  # atno 6907 bound_to 6896
  150.7088  134.4863  159.5504 H   0  0  0  0  0  0  0  0  0  0  0  0  # atno 6908 bound_to 6896
  152.2445  134.8195  160.0506 H   0  0  0  0  0  0  0  0  0  0  0  0  # atno 6909 bound_to 6896
  145.5194  140.9533  143.1663 H   0  0  0  0  0  0  0  0  0  0  0  0  # atno 7974 bound_to 7965
  154.9912  140.3114  155.4905 H   0  0  0  0  0  0  0  0  0  0  0  0  # atno 8008 bound_to 7997
  156.2939  140.2249  156.4957 H   0  0  0  0  0  0  0  0  0  0  0  0  # atno 8009 bound_to 7997
  154.7702  140.0453  157.1033 H   0  0  0  0  0  0  0  0  0  0  0  0  # atno 8010 bound_to 7997
  139.5035  144.6203  151.6066 H   0  0  0  0  0  0  0  0  0  0  0  0  # atno 10167 bound_to 10162
  156.5119  130.8439  151.2650 H   0  0  0  0  0  0  0  0  0  0  0  0  # atno 10718 bound_to 10713
  152.9841  135.5657  154.5317 H   0  0  0  0  0  0  0  0  0  0  0  0  # atno 10763 bound_to 10752
  154.4788  135.2788  155.1589 H   0  0  0  0  0  0  0  0  0  0  0  0  # atno 10764 bound_to 10752
  154.3106  135.6289  153.5517 H   0  0  0  0  0  0  0  0  0  0  0  0  # atno 10765 bound_to 10752
  140.0429  134.9296  157.0876 H   0  0  0  0  0  0  0  0  0  0  0  0  # atno 11005 bound_to 11000
  144.7684  139.6791  143.7205 LP  0  0  0  0  0  0  0  0  0  0  0  0  # atno 17320 bound_to 7965
  146.2115  139.5475  142.9678 LP  0  0  0  0  0  0  0  0  0  0  0  0  # atno 17321 bound_to 7965
  140.5904  143.9790  150.6321 LP  0  0  0  0  0  0  0  0  0  0  0  0  # atno 17342 bound_to 10162
  140.2969  143.3286  152.1009 LP  0  0  0  0  0  0  0  0  0  0  0  0  # atno 17343 bound_to 10162
  157.7449  130.9946  150.2715 LP  0  0  0  0  0  0  0  0  0  0  0  0  # atno 17370 bound_to 10713
  156.3232  130.3789  149.7557 LP  0  0  0  0  0  0  0  0  0  0  0  0  # atno 17371 bound_to 10713
  140.4041  134.2051  155.7163 LP  0  0  0  0  0  0  0  0  0  0  0  0  # atno 17394 bound_to 11000
  141.1892  133.8244  157.0966 LP  0  0  0  0  0  0  0  0  0  0  0  0  # atno 17395 bound_to 11000

$$$$
