AV-unprocessed.smi:1936|AV-procd|sdf|7830|dock3
  -GOLD-   22720 9573D 1   1.00000     0.00000
 Structure written by MMmdl.
 38 39  0  0  0  0  0  0  0  0  1 V2000
  149.0874  138.0487  158.1547 C   0  0  0  0  0  0  0  0  0  0  0  0
  150.4921  138.5052  157.7278 C   0  0  1  0  0  0  0  0  0  0  0  0
  150.5007  139.0129  156.2691 C   0  0  0  0  0  0  0  0  0  0  0  0
  149.2733  139.6781  155.8294 N   0  0  0  0  0  0  0  0  0  0  0  0
  149.3318  140.1094  154.4341 C   0  0  0  0  0  0  0  0  0  0  0  0
  148.0470  140.8367  154.0010 C   0  0  0  0  0  0  0  0  0  0  0  0
  147.8061  141.9412  154.8663 O   0  0  0  0  0  0  0  0  0  0  0  0
  147.6894  141.5516  156.2307 C   0  0  0  0  0  0  0  0  0  0  0  0
  148.9763  140.8327  156.6708 C   0  0  0  0  0  0  0  0  0  0  0  0
  150.9409  139.5692  158.6236 N   0  0  0  0  0  0  0  0  0  0  0  0
  152.0090  140.3567  158.4251 C   0  0  0  0  0  0  0  0  0  0  0  0
  152.7507  140.2518  157.4467 O   0  0  0  0  0  0  0  0  0  0  0  0
  152.2592  141.4170  159.5048 C   0  0  0  0  0  0  0  0  0  0  0  0
  152.0289  142.7733  159.0336 N   0  0  0  0  0  0  0  0  0  0  0  0
  152.3569  143.9626  159.6513 C   0  0  0  0  0  0  0  0  0  0  0  0
  151.9468  144.9739  158.8305 C   0  0  0  0  0  0  0  0  0  0  0  0
  151.3713  144.2954  157.7200 C   0  0  0  0  0  0  0  0  0  0  0  0
  151.4193  142.9789  157.8452 N   0  0  0  0  0  0  0  0  0  0  0  0
  148.7273  137.2397  157.5185 H   0  0  0  0  0  0  0  0  0  0  0  0
  148.3680  138.8661  158.0934 H   0  0  0  0  0  0  0  0  0  0  0  0
  149.0861  137.6793  159.1808 H   0  0  0  0  0  0  0  0  0  0  0  0
  151.1584  137.6431  157.8035 H   0  0  0  0  0  0  0  0  0  0  0  0
  151.3135  139.7346  156.1782 H   0  0  0  0  0  0  0  0  0  0  0  0
  150.7601  138.2032  155.5848 H   0  0  0  0  0  0  0  0  0  0  0  0
  150.1881  140.7691  154.2862 H   0  0  0  0  0  0  0  0  0  0  0  0
  149.4799  139.2508  153.7798 H   0  0  0  0  0  0  0  0  0  0  0  0
  148.1438  141.1994  152.9775 H   0  0  0  0  0  0  0  0  0  0  0  0
  147.1933  140.1573  154.0210 H   0  0  0  0  0  0  0  0  0  0  0  0
  147.5218  142.4384  156.8418 H   0  0  0  0  0  0  0  0  0  0  0  0
  146.8207  140.9039  156.3594 H   0  0  0  0  0  0  0  0  0  0  0  0
  148.8740  140.5176  157.7099 H   0  0  0  0  0  0  0  0  0  0  0  0
  149.8091  141.5371  156.6393 H   0  0  0  0  0  0  0  0  0  0  0  0
  150.3881  139.7247  159.4542 H   0  0  0  0  0  0  0  0  0  0  0  0
  151.6144  141.2196  160.3629 H   0  0  0  0  0  0  0  0  0  0  0  0
  153.2901  141.3445  159.8535 H   0  0  0  0  0  0  0  0  0  0  0  0
  152.8516  143.9888  160.6110 H   0  0  0  0  0  0  0  0  0  0  0  0
  152.0444  146.0364  158.9971 H   0  0  0  0  0  0  0  0  0  0  0  0
  150.9225  144.7177  156.8330 H   0  0  0  0  0  0  0  0  0  0  0  0
  1  2  1  0  0  0  0
  1 19  1  0  0  0  0
  1 20  1  0  0  0  0
  1 21  1  0  0  0  0
  2  3  1  0  0  0  0
  2 10  1  0  0  0  0
  2 22  1  0  0  0  0
  3  4  1  0  0  0  0
  3 23  1  0  0  0  0
  3 24  1  0  0  0  0
  4  9  1  0  0  0  0
  4  5  1  0  0  0  0
  5  6  1  0  0  0  0
  5 25  1  0  0  0  0
  5 26  1  0  0  0  0
  6  7  1  0  0  0  0
  6 27  1  0  0  0  0
  6 28  1  0  0  0  0
  7  8  1  0  0  0  0
  8  9  1  0  0  0  0
  8 29  1  0  0  0  0
  8 30  1  0  0  0  0
  9 31  1  0  0  0  0
  9 32  1  0  0  0  0
 10 11  1  0  0  0  0
 10 33  1  0  0  0  0
 11 12  2  0  0  0  0
 11 13  1  0  0  0  0
 13 14  1  0  0  0  0
 13 34  1  0  0  0  0
 13 35  1  0  0  0  0
 14 18  1  0  0  0  0
 14 15  1  0  0  0  0
 15 16  2  0  0  0  0
 15 36  1  0  0  0  0
 16 17  1  0  0  0  0
 16 37  1  0  0  0  0
 17 18  2  0  0  0  0
 17 38  1  0  0  0  0
M  END
> <s_m_source_file>
AV-unprocessed.smi

> <i_m_source_file_index>
1936

> <i_lp_mmshare_version>
43012

> <i_f3d_flags>
0

> <s_epik_input>
W0NIMl0xW0NIMl1PW0NIMl1bQ0gyXU4xW0NIMl1bQ0BASF0oW0NIM10pW05IXUMoPU8pW0NIMl1uMltjSF1bY0hdW2NIXW4y

> <s_epik_cmdline>
J2VwaWtfcHl0aG9uJywgJy1waCcsICc3LjAnLCAnLXRuJywgJzgnLCAnLW1hJywgJzIwMCcsICctbWV0YWxfYmluZGluZycsICctaW1hZScsICc8aW5maWxlLm1hZT4nLCAnLW9tYWUnLCAnPG91dGZpbGUubWFlPic=

> <r_lp_tautomer_probability>
1

> <r_epik_Ionization_Penalty>
0.196927

> <r_epik_Ionization_Penalty_Charging>
0

> <r_epik_Ionization_Penalty_Neutral>
0.196927

> <r_epik_State_Penalty>
0.186684

> <r_epik_Charging_Adjusted_Penalty>
0.186684

> <i_epik_Tot_Q>
0

> <i_epik_Tot_abs_Q>
0

> <r_epik_Metal_State_Penalty>
0.186682

> <b_epik_Metal_Only>
0

> <s_lp_Force_Field>
OPLS_2005

> <r_lp_Energy>
27.4163

> <b_lp_Chiralities_Consistent>
1

> <s_lp_Variant>
AV-unprocessed.smi:1936-2

> <Gold.Version>
5.8.1

> <Gold.Id.Protein>
6NUR|6NUR_protein|mol2

> <Gold.PLP.Fitness>
35.8799

> <Gold.PLP.PLP>
-31.1007

> <Gold.PLP.part.hbond>
-1.0000

> <Gold.PLP.part.metal>
0.0000

> <Gold.PLP.part.buried>
-4.1738

> <Gold.PLP.part.nonpolar>
-27.4027

> <Gold.PLP.part.repulsive>
1.3308

> <Gold.PLP.ligand.clash>
0.0000

> <Gold.PLP.ligand.torsion>
0.6628

> <Gold.PLP.Chemscore.Hbond>
1.0000

> <Gold.PLP.Chemscore.CHOScore>
0.9943

> <Gold.PLP.Chemscore.Metal>
0.0000

> <Gold.Chemscore.Hbonds>
donor molecule, donor type, donor heavy atom, donor atom, acceptor molecule, acceptor atom, score
      P1  H  7997  8008       L1    12  0.99
      L1  C    17    38       P1  8028  1.00

> <Gold.PLP.Chemscore.Internal.Correction>
0.1218

> <Gold.Rescore>
     Score         DG    S(hbond)    S(metal)    S(lipo)     H(rot)  DE(clash)    DE(int)     intcor
     11.30     -13.26       0.99        0.00      78.74       1.85       0.05       1.90       ----

> <Gold.Chemscore.Fitness>
11.3049

> <Gold.Chemscore.DG>
-13.2606

> <Gold.Chemscore.ZeroCoef>
-5.4800

> <Gold.Chemscore.Hbond>
0.9930

> <Gold.Chemscore.Metal>
0.0000

> <Gold.Chemscore.Lipo>
78.7402

> <Gold.Chemscore.Internal_Hbond>
0.0000

> <Gold.Chemscore.DEClash>
0.0512

> <Gold.Chemscore.DEInternal>
1.9044

> <Gold.Chemscore.Rot>
1.8549

> <Gold.Chemscore.Internal.Correction>
   9.000000E+99

> <Gold.Chemscore.Hbonds>
donor molecule, donor type, donor heavy atom, donor atom, acceptor molecule, acceptor atom, score
      P1  H  7997  8008       L1    12  0.93

> <Gold.Chemscore.Hbond.Weighted>
-3.3165

> <Gold.Chemscore.Metal.Weighted>
-0.0000

> <Gold.Chemscore.Lipo.Weighted>
-9.2126

> <Gold.Chemscore.Internal_Hbond.Weighted>
0.0000

> <Gold.Chemscore.DEClash.Weighted>
0.0512

> <Gold.Chemscore.DEInternal.Weighted>
1.9044

> <Gold.Chemscore.Rot.Weighted>
4.7485

> <Gold.Chemscore.Internal.Correction.Weighted>
   9.000000E+99

> <Gold.Protein.RotatedTorsions>
[ 6907 6896 6895 6894 ] final    5.08 input  -60.11 | X-H torsion
[ 7974 7965 7964 7962 ] final -130.57 input  175.53 | X-H torsion
[ 8008 7997 7996 7995 ] final  -68.01 input   59.86 | X-H torsion
[ 10167 10162 10161 10158 ] final  -32.35 input  -65.29 | X-H torsion
[ 10718 10713 10712 10709 ] final   38.45 input   66.30 | X-H torsion
[ 10763 10752 10751 10750 ] final  148.86 input  -60.55 | X-H torsion
[ 11005 11000 10999 10996 ] final -104.57 input  -57.11 | X-H torsion

> <Gold.Protein.ActiveResidues>
 VAL166  LYS551  ARG553  GLY616  TRP617  ASP618  TYR619  PRO620  LYS621  CYS622 
 ASP623  PHE694  ASN695  SER759  ASP760  ASP761  ALA762  ILE779  LEU786  VAL792 
 PHE793  MET794  SER795  GLU796  ALA797  LYS798  CYS799  TRP800  GLU811  SER814 

> <Gold.Protein.RotatedAtoms>
  151.6517  135.1000  160.0161 H   0  0  0  0  0  0  0  0  0  0  0  0  # atno 6907 bound_to 6896
  152.3997  133.6795  159.6314 H   0  0  0  0  0  0  0  0  0  0  0  0  # atno 6908 bound_to 6896
  150.7899  133.8729  159.3305 H   0  0  0  0  0  0  0  0  0  0  0  0  # atno 6909 bound_to 6896
  144.9462  140.7294  143.4816 H   0  0  0  0  0  0  0  0  0  0  0  0  # atno 7974 bound_to 7965
  154.4839  140.0881  156.7441 H   0  0  0  0  0  0  0  0  0  0  0  0  # atno 8008 bound_to 7997
  155.4400  140.3453  155.4271 H   0  0  0  0  0  0  0  0  0  0  0  0  # atno 8009 bound_to 7997
  156.1232  140.1480  156.9162 H   0  0  0  0  0  0  0  0  0  0  0  0  # atno 8010 bound_to 7997
  140.7222  143.3701  151.1794 H   0  0  0  0  0  0  0  0  0  0  0  0  # atno 10167 bound_to 10162
  157.3590  130.7639  149.7033 H   0  0  0  0  0  0  0  0  0  0  0  0  # atno 10718 bound_to 10713
  154.0617  135.2873  155.3323 H   0  0  0  0  0  0  0  0  0  0  0  0  # atno 10763 bound_to 10752
  154.6804  135.5265  153.8258 H   0  0  0  0  0  0  0  0  0  0  0  0  # atno 10764 bound_to 10752
  153.0520  135.6580  154.0805 H   0  0  0  0  0  0  0  0  0  0  0  0  # atno 10765 bound_to 10752
  141.1094  133.8734  157.1627 H   0  0  0  0  0  0  0  0  0  0  0  0  # atno 11005 bound_to 11000
  145.2914  139.1882  143.4738 LP  0  0  0  0  0  0  0  0  0  0  0  0  # atno 17320 bound_to 7965
  146.3304  140.2891  142.8614 LP  0  0  0  0  0  0  0  0  0  0  0  0  # atno 17321 bound_to 7965
  139.7271  143.9131  152.3006 LP  0  0  0  0  0  0  0  0  0  0  0  0  # atno 17342 bound_to 10162
  139.8908  144.6967  150.8773 LP  0  0  0  0  0  0  0  0  0  0  0  0  # atno 17343 bound_to 10162
  155.9734  130.4119  150.4006 LP  0  0  0  0  0  0  0  0  0  0  0  0  # atno 17370 bound_to 10713
  157.2080  131.0453  151.2615 LP  0  0  0  0  0  0  0  0  0  0  0  0  # atno 17371 bound_to 10713
  139.9980  135.0039  157.0126 LP  0  0  0  0  0  0  0  0  0  0  0  0  # atno 17394 bound_to 11000
  140.4815  134.1284  155.7218 LP  0  0  0  0  0  0  0  0  0  0  0  0  # atno 17395 bound_to 11000

$$$$
