#       Name:                AV-unprocessed.smi:224
#       Creating user name   scv26
#       Creation time:       Thu Mar 26 20:18:44 2020


#       File generated by GOLD software.
#

@<TRIPOS>MOLECULE
AV-unprocessed.smi:224
    65    68     1
SMALL
NO_CHARGES


@<TRIPOS>ATOM
      1 ****        -4.4799   1.1169  -5.7050 C.3            1 S1                 0.0000
      2 ****        -3.2657   1.5339  -4.8651 C.3            1 S1                 0.0000
      3 ****        -2.5301   2.4842  -5.6098 O.3            1 S1                 0.0000
      4 ****        -2.3645   0.3267  -4.5311 C.3            1 S1                 0.0000
      5 ****        -1.1848   0.6625  -3.6864 N.4            1 S1                 1.0000
      6 ****        -0.1996  -0.4502  -3.6430 C.3            1 S1                 0.0000
      7 ****         1.0812  -0.0373  -2.8964 C.3            1 S1                 0.0000
      8 ****         0.7715   0.4996  -1.5736 N.pl3          1 S1                 0.0000
      9 ****         0.7249  -0.3408  -0.5043 C.ar           1 S1                 0.0000
     10 ****         0.5923  -1.6792  -0.7067 N.ar           1 S1                 0.0000
     11 ****         0.5144  -2.5188   0.3291 C.ar           1 S1                 0.0000
     12 ****         0.5524  -2.2392   1.6321 N.ar           1 S1                 0.0000
     13 ****         0.7080  -0.9020   1.8467 C.ar           1 S1                 0.0000
     14 ****         0.8022   0.1075   0.8463 C.ar           1 S1                 0.0000
     15 ****         0.9636   1.3503   1.4487 N.2            1 S1                 0.0000
     16 ****         0.9506   1.0924   2.7276 C.2            1 S1                 0.0000
     17 ****         0.8068  -0.2363   3.0560 N.pl3          1 S1                 0.0000
     18 ****         0.7622  -0.8025   4.3952 C.3            1 S1                 0.0000
     19 ****         2.1515  -1.2092   4.9390 C.3            1 S1                 0.0000
     20 ****         2.6809  -2.2428   4.1271 O.3            1 S1                 0.0000
     21 ****         3.1627  -0.0672   4.9874 C.3            1 S1                 0.0000
     22 ****         4.0195  -0.4233   6.1940 C.3            1 S1                 0.0000
     23 ****         3.0630  -0.9207   7.1137 O.3            1 S1                 0.0000
     24 ****         2.1135  -1.7049   6.3985 C.3            1 S1                 0.0000
     25 ****        -0.1822   1.6067  -1.5934 C.3            1 S1                 0.0000
     26 ****        -1.4863   1.2358  -2.3362 C.3            1 S1                 0.0000
     27 ****        -2.4108   0.3450  -1.4788 C.3            1 S1                 0.0000
     28 ****        -5.0965   0.3941  -5.1694 H              1 S1                 0.0000
     29 ****        -4.1762   0.6602  -6.6479 H              1 S1                 0.0000
     30 ****        -5.1098   1.9759  -5.9390 H              1 S1                 0.0000
     31 ****        -3.6366   2.0094  -3.9580 H              1 S1                 0.0000
     32 ****        -1.8889   2.8884  -5.0460 H              1 S1                 0.0000
     33 ****        -2.9478  -0.4594  -4.0508 H              1 S1                 0.0000
     34 ****        -2.0094  -0.1042  -5.4687 H              1 S1                 0.0000
     35 ****        -0.6530  -1.3228  -3.1722 H              1 S1                 0.0000
     36 ****         0.0635  -0.7484  -4.6583 H              1 S1                 0.0000
     37 ****         1.7792  -0.8728  -2.8314 H              1 S1                 0.0000
     38 ****         1.5977   0.7393  -3.4617 H              1 S1                 0.0000
     39 ****         0.4033  -3.5635   0.0782 H              1 S1                 0.0000
     40 ****         1.0508   1.8697   3.4712 H              1 S1                 0.0000
     41 ****         0.3039  -0.0656   5.0561 H              1 S1                 0.0000
     42 ****         0.0916  -1.6628   4.3860 H              1 S1                 0.0000
     43 ****         3.5158  -2.5063   4.4827 H              1 S1                 0.0000
     44 ****         3.7387   0.0528   4.0687 H              1 S1                 0.0000
     45 ****         2.6554   0.8775   5.1873 H              1 S1                 0.0000
     46 ****         4.7400  -1.2054   5.9494 H              1 S1                 0.0000
     47 ****         4.5594   0.4336   6.5972 H              1 S1                 0.0000
     48 ****         1.1316  -1.5761   6.8552 H              1 S1                 0.0000
     49 ****         2.3746  -2.7613   6.4814 H              1 S1                 0.0000
     50 ****        -0.4193   1.9710  -0.5954 H              1 S1                 0.0000
     51 ****         0.2983   2.4411  -2.1054 H              1 S1                 0.0000
     52 ****        -2.0103   2.1788  -2.4855 H              1 S1                 0.0000
     53 ****        -2.5476   0.7741  -0.4860 H              1 S1                 0.0000
     54 ****        -2.0106  -0.6593  -1.3459 H              1 S1                 0.0000
     55 ****        -3.4033   0.2508  -1.9188 H              1 S1                 0.0000
     56 ****        -0.7092   1.4018  -4.1833 H              1 S1                 0.0000
     57 ****        -3.1502   3.1828  -5.9669 LP             1 S1                 0.0000
     58 ****        -2.0677   2.0287  -6.3705 LP             1 S1                 0.0000
     59 ****         0.5527  -2.0378  -1.6394 LP             1 S1                 0.0000
     60 ****         0.4765  -2.9223   2.3584 LP             1 S1                 0.0000
     61 ****         1.0662   2.2396   1.0030 LP             1 S1                 0.0000
     62 ****         2.8028  -1.9085   3.1925 LP             1 S1                 0.0000
     63 ****         2.0548  -3.0225   4.1231 LP             1 S1                 0.0000
     64 ****         2.5994  -0.1576   7.5640 LP             1 S1                 0.0000
     65 ****         3.5184  -1.4864   7.8011 LP             1 S1                 0.0000
@<TRIPOS>BOND
    1    1    2 1     
    2    1   28 1     
    3    1   29 1     
    4    1   30 1     
    5    2    3 1     
    6    2    4 1     
    7    2   31 1     
    8    3   32 1     
    9    4    5 1     
   10    4   33 1     
   11    4   34 1     
   12    5   26 1     
   13    5    6 1     
   14    5   56 1     
   15    6    7 1     
   16    6   35 1     
   17    6   36 1     
   18    7    8 1     
   19    7   37 1     
   20    7   38 1     
   21    8    9 1     
   22    8   25 1     
   23    9   14 ar    
   24    9   10 ar    
   25   10   11 ar    
   26   11   12 ar    
   27   11   39 1     
   28   12   13 ar    
   29   13   17 1     
   30   13   14 ar    
   31   14   15 1     
   32   15   16 2     
   33   16   17 1     
   34   16   40 1     
   35   17   18 1     
   36   18   19 1     
   37   18   41 1     
   38   18   42 1     
   39   19   24 1     
   40   19   20 1     
   41   19   21 1     
   42   20   43 1     
   43   21   22 1     
   44   21   44 1     
   45   21   45 1     
   46   22   23 1     
   47   22   46 1     
   48   22   47 1     
   49   23   24 1     
   50   24   48 1     
   51   24   49 1     
   52   25   26 1     
   53   25   50 1     
   54   25   51 1     
   55   26   27 1     
   56   26   52 1     
   57   27   53 1     
   58   27   54 1     
   59   27   55 1     
   60    3   57 1     
   61    3   58 1     
   62   10   59 1     
   63   12   60 1     
   64   15   61 1     
   65   20   62 1     
   66   20   63 1     
   67   23   64 1     
   68   23   65 1     
@<TRIPOS>SUBSTRUCTURE
      1 S1             1
@<TRIPOS>SET
LONE_PAIRS      STATIC     ATOMS    <user>   **** ""
9 57 58 59 60 61 62 63 64 65
DONOR_HYDROGENS      STATIC     ATOMS    <user>   **** ""
3 32 56 43
ATOM$BLUE        STATIC     ATOMS    COLORGROUP SYSTEM
9 57 58 59 60 61 62 63 64 65
ATOM$RED        STATIC     ATOMS    COLORGROUP SYSTEM
3 32 56 43
