AV-unprocessed.smi:3160|AV-procd|sdf|12054|dock2
  -GOLD-   2272017483D 1   1.00000     0.00000
 Structure written by MMmdl.
 40 41  0  0  0  0  0  0  0  0  2 V2000
  150.8171  136.2648  154.9199 C   0  0  0  0  0  0  0  0  0  0  0  0
  150.9742  137.7558  155.0036 C   0  0  0  0  0  0  0  0  0  0  0  0
  152.0747  138.5460  154.5665 C   0  0  0  0  0  0  0  0  0  0  0  0
  151.8994  139.8384  154.7882 N   0  0  0  0  0  0  0  0  0  0  0  0
  150.6836  139.9223  155.3693 N   0  0  0  0  0  0  0  0  0  0  0  0
  150.1585  141.2239  155.7621 C   0  0  1  0  0  0  0  0  0  0  0  0
  149.0094  141.6276  154.8202 C   0  0  0  0  0  0  0  0  0  0  0  0
  149.7452  141.2533  157.2561 C   0  0  1  0  0  0  0  0  0  0  0  0
  150.7375  140.5230  158.1798 C   0  0  0  0  0  0  0  0  0  0  0  0
  149.6008  142.6538  157.7161 N   0  3  0  0  0  0  0  0  0  0  0  0
  150.8302  143.2713  158.2585 C   0  0  0  0  0  0  0  0  0  0  0  0
  150.5326  144.5165  159.0927 C   0  0  0  0  0  0  0  0  0  0  0  0
  151.8620  145.2776  159.1338 C   0  0  0  0  0  0  0  0  0  0  0  0
  152.6497  144.8330  157.8901 C   0  0  0  0  0  0  0  0  0  0  0  0
  151.7758  143.7960  157.1744 C   0  0  0  0  0  0  0  0  0  0  0  0
  150.1037  138.6776  155.5117 C   0  0  0  0  0  0  0  0  0  0  0  0
  151.7193  135.7823  154.5432 H   0  0  0  0  0  0  0  0  0  0  0  0
  150.0008  135.9835  154.2545 H   0  0  0  0  0  0  0  0  0  0  0  0
  150.6034  135.8273  155.8952 H   0  0  0  0  0  0  0  0  0  0  0  0
  152.9918  138.2199  154.0983 H   0  0  0  0  0  0  0  0  0  0  0  0
  150.9616  141.9509  155.6245 H   0  0  0  0  0  0  0  0  0  0  0  0
  148.6753  142.6476  155.0097 H   0  0  0  0  0  0  0  0  0  0  0  0
  148.1472  140.9701  154.9359 H   0  0  0  0  0  0  0  0  0  0  0  0
  149.3247  141.5803  153.7771 H   0  0  0  0  0  0  0  0  0  0  0  0
  148.7857  140.7418  157.3489 H   0  0  0  0  0  0  0  0  0  0  0  0
  150.7940  139.4580  157.9537 H   0  0  0  0  0  0  0  0  0  0  0  0
  150.4377  140.6103  159.2246 H   0  0  0  0  0  0  0  0  0  0  0  0
  151.7424  140.9364  158.0873 H   0  0  0  0  0  0  0  0  0  0  0  0
  149.2653  143.2171  156.9478 H   0  0  0  0  0  0  0  0  0  0  0  0
  151.3549  142.5487  158.8863 H   0  0  0  0  0  0  0  0  0  0  0  0
  149.7805  145.1305  158.5944 H   0  0  0  0  0  0  0  0  0  0  0  0
  150.1579  144.2764  160.0882 H   0  0  0  0  0  0  0  0  0  0  0  0
  151.7044  146.3564  159.1552 H   0  0  0  0  0  0  0  0  0  0  0  0
  152.4173  145.0115  160.0344 H   0  0  0  0  0  0  0  0  0  0  0  0
  152.8840  145.6728  157.2347 H   0  0  0  0  0  0  0  0  0  0  0  0
  153.5961  144.3838  158.1943 H   0  0  0  0  0  0  0  0  0  0  0  0
  152.3667  143.0059  156.7096 H   0  0  0  0  0  0  0  0  0  0  0  0
  151.2040  144.2878  156.3857 H   0  0  0  0  0  0  0  0  0  0  0  0
  149.1291  138.5511  155.9600 H   0  0  0  0  0  0  0  0  0  0  0  0
  148.9020  142.6637  158.4454 H   0  0  0  0  0  0  0  0  0  0  0  0
  1  2  1  0  0  0  0
  1 17  1  0  0  0  0
  1 18  1  0  0  0  0
  1 19  1  0  0  0  0
  2 16  2  0  0  0  0
  2  3  1  0  0  0  0
  3  4  2  0  0  0  0
  3 20  1  0  0  0  0
  4  5  1  0  0  0  0
  5  6  1  0  0  0  0
  5 16  1  0  0  0  0
  6  7  1  0  0  0  0
  6  8  1  0  0  0  0
  6 21  1  0  0  0  0
  7 22  1  0  0  0  0
  7 23  1  0  0  0  0
  7 24  1  0  0  0  0
  8  9  1  0  0  0  0
  8 10  1  0  0  0  0
  8 25  1  0  0  0  0
  9 26  1  0  0  0  0
  9 27  1  0  0  0  0
  9 28  1  0  0  0  0
 10 11  1  0  0  0  0
 10 29  1  0  0  0  0
 10 40  1  0  0  0  0
 11 15  1  0  0  0  0
 11 12  1  0  0  0  0
 11 30  1  0  0  0  0
 12 13  1  0  0  0  0
 12 31  1  0  0  0  0
 12 32  1  0  0  0  0
 13 14  1  0  0  0  0
 13 33  1  0  0  0  0
 13 34  1  0  0  0  0
 14 15  1  0  0  0  0
 14 35  1  0  0  0  0
 14 36  1  0  0  0  0
 15 37  1  0  0  0  0
 15 38  1  0  0  0  0
 16 39  1  0  0  0  0
M  CHG  1  10   1
M  END
> <s_m_source_file>
AV-unprocessed.smi

> <i_m_source_file_index>
3160

> <i_lp_mmshare_version>
43012

> <i_f3d_flags>
0

> <s_epik_input>
W0NIM11jMVtjSF1ubihbY0hdMSlbQ0BIXShbQ0gzXSlbQ0BIXShbQ0gzXSlbTkhdW0NIXTJbQ0gyXVtDSDJdW0NIMl1bQ0gyXTI=

> <s_epik_cmdline>
J2VwaWtfcHl0aG9uJywgJy1waCcsICc3LjAnLCAnLXRuJywgJzgnLCAnLW1hJywgJzIwMCcsICctbWV0YWxfYmluZGluZycsICctaW1hZScsICc8aW5maWxlLm1hZT4nLCAnLW9tYWUnLCAnPG91dGZpbGUubWFlPic=

> <r_lp_tautomer_probability>
1

> <r_epik_Ionization_Penalty>
0.00117636

> <r_epik_Ionization_Penalty_Charging>
0.00115264

> <r_epik_Ionization_Penalty_Neutral>
2.37123e-05

> <r_epik_State_Penalty>
-0

> <r_epik_Charging_Adjusted_Penalty>
0.00115264

> <i_epik_Tot_Q>
1

> <i_epik_Tot_abs_Q>
1

> <r_epik_Metal_State_Penalty>
-0

> <b_epik_Metal_Only>
0

> <s_lp_Force_Field>
OPLS_2005

> <r_lp_Energy>
32.0781

> <b_lp_Chiralities_Consistent>
1

> <s_lp_Variant>
AV-unprocessed.smi:3160-4

> <Gold.Version>
5.8.1

> <Gold.Id.Protein>
6NUR|6NUR_protein|mol2

> <Gold.PLP.Fitness>
44.8434

> <Gold.PLP.PLP>
-38.3234

> <Gold.PLP.part.hbond>
-2.0000

> <Gold.PLP.part.metal>
0.0000

> <Gold.PLP.part.buried>
-4.7667

> <Gold.PLP.part.nonpolar>
-32.7930

> <Gold.PLP.part.repulsive>
0.1028

> <Gold.PLP.ligand.clash>
0.0000

> <Gold.PLP.ligand.torsion>
0.8970

> <Gold.PLP.Chemscore.Hbond>
2.7424

> <Gold.PLP.Chemscore.CHOScore>
0.0000

> <Gold.PLP.Chemscore.Metal>
0.0000

> <Gold.Chemscore.Hbonds>
donor molecule, donor type, donor heavy atom, donor atom, acceptor molecule, acceptor atom, score
      L1  H    10    29       P1  8028  2.00
      P1  H  7989  7998       L1     4  0.94

> <Gold.PLP.Chemscore.Internal.Correction>
0.0868

> <Gold.Rescore>
     Score         DG    S(hbond)    S(metal)    S(lipo)     H(rot)  DE(clash)    DE(int)     intcor
     17.91     -19.44       1.56        0.00     104.85       1.37       0.08       1.45       ----

> <Gold.Chemscore.Fitness>
17.9143

> <Gold.Chemscore.DG>
-19.4363

> <Gold.Chemscore.ZeroCoef>
-5.4800

> <Gold.Chemscore.Hbond>
1.5564

> <Gold.Chemscore.Metal>
0.0000

> <Gold.Chemscore.Lipo>
104.8503

> <Gold.Chemscore.Internal_Hbond>
0.0000

> <Gold.Chemscore.DEClash>
0.0758

> <Gold.Chemscore.DEInternal>
1.4462

> <Gold.Chemscore.Rot>
1.3709

> <Gold.Chemscore.Internal.Correction>
   9.000000E+99

> <Gold.Chemscore.Hbonds>
donor molecule, donor type, donor heavy atom, donor atom, acceptor molecule, acceptor atom, score
      L1  H    10    29       P1  8028  0.90
      P1  H  7989  7998       L1     4  0.22

> <Gold.Chemscore.Hbond.Weighted>
-5.1983

> <Gold.Chemscore.Metal.Weighted>
-0.0000

> <Gold.Chemscore.Lipo.Weighted>
-12.2675

> <Gold.Chemscore.Internal_Hbond.Weighted>
0.0000

> <Gold.Chemscore.DEClash.Weighted>
0.0758

> <Gold.Chemscore.DEInternal.Weighted>
1.4462

> <Gold.Chemscore.Rot.Weighted>
3.5095

> <Gold.Chemscore.Internal.Correction.Weighted>
   9.000000E+99

> <Gold.Protein.RotatedTorsions>
[ 6907 6896 6895 6894 ] final  -88.23 input  -60.11 | X-H torsion
[ 7974 7965 7964 7962 ] final  -59.35 input  175.53 | X-H torsion
[ 8008 7997 7996 7995 ] final  144.78 input   59.86 | X-H torsion
[ 10167 10162 10161 10158 ] final   32.72 input  -65.29 | X-H torsion
[ 10718 10713 10712 10709 ] final   92.52 input   66.30 | X-H torsion
[ 10763 10752 10751 10750 ] final -113.87 input  -60.55 | X-H torsion
[ 11005 11000 10999 10996 ] final   72.48 input  -57.11 | X-H torsion

> <Gold.Protein.ActiveResidues>
 VAL166  LYS551  ARG553  GLY616  TRP617  ASP618  TYR619  PRO620  LYS621  CYS622 
 ASP623  PHE694  ASN695  SER759  ASP760  ASP761  ALA762  ILE779  LEU786  VAL792 
 PHE793  MET794  SER795  GLU796  ALA797  LYS798  CYS799  TRP800  GLU811  SER814 

> <Gold.Protein.RotatedAtoms>
  150.6868  134.2774  159.4612 H   0  0  0  0  0  0  0  0  0  0  0  0  # atno 6907 bound_to 6896
  152.0691  134.9543  160.0584 H   0  0  0  0  0  0  0  0  0  0  0  0  # atno 6908 bound_to 6896
  152.0940  133.4180  159.4593 H   0  0  0  0  0  0  0  0  0  0  0  0  # atno 6909 bound_to 6896
  145.8285  140.8495  143.0096 H   0  0  0  0  0  0  0  0  0  0  0  0  # atno 7974 bound_to 7965
  156.2899  140.2226  156.5109 H   0  0  0  0  0  0  0  0  0  0  0  0  # atno 8008 bound_to 7997
  154.7609  140.0473  157.0994 H   0  0  0  0  0  0  0  0  0  0  0  0  # atno 8009 bound_to 7997
  154.9992  140.3099  155.4877 H   0  0  0  0  0  0  0  0  0  0  0  0  # atno 8010 bound_to 7997
  140.4473  144.1100  150.6185 H   0  0  0  0  0  0  0  0  0  0  0  0  # atno 10167 bound_to 10162
  157.6958  131.0446  150.3894 H   0  0  0  0  0  0  0  0  0  0  0  0  # atno 10718 bound_to 10713
  154.8415  135.4438  154.1417 H   0  0  0  0  0  0  0  0  0  0  0  0  # atno 10763 bound_to 10752
  153.2601  135.6935  153.7594 H   0  0  0  0  0  0  0  0  0  0  0  0  # atno 10764 bound_to 10752
  153.6874  135.3393  155.3169 H   0  0  0  0  0  0  0  0  0  0  0  0  # atno 10765 bound_to 10752
  139.9489  134.7263  156.0912 H   0  0  0  0  0  0  0  0  0  0  0  0  # atno 11005 bound_to 11000
  144.6741  140.0637  143.7475 LP  0  0  0  0  0  0  0  0  0  0  0  0  # atno 17320 bound_to 7965
  145.9597  139.2792  143.1163 LP  0  0  0  0  0  0  0  0  0  0  0  0  # atno 17321 bound_to 7965
  140.4248  143.2595  151.9669 LP  0  0  0  0  0  0  0  0  0  0  0  0  # atno 17342 bound_to 10162
  139.4794  144.5797  151.7952 LP  0  0  0  0  0  0  0  0  0  0  0  0  # atno 17343 bound_to 10162
  156.4299  130.3970  149.6767 LP  0  0  0  0  0  0  0  0  0  0  0  0  # atno 17370 bound_to 10713
  156.3988  130.7664  151.2670 LP  0  0  0  0  0  0  0  0  0  0  0  0  # atno 17371 bound_to 10713
  141.1146  133.6632  156.3063 LP  0  0  0  0  0  0  0  0  0  0  0  0  # atno 17394 bound_to 11000
  140.5768  134.5786  157.5470 LP  0  0  0  0  0  0  0  0  0  0  0  0  # atno 17395 bound_to 11000

$$$$
