AV-unprocessed.smi:2402|AV-procd|sdf|9508|dock7
  -GOLD-   2272013133D 1   1.00000     0.00000
 Structure written by MMmdl.
 38 39  0  0  0  0  0  0  0  0  1 V2000
  151.8626  145.4723  160.1475 C   0  0  0  0  0  0  0  0  0  0  0  0
  152.1073  144.0307  159.7538 C   0  0  0  0  0  0  0  0  0  0  0  0
  153.0856  143.2580  160.4084 C   0  0  0  0  0  0  0  0  0  0  0  0
  153.2646  141.9233  159.9947 C   0  0  0  0  0  0  0  0  0  0  0  0
  154.3028  141.0365  160.6496 C   0  0  0  0  0  0  0  0  0  0  0  0
  152.5415  141.3550  159.0060 N   0  0  0  0  0  0  0  0  0  0  0  0
  151.5951  142.0891  158.3699 C   0  0  0  0  0  0  0  0  0  0  0  0
  150.7820  141.5864  157.3193 N   0  0  0  0  0  0  0  0  0  0  0  0
  149.4814  141.8340  157.0836 C   0  0  0  0  0  0  0  0  0  0  0  0
  148.7601  142.5661  157.7622 O   0  0  0  0  0  0  0  0  0  0  0  0
  149.0517  141.1805  155.9945 N   0  0  0  0  0  0  0  0  0  0  0  0
  147.6966  141.2567  155.4597 C   0  0  1  0  0  0  0  0  0  0  0  0
  147.6928  141.9333  154.1162 C   0  0  0  0  0  0  0  0  0  0  0  0
  147.0924  141.2058  153.1767 C   0  0  0  0  0  0  0  0  0  0  0  0
  146.5762  139.8900  153.6971 C   0  0  1  0  0  0  0  0  0  0  0  0
  147.0530  138.7004  152.8478 C   0  0  0  0  0  0  0  0  0  0  0  0
  148.4636  138.6423  152.8388 O   0  0  0  0  0  0  0  0  0  0  0  0
  147.0840  139.8630  155.1624 C   0  0  0  0  0  0  0  0  0  0  0  0
  151.3543  143.4365  158.7210 C   0  0  0  0  0  0  0  0  0  0  0  0
  147.0555  141.8295  156.1317 H   0  0  0  0  0  0  0  0  0  0  0  0
  145.4866  139.9422  153.6813 H   0  0  0  0  0  0  0  0  0  0  0  0
  152.5909  145.8114  160.8849 H   0  0  0  0  0  0  0  0  0  0  0  0
  150.8662  145.5821  160.5759 H   0  0  0  0  0  0  0  0  0  0  0  0
  151.9354  146.1206  159.2740 H   0  0  0  0  0  0  0  0  0  0  0  0
  153.6832  143.6770  161.2048 H   0  0  0  0  0  0  0  0  0  0  0  0
  154.8015  141.5509  161.4714 H   0  0  0  0  0  0  0  0  0  0  0  0
  155.0601  140.7416  159.9228 H   0  0  0  0  0  0  0  0  0  0  0  0
  153.8365  140.1342  161.0460 H   0  0  0  0  0  0  0  0  0  0  0  0
  151.2474  140.9733  156.6668 H   0  0  0  0  0  0  0  0  0  0  0  0
  149.7072  140.5967  155.4958 H   0  0  0  0  0  0  0  0  0  0  0  0
  148.1218  142.9128  153.9633 H   0  0  0  0  0  0  0  0  0  0  0  0
  146.9628  141.5073  152.1478 H   0  0  0  0  0  0  0  0  0  0  0  0
  146.6725  137.7639  153.2573 H   0  0  0  0  0  0  0  0  0  0  0  0
  146.6863  138.7785  151.8237 H   0  0  0  0  0  0  0  0  0  0  0  0
  148.7299  137.8521  152.3942 H   0  0  0  0  0  0  0  0  0  0  0  0
  147.8337  139.0802  155.2883 H   0  0  0  0  0  0  0  0  0  0  0  0
  146.2748  139.6327  155.8563 H   0  0  0  0  0  0  0  0  0  0  0  0
  150.5982  144.0112  158.2055 H   0  0  0  0  0  0  0  0  0  0  0  0
  1  2  1  0  0  0  0
  1 22  1  0  0  0  0
  1 23  1  0  0  0  0
  1 24  1  0  0  0  0
  2 19  1  0  0  0  0
  2  3  2  0  0  0  0
  3  4  1  0  0  0  0
  3 25  1  0  0  0  0
  4  5  1  0  0  0  0
  4  6  2  0  0  0  0
  5 26  1  0  0  0  0
  5 27  1  0  0  0  0
  5 28  1  0  0  0  0
  6  7  1  0  0  0  0
  7  8  1  0  0  0  0
  7 19  2  0  0  0  0
  8  9  1  0  0  0  0
  8 29  1  0  0  0  0
  9 10  2  0  0  0  0
  9 11  1  0  0  0  0
 11 12  1  0  0  0  0
 11 30  1  0  0  0  0
 12 20  1  0  0  0  0
 12 18  1  0  0  0  0
 12 13  1  0  0  0  0
 13 14  2  0  0  0  0
 13 31  1  0  0  0  0
 14 15  1  0  0  0  0
 14 32  1  0  0  0  0
 15 21  1  0  0  0  0
 15 16  1  0  0  0  0
 15 18  1  0  0  0  0
 16 17  1  0  0  0  0
 16 33  1  0  0  0  0
 16 34  1  0  0  0  0
 17 35  1  0  0  0  0
 18 36  1  0  0  0  0
 18 37  1  0  0  0  0
 19 38  1  0  0  0  0
M  END
> <s_m_source_file>
AV-unprocessed.smi

> <i_m_source_file_index>
2402

> <i_lp_mmshare_version>
43012

> <i_f3d_flags>
0

> <s_epik_input>
W0NIM11jMVtjSF1jKFtDSDNdKW5jKFtjSF0xKVtOSF1DKD1PKVtOSF1bQ0BASF0yW0NIXT1bQ0hdW0NAQEhdKFtDSDJdMilbQ0gyXVtPSF0=

> <s_epik_cmdline>
J2VwaWtfcHl0aG9uJywgJy1waCcsICc3LjAnLCAnLXRuJywgJzgnLCAnLW1hJywgJzIwMCcsICctbWV0YWxfYmluZGluZycsICctaW1hZScsICc8aW5maWxlLm1hZT4nLCAnLW9tYWUnLCAnPG91dGZpbGUubWFlPic=

> <r_lp_tautomer_probability>
1

> <r_epik_Ionization_Penalty>
0.000257495

> <r_epik_Ionization_Penalty_Charging>
0

> <r_epik_Ionization_Penalty_Neutral>
0.000257495

> <r_epik_State_Penalty>
-0

> <r_epik_Charging_Adjusted_Penalty>
0

> <i_epik_Tot_Q>
0

> <i_epik_Tot_abs_Q>
0

> <r_epik_Metal_State_Penalty>
-0

> <b_epik_Metal_Only>
0

> <s_lp_Force_Field>
OPLS_2005

> <r_lp_Energy>
18.3393

> <b_lp_Chiralities_Consistent>
1

> <s_lp_Variant>
AV-unprocessed.smi:2402-4

> <Gold.Version>
5.8.1

> <Gold.Id.Protein>
6NUR|6NUR_protein|mol2

> <Gold.PLP.Fitness>
39.8781

> <Gold.PLP.PLP>
-37.5990

> <Gold.PLP.part.hbond>
-1.9559

> <Gold.PLP.part.metal>
0.0000

> <Gold.PLP.part.buried>
-5.8043

> <Gold.PLP.part.nonpolar>
-30.6773

> <Gold.PLP.part.repulsive>
1.3051

> <Gold.PLP.ligand.clash>
0.0000

> <Gold.PLP.ligand.torsion>
0.3673

> <Gold.PLP.Chemscore.Hbond>
1.0000

> <Gold.PLP.Chemscore.CHOScore>
0.0000

> <Gold.PLP.Chemscore.Metal>
0.0000

> <Gold.Chemscore.Hbonds>
donor molecule, donor type, donor heavy atom, donor atom, acceptor molecule, acceptor atom, score
      L1  H    17    35       P1  7948  1.00

> <Gold.PLP.Chemscore.Internal.Correction>
0.0137

> <Gold.Rescore>
     Score         DG    S(hbond)    S(metal)    S(lipo)     H(rot)  DE(clash)    DE(int)     intcor
     14.23     -15.96       1.00        0.00     100.04       1.78       0.13       1.59       ----

> <Gold.Chemscore.Fitness>
14.2314

> <Gold.Chemscore.DG>
-15.9558

> <Gold.Chemscore.ZeroCoef>
-5.4800

> <Gold.Chemscore.Hbond>
0.9996

> <Gold.Chemscore.Metal>
0.0000

> <Gold.Chemscore.Lipo>
100.0447

> <Gold.Chemscore.Internal_Hbond>
0.0000

> <Gold.Chemscore.DEClash>
0.1297

> <Gold.Chemscore.DEInternal>
1.5947

> <Gold.Chemscore.Rot>
1.7844

> <Gold.Chemscore.Internal.Correction>
   9.000000E+99

> <Gold.Chemscore.Hbonds>
donor molecule, donor type, donor heavy atom, donor atom, acceptor molecule, acceptor atom, score
      L1  H    17    35       P1  7948  1.00

> <Gold.Chemscore.Hbond.Weighted>
-3.3387

> <Gold.Chemscore.Metal.Weighted>
-0.0000

> <Gold.Chemscore.Lipo.Weighted>
-11.7052

> <Gold.Chemscore.Internal_Hbond.Weighted>
0.0000

> <Gold.Chemscore.DEClash.Weighted>
0.1297

> <Gold.Chemscore.DEInternal.Weighted>
1.5947

> <Gold.Chemscore.Rot.Weighted>
4.5681

> <Gold.Chemscore.Internal.Correction.Weighted>
   9.000000E+99

> <Gold.Protein.RotatedTorsions>
[ 6907 6896 6895 6894 ] final   47.72 input  -60.11 | X-H torsion
[ 7974 7965 7964 7962 ] final -100.30 input  175.53 | X-H torsion
[ 8008 7997 7996 7995 ] final   39.94 input   59.86 | X-H torsion
[ 10167 10162 10161 10158 ] final  144.66 input  -65.29 | X-H torsion
[ 10718 10713 10712 10709 ] final  173.87 input   66.30 | X-H torsion
[ 10763 10752 10751 10750 ] final   17.67 input  -60.55 | X-H torsion
[ 11005 11000 10999 10996 ] final  -23.58 input  -57.11 | X-H torsion

> <Gold.Protein.ActiveResidues>
 VAL166  LYS551  ARG553  GLY616  TRP617  ASP618  TYR619  PRO620  LYS621  CYS622 
 ASP623  PHE694  ASN695  SER759  ASP760  ASP761  ALA762  ILE779  LEU786  VAL792 
 PHE793  MET794  SER795  GLU796  ALA797  LYS798  CYS799  TRP800  GLU811  SER814 

> <Gold.Protein.RotatedAtoms>
  152.2713  134.7929  160.0413 H   0  0  0  0  0  0  0  0  0  0  0  0  # atno 6907 bound_to 6896
  151.8541  133.3440  159.3691 H   0  0  0  0  0  0  0  0  0  0  0  0  # atno 6908 bound_to 6896
  150.7153  134.5198  159.5692 H   0  0  0  0  0  0  0  0  0  0  0  0  # atno 6909 bound_to 6896
  145.2963  140.9366  143.2849 H   0  0  0  0  0  0  0  0  0  0  0  0  # atno 7974 bound_to 7965
  155.2450  140.3348  155.4288 H   0  0  0  0  0  0  0  0  0  0  0  0  # atno 8008 bound_to 7997
  156.2240  140.1821  156.7453 H   0  0  0  0  0  0  0  0  0  0  0  0  # atno 8009 bound_to 7997
  154.5869  140.0644  156.9169 H   0  0  0  0  0  0  0  0  0  0  0  0  # atno 8010 bound_to 7997
  139.4942  144.5956  151.6589 H   0  0  0  0  0  0  0  0  0  0  0  0  # atno 10167 bound_to 10162
  156.9580  131.0052  151.2934 H   0  0  0  0  0  0  0  0  0  0  0  0  # atno 10718 bound_to 10713
  153.1317  135.6741  153.9167 H   0  0  0  0  0  0  0  0  0  0  0  0  # atno 10763 bound_to 10752
  153.8651  135.3076  155.3441 H   0  0  0  0  0  0  0  0  0  0  0  0  # atno 10764 bound_to 10752
  154.7713  135.4938  153.9737 H   0  0  0  0  0  0  0  0  0  0  0  0  # atno 10765 bound_to 10752
  140.8765  133.7684  156.0249 H   0  0  0  0  0  0  0  0  0  0  0  0  # atno 11005 bound_to 11000
  144.9130  139.4505  143.6578 LP  0  0  0  0  0  0  0  0  0  0  0  0  # atno 17320 bound_to 7965
  146.3167  139.7949  142.8977 LP  0  0  0  0  0  0  0  0  0  0  0  0  # atno 17321 bound_to 7965
  140.5594  144.0294  150.6162 LP  0  0  0  0  0  0  0  0  0  0  0  0  # atno 17342 bound_to 10162
  140.3375  143.3040  152.0623 LP  0  0  0  0  0  0  0  0  0  0  0  0  # atno 17343 bound_to 10162
  157.5677  130.8289  149.8349 LP  0  0  0  0  0  0  0  0  0  0  0  0  # atno 17370 bound_to 10713
  156.0334  130.3758  150.1625 LP  0  0  0  0  0  0  0  0  0  0  0  0  # atno 17371 bound_to 10713
  140.8512  134.2951  157.5274 LP  0  0  0  0  0  0  0  0  0  0  0  0  # atno 17394 bound_to 11000
  139.8716  134.9469  156.3951 LP  0  0  0  0  0  0  0  0  0  0  0  0  # atno 17395 bound_to 11000

$$$$
