#       Name:                AV-unprocessed.smi:2202
#       Creating user name   scv26
#       Creation time:       Fri Mar 27 12:14:41 2020


#       File generated by GOLD software.
#

@<TRIPOS>MOLECULE
AV-unprocessed.smi:2202
    49    51     1
SMALL
NO_CHARGES


@<TRIPOS>ATOM
      1 ****         0.2456   0.9671   0.3400 O.2            1 S1                 0.0000
      2 ****        -0.0890   0.2909   1.3140 C.2            1 S1                 0.0000
      3 ****        -1.5529  -0.1214   1.5253 C.3            1 S1                 0.0000
      4 ****        -2.3797   0.0339   0.3216 N.am           1 S1                 0.0000
      5 ****        -3.1199   1.1252   0.0436 C.2            1 S1                 0.0000
      6 ****        -3.1723   2.1731   0.6866 O.2            1 S1                 0.0000
      7 ****        -3.9727   0.8435  -1.1842 C.3            1 S1                 0.0000
      8 ****        -4.3089   1.9188  -2.2244 C.3            1 S1                 0.0000
      9 ****        -4.9481   1.2264  -3.4328 C.2            1 S1                 0.0000
     10 ****        -4.8848  -0.1095  -3.6554 C.2            1 S1                 0.0000
     11 ****        -4.1313  -1.0882  -2.7484 C.3            1 S1                 0.0000
     12 ****        -3.1941  -0.2751  -1.8474 C.3            1 S1                 0.0000
     13 ****        -2.4577  -0.8828  -0.6635 C.2            1 S1                 0.0000
     14 ****        -1.9652  -2.0106  -0.6706 O.2            1 S1                 0.0000
     15 ****         0.7771  -0.1248   2.2502 N.am           1 S1                 0.0000
     16 ****         2.2112   0.1408   2.2400 C.3            1 S1                 0.0000
     17 ****         2.9559  -0.8118   1.2893 C.3            1 S1                 0.0000
     18 ****         4.4536  -0.5708   1.2896 C.ar           1 S1                 0.0000
     19 ****         5.3172  -1.3999   2.0372 C.ar           1 S1                 0.0000
     20 ****         6.6993  -1.1303   2.0057 C.ar           1 S1                 0.0000
     21 ****         7.1619  -0.0474   1.2333 C.ar           1 S1                 0.0000
     22 ****         6.2176   0.7216   0.5242 C.ar           1 S1                 0.0000
     23 ****         4.8906   0.4718   0.5477 N.ar           1 S1                 0.0000
     24 ****        -1.5874  -1.1596   1.8607 H              1 S1                 0.0000
     25 ****        -1.9642   0.4699   2.3450 H              1 S1                 0.0000
     26 ****        -4.9161   0.4504  -0.7976 H              1 S1                 0.0000
     27 ****        -5.0111   2.6409  -1.8068 H              1 S1                 0.0000
     28 ****        -3.4206   2.4664  -2.5415 H              1 S1                 0.0000
     29 ****        -5.4769   1.8600  -4.1297 H              1 S1                 0.0000
     30 ****        -5.3812  -0.5320  -4.5166 H              1 S1                 0.0000
     31 ****        -4.8437  -1.6743  -2.1668 H              1 S1                 0.0000
     32 ****        -3.5558  -1.7816  -3.3623 H              1 S1                 0.0000
     33 ****        -2.4142   0.1525  -2.4822 H              1 S1                 0.0000
     34 ****         0.4187  -0.6707   3.0204 H              1 S1                 0.0000
     35 ****         2.3966   1.1811   1.9664 H              1 S1                 0.0000
     36 ****         2.5854   0.0159   3.2565 H              1 S1                 0.0000
     37 ****         2.7593  -1.8472   1.5710 H              1 S1                 0.0000
     38 ****         2.5843  -0.6973   0.2698 H              1 S1                 0.0000
     39 ****         4.9321  -2.2224   2.6219 H              1 S1                 0.0000
     40 ****         7.3918  -1.7428   2.5641 H              1 S1                 0.0000
     41 ****         8.2146   0.1888   1.1857 H              1 S1                 0.0000
     42 ****         6.5365   1.5598  -0.0775 H              1 S1                 0.0000
     43 ****        -0.4406   1.2559  -0.3277 LP             1 S1                 0.0000
     44 ****         1.2033   1.2272   0.2171 LP             1 S1                 0.0000
     45 ****        -2.6241   2.2786   1.5162 LP             1 S1                 0.0000
     46 ****        -3.7631   2.9192   0.3794 LP             1 S1                 0.0000
     47 ****        -1.4394  -2.3315   0.1171 LP             1 S1                 0.0000
     48 ****        -2.0909  -2.6060  -1.4641 LP             1 S1                 0.0000
     49 ****         4.2503   1.0409   0.0318 LP             1 S1                 0.0000
@<TRIPOS>BOND
    1    1    2 2     
    2    2    3 1     
    3    2   15 am    
    4    3    4 1     
    5    3   24 1     
    6    3   25 1     
    7    4   13 am    
    8    4    5 am    
    9    5    6 2     
   10    5    7 1     
   11    7   12 1     
   12    7    8 1     
   13    7   26 1     
   14    8    9 1     
   15    8   27 1     
   16    8   28 1     
   17    9   10 2     
   18    9   29 1     
   19   10   11 1     
   20   10   30 1     
   21   11   12 1     
   22   11   31 1     
   23   11   32 1     
   24   12   13 1     
   25   12   33 1     
   26   13   14 2     
   27   15   16 1     
   28   15   34 1     
   29   16   17 1     
   30   16   35 1     
   31   16   36 1     
   32   17   18 1     
   33   17   37 1     
   34   17   38 1     
   35   18   23 ar    
   36   18   19 ar    
   37   19   20 ar    
   38   19   39 1     
   39   20   21 ar    
   40   20   40 1     
   41   21   22 ar    
   42   21   41 1     
   43   22   23 ar    
   44   22   42 1     
   45    1   43 1     
   46    1   44 1     
   47    6   45 1     
   48    6   46 1     
   49   14   47 1     
   50   14   48 1     
   51   23   49 1     
@<TRIPOS>SUBSTRUCTURE
      1 S1             1
@<TRIPOS>SET
LONE_PAIRS      STATIC     ATOMS    <user>   **** ""
7 43 44 45 46 47 48 49
DONOR_HYDROGENS      STATIC     ATOMS    <user>   **** ""
1 34
ATOM$BLUE        STATIC     ATOMS    COLORGROUP SYSTEM
7 43 44 45 46 47 48 49
ATOM$RED        STATIC     ATOMS    COLORGROUP SYSTEM
1 34
