AV-unprocessed.smi:2368|AV-procd|sdf|9425|dock1
  -GOLD-   2272013 63D 1   1.00000     0.00000
 Structure written by MMmdl.
 35 36  0  0  0  0  0  0  0  0  1 V2000
  146.2300  130.5770  151.4495 C   0  0  0  0  0  0  0  0  0  0  0  0
  145.6712  131.9576  151.1595 C   0  0  0  0  0  0  0  0  0  0  0  0
  144.5483  131.9880  150.4091 N   0  0  0  0  0  0  0  0  0  0  0  0
  144.0058  133.1899  150.1273 C   0  0  0  0  0  0  0  0  0  0  0  0
  144.5528  134.4098  150.5693 C   0  0  0  0  0  0  0  0  0  0  0  0
  145.7391  134.3832  151.3413 C   0  0  0  0  0  0  0  0  0  0  0  0
  146.3660  135.5537  151.8528 N   0  0  0  0  0  0  0  0  0  0  0  0
  145.7956  136.6502  152.3806 C   0  0  0  0  0  0  0  0  0  0  0  0
  144.5853  136.8335  152.5110 O   0  0  0  0  0  0  0  0  0  0  0  0
  146.7203  137.5508  152.7419 N   0  0  0  0  0  0  0  0  0  0  0  0
  146.4289  138.8511  153.3355 C   0  0  2  0  0  0  0  0  0  0  0  0
  146.9246  139.9591  152.4474 C   0  0  0  0  0  0  0  0  0  0  0  0
  147.7549  140.7883  153.0752 C   0  0  0  0  0  0  0  0  0  0  0  0
  147.9939  140.4009  154.5125 C   0  0  2  0  0  0  0  0  0  0  0  0
  149.4865  140.2346  154.8466 C   0  0  0  0  0  0  0  0  0  0  0  0
  150.1609  139.5703  153.7986 O   0  0  0  0  0  0  0  0  0  0  0  0
  147.1857  139.0875  154.6695 C   0  0  0  0  0  0  0  0  0  0  0  0
  146.3019  133.1234  151.6545 C   0  0  0  0  0  0  0  0  0  0  0  0
  147.7370  133.0093  152.6181 Cl  0  0  0  0  0  0  0  0  0  0  0  0
  145.3530  138.9738  153.4701 H   0  0  0  0  0  0  0  0  0  0  0  0
  147.5585  141.1748  155.1464 H   0  0  0  0  0  0  0  0  0  0  0  0
  147.2425  130.4882  151.0553 H   0  0  0  0  0  0  0  0  0  0  0  0
  145.6220  129.7937  150.9948 H   0  0  0  0  0  0  0  0  0  0  0  0
  146.2605  130.3984  152.5246 H   0  0  0  0  0  0  0  0  0  0  0  0
  143.1021  133.1797  149.5362 H   0  0  0  0  0  0  0  0  0  0  0  0
  144.0489  135.3306  150.3200 H   0  0  0  0  0  0  0  0  0  0  0  0
  147.3678  135.5896  151.7342 H   0  0  0  0  0  0  0  0  0  0  0  0
  147.6932  137.3237  152.5965 H   0  0  0  0  0  0  0  0  0  0  0  0
  146.6106  140.0568  151.4184 H   0  0  0  0  0  0  0  0  0  0  0  0
  148.2152  141.6582  152.6304 H   0  0  0  0  0  0  0  0  0  0  0  0
  149.9518  141.2099  154.9929 H   0  0  0  0  0  0  0  0  0  0  0  0
  149.6179  139.6713  155.7714 H   0  0  0  0  0  0  0  0  0  0  0  0
  149.6616  139.6789  153.0035 H   0  0  0  0  0  0  0  0  0  0  0  0
  146.4857  139.1592  155.5027 H   0  0  0  0  0  0  0  0  0  0  0  0
  147.8513  138.2526  154.8950 H   0  0  0  0  0  0  0  0  0  0  0  0
  1  2  1  0  0  0  0
  1 22  1  0  0  0  0
  1 23  1  0  0  0  0
  1 24  1  0  0  0  0
  2 18  1  0  0  0  0
  2  3  2  0  0  0  0
  3  4  1  0  0  0  0
  4  5  2  0  0  0  0
  4 25  1  0  0  0  0
  5  6  1  0  0  0  0
  5 26  1  0  0  0  0
  6  7  1  0  0  0  0
  6 18  2  0  0  0  0
  7  8  1  0  0  0  0
  7 27  1  0  0  0  0
  8  9  2  0  0  0  0
  8 10  1  0  0  0  0
 10 11  1  0  0  0  0
 10 28  1  0  0  0  0
 11 20  1  0  0  0  0
 11 17  1  0  0  0  0
 11 12  1  0  0  0  0
 12 13  2  0  0  0  0
 12 29  1  0  0  0  0
 13 14  1  0  0  0  0
 13 30  1  0  0  0  0
 14 21  1  0  0  0  0
 14 15  1  0  0  0  0
 14 17  1  0  0  0  0
 15 16  1  0  0  0  0
 15 31  1  0  0  0  0
 15 32  1  0  0  0  0
 16 33  1  0  0  0  0
 17 34  1  0  0  0  0
 17 35  1  0  0  0  0
 18 19  1  0  0  0  0
M  END
> <s_m_source_file>
AV-unprocessed.smi

> <i_m_source_file_index>
2368

> <i_lp_mmshare_version>
43012

> <i_f3d_flags>
0

> <s_epik_input>
W0NIM11jMW5bY0hdW2NIXWMoYzFDbClbTkhdQyg9TylbTkhdW0NAQEhdMltDSF09W0NIXVtDQEBIXShbQ0gyXTIpW0NIMl1bT0hd

> <s_epik_cmdline>
J2VwaWtfcHl0aG9uJywgJy1waCcsICc3LjAnLCAnLXRuJywgJzgnLCAnLW1hJywgJzIwMCcsICctbWV0YWxfYmluZGluZycsICctaW1hZScsICc8aW5maWxlLm1hZT4nLCAnLW9tYWUnLCAnPG91dGZpbGUubWFlPic=

> <r_epik_Ionization_Penalty>
0.00964582

> <r_epik_Ionization_Penalty_Charging>
0

> <r_epik_Ionization_Penalty_Neutral>
0.00964582

> <r_epik_State_Penalty>
0.00730775

> <r_epik_Charging_Adjusted_Penalty>
0.00730775

> <i_epik_Tot_Q>
0

> <i_epik_Tot_abs_Q>
0

> <r_epik_Metal_State_Penalty>
0.00719079

> <b_epik_Metal_Only>
0

> <s_lp_Force_Field>
OPLS_2005

> <r_lp_Energy>
20.8925

> <b_lp_Chiralities_Consistent>
1

> <s_lp_Variant>
AV-unprocessed.smi:2368-1

> <Gold.Version>
5.8.1

> <Gold.Id.Protein>
6NUR|6NUR_protein|mol2

> <Gold.PLP.Fitness>
44.2436

> <Gold.PLP.PLP>
-30.4118

> <Gold.PLP.part.hbond>
-4.0000

> <Gold.PLP.part.metal>
0.0000

> <Gold.PLP.part.buried>
1.2739

> <Gold.PLP.part.nonpolar>
-27.6499

> <Gold.PLP.part.repulsive>
0.4232

> <Gold.PLP.ligand.clash>
0.0000

> <Gold.PLP.ligand.torsion>
0.4854

> <Gold.PLP.Chemscore.Hbond>
3.9280

> <Gold.PLP.Chemscore.CHOScore>
1.0000

> <Gold.PLP.Chemscore.Metal>
0.0000

> <Gold.Chemscore.Hbonds>
donor molecule, donor type, donor heavy atom, donor atom, acceptor molecule, acceptor atom, score
      L1  H     7    27       P1  7948  1.00
      L1  H    10    28       P1  7948  0.99
      L1  H    16    33       P1  7957  0.98
      P1  H  7989  7998       L1    16  0.94
      L1  C     4    25       P1 10186  1.00

> <Gold.PLP.Chemscore.Internal.Correction>
0.0187

> <Gold.Rescore>
     Score         DG    S(hbond)    S(metal)    S(lipo)     H(rot)  DE(clash)    DE(int)     intcor
     18.90     -21.14       2.94        0.00      88.70       1.78       1.73       0.51       ----

> <Gold.Chemscore.Fitness>
18.8979

> <Gold.Chemscore.DG>
-21.1351

> <Gold.Chemscore.ZeroCoef>
-5.4800

> <Gold.Chemscore.Hbond>
2.9440

> <Gold.Chemscore.Metal>
0.0000

> <Gold.Chemscore.Lipo>
88.7018

> <Gold.Chemscore.Internal_Hbond>
0.0000

> <Gold.Chemscore.DEClash>
1.7316

> <Gold.Chemscore.DEInternal>
0.5056

> <Gold.Chemscore.Rot>
1.7796

> <Gold.Chemscore.Internal.Correction>
   9.000000E+99

> <Gold.Chemscore.Hbonds>
donor molecule, donor type, donor heavy atom, donor atom, acceptor molecule, acceptor atom, score
      L1  H     7    27       P1  7948  0.99
      L1  H    10    28       P1  7948  0.93
      L1  H    16    33       P1  7957  0.93
      P1  H  7989  7998       L1    16  0.06

> <Gold.Chemscore.Hbond.Weighted>
-9.8329

> <Gold.Chemscore.Metal.Weighted>
-0.0000

> <Gold.Chemscore.Lipo.Weighted>
-10.3781

> <Gold.Chemscore.Internal_Hbond.Weighted>
0.0000

> <Gold.Chemscore.DEClash.Weighted>
1.7316

> <Gold.Chemscore.DEInternal.Weighted>
0.5056

> <Gold.Chemscore.Rot.Weighted>
4.5558

> <Gold.Chemscore.Internal.Correction.Weighted>
   9.000000E+99

> <Gold.Protein.RotatedTorsions>
[ 6907 6896 6895 6894 ] final  106.62 input  -60.11 | X-H torsion
[ 7974 7965 7964 7962 ] final   57.10 input  175.53 | X-H torsion
[ 8008 7997 7996 7995 ] final -152.99 input   59.86 | X-H torsion
[ 10167 10162 10161 10158 ] final  -17.75 input  -65.29 | X-H torsion
[ 10718 10713 10712 10709 ] final -150.72 input   66.30 | X-H torsion
[ 10763 10752 10751 10750 ] final  145.67 input  -60.55 | X-H torsion
[ 11005 11000 10999 10996 ] final -122.59 input  -57.11 | X-H torsion

> <Gold.Protein.ActiveResidues>
 VAL166  LYS551  ARG553  GLY616  TRP617  ASP618  TYR619  PRO620  LYS621  CYS622 
 ASP623  PHE694  ASN695  SER759  ASP760  ASP761  ALA762  ILE779  LEU786  VAL792 
 PHE793  MET794  SER795  GLU796  ALA797  LYS798  CYS799  TRP800  GLU811  SER814 

> <Gold.Protein.RotatedAtoms>
  152.5186  133.9354  159.7600 H   0  0  0  0  0  0  0  0  0  0  0  0  # atno 6907 bound_to 6896
  150.9696  133.6350  159.2747 H   0  0  0  0  0  0  0  0  0  0  0  0  # atno 6908 bound_to 6896
  151.3566  135.0901  159.9473 H   0  0  0  0  0  0  0  0  0  0  0  0  # atno 6909 bound_to 6896
  145.9327  139.3821  143.0411 H   0  0  0  0  0  0  0  0  0  0  0  0  # atno 7974 bound_to 7965
  155.6638  140.0725  157.2544 H   0  0  0  0  0  0  0  0  0  0  0  0  # atno 8008 bound_to 7997
  154.4137  140.1711  156.1856 H   0  0  0  0  0  0  0  0  0  0  0  0  # atno 8009 bound_to 7997
  155.9675  140.3365  155.6548 H   0  0  0  0  0  0  0  0  0  0  0  0  # atno 8010 bound_to 7997
  140.7251  143.4985  150.9900 H   0  0  0  0  0  0  0  0  0  0  0  0  # atno 10167 bound_to 10162
  156.4498  130.8162  151.2393 H   0  0  0  0  0  0  0  0  0  0  0  0  # atno 10718 bound_to 10713
  154.0092  135.2916  155.3394 H   0  0  0  0  0  0  0  0  0  0  0  0  # atno 10763 bound_to 10752
  154.7113  135.5148  153.8674 H   0  0  0  0  0  0  0  0  0  0  0  0  # atno 10764 bound_to 10752
  153.0730  135.6654  154.0326 H   0  0  0  0  0  0  0  0  0  0  0  0  # atno 10765 bound_to 10752
  140.9984  134.0439  157.3569 H   0  0  0  0  0  0  0  0  0  0  0  0  # atno 11005 bound_to 11000
  145.8404  140.9583  143.0802 LP  0  0  0  0  0  0  0  0  0  0  0  0  # atno 17320 bound_to 7965
  144.6767  140.0277  143.7483 LP  0  0  0  0  0  0  0  0  0  0  0  0  # atno 17321 bound_to 7965
  139.8693  143.7213  152.3167 LP  0  0  0  0  0  0  0  0  0  0  0  0  # atno 17342 bound_to 10162
  139.7456  144.7548  151.0584 LP  0  0  0  0  0  0  0  0  0  0  0  0  # atno 17343 bound_to 10162
  157.7503  131.0141  150.3453 LP  0  0  0  0  0  0  0  0  0  0  0  0  # atno 17370 bound_to 10713
  156.3829  130.3883  149.7088 LP  0  0  0  0  0  0  0  0  0  0  0  0  # atno 17371 bound_to 10713
  139.9026  135.0170  156.7340 LP  0  0  0  0  0  0  0  0  0  0  0  0  # atno 17394 bound_to 11000
  140.6929  133.9374  155.7977 LP  0  0  0  0  0  0  0  0  0  0  0  0  # atno 17395 bound_to 11000

$$$$
