AV-unprocessed.smi:1754|AV-procd|sdf|7069|dock4
  -GOLD-   22720 8283D 1   1.00000     0.00000
 Structure written by MMmdl.
 44 45  0  0  0  0  0  0  0  0  3 V2000
  151.2076  142.7749  157.0045 C   0  0  0  0  0  0  0  0  0  0  0  0
  150.8029  142.5655  158.4693 C   0  0  0  0  0  0  0  0  0  0  0  0
  151.6188  143.3587  159.3846 N   0  0  0  0  0  0  0  0  0  0  0  0
  151.5591  144.8173  159.3055 C   0  0  0  0  0  0  0  0  0  0  0  0
  150.2095  145.3695  159.7834 C   0  0  0  0  0  0  0  0  0  0  0  0
  152.4945  142.7262  160.2973 C   0  0  0  0  0  0  0  0  0  0  0  0
  152.5848  143.0826  161.6658 C   0  0  0  0  0  0  0  0  0  0  0  0
  153.4810  142.3994  162.5128 C   0  0  0  0  0  0  0  0  0  0  0  0
  154.2923  141.3711  161.9925 C   0  0  0  0  0  0  0  0  0  0  0  0
  155.1611  140.6935  162.8894 N   0  0  0  0  0  0  0  0  0  0  0  0
  155.6036  139.4122  162.8567 C   0  0  0  0  0  0  0  0  0  0  0  0
  155.2997  138.7003  161.9012 O   0  0  0  0  0  0  0  0  0  0  0  0
  156.3988  138.9429  163.8657 N   0  5  0  0  0  0  0  0  0  0  0  0
  156.2629  137.7126  164.6655 C   0  0  1  0  0  0  0  0  0  0  0  0
  154.8130  137.6012  165.1858 C   0  0  0  0  0  0  0  0  0  0  0  0
  153.9074  137.0574  164.0722 C   0  0  0  0  0  0  0  0  0  0  0  0
  154.9478  135.8785  163.1360 S   0  0  0  0  0  0  0  0  0  0  0  0
  154.7112  134.5175  163.6424 O   0  0  0  0  0  0  0  0  0  0  0  0
  154.8451  136.1732  161.6984 O   0  0  0  0  0  0  0  0  0  0  0  0
  156.5575  136.4791  163.7883 C   0  0  0  0  0  0  0  0  0  0  0  0
  154.1591  141.0421  160.6238 C   0  0  0  0  0  0  0  0  0  0  0  0
  153.2875  141.7222  159.8488 N   0  3  0  0  0  0  0  0  0  0  0  0
  150.5941  142.1620  156.3439 H   0  0  0  0  0  0  0  0  0  0  0  0
  152.2493  142.4987  156.8384 H   0  0  0  0  0  0  0  0  0  0  0  0
  151.0847  143.8148  156.7010 H   0  0  0  0  0  0  0  0  0  0  0  0
  149.7433  142.7757  158.6117 H   0  0  0  0  0  0  0  0  0  0  0  0
  150.9250  141.5119  158.7221 H   0  0  0  0  0  0  0  0  0  0  0  0
  152.3536  145.2302  159.9280 H   0  0  0  0  0  0  0  0  0  0  0  0
  151.7741  145.1590  158.2927 H   0  0  0  0  0  0  0  0  0  0  0  0
  150.1976  146.4582  159.7289 H   0  0  0  0  0  0  0  0  0  0  0  0
  150.0092  145.0878  160.8175 H   0  0  0  0  0  0  0  0  0  0  0  0
  149.3880  144.9984  159.1699 H   0  0  0  0  0  0  0  0  0  0  0  0
  151.9849  143.8759  162.0846 H   0  0  0  0  0  0  0  0  0  0  0  0
  153.5471  142.6702  163.5565 H   0  0  0  0  0  0  0  0  0  0  0  0
  155.5300  141.2550  163.6428 H   0  0  0  0  0  0  0  0  0  0  0  0
  156.9439  137.7193  165.5180 H   0  0  0  0  0  0  0  0  0  0  0  0
  154.8002  136.8910  166.0131 H   0  0  0  0  0  0  0  0  0  0  0  0
  154.4405  138.5455  165.5847 H   0  0  0  0  0  0  0  0  0  0  0  0
  153.0157  136.5580  164.4504 H   0  0  0  0  0  0  0  0  0  0  0  0
  153.5986  137.8539  163.3930 H   0  0  0  0  0  0  0  0  0  0  0  0
  157.2428  136.6793  162.9640 H   0  0  0  0  0  0  0  0  0  0  0  0
  156.9841  135.6789  164.3929 H   0  0  0  0  0  0  0  0  0  0  0  0
  154.6997  140.2557  160.1188 H   0  0  0  0  0  0  0  0  0  0  0  0
  153.2184  141.4578  158.8662 H   0  0  0  0  0  0  0  0  0  0  0  0
  1  2  1  0  0  0  0
  1 23  1  0  0  0  0
  1 24  1  0  0  0  0
  1 25  1  0  0  0  0
  2  3  1  0  0  0  0
  2 26  1  0  0  0  0
  2 27  1  0  0  0  0
  3  4  1  0  0  0  0
  3  6  1  0  0  0  0
  4  5  1  0  0  0  0
  4 28  1  0  0  0  0
  4 29  1  0  0  0  0
  5 30  1  0  0  0  0
  5 31  1  0  0  0  0
  5 32  1  0  0  0  0
  6 22  1  0  0  0  0
  6  7  2  0  0  0  0
  7  8  1  0  0  0  0
  7 33  1  0  0  0  0
  8  9  2  0  0  0  0
  8 34  1  0  0  0  0
  9 10  1  0  0  0  0
  9 21  1  0  0  0  0
 10 11  1  0  0  0  0
 10 35  1  0  0  0  0
 11 12  2  0  0  0  0
 11 13  1  0  0  0  0
 13 14  1  0  0  0  0
 14 20  1  0  0  0  0
 14 15  1  0  0  0  0
 14 36  1  0  0  0  0
 15 16  1  0  0  0  0
 15 37  1  0  0  0  0
 15 38  1  0  0  0  0
 16 17  1  0  0  0  0
 16 39  1  0  0  0  0
 16 40  1  0  0  0  0
 17 18  2  0  0  0  0
 17 19  2  0  0  0  0
 17 20  1  0  0  0  0
 20 41  1  0  0  0  0
 20 42  1  0  0  0  0
 21 22  2  0  0  0  0
 21 43  1  0  0  0  0
 22 44  1  0  0  0  0
M  CHG  1  13  -1
M  CHG  1  22   1
M  END
> <s_m_source_file>
AV-unprocessed.smi

> <i_m_source_file_index>
1754

> <i_lp_mmshare_version>
43012

> <i_f3d_flags>
0

> <s_epik_input>
W0NIM11bQ0gyXU4oW0NIMl1bQ0gzXSljMVtjSF1bY0hdYyhbY0hdbjEpW05IXUMoPU8pW05IXVtDQEBIXShbQ0gyXTIpW0NIMl1bQ0gyXVMyKD1PKT1P

> <s_epik_cmdline>
J2VwaWtfcHl0aG9uJywgJy1waCcsICc3LjAnLCAnLXRuJywgJzgnLCAnLW1hJywgJzIwMCcsICctbWV0YWxfYmluZGluZycsICctaW1hZScsICc8aW5maWxlLm1hZT4nLCAnLW9tYWUnLCAnPG91dGZpbGUubWFlPic=

> <r_lp_tautomer_probability>
0.999994

> <r_epik_Ionization_Penalty>
7.1175

> <r_epik_Ionization_Penalty_Charging>
7.11749

> <r_epik_Ionization_Penalty_Neutral>
3.13064e-06

> <r_epik_State_Penalty>
6.65299

> <r_epik_Charging_Adjusted_Penalty>
13.7705

> <i_epik_Tot_Q>
0

> <i_epik_Tot_abs_Q>
2

> <r_epik_Metal_State_Penalty>
2.60496

> <b_epik_Metal_Only>
1

> <s_lp_Force_Field>
OPLS_2005

> <r_lp_Energy>
22.4709

> <b_lp_Chiralities_Consistent>
1

> <s_lp_Variant>
AV-unprocessed.smi:1754-6

> <Gold.Version>
5.8.1

> <Gold.Id.Protein>
6NUR|6NUR_protein|mol2

> <Gold.PLP.Fitness>
41.1031

> <Gold.PLP.PLP>
-44.1595

> <Gold.PLP.part.hbond>
-1.0000

> <Gold.PLP.part.metal>
0.0000

> <Gold.PLP.part.buried>
-3.9188

> <Gold.PLP.part.nonpolar>
-38.8156

> <Gold.PLP.part.repulsive>
0.0876

> <Gold.PLP.ligand.clash>
0.0000

> <Gold.PLP.ligand.torsion>
1.6336

> <Gold.PLP.Chemscore.Hbond>
0.0000

> <Gold.PLP.Chemscore.CHOScore>
0.0000

> <Gold.PLP.Chemscore.Metal>
0.0000

> <Gold.PLP.Chemscore.Internal.Correction>
0.2107

> <Gold.Rescore>
     Score         DG    S(hbond)    S(metal)    S(lipo)     H(rot)  DE(clash)    DE(int)     intcor
      9.66     -14.20       0.00        0.00     104.93       1.39       0.15       4.39       ----

> <Gold.Chemscore.Fitness>
9.6626

> <Gold.Chemscore.DG>
-14.2041

> <Gold.Chemscore.ZeroCoef>
-5.4800

> <Gold.Chemscore.Hbond>
0.0000

> <Gold.Chemscore.Metal>
0.0000

> <Gold.Chemscore.Lipo>
104.9267

> <Gold.Chemscore.Internal_Hbond>
0.0000

> <Gold.Chemscore.DEClash>
0.1515

> <Gold.Chemscore.DEInternal>
4.3899

> <Gold.Chemscore.Rot>
1.3876

> <Gold.Chemscore.Internal.Correction>
   9.000000E+99

> <Gold.Chemscore.Hbond.Weighted>
-0.0000

> <Gold.Chemscore.Metal.Weighted>
-0.0000

> <Gold.Chemscore.Lipo.Weighted>
-12.2764

> <Gold.Chemscore.Internal_Hbond.Weighted>
0.0000

> <Gold.Chemscore.DEClash.Weighted>
0.1515

> <Gold.Chemscore.DEInternal.Weighted>
4.3899

> <Gold.Chemscore.Rot.Weighted>
3.5524

> <Gold.Chemscore.Internal.Correction.Weighted>
   9.000000E+99

> <Gold.Protein.RotatedTorsions>
[ 6907 6896 6895 6894 ] final  -39.17 input  -60.11 | X-H torsion
[ 7974 7965 7964 7962 ] final  -10.58 input  175.53 | X-H torsion
[ 8008 7997 7996 7995 ] final   93.60 input   59.86 | X-H torsion
[ 10167 10162 10161 10158 ] final   79.13 input  -65.29 | X-H torsion
[ 10718 10713 10712 10709 ] final   20.66 input   66.30 | X-H torsion
[ 10763 10752 10751 10750 ] final   82.64 input  -60.55 | X-H torsion
[ 11005 11000 10999 10996 ] final  168.88 input  -57.11 | X-H torsion

> <Gold.Protein.ActiveResidues>
 VAL166  LYS551  ARG553  GLY616  TRP617  ASP618  TYR619  PRO620  LYS621  CYS622 
 ASP623  PHE694  ASN695  SER759  ASP760  ASP761  ALA762  ILE779  LEU786  VAL792 
 PHE793  MET794  SER795  GLU796  ALA797  LYS798  CYS799  TRP800  GLU811  SER814 

> <Gold.Protein.RotatedAtoms>
  150.9935  134.9264  159.7913 H   0  0  0  0  0  0  0  0  0  0  0  0  # atno 6907 bound_to 6896
  152.5258  134.3249  159.9172 H   0  0  0  0  0  0  0  0  0  0  0  0  # atno 6908 bound_to 6896
  151.3255  133.3981  159.2692 H   0  0  0  0  0  0  0  0  0  0  0  0  # atno 6909 bound_to 6896
  146.2216  140.2784  142.8361 H   0  0  0  0  0  0  0  0  0  0  0  0  # atno 7974 bound_to 7965
  156.0486  140.3310  155.7325 H   0  0  0  0  0  0  0  0  0  0  0  0  # atno 8008 bound_to 7997
  155.5635  140.0621  157.2841 H   0  0  0  0  0  0  0  0  0  0  0  0  # atno 8009 bound_to 7997
  154.4425  140.1873  156.0795 H   0  0  0  0  0  0  0  0  0  0  0  0  # atno 8010 bound_to 7997
  139.9635  144.5944  150.8050 H   0  0  0  0  0  0  0  0  0  0  0  0  # atno 10167 bound_to 10162
  157.1277  130.6577  149.5942 H   0  0  0  0  0  0  0  0  0  0  0  0  # atno 10718 bound_to 10713
  153.1220  135.4721  154.9211 H   0  0  0  0  0  0  0  0  0  0  0  0  # atno 10763 bound_to 10752
  154.7585  135.3125  154.8427 H   0  0  0  0  0  0  0  0  0  0  0  0  # atno 10764 bound_to 10752
  153.8989  135.6877  153.4810 H   0  0  0  0  0  0  0  0  0  0  0  0  # atno 10765 bound_to 10752
  140.2919  134.7666  157.3845 H   0  0  0  0  0  0  0  0  0  0  0  0  # atno 11005 bound_to 11000
  144.9215  140.7873  143.5745 LP  0  0  0  0  0  0  0  0  0  0  0  0  # atno 17320 bound_to 7965
  145.2721  139.1950  143.4836 LP  0  0  0  0  0  0  0  0  0  0  0  0  # atno 17321 bound_to 7965
  140.7545  143.3029  151.3036 LP  0  0  0  0  0  0  0  0  0  0  0  0  # atno 17342 bound_to 10162
  139.6535  144.0318  152.2643 LP  0  0  0  0  0  0  0  0  0  0  0  0  # atno 17343 bound_to 10162
  155.9815  130.4822  150.6829 LP  0  0  0  0  0  0  0  0  0  0  0  0  # atno 17370 bound_to 10713
  157.4420  131.0862  151.0933 LP  0  0  0  0  0  0  0  0  0  0  0  0  # atno 17371 bound_to 10713
  140.1188  134.5247  155.8202 LP  0  0  0  0  0  0  0  0  0  0  0  0  # atno 17394 bound_to 11000
  141.2145  133.6749  156.6827 LP  0  0  0  0  0  0  0  0  0  0  0  0  # atno 17395 bound_to 11000

$$$$
