#       Name:                AV-unprocessed.smi:287
#       Creating user name   scv26
#       Creation time:       Thu Mar 26 22:01:43 2020


#       File generated by GOLD software.
#

@<TRIPOS>MOLECULE
AV-unprocessed.smi:287
    70    73     1
SMALL
NO_CHARGES


@<TRIPOS>ATOM
      1 ****        -0.1771   4.6286   4.2774 C.3            1 S1                 0.0000
      2 ****        -0.6243   4.5491   2.8581 C.2            1 S1                 0.0000
      3 ****        -1.3297   3.6278   2.1405 C.2            1 S1                 0.0000
      4 ****        -1.4375   4.1189   0.8051 C.2            1 S1                 0.0000
      5 ****        -2.1454   3.4199  -0.3478 C.3            1 S1                 0.0000
      6 ****        -3.6674   3.4739  -0.1346 C.3            1 S1                 0.0000
      7 ****        -1.9204   4.0487  -1.5950 O.3            1 S1                 0.0000
      8 ****        -1.6854   1.9540  -0.5174 C.3            1 S1                 0.0000
      9 ****        -0.2385   1.8004  -0.4355 N.pl3          1 S1                 0.0000
     10 ****         0.3347   0.5788  -0.4455 C.ar           1 S1                 0.0000
     11 ****         1.6812   0.5685  -0.3013 N.ar           1 S1                 0.0000
     12 ****         2.3469  -0.5890  -0.2932 C.ar           1 S1                 0.0000
     13 ****         1.8662  -1.8271  -0.4125 N.ar           1 S1                 0.0000
     14 ****         0.5100  -1.8286  -0.5619 C.ar           1 S1                 0.0000
     15 ****        -0.3287  -0.6766  -0.5893 C.ar           1 S1                 0.0000
     16 ****        -1.6502  -1.0778  -0.7575 N.2            1 S1                 0.0000
     17 ****        -1.5899  -2.3797  -0.8217 C.2            1 S1                 0.0000
     18 ****        -0.3271  -2.9157  -0.7176 N.pl3          1 S1                 0.0000
     19 ****         0.0555  -4.3630  -0.7600 C.3            1 S1                 0.0000
     20 ****         1.0226  -4.5906   0.2159 O.3            1 S1                 0.0000
     21 ****         1.9368  -5.5723  -0.2563 C.3            1 S1                 0.0000
     22 ****         3.2471  -5.5447   0.5507 C.3            1 S1                 0.0000
     23 ****         3.0995  -6.2906   1.7401 O.3            1 S1                 0.0000
     24 ****         2.0681  -5.2360  -1.7491 C.3            1 S1                 0.0000
     25 ****         3.0314  -4.2177  -1.9606 O.3            1 S1                 0.0000
     26 ****         0.6508  -4.7971  -2.1170 C.3            1 S1                 0.0000
     27 ****         0.6012  -3.8278  -3.1517 O.3            1 S1                 0.0000
     28 ****        -0.7839   5.3279   0.8226 C.2            1 S1                 0.0000
     29 ****        -0.5166   6.3792  -0.2040 C.3            1 S1                 0.0000
     30 ****        -0.2859   5.5943   2.0624 O.3            1 S1                 0.0000
     31 ****        -0.8618  -4.8994  -0.5131 H              1 S1                 0.0000
     32 ****         1.4640  -6.5529  -0.1706 H              1 S1                 0.0000
     33 ****         2.3781  -6.1081  -2.3255 H              1 S1                 0.0000
     34 ****         0.0840  -5.6693  -2.4449 H              1 S1                 0.0000
     35 ****        -0.3271   3.6764   4.7864 H              1 S1                 0.0000
     36 ****        -0.7379   5.3925   4.8163 H              1 S1                 0.0000
     37 ****         0.8821   4.8796   4.3370 H              1 S1                 0.0000
     38 ****        -1.7228   2.6997   2.5286 H              1 S1                 0.0000
     39 ****        -3.9553   2.9756   0.7917 H              1 S1                 0.0000
     40 ****        -4.2031   2.9834  -0.9484 H              1 S1                 0.0000
     41 ****        -4.0239   4.5032  -0.0771 H              1 S1                 0.0000
     42 ****        -2.3950   3.5742  -2.2600 H              1 S1                 0.0000
     43 ****        -2.1169   1.3627   0.2913 H              1 S1                 0.0000
     44 ****        -2.0603   1.5358  -1.4526 H              1 S1                 0.0000
     45 ****         0.2858   2.6574  -0.3319 H              1 S1                 0.0000
     46 ****         3.4177  -0.5126  -0.1747 H              1 S1                 0.0000
     47 ****        -2.4725  -2.9888  -0.9521 H              1 S1                 0.0000
     48 ****         4.0518  -6.0046  -0.0235 H              1 S1                 0.0000
     49 ****         3.5520  -4.5230   0.7801 H              1 S1                 0.0000
     50 ****         3.9184  -6.2685   2.2115 H              1 S1                 0.0000
     51 ****         2.7412  -3.4365  -1.5126 H              1 S1                 0.0000
     52 ****        -0.2991  -3.5712  -3.2804 H              1 S1                 0.0000
     53 ****        -1.4468   6.7207  -0.6584 H              1 S1                 0.0000
     54 ****         0.1258   5.9919  -0.9949 H              1 S1                 0.0000
     55 ****        -0.0223   7.2456   0.2363 H              1 S1                 0.0000
     56 ****        -0.9430   4.0388  -1.8063 LP             1 S1                 0.0000
     57 ****        -2.2442   4.9942  -1.5594 LP             1 S1                 0.0000
     58 ****         2.1784   1.4303  -0.2006 LP             1 S1                 0.0000
     59 ****         2.4302  -2.6527  -0.3947 LP             1 S1                 0.0000
     60 ****        -2.4634  -0.4987  -0.8161 LP             1 S1                 0.0000
     61 ****         0.5835  -4.9168   1.0530 LP             1 S1                 0.0000
     62 ****         1.5130  -3.7402   0.4063 LP             1 S1                 0.0000
     63 ****         2.8636  -7.2366   1.5179 LP             1 S1                 0.0000
     64 ****         2.3759  -5.8898   2.3020 LP             1 S1                 0.0000
     65 ****         3.1191  -4.0332  -2.9396 LP             1 S1                 0.0000
     66 ****         3.9160  -4.5080  -1.5956 LP             1 S1                 0.0000
     67 ****         0.9645  -4.2186  -3.9975 LP             1 S1                 0.0000
     68 ****         1.1454  -3.0299  -2.8925 LP             1 S1                 0.0000
     69 ****         0.7090   5.6862   2.0205 LP             1 S1                 0.0000
     70 ****        -0.6840   6.4399   2.4181 LP             1 S1                 0.0000
@<TRIPOS>BOND
    1    1    2 1     
    2    1   35 1     
    3    1   36 1     
    4    1   37 1     
    5    2   30 1     
    6    2    3 2     
    7    3    4 1     
    8    3   38 1     
    9    4    5 1     
   10    4   28 2     
   11    5    6 1     
   12    5    7 1     
   13    5    8 1     
   14    6   39 1     
   15    6   40 1     
   16    6   41 1     
   17    7   42 1     
   18    8    9 1     
   19    8   43 1     
   20    8   44 1     
   21    9   10 1     
   22    9   45 1     
   23   10   15 ar    
   24   10   11 ar    
   25   11   12 ar    
   26   12   13 ar    
   27   12   46 1     
   28   13   14 ar    
   29   14   18 1     
   30   14   15 ar    
   31   15   16 1     
   32   16   17 2     
   33   17   18 1     
   34   17   47 1     
   35   18   19 1     
   36   19   31 1     
   37   19   26 1     
   38   19   20 1     
   39   20   21 1     
   40   21   32 1     
   41   21   22 1     
   42   21   24 1     
   43   22   23 1     
   44   22   48 1     
   45   22   49 1     
   46   23   50 1     
   47   24   33 1     
   48   24   25 1     
   49   24   26 1     
   50   25   51 1     
   51   26   34 1     
   52   26   27 1     
   53   27   52 1     
   54   28   29 1     
   55   28   30 1     
   56   29   53 1     
   57   29   54 1     
   58   29   55 1     
   59    7   56 1     
   60    7   57 1     
   61   11   58 1     
   62   13   59 1     
   63   16   60 1     
   64   20   61 1     
   65   20   62 1     
   66   23   63 1     
   67   23   64 1     
   68   25   65 1     
   69   25   66 1     
   70   27   67 1     
   71   27   68 1     
   72   30   69 1     
   73   30   70 1     
@<TRIPOS>SUBSTRUCTURE
      1 S1             1
@<TRIPOS>SET
LONE_PAIRS      STATIC     ATOMS    <user>   **** ""
15 56 57 58 59 60 61 62 63 64 65 66 67 68 69 70
DONOR_HYDROGENS      STATIC     ATOMS    <user>   **** ""
5 42 45 50 51 52
ATOM$BLUE        STATIC     ATOMS    COLORGROUP SYSTEM
15 56 57 58 59 60 61 62 63 64 65 66 67 68 69 70
ATOM$RED        STATIC     ATOMS    COLORGROUP SYSTEM
5 42 45 50 51 52
