AV-unprocessed.smi:1652|AV-procd|sdf|6639|dock10
  -GOLD-   22720 7343D 1   1.00000     0.00000
 Structure written by MMmdl.
 38 40  0  0  0  0  0  0  0  0  1 V2000
  153.0447  139.7869  157.9761 O   0  0  0  0  0  0  0  0  0  0  0  0
  152.7540  140.8002  158.6125 C   0  0  0  0  0  0  0  0  0  0  0  0
  153.3486  141.1370  159.9152 C   0  0  0  0  0  0  0  0  0  0  0  0
  154.3789  140.1755  160.5018 C   0  0  0  0  0  0  0  0  0  0  0  0
  155.5134  140.1799  159.8006 F   0  0  0  0  0  0  0  0  0  0  0  0
  154.6755  140.5123  161.7574 F   0  0  0  0  0  0  0  0  0  0  0  0
  153.9062  138.9286  160.5050 F   0  0  0  0  0  0  0  0  0  0  0  0
  152.9758  142.2692  160.5604 C   0  0  0  0  0  0  0  0  0  0  0  0
  151.9906  143.1550  159.9737 C   0  0  0  0  0  0  0  0  0  0  0  0
  151.5246  144.4192  160.6374 C   0  0  0  0  0  0  0  0  0  0  0  0
  150.4535  145.2991  160.0342 C   0  0  0  0  0  0  0  0  0  0  0  0
  151.8849  145.7810  160.0907 C   0  0  0  0  0  0  0  0  0  0  0  0
  151.4748  142.8611  158.8280 N   0  0  0  0  0  0  0  0  0  0  0  0
  151.8429  141.7102  158.1578 N   0  0  0  0  0  0  0  0  0  0  0  0
  151.1428  141.5170  156.8813 C   0  0  0  0  0  0  0  0  0  0  0  0
  149.8331  140.7170  157.0528 C   0  0  2  0  0  0  0  0  0  0  0  0
  150.0568  139.3751  156.6668 O   0  0  0  0  0  0  0  0  0  0  0  0
  148.7049  141.3424  156.2458 C   0  0  0  0  0  0  0  0  0  0  0  0
  147.5600  141.8401  156.9050 C   0  0  0  0  0  0  0  0  0  0  0  0
  146.5152  142.4296  156.1668 C   0  0  0  0  0  0  0  0  0  0  0  0
  146.6097  142.5270  154.7652 C   0  0  0  0  0  0  0  0  0  0  0  0
  145.6052  143.0943  154.0563 F   0  0  0  0  0  0  0  0  0  0  0  0
  147.7505  142.0359  154.1021 C   0  0  0  0  0  0  0  0  0  0  0  0
  148.7960  141.4473  154.8398 C   0  0  0  0  0  0  0  0  0  0  0  0
  153.4017  142.5331  161.5166 H   0  0  0  0  0  0  0  0  0  0  0  0
  151.5159  144.3056  161.7200 H   0  0  0  0  0  0  0  0  0  0  0  0
  150.0574  145.0352  159.0552 H   0  0  0  0  0  0  0  0  0  0  0  0
  149.7409  145.7589  160.7158 H   0  0  0  0  0  0  0  0  0  0  0  0
  152.1241  146.5631  160.8086 H   0  0  0  0  0  0  0  0  0  0  0  0
  152.4349  145.8256  159.1523 H   0  0  0  0  0  0  0  0  0  0  0  0
  150.9011  142.5094  156.4954 H   0  0  0  0  0  0  0  0  0  0  0  0
  151.7788  141.0701  156.1147 H   0  0  0  0  0  0  0  0  0  0  0  0
  149.5378  140.7114  158.1031 H   0  0  0  0  0  0  0  0  0  0  0  0
  149.7608  138.8090  157.3631 H   0  0  0  0  0  0  0  0  0  0  0  0
  147.4792  141.7743  157.9802 H   0  0  0  0  0  0  0  0  0  0  0  0
  145.6417  142.8085  156.6766 H   0  0  0  0  0  0  0  0  0  0  0  0
  147.8248  142.1121  153.0271 H   0  0  0  0  0  0  0  0  0  0  0  0
  149.6701  141.0785  154.3230 H   0  0  0  0  0  0  0  0  0  0  0  0
  1  2  2  0  0  0  0
  2 14  1  0  0  0  0
  2  3  1  0  0  0  0
  3  4  1  0  0  0  0
  3  8  2  0  0  0  0
  4  5  1  0  0  0  0
  4  6  1  0  0  0  0
  4  7  1  0  0  0  0
  8  9  1  0  0  0  0
  8 25  1  0  0  0  0
  9 10  1  0  0  0  0
  9 13  2  0  0  0  0
 10 12  1  0  0  0  0
 10 11  1  0  0  0  0
 10 26  1  0  0  0  0
 11 12  1  0  0  0  0
 11 27  1  0  0  0  0
 11 28  1  0  0  0  0
 12 29  1  0  0  0  0
 12 30  1  0  0  0  0
 13 14  1  0  0  0  0
 14 15  1  0  0  0  0
 15 16  1  0  0  0  0
 15 31  1  0  0  0  0
 15 32  1  0  0  0  0
 16 17  1  0  0  0  0
 16 18  1  0  0  0  0
 16 33  1  0  0  0  0
 17 34  1  0  0  0  0
 18 24  1  0  0  0  0
 18 19  2  0  0  0  0
 19 20  1  0  0  0  0
 19 35  1  0  0  0  0
 20 21  2  0  0  0  0
 20 36  1  0  0  0  0
 21 22  1  0  0  0  0
 21 23  1  0  0  0  0
 23 24  2  0  0  0  0
 23 37  1  0  0  0  0
 24 38  1  0  0  0  0
M  END
> <s_m_source_file>
AV-unprocessed.smi

> <i_m_source_file_index>
1652

> <i_lp_mmshare_version>
43012

> <i_f3d_flags>
0

> <s_epik_input>
Tz1jMWMoQyhGKShGKUYpW2NIXWMoW0NIXTJbQ0gyXVtDSDJdMilubjFbQ0gyXVtDQEhdKFtPSF0pYzNbY0hdW2NIXWMoRilbY0hdW2NIXTM=

> <s_epik_cmdline>
J2VwaWtfcHl0aG9uJywgJy1waCcsICc3LjAnLCAnLXRuJywgJzgnLCAnLW1hJywgJzIwMCcsICctbWV0YWxfYmluZGluZycsICctaW1hZScsICc8aW5maWxlLm1hZT4nLCAnLW9tYWUnLCAnPG91dGZpbGUubWFlPic=

> <r_lp_tautomer_probability>
1

> <r_epik_Ionization_Penalty>
9.17026e-08

> <r_epik_Ionization_Penalty_Charging>
9.677e-10

> <r_epik_Ionization_Penalty_Neutral>
9.07349e-08

> <r_epik_State_Penalty>
-0

> <r_epik_Charging_Adjusted_Penalty>
9.677e-10

> <i_epik_Tot_Q>
0

> <i_epik_Tot_abs_Q>
0

> <r_epik_Metal_State_Penalty>
-0

> <b_epik_Metal_Only>
0

> <s_lp_Force_Field>
OPLS_2005

> <r_lp_Energy>
34.1346

> <b_lp_Chiralities_Consistent>
1

> <s_lp_Variant>
AV-unprocessed.smi:1652-1

> <Gold.Version>
5.8.1

> <Gold.Id.Protein>
6NUR|6NUR_protein|mol2

> <Gold.PLP.Fitness>
53.4316

> <Gold.PLP.PLP>
-53.4342

> <Gold.PLP.part.hbond>
-1.0000

> <Gold.PLP.part.metal>
0.0000

> <Gold.PLP.part.buried>
-5.2042

> <Gold.PLP.part.nonpolar>
-46.7515

> <Gold.PLP.part.repulsive>
0.0234

> <Gold.PLP.ligand.clash>
1.0173

> <Gold.PLP.ligand.torsion>
1.2932

> <Gold.PLP.Chemscore.Hbond>
1.0000

> <Gold.PLP.Chemscore.CHOScore>
0.0000

> <Gold.PLP.Chemscore.Metal>
0.0000

> <Gold.Chemscore.Hbonds>
donor molecule, donor type, donor heavy atom, donor atom, acceptor molecule, acceptor atom, score
      P1  H  7997  8009       L1     1  0.98

> <Gold.PLP.Chemscore.Internal.Correction>
0.6011

> <Gold.Rescore>
     Score         DG    S(hbond)    S(metal)    S(lipo)     H(rot)  DE(clash)    DE(int)     intcor
     13.55     -16.32       0.95        0.00     113.78       2.20       0.04       2.73       ----

> <Gold.Chemscore.Fitness>
13.5546

> <Gold.Chemscore.DG>
-16.3209

> <Gold.Chemscore.ZeroCoef>
-5.4800

> <Gold.Chemscore.Hbond>
0.9467

> <Gold.Chemscore.Metal>
0.0000

> <Gold.Chemscore.Lipo>
113.7755

> <Gold.Chemscore.Internal_Hbond>
0.0000

> <Gold.Chemscore.DEClash>
0.0383

> <Gold.Chemscore.DEInternal>
2.7280

> <Gold.Chemscore.Rot>
2.2003

> <Gold.Chemscore.Internal.Correction>
   9.000000E+99

> <Gold.Chemscore.Hbonds>
donor molecule, donor type, donor heavy atom, donor atom, acceptor molecule, acceptor atom, score
      P1  H  7997  8009       L1     1  0.65

> <Gold.Chemscore.Hbond.Weighted>
-3.1620

> <Gold.Chemscore.Metal.Weighted>
-0.0000

> <Gold.Chemscore.Lipo.Weighted>
-13.3117

> <Gold.Chemscore.Internal_Hbond.Weighted>
0.0000

> <Gold.Chemscore.DEClash.Weighted>
0.0383

> <Gold.Chemscore.DEInternal.Weighted>
2.7280

> <Gold.Chemscore.Rot.Weighted>
5.6328

> <Gold.Chemscore.Internal.Correction.Weighted>
   9.000000E+99

> <Gold.Protein.RotatedTorsions>
[ 6907 6896 6895 6894 ] final -136.67 input  -60.11 | X-H torsion
[ 7974 7965 7964 7962 ] final   70.87 input  175.53 | X-H torsion
[ 8008 7997 7996 7995 ] final  143.55 input   59.86 | X-H torsion
[ 10167 10162 10161 10158 ] final   10.87 input  -65.29 | X-H torsion
[ 10718 10713 10712 10709 ] final  -70.57 input   66.30 | X-H torsion
[ 10763 10752 10751 10750 ] final  -63.17 input  -60.55 | X-H torsion
[ 11005 11000 10999 10996 ] final   -4.57 input  -57.11 | X-H torsion

> <Gold.Protein.ActiveResidues>
 VAL166  LYS551  ARG553  GLY616  TRP617  ASP618  TYR619  PRO620  LYS621  CYS622 
 ASP623  PHE694  ASN695  SER759  ASP760  ASP761  ALA762  ILE779  LEU786  VAL792 
 PHE793  MET794  SER795  GLU796  ALA797  LYS798  CYS799  TRP800  GLU811  SER814 

> <Gold.Protein.RotatedAtoms>
  151.0129  133.5948  159.2680 H   0  0  0  0  0  0  0  0  0  0  0  0  # atno 6907 bound_to 6896
  151.3093  135.0789  159.9276 H   0  0  0  0  0  0  0  0  0  0  0  0  # atno 6908 bound_to 6896
  152.5304  133.9796  159.7854 H   0  0  0  0  0  0  0  0  0  0  0  0  # atno 6909 bound_to 6896
  145.7728  139.2851  143.1311 H   0  0  0  0  0  0  0  0  0  0  0  0  # atno 7974 bound_to 7965
  156.2927  140.2259  156.4909 H   0  0  0  0  0  0  0  0  0  0  0  0  # atno 8008 bound_to 7997
  154.7772  140.0462  157.1119 H   0  0  0  0  0  0  0  0  0  0  0  0  # atno 8009 bound_to 7997
  154.9803  140.3077  155.4953 H   0  0  0  0  0  0  0  0  0  0  0  0  # atno 8010 bound_to 7997
  140.6167  143.8293  150.7127 H   0  0  0  0  0  0  0  0  0  0  0  0  # atno 10167 bound_to 10162
  156.0402  130.4334  150.2315 H   0  0  0  0  0  0  0  0  0  0  0  0  # atno 10718 bound_to 10713
  154.3110  135.6215  153.5465 H   0  0  0  0  0  0  0  0  0  0  0  0  # atno 10763 bound_to 10752
  152.9829  135.5701  154.5177 H   0  0  0  0  0  0  0  0  0  0  0  0  # atno 10764 bound_to 10752
  154.4827  135.2864  155.1535 H   0  0  0  0  0  0  0  0  0  0  0  0  # atno 10765 bound_to 10752
  140.6817  133.9148  155.8559 H   0  0  0  0  0  0  0  0  0  0  0  0  # atno 11005 bound_to 11000
  146.0153  140.8398  142.9950 LP  0  0  0  0  0  0  0  0  0  0  0  0  # atno 17320 bound_to 7965
  144.6810  140.2549  143.7326 LP  0  0  0  0  0  0  0  0  0  0  0  0  # atno 17321 bound_to 7965
  140.1873  143.4065  152.1889 LP  0  0  0  0  0  0  0  0  0  0  0  0  # atno 17342 bound_to 10162
  139.5404  144.7251  151.4752 LP  0  0  0  0  0  0  0  0  0  0  0  0  # atno 17343 bound_to 10162
  157.0411  131.0035  151.3283 LP  0  0  0  0  0  0  0  0  0  0  0  0  # atno 17370 bound_to 10713
  157.5209  130.7997  149.7808 LP  0  0  0  0  0  0  0  0  0  0  0  0  # atno 17371 bound_to 10713
  141.0312  134.0753  157.4012 LP  0  0  0  0  0  0  0  0  0  0  0  0  # atno 17394 bound_to 11000
  139.8950  135.0138  156.6978 LP  0  0  0  0  0  0  0  0  0  0  0  0  # atno 17395 bound_to 11000

$$$$
