AV-unprocessed.smi:402|AV-procd|sdf|2495|dock3
  -GOLD-   2262022443D 1   1.00000     0.00000
 Structure written by MMmdl.
 38 39  0  0  0  0  0  0  0  0  1 V2000
  156.6110  140.6057  162.6891 O   0  0  0  0  0  0  0  0  0  0  0  0
  155.5684  140.0299  162.9976 C   0  0  0  0  0  0  0  0  0  0  0  0
  154.5584  139.6682  161.8940 C   0  0  0  0  0  0  0  0  0  0  0  0
  153.9088  140.8200  161.2410 N   0  0  0  0  0  0  0  0  0  0  0  0
  153.4522  141.8556  162.0804 C   0  0  0  0  0  0  0  0  0  0  0  0
  152.8514  142.9525  161.5928 C   0  0  0  0  0  0  0  0  0  0  0  0
  152.6759  143.0562  160.1636 C   0  0  0  0  0  0  0  0  0  0  0  0
  153.1120  142.0732  159.3510 C   0  0  0  0  0  0  0  0  0  0  0  0
  153.7727  140.8742  159.8795 C   0  0  0  0  0  0  0  0  0  0  0  0
  154.1863  139.9782  159.1436 O   0  0  0  0  0  0  0  0  0  0  0  0
  155.2677  139.7038  164.2646 N   0  0  0  0  0  0  0  0  0  0  0  0
  156.0860  140.0141  165.4286 C   0  0  0  0  0  0  0  0  0  0  0  0
  155.5145  141.2151  166.2061 C   0  0  0  0  0  0  0  0  0  0  0  0
  155.9313  142.5694  165.5879 C   0  0  0  0  0  0  0  0  0  0  0  0
  155.3708  143.7571  166.3870 C   0  0  0  0  0  0  0  0  0  0  0  0
  155.7868  143.6825  167.8637 C   0  0  0  0  0  0  0  0  0  0  0  0
  155.3666  142.3437  168.4881 C   0  0  0  0  0  0  0  0  0  0  0  0
  155.9303  141.1567  167.6900 C   0  0  0  0  0  0  0  0  0  0  0  0
  155.0677  139.0531  161.1500 H   0  0  0  0  0  0  0  0  0  0  0  0
  153.8052  139.0108  162.3305 H   0  0  0  0  0  0  0  0  0  0  0  0
  153.6269  141.7032  163.1357 H   0  0  0  0  0  0  0  0  0  0  0  0
  152.5104  143.7372  162.2518 H   0  0  0  0  0  0  0  0  0  0  0  0
  152.1929  143.9264  159.7438 H   0  0  0  0  0  0  0  0  0  0  0  0
  152.9727  142.1687  158.2842 H   0  0  0  0  0  0  0  0  0  0  0  0
  154.3935  139.2289  164.4369 H   0  0  0  0  0  0  0  0  0  0  0  0
  156.1246  139.1326  166.0701 H   0  0  0  0  0  0  0  0  0  0  0  0
  157.1103  140.2278  165.1179 H   0  0  0  0  0  0  0  0  0  0  0  0
  154.4258  141.1491  166.1654 H   0  0  0  0  0  0  0  0  0  0  0  0
  157.0196  142.6370  165.5527 H   0  0  0  0  0  0  0  0  0  0  0  0
  155.5862  142.6431  164.5560 H   0  0  0  0  0  0  0  0  0  0  0  0
  155.7171  144.6945  165.9507 H   0  0  0  0  0  0  0  0  0  0  0  0
  154.2827  143.7654  166.3134 H   0  0  0  0  0  0  0  0  0  0  0  0
  156.8680  143.8012  167.9458 H   0  0  0  0  0  0  0  0  0  0  0  0
  155.3413  144.5087  168.4184 H   0  0  0  0  0  0  0  0  0  0  0  0
  155.7092  142.2926  169.5219 H   0  0  0  0  0  0  0  0  0  0  0  0
  154.2783  142.2801  168.5196 H   0  0  0  0  0  0  0  0  0  0  0  0
  155.5866  140.2231  168.1371 H   0  0  0  0  0  0  0  0  0  0  0  0
  157.0184  141.1522  167.7678 H   0  0  0  0  0  0  0  0  0  0  0  0
  1  2  2  0  0  0  0
  2  3  1  0  0  0  0
  2 11  1  0  0  0  0
  3  4  1  0  0  0  0
  3 19  1  0  0  0  0
  3 20  1  0  0  0  0
  4  9  1  0  0  0  0
  4  5  1  0  0  0  0
  5  6  2  0  0  0  0
  5 21  1  0  0  0  0
  6  7  1  0  0  0  0
  6 22  1  0  0  0  0
  7  8  2  0  0  0  0
  7 23  1  0  0  0  0
  8  9  1  0  0  0  0
  8 24  1  0  0  0  0
  9 10  2  0  0  0  0
 11 12  1  0  0  0  0
 11 25  1  0  0  0  0
 12 13  1  0  0  0  0
 12 26  1  0  0  0  0
 12 27  1  0  0  0  0
 13 18  1  0  0  0  0
 13 14  1  0  0  0  0
 13 28  1  0  0  0  0
 14 15  1  0  0  0  0
 14 29  1  0  0  0  0
 14 30  1  0  0  0  0
 15 16  1  0  0  0  0
 15 31  1  0  0  0  0
 15 32  1  0  0  0  0
 16 17  1  0  0  0  0
 16 33  1  0  0  0  0
 16 34  1  0  0  0  0
 17 18  1  0  0  0  0
 17 35  1  0  0  0  0
 17 36  1  0  0  0  0
 18 37  1  0  0  0  0
 18 38  1  0  0  0  0
M  END
> <s_m_source_file>
AV-unprocessed.smi

> <i_m_source_file_index>
402

> <i_lp_mmshare_version>
43012

> <i_f3d_flags>
0

> <s_epik_input>
W0NIMl0xW0NIMl1bQ0gyXVtDSDJdW0NIMl1bQ0hdMVtDSDJdW05IXUMoPU8pW0NIMl1uMltjSF1bY0hdW2NIXVtjSF1jMj1P

> <s_epik_cmdline>
J2VwaWtfcHl0aG9uJywgJy1waCcsICc3LjAnLCAnLXRuJywgJzgnLCAnLW1hJywgJzIwMCcsICctbWV0YWxfYmluZGluZycsICctaW1hZScsICc8aW5maWxlLm1hZT4nLCAnLW9tYWUnLCAnPG91dGZpbGUubWFlPic=

> <r_lp_tautomer_probability>
1

> <r_epik_Ionization_Penalty>
3.79717e-07

> <r_epik_Ionization_Penalty_Charging>
3.5992e-07

> <r_epik_Ionization_Penalty_Neutral>
1.97978e-08

> <r_epik_State_Penalty>
-0

> <r_epik_Charging_Adjusted_Penalty>
3.5992e-07

> <i_epik_Tot_Q>
0

> <i_epik_Tot_abs_Q>
0

> <r_epik_Metal_State_Penalty>
-0

> <b_epik_Metal_Only>
0

> <s_lp_Force_Field>
OPLS_2005

> <r_lp_Energy>
19.8269

> <b_lp_Chiralities_Consistent>
1

> <s_lp_Variant>
AV-unprocessed.smi:402-1

> <Gold.Version>
5.8.1

> <Gold.Id.Protein>
6NUR|6NUR_protein|mol2

> <Gold.PLP.Fitness>
43.7640

> <Gold.PLP.PLP>
-42.0028

> <Gold.PLP.part.hbond>
-1.2375

> <Gold.PLP.part.metal>
0.0000

> <Gold.PLP.part.buried>
-4.0858

> <Gold.PLP.part.nonpolar>
-36.1584

> <Gold.PLP.part.repulsive>
0.0306

> <Gold.PLP.ligand.clash>
0.0000

> <Gold.PLP.ligand.torsion>
0.6264

> <Gold.PLP.Chemscore.Hbond>
1.0000

> <Gold.PLP.Chemscore.CHOScore>
0.0000

> <Gold.PLP.Chemscore.Metal>
0.0000

> <Gold.Chemscore.Hbonds>
donor molecule, donor type, donor heavy atom, donor atom, acceptor molecule, acceptor atom, score
      P1  H  7997  8009       L1    10  1.00

> <Gold.PLP.Chemscore.Internal.Correction>
0.0140

> <Gold.Rescore>
     Score         DG    S(hbond)    S(metal)    S(lipo)     H(rot)  DE(clash)    DE(int)     intcor
     14.21     -16.60       0.98        0.00     101.54       1.57       1.97       0.41       ----

> <Gold.Chemscore.Fitness>
14.2132

> <Gold.Chemscore.DG>
-16.5963

> <Gold.Chemscore.ZeroCoef>
-5.4800

> <Gold.Chemscore.Hbond>
0.9760

> <Gold.Chemscore.Metal>
0.0000

> <Gold.Chemscore.Lipo>
101.5353

> <Gold.Chemscore.Internal_Hbond>
0.0000

> <Gold.Chemscore.DEClash>
1.9744

> <Gold.Chemscore.DEInternal>
0.4087

> <Gold.Chemscore.Rot>
1.5715

> <Gold.Chemscore.Internal.Correction>
   9.000000E+99

> <Gold.Chemscore.Hbonds>
donor molecule, donor type, donor heavy atom, donor atom, acceptor molecule, acceptor atom, score
      P1  H  7997  8009       L1    10  0.90

> <Gold.Chemscore.Hbond.Weighted>
-3.2597

> <Gold.Chemscore.Metal.Weighted>
-0.0000

> <Gold.Chemscore.Lipo.Weighted>
-11.8796

> <Gold.Chemscore.Internal_Hbond.Weighted>
0.0000

> <Gold.Chemscore.DEClash.Weighted>
1.9744

> <Gold.Chemscore.DEInternal.Weighted>
0.4087

> <Gold.Chemscore.Rot.Weighted>
4.0231

> <Gold.Chemscore.Internal.Correction.Weighted>
   9.000000E+99

> <Gold.Protein.RotatedTorsions>
[ 6907 6896 6895 6894 ] final  110.26 input  -60.11 | X-H torsion
[ 7974 7965 7964 7962 ] final  -43.73 input  175.53 | X-H torsion
[ 8008 7997 7996 7995 ] final  121.77 input   59.86 | X-H torsion
[ 10167 10162 10161 10158 ] final -143.83 input  -65.29 | X-H torsion
[ 10718 10713 10712 10709 ] final   29.24 input   66.30 | X-H torsion
[ 10763 10752 10751 10750 ] final  -47.85 input  -60.55 | X-H torsion
[ 11005 11000 10999 10996 ] final   88.13 input  -57.11 | X-H torsion

> <Gold.Protein.ActiveResidues>
 VAL166  LYS551  ARG553  GLY616  TRP617  ASP618  TYR619  PRO620  LYS621  CYS622 
 ASP623  PHE694  ASN695  SER759  ASP760  ASP761  ALA762  ILE779  LEU786  VAL792 
 PHE793  MET794  SER795  GLU796  ALA797  LYS798  CYS799  TRP800  GLU811  SER814 

> <Gold.Protein.RotatedAtoms>
  152.5028  133.8826  159.7353 H   0  0  0  0  0  0  0  0  0  0  0  0  # atno 6907 bound_to 6896
  150.9285  133.6786  159.2823 H   0  0  0  0  0  0  0  0  0  0  0  0  # atno 6908 bound_to 6896
  151.4139  135.0993  159.9646 H   0  0  0  0  0  0  0  0  0  0  0  0  # atno 6909 bound_to 6896
  145.9991  140.7095  142.9279 H   0  0  0  0  0  0  0  0  0  0  0  0  # atno 7974 bound_to 7965
  156.2700  140.2801  156.1361 H   0  0  0  0  0  0  0  0  0  0  0  0  # atno 8008 bound_to 7997
  155.1003  140.0389  157.2712 H   0  0  0  0  0  0  0  0  0  0  0  0  # atno 8009 bound_to 7997
  154.6820  140.2611  155.6904 H   0  0  0  0  0  0  0  0  0  0  0  0  # atno 8010 bound_to 7997
  139.7956  143.7905  152.2654 H   0  0  0  0  0  0  0  0  0  0  0  0  # atno 10167 bound_to 10162
  157.2439  130.7082  149.6372 H   0  0  0  0  0  0  0  0  0  0  0  0  # atno 10718 bound_to 10713
  154.0682  135.6608  153.4820 H   0  0  0  0  0  0  0  0  0  0  0  0  # atno 10763 bound_to 10752
  153.0401  135.5151  154.7593 H   0  0  0  0  0  0  0  0  0  0  0  0  # atno 10764 bound_to 10752
  154.6650  135.3021  154.9784 H   0  0  0  0  0  0  0  0  0  0  0  0  # atno 10765 bound_to 10752
  139.8903  134.8468  156.2958 H   0  0  0  0  0  0  0  0  0  0  0  0  # atno 11005 bound_to 11000
  144.6913  140.3201  143.7233 LP  0  0  0  0  0  0  0  0  0  0  0  0  # atno 17320 bound_to 7965
  145.7515  139.1795  143.2318 LP  0  0  0  0  0  0  0  0  0  0  0  0  # atno 17321 bound_to 7965
  139.8009  144.7374  150.9826 LP  0  0  0  0  0  0  0  0  0  0  0  0  # atno 17342 bound_to 10162
  140.7820  143.4346  151.0643 LP  0  0  0  0  0  0  0  0  0  0  0  0  # atno 17343 bound_to 10162
  155.9669  130.4449  150.5480 LP  0  0  0  0  0  0  0  0  0  0  0  0  # atno 17370 bound_to 10713
  157.3349  131.0706  151.1832 LP  0  0  0  0  0  0  0  0  0  0  0  0  # atno 17371 bound_to 10713
  140.9946  133.7188  156.0866 LP  0  0  0  0  0  0  0  0  0  0  0  0  # atno 17394 bound_to 11000
  140.7579  134.3972  157.5530 LP  0  0  0  0  0  0  0  0  0  0  0  0  # atno 17395 bound_to 11000

$$$$
