AV-unprocessed.smi:2291|AV-procd|sdf|9212|dock5
  -GOLD-   2272012433D 1   1.00000     0.00000
 Structure written by MMmdl.
 44 46  0  0  0  0  0  0  0  0  1 V2000
  148.3977  139.1276  158.7167 O   0  0  0  0  0  0  0  0  0  0  0  0
  149.2313  138.2664  158.4331 C   0  0  0  0  0  0  0  0  0  0  0  0
  149.2276  137.0024  158.8914 N   0  0  0  0  0  0  0  0  0  0  0  0
  148.3133  136.3997  159.7959 C   0  0  0  0  0  0  0  0  0  0  0  0
  148.1880  134.9972  159.6736 C   0  0  0  0  0  0  0  0  0  0  0  0
  147.3100  134.3023  160.5278 C   0  0  0  0  0  0  0  0  0  0  0  0
  146.5781  135.0308  161.4825 C   0  0  0  0  0  0  0  0  0  0  0  0
  145.4884  134.2351  162.5575 Cl  0  0  0  0  0  0  0  0  0  0  0  0
  146.7587  136.4252  161.5378 C   0  0  0  0  0  0  0  0  0  0  0  0
  147.6003  137.0921  160.7197 N   0  0  0  0  0  0  0  0  0  0  0  0
  150.2785  138.4823  157.6177 N   0  0  0  0  0  0  0  0  0  0  0  0
  150.6509  139.7424  156.9594 C   0  0  0  0  0  0  0  0  0  0  0  0
  151.6664  140.5081  157.8514 C   0  0  0  0  0  0  0  0  0  0  0  0
  152.7757  140.0150  158.0625 O   0  0  0  0  0  0  0  0  0  0  0  0
  151.2891  141.6754  158.3976 N   0  0  0  0  0  0  0  0  0  0  0  0
  152.1114  142.4961  159.2761 C   0  0  0  0  0  0  0  0  0  0  0  0
  152.3827  143.9003  158.7709 C   0  0  0  0  0  0  0  0  0  0  0  0
  152.0872  145.1107  159.6267 C   0  0  0  0  0  0  0  0  0  0  0  0
  151.2357  144.8174  158.4156 C   0  0  0  0  0  0  0  0  0  0  0  0
  151.3088  139.4052  155.5874 C   0  0  0  0  0  0  0  0  0  0  0  0
  150.4494  140.0416  154.4894 C   0  0  0  0  0  0  0  0  0  0  0  0
  149.6777  141.1512  155.1894 C   0  0  0  0  0  0  0  0  0  0  0  0
  149.3828  140.5572  156.5627 C   0  0  0  0  0  0  0  0  0  0  0  0
  149.9776  136.4077  158.5720 H   0  0  0  0  0  0  0  0  0  0  0  0
  148.7595  134.4536  158.9350 H   0  0  0  0  0  0  0  0  0  0  0  0
  147.2025  133.2305  160.4504 H   0  0  0  0  0  0  0  0  0  0  0  0
  146.2155  137.0217  162.2559 H   0  0  0  0  0  0  0  0  0  0  0  0
  150.9019  137.7056  157.4549 H   0  0  0  0  0  0  0  0  0  0  0  0
  150.3573  142.0106  158.1994 H   0  0  0  0  0  0  0  0  0  0  0  0
  151.5924  142.5738  160.2317 H   0  0  0  0  0  0  0  0  0  0  0  0
  153.0558  141.9892  159.4827 H   0  0  0  0  0  0  0  0  0  0  0  0
  153.2524  143.9703  158.1202 H   0  0  0  0  0  0  0  0  0  0  0  0
  151.6420  144.9442  160.6059 H   0  0  0  0  0  0  0  0  0  0  0  0
  152.7812  145.9463  159.5670 H   0  0  0  0  0  0  0  0  0  0  0  0
  151.3578  145.4617  157.5473 H   0  0  0  0  0  0  0  0  0  0  0  0
  150.2239  144.4560  158.5897 H   0  0  0  0  0  0  0  0  0  0  0  0
  152.3198  139.8083  155.5056 H   0  0  0  0  0  0  0  0  0  0  0  0
  151.4022  138.3313  155.4182 H   0  0  0  0  0  0  0  0  0  0  0  0
  151.0429  140.4087  153.6515 H   0  0  0  0  0  0  0  0  0  0  0  0
  149.7489  139.3020  154.0991 H   0  0  0  0  0  0  0  0  0  0  0  0
  150.3051  142.0378  155.2926 H   0  0  0  0  0  0  0  0  0  0  0  0
  148.7735  141.4377  154.6517 H   0  0  0  0  0  0  0  0  0  0  0  0
  148.5273  139.8868  156.4614 H   0  0  0  0  0  0  0  0  0  0  0  0
  149.0734  141.3192  157.2777 H   0  0  0  0  0  0  0  0  0  0  0  0
  1  2  2  0  0  0  0
  2  3  1  0  0  0  0
  2 11  1  0  0  0  0
  3  4  1  0  0  0  0
  3 24  1  0  0  0  0
  4 10  1  0  0  0  0
  4  5  2  0  0  0  0
  5  6  1  0  0  0  0
  5 25  1  0  0  0  0
  6  7  2  0  0  0  0
  6 26  1  0  0  0  0
  7  8  1  0  0  0  0
  7  9  1  0  0  0  0
  9 10  2  0  0  0  0
  9 27  1  0  0  0  0
 11 12  1  0  0  0  0
 11 28  1  0  0  0  0
 12 23  1  0  0  0  0
 12 13  1  0  0  0  0
 12 20  1  0  0  0  0
 13 14  2  0  0  0  0
 13 15  1  0  0  0  0
 15 16  1  0  0  0  0
 15 29  1  0  0  0  0
 16 17  1  0  0  0  0
 16 30  1  0  0  0  0
 16 31  1  0  0  0  0
 17 19  1  0  0  0  0
 17 18  1  0  0  0  0
 17 32  1  0  0  0  0
 18 19  1  0  0  0  0
 18 33  1  0  0  0  0
 18 34  1  0  0  0  0
 19 35  1  0  0  0  0
 19 36  1  0  0  0  0
 20 21  1  0  0  0  0
 20 37  1  0  0  0  0
 20 38  1  0  0  0  0
 21 22  1  0  0  0  0
 21 39  1  0  0  0  0
 21 40  1  0  0  0  0
 22 23  1  0  0  0  0
 22 41  1  0  0  0  0
 22 42  1  0  0  0  0
 23 43  1  0  0  0  0
 23 44  1  0  0  0  0
M  END
> <s_m_source_file>
AV-unprocessed.smi

> <i_m_source_file_index>
2291

> <i_lp_mmshare_version>
43012

> <i_f3d_flags>
0

> <s_epik_input>
bjFbY0hdYyhDbClbY0hdW2NIXWMxW05IXUMoPU8pW05IXUMyKFtDSDJdW0NIMl1bQ0gyXVtDSDJdMilDKD1PKVtOSF1bQ0gyXVtDSF0zW0NIMl1bQ0gyXTM=

> <s_epik_cmdline>
J2VwaWtfcHl0aG9uJywgJy1waCcsICc3LjAnLCAnLXRuJywgJzgnLCAnLW1hJywgJzIwMCcsICctbWV0YWxfYmluZGluZycsICctaW1hZScsICc8aW5maWxlLm1hZT4nLCAnLW9tYWUnLCAnPG91dGZpbGUubWFlPic=

> <r_lp_tautomer_probability>
1

> <r_epik_Ionization_Penalty>
3.27384e-05

> <r_epik_Ionization_Penalty_Charging>
0

> <r_epik_Ionization_Penalty_Neutral>
3.27384e-05

> <r_epik_State_Penalty>
-0

> <r_epik_Charging_Adjusted_Penalty>
0

> <i_epik_Tot_Q>
0

> <i_epik_Tot_abs_Q>
0

> <r_epik_Metal_State_Penalty>
-0

> <b_epik_Metal_Only>
0

> <s_lp_Force_Field>
OPLS_2005

> <r_lp_Energy>
31.8647

> <b_lp_Chiralities_Consistent>
1

> <s_lp_Variant>
AV-unprocessed.smi:2291-1

> <Gold.Version>
5.8.1

> <Gold.Id.Protein>
6NUR|6NUR_protein|mol2

> <Gold.PLP.Fitness>
47.8701

> <Gold.PLP.PLP>
-41.3576

> <Gold.PLP.part.hbond>
-4.0000

> <Gold.PLP.part.metal>
0.0000

> <Gold.PLP.part.buried>
-0.8179

> <Gold.PLP.part.nonpolar>
-37.7905

> <Gold.PLP.part.repulsive>
0.2978

> <Gold.PLP.ligand.clash>
0.0000

> <Gold.PLP.ligand.torsion>
1.2311

> <Gold.PLP.Chemscore.Hbond>
2.7760

> <Gold.PLP.Chemscore.CHOScore>
0.0000

> <Gold.PLP.Chemscore.Metal>
0.0000

> <Gold.Chemscore.Hbonds>
donor molecule, donor type, donor heavy atom, donor atom, acceptor molecule, acceptor atom, score
      P1  H  6931  6943       L1    10  0.51
      P1  H  6934  6947       L1    10  0.99
      P1  H  7997  8008       L1    14  0.88

> <Gold.PLP.Chemscore.Internal.Correction>
0.6467

> <Gold.Rescore>
     Score         DG    S(hbond)    S(metal)    S(lipo)     H(rot)  DE(clash)    DE(int)     intcor
     17.74     -21.45       2.15        0.00     112.58       1.71       0.13       3.58       ----

> <Gold.Chemscore.Fitness>
17.7428

> <Gold.Chemscore.DG>
-21.4548

> <Gold.Chemscore.ZeroCoef>
-5.4800

> <Gold.Chemscore.Hbond>
2.1468

> <Gold.Chemscore.Metal>
0.0000

> <Gold.Chemscore.Lipo>
112.5788

> <Gold.Chemscore.Internal_Hbond>
0.0000

> <Gold.Chemscore.DEClash>
0.1284

> <Gold.Chemscore.DEInternal>
3.5837

> <Gold.Chemscore.Rot>
1.7059

> <Gold.Chemscore.Internal.Correction>
   9.000000E+99

> <Gold.Chemscore.Hbonds>
donor molecule, donor type, donor heavy atom, donor atom, acceptor molecule, acceptor atom, score
      P1  H  6931  6943       L1    10  0.23
      P1  H  6934  6947       L1    10  0.55
      P1  H  7997  8008       L1    14  0.83

> <Gold.Chemscore.Hbond.Weighted>
-7.1702

> <Gold.Chemscore.Metal.Weighted>
-0.0000

> <Gold.Chemscore.Lipo.Weighted>
-13.1717

> <Gold.Chemscore.Internal_Hbond.Weighted>
0.0000

> <Gold.Chemscore.DEClash.Weighted>
0.1284

> <Gold.Chemscore.DEInternal.Weighted>
3.5837

> <Gold.Chemscore.Rot.Weighted>
4.3671

> <Gold.Chemscore.Internal.Correction.Weighted>
   9.000000E+99

> <Gold.Protein.RotatedTorsions>
[ 6907 6896 6895 6894 ] final  -65.63 input  -60.11 | X-H torsion
[ 7974 7965 7964 7962 ] final -138.29 input  175.53 | X-H torsion
[ 8008 7997 7996 7995 ] final  -72.21 input   59.86 | X-H torsion
[ 10167 10162 10161 10158 ] final -112.01 input  -65.29 | X-H torsion
[ 10718 10713 10712 10709 ] final -134.98 input   66.30 | X-H torsion
[ 10763 10752 10751 10750 ] final    9.49 input  -60.55 | X-H torsion
[ 11005 11000 10999 10996 ] final   65.42 input  -57.11 | X-H torsion

> <Gold.Protein.ActiveResidues>
 VAL166  LYS551  ARG553  GLY616  TRP617  ASP618  TYR619  PRO620  LYS621  CYS622 
 ASP623  PHE694  ASN695  SER759  ASP760  ASP761  ALA762  ILE779  LEU786  VAL792 
 PHE793  MET794  SER795  GLU796  ALA797  LYS798  CYS799  TRP800  GLU811  SER814 

> <Gold.Protein.RotatedAtoms>
  150.7513  134.6134  159.6097 H   0  0  0  0  0  0  0  0  0  0  0  0  # atno 6907 bound_to 6896
  152.3461  134.7066  160.0259 H   0  0  0  0  0  0  0  0  0  0  0  0  # atno 6908 bound_to 6896
  151.7502  133.3291  159.3426 H   0  0  0  0  0  0  0  0  0  0  0  0  # atno 6909 bound_to 6896
  144.8771  140.6453  143.5230 H   0  0  0  0  0  0  0  0  0  0  0  0  # atno 7974 bound_to 7965
  154.5148  140.0801  156.8060 H   0  0  0  0  0  0  0  0  0  0  0  0  # atno 8008 bound_to 7997
  155.3704  140.3422  155.4225 H   0  0  0  0  0  0  0  0  0  0  0  0  # atno 8009 bound_to 7997
  156.1615  140.1590  156.8591 H   0  0  0  0  0  0  0  0  0  0  0  0  # atno 8010 bound_to 7997
  140.1273  143.4391  152.1651 H   0  0  0  0  0  0  0  0  0  0  0  0  # atno 10167 bound_to 10162
  156.2612  130.7211  151.1145 H   0  0  0  0  0  0  0  0  0  0  0  0  # atno 10718 bound_to 10713
  153.2135  135.6872  153.8085 H   0  0  0  0  0  0  0  0  0  0  0  0  # atno 10763 bound_to 10752
  153.7310  135.3252  155.3287 H   0  0  0  0  0  0  0  0  0  0  0  0  # atno 10764 bound_to 10752
  154.8234  135.4635  154.0952 H   0  0  0  0  0  0  0  0  0  0  0  0  # atno 10765 bound_to 10752
  139.9896  134.6613  156.0115 H   0  0  0  0  0  0  0  0  0  0  0  0  # atno 11005 bound_to 11000
  145.4023  139.1595  143.4171 LP  0  0  0  0  0  0  0  0  0  0  0  0  # atno 17320 bound_to 7965
  146.2970  140.4120  142.8718 LP  0  0  0  0  0  0  0  0  0  0  0  0  # atno 17321 bound_to 7965
  139.5537  144.7357  151.4357 LP  0  0  0  0  0  0  0  0  0  0  0  0  # atno 17342 bound_to 10162
  140.6837  143.8022  150.7157 LP  0  0  0  0  0  0  0  0  0  0  0  0  # atno 17343 bound_to 10162
  157.7251  131.0655  150.5967 LP  0  0  0  0  0  0  0  0  0  0  0  0  # atno 17370 bound_to 10713
  156.6055  130.4366  149.5880 LP  0  0  0  0  0  0  0  0  0  0  0  0  # atno 17371 bound_to 10713
  141.1554  133.6543  156.4145 LP  0  0  0  0  0  0  0  0  0  0  0  0  # atno 17394 bound_to 11000
  140.4935  134.6553  157.5220 LP  0  0  0  0  0  0  0  0  0  0  0  0  # atno 17395 bound_to 11000

$$$$
