AV-unprocessed.smi:1056|AV-procd|sdf|4634|dock1
  -GOLD-   22720 3133D 1   1.00000     0.00000
 Structure written by MMmdl.
 46 48  0  0  0  0  0  0  0  0  3 V2000
  152.6137  143.3315  161.4694 C   0  0  0  0  0  0  0  0  0  0  0  0
  152.1172  142.8572  160.1140 C   0  0  0  0  0  0  0  0  0  0  0  0
  152.4341  141.5434  159.7020 C   0  0  0  0  0  0  0  0  0  0  0  0
  151.9603  141.1359  158.4607 C   0  0  0  0  0  0  0  0  0  0  0  0
  152.0984  139.9224  157.7844 N   0  3  0  0  0  0  0  0  0  0  0  0
  151.4520  139.9918  156.5882 C   0  0  0  0  0  0  0  0  0  0  0  0
  150.9038  141.2337  156.4882 N   0  0  0  0  0  0  0  0  0  0  0  0
  150.0957  141.8186  155.4074 C   0  0  0  0  0  0  0  0  0  0  0  0
  149.1614  140.7941  154.7296 C   0  0  2  0  0  0  0  0  0  0  0  0
  149.9110  139.9686  153.8612 O   0  0  0  0  0  0  0  0  0  0  0  0
  148.0519  141.4631  153.8923 C   0  0  0  0  0  0  0  0  0  0  0  0
  147.2080  142.3919  154.6860 N   0  3  2  0  0  0  0  0  0  0  0  0
  146.7582  141.8297  155.9817 C   0  0  0  0  0  0  0  0  0  0  0  0
  146.0739  142.9200  156.8258 C   0  0  0  0  0  0  0  0  0  0  0  0
  145.1671  143.7614  156.0484 N   0  0  0  0  0  0  0  0  0  0  0  0
  145.1191  143.8230  154.7077 C   0  0  0  0  0  0  0  0  0  0  0  0
  144.3356  144.5652  154.1219 O   0  0  0  0  0  0  0  0  0  0  0  0
  146.0730  142.9335  153.8961 C   0  0  0  0  0  0  0  0  0  0  0  0
  151.1963  141.9841  157.6350 C   0  0  0  0  0  0  0  0  0  0  0  0
  150.8811  143.2846  158.0241 C   0  0  0  0  0  0  0  0  0  0  0  0
  151.3517  143.7172  159.2847 C   0  0  0  0  0  0  0  0  0  0  0  0
  151.0185  145.1288  159.7370 C   0  0  0  0  0  0  0  0  0  0  0  0
  153.1770  142.5520  161.9832 H   0  0  0  0  0  0  0  0  0  0  0  0
  151.7754  143.6107  162.1082 H   0  0  0  0  0  0  0  0  0  0  0  0
  153.2682  144.1960  161.3573 H   0  0  0  0  0  0  0  0  0  0  0  0
  153.0178  140.8837  160.3275 H   0  0  0  0  0  0  0  0  0  0  0  0
  151.3843  139.2015  155.8545 H   0  0  0  0  0  0  0  0  0  0  0  0
  149.5083  142.6225  155.8525 H   0  0  0  0  0  0  0  0  0  0  0  0
  150.7546  142.2940  154.6806 H   0  0  0  0  0  0  0  0  0  0  0  0
  148.7255  140.1431  155.4871 H   0  0  0  0  0  0  0  0  0  0  0  0
  149.5311  140.0147  152.9967 H   0  0  0  0  0  0  0  0  0  0  0  0
  148.5236  142.0118  153.0755 H   0  0  0  0  0  0  0  0  0  0  0  0
  147.4136  140.7118  153.4238 H   0  0  0  0  0  0  0  0  0  0  0  0
  146.0627  141.0103  155.7930 H   0  0  0  0  0  0  0  0  0  0  0  0
  147.5932  141.4115  156.5427 H   0  0  0  0  0  0  0  0  0  0  0  0
  145.5282  142.4709  157.6559 H   0  0  0  0  0  0  0  0  0  0  0  0
  146.8306  143.5715  157.2642 H   0  0  0  0  0  0  0  0  0  0  0  0
  144.5293  144.3476  156.5690 H   0  0  0  0  0  0  0  0  0  0  0  0
  146.4609  143.5094  153.0548 H   0  0  0  0  0  0  0  0  0  0  0  0
  145.4935  142.1077  153.4805 H   0  0  0  0  0  0  0  0  0  0  0  0
  150.3022  143.9444  157.3951 H   0  0  0  0  0  0  0  0  0  0  0  0
  150.4412  145.6649  158.9830 H   0  0  0  0  0  0  0  0  0  0  0  0
  151.9299  145.6972  159.9240 H   0  0  0  0  0  0  0  0  0  0  0  0
  150.4293  145.1071  160.6540 H   0  0  0  0  0  0  0  0  0  0  0  0
  147.7892  143.1879  154.9062 H   0  0  0  0  0  0  0  0  0  0  0  0
  152.5938  139.1040  158.1156 H   0  0  0  0  0  0  0  0  0  0  0  0
  1  2  1  0  0  0  0
  1 23  1  0  0  0  0
  1 24  1  0  0  0  0
  1 25  1  0  0  0  0
  2 21  1  0  0  0  0
  2  3  2  0  0  0  0
  3  4  1  0  0  0  0
  3 26  1  0  0  0  0
  4 19  2  0  0  0  0
  4  5  1  0  0  0  0
  5  6  2  0  0  0  0
  5 46  1  0  0  0  0
  6  7  1  0  0  0  0
  6 27  1  0  0  0  0
  7  8  1  0  0  0  0
  7 19  1  0  0  0  0
  8  9  1  0  0  0  0
  8 28  1  0  0  0  0
  8 29  1  0  0  0  0
  9 10  1  0  0  0  0
  9 11  1  0  0  0  0
  9 30  1  0  0  0  0
 10 31  1  0  0  0  0
 11 12  1  0  0  0  0
 11 32  1  0  0  0  0
 11 33  1  0  0  0  0
 12 18  1  0  0  0  0
 12 13  1  0  0  0  0
 12 45  1  0  0  0  0
 13 14  1  0  0  0  0
 13 34  1  0  0  0  0
 13 35  1  0  0  0  0
 14 15  1  0  0  0  0
 14 36  1  0  0  0  0
 14 37  1  0  0  0  0
 15 16  1  0  0  0  0
 15 38  1  0  0  0  0
 16 17  2  0  0  0  0
 16 18  1  0  0  0  0
 18 39  1  0  0  0  0
 18 40  1  0  0  0  0
 19 20  1  0  0  0  0
 20 21  2  0  0  0  0
 20 41  1  0  0  0  0
 21 22  1  0  0  0  0
 22 42  1  0  0  0  0
 22 43  1  0  0  0  0
 22 44  1  0  0  0  0
M  CHG  1   5   1
M  CHG  1  12   1
M  END
> <s_m_source_file>
AV-unprocessed.smi

> <i_m_source_file_index>
1056

> <i_lp_mmshare_version>
43012

> <i_f3d_flags>
0

> <s_epik_input>
W0NIM11jKFtjSF0xKWMoW0NIM10pW2NIXWMoYzEyKW4oW2NIXW4yKVtDSDJdW0NASF0oW09IXSlbQ0gyXU4zW0NIMl1bQ0gyXVtOSF1DKD1PKVtDSDJdMw==

> <s_epik_cmdline>
J2VwaWtfcHl0aG9uJywgJy1waCcsICc3LjAnLCAnLXRuJywgJzgnLCAnLW1hJywgJzIwMCcsICctbWV0YWxfYmluZGluZycsICctaW1hZScsICc8aW5maWxlLm1hZT4nLCAnLW9tYWUnLCAnPG91dGZpbGUubWFlPic=

> <r_epik_Ionization_Penalty>
1.262

> <r_epik_Ionization_Penalty_Charging>
1.26188

> <r_epik_Ionization_Penalty_Neutral>
0.000125436

> <r_epik_State_Penalty>
1.3387

> <r_epik_Charging_Adjusted_Penalty>
2.60058

> <i_epik_Tot_Q>
2

> <i_epik_Tot_abs_Q>
2

> <r_epik_Metal_State_Penalty>
1.58938

> <b_epik_Metal_Only>
0

> <s_lp_Force_Field>
OPLS_2005

> <r_lp_Energy>
36.1571

> <b_lp_Chiralities_Consistent>
1

> <s_lp_Variant>
AV-unprocessed.smi:1056-5

> <Gold.Version>
5.8.1

> <Gold.Id.Protein>
6NUR|6NUR_protein|mol2

> <Gold.PLP.Fitness>
58.2468

> <Gold.PLP.PLP>
-47.7383

> <Gold.PLP.part.hbond>
-3.0000

> <Gold.PLP.part.metal>
0.0000

> <Gold.PLP.part.buried>
-7.3744

> <Gold.PLP.part.nonpolar>
-38.0158

> <Gold.PLP.part.repulsive>
0.3412

> <Gold.PLP.ligand.clash>
0.0000

> <Gold.PLP.ligand.torsion>
0.5222

> <Gold.PLP.Chemscore.Hbond>
3.8160

> <Gold.PLP.Chemscore.CHOScore>
0.0000

> <Gold.PLP.Chemscore.Metal>
0.0000

> <Gold.Chemscore.Hbonds>
donor molecule, donor type, donor heavy atom, donor atom, acceptor molecule, acceptor atom, score
      L1  H    10    31       P1  7957  1.00
      L1  H    12    45       P1  8028  2.00
      P1  H  7989  7998       L1    10  0.75

> <Gold.PLP.Chemscore.Internal.Correction>
0.1049

> <Gold.Rescore>
     Score         DG    S(hbond)    S(metal)    S(lipo)     H(rot)  DE(clash)    DE(int)     intcor
     17.40     -18.11       1.71        0.00     112.44       2.44       0.09       0.62       ----

> <Gold.Chemscore.Fitness>
17.3995

> <Gold.Chemscore.DG>
-18.1112

> <Gold.Chemscore.ZeroCoef>
-5.4800

> <Gold.Chemscore.Hbond>
1.7097

> <Gold.Chemscore.Metal>
0.0000

> <Gold.Chemscore.Lipo>
112.4446

> <Gold.Chemscore.Internal_Hbond>
0.0000

> <Gold.Chemscore.DEClash>
0.0920

> <Gold.Chemscore.DEInternal>
0.6196

> <Gold.Chemscore.Rot>
2.4357

> <Gold.Chemscore.Internal.Correction>
   9.000000E+99

> <Gold.Chemscore.Hbonds>
donor molecule, donor type, donor heavy atom, donor atom, acceptor molecule, acceptor atom, score
      L1  H    10    31       P1  7957  0.97
      L1  H    12    45       P1  8028  0.68
      P1  H  7989  7998       L1    10  0.10

> <Gold.Chemscore.Hbond.Weighted>
-5.7105

> <Gold.Chemscore.Metal.Weighted>
-0.0000

> <Gold.Chemscore.Lipo.Weighted>
-13.1560

> <Gold.Chemscore.Internal_Hbond.Weighted>
0.0000

> <Gold.Chemscore.DEClash.Weighted>
0.0920

> <Gold.Chemscore.DEInternal.Weighted>
0.6196

> <Gold.Chemscore.Rot.Weighted>
6.2353

> <Gold.Chemscore.Internal.Correction.Weighted>
   9.000000E+99

> <Gold.Protein.RotatedTorsions>
[ 6907 6896 6895 6894 ] final -145.96 input  -60.11 | X-H torsion
[ 7974 7965 7964 7962 ] final -127.75 input  175.53 | X-H torsion
[ 8008 7997 7996 7995 ] final  -45.47 input   59.86 | X-H torsion
[ 10167 10162 10161 10158 ] final  132.43 input  -65.29 | X-H torsion
[ 10718 10713 10712 10709 ] final  -15.83 input   66.30 | X-H torsion
[ 10763 10752 10751 10750 ] final -160.75 input  -60.55 | X-H torsion
[ 11005 11000 10999 10996 ] final   13.13 input  -57.11 | X-H torsion

> <Gold.Protein.ActiveResidues>
 VAL166  LYS551  ARG553  GLY616  TRP617  ASP618  TYR619  PRO620  LYS621  CYS622 
 ASP623  PHE694  ASN695  SER759  ASP760  ASP761  ALA762  ILE779  LEU786  VAL792 
 PHE793  MET794  SER795  GLU796  ALA797  LYS798  CYS799  TRP800  GLU811  SER814 

> <Gold.Protein.RotatedAtoms>
  151.1351  133.5010  159.2597 H   0  0  0  0  0  0  0  0  0  0  0  0  # atno 6907 bound_to 6896
  151.1716  135.0320  159.8764 H   0  0  0  0  0  0  0  0  0  0  0  0  # atno 6908 bound_to 6896
  152.5461  134.1213  159.8453 H   0  0  0  0  0  0  0  0  0  0  0  0  # atno 6909 bound_to 6896
  144.9740  140.7573  143.4653 H   0  0  0  0  0  0  0  0  0  0  0  0  # atno 7974 bound_to 7965
  154.4001  140.1396  156.3852 H   0  0  0  0  0  0  0  0  0  0  0  0  # atno 8008 bound_to 7997
  155.7966  140.3477  155.5358 H   0  0  0  0  0  0  0  0  0  0  0  0  # atno 8009 bound_to 7997
  155.8526  140.0944  157.1655 H   0  0  0  0  0  0  0  0  0  0  0  0  # atno 8010 bound_to 7997
  139.5340  144.6662  151.4851 H   0  0  0  0  0  0  0  0  0  0  0  0  # atno 10167 bound_to 10162
  156.5962  130.4812  149.6259 H   0  0  0  0  0  0  0  0  0  0  0  0  # atno 10718 bound_to 10713
  154.7364  135.3058  154.8805 H   0  0  0  0  0  0  0  0  0  0  0  0  # atno 10763 bound_to 10752
  153.9632  135.6750  153.4749 H   0  0  0  0  0  0  0  0  0  0  0  0  # atno 10764 bound_to 10752
  153.0966  135.4932  154.8713 H   0  0  0  0  0  0  0  0  0  0  0  0  # atno 10765 bound_to 10752
  140.4842  134.0905  155.7757 H   0  0  0  0  0  0  0  0  0  0  0  0  # atno 11005 bound_to 11000
  145.2518  139.2028  143.4938 LP  0  0  0  0  0  0  0  0  0  0  0  0  # atno 17320 bound_to 7965
  146.3390  140.2432  142.8596 LP  0  0  0  0  0  0  0  0  0  0  0  0  # atno 17321 bound_to 7965
  140.6535  143.8647  150.6810 LP  0  0  0  0  0  0  0  0  0  0  0  0  # atno 17342 bound_to 10162
  140.2019  143.3952  152.1785 LP  0  0  0  0  0  0  0  0  0  0  0  0  # atno 17343 bound_to 10162
  156.2508  130.6906  151.1643 LP  0  0  0  0  0  0  0  0  0  0  0  0  # atno 17370 bound_to 10713
  157.7291  131.0626  150.5788 LP  0  0  0  0  0  0  0  0  0  0  0  0  # atno 17371 bound_to 10713
  141.1516  133.8958  157.2083 LP  0  0  0  0  0  0  0  0  0  0  0  0  # atno 17394 bound_to 11000
  139.9808  135.0099  156.9745 LP  0  0  0  0  0  0  0  0  0  0  0  0  # atno 17395 bound_to 11000

$$$$
