AV-unprocessed.smi:406|AV-procd|sdf|2499|dock7
  -GOLD-   2262022443D 1   1.00000     0.00000
 Structure written by MMmdl.
 35 36  0  0  0  0  0  0  0  0  1 V2000
  145.6837  144.3873  161.4385 C   0  0  0  0  0  0  0  0  0  0  0  0
  147.0933  144.1815  160.8744 C   0  0  0  0  0  0  0  0  0  0  0  0
  147.7835  145.5087  160.5202 C   0  0  0  0  0  0  0  0  0  0  0  0
  148.8892  145.3088  159.5910 N   0  0  0  0  0  0  0  0  0  0  0  0
  150.0639  144.7375  159.9006 C   0  0  0  0  0  0  0  0  0  0  0  0
  150.3389  144.3176  161.0246 O   0  0  0  0  0  0  0  0  0  0  0  0
  151.0856  144.6180  158.7688 C   0  0  0  0  0  0  0  0  0  0  0  0
  151.7717  143.2849  158.8341 C   0  0  0  0  0  0  0  0  0  0  0  0
  152.7216  142.8869  159.7440 C   0  0  0  0  0  0  0  0  0  0  0  0
  153.2535  141.2506  159.4616 S   0  0  0  0  0  0  0  0  0  0  0  0
  152.1688  141.1772  158.0821 C   0  0  0  0  0  0  0  0  0  0  0  0
  152.0186  140.0008  157.3014 N   0  0  0  0  0  0  0  0  0  0  0  0
  151.5444  139.8492  156.0481 C   0  0  0  0  0  0  0  0  0  0  0  0
  151.1657  140.8334  155.4145 O   0  0  0  0  0  0  0  0  0  0  0  0
  151.4982  138.4689  155.4614 C   0  0  0  0  0  0  0  0  0  0  0  0
  152.3589  138.2124  154.2427 C   0  0  0  0  0  0  0  0  0  0  0  0
  150.8611  138.2851  154.0962 C   0  0  0  0  0  0  0  0  0  0  0  0
  151.4500  142.2907  157.9050 N   0  0  0  0  0  0  0  0  0  0  0  0
  145.2199  143.4314  161.6831 H   0  0  0  0  0  0  0  0  0  0  0  0
  145.0414  144.8939  160.7177 H   0  0  0  0  0  0  0  0  0  0  0  0
  145.7076  144.9880  162.3481 H   0  0  0  0  0  0  0  0  0  0  0  0
  147.6956  143.6372  161.6026 H   0  0  0  0  0  0  0  0  0  0  0  0
  147.0324  143.5473  159.9892 H   0  0  0  0  0  0  0  0  0  0  0  0
  147.0649  146.2151  160.1009 H   0  0  0  0  0  0  0  0  0  0  0  0
  148.1823  145.9718  161.4231 H   0  0  0  0  0  0  0  0  0  0  0  0
  148.7502  145.6247  158.6421 H   0  0  0  0  0  0  0  0  0  0  0  0
  150.5915  144.7510  157.8055 H   0  0  0  0  0  0  0  0  0  0  0  0
  151.8081  145.4304  158.8575 H   0  0  0  0  0  0  0  0  0  0  0  0
  153.1381  143.4554  160.5623 H   0  0  0  0  0  0  0  0  0  0  0  0
  152.2819  139.1453  157.7682 H   0  0  0  0  0  0  0  0  0  0  0  0
  151.3554  137.6435  156.1562 H   0  0  0  0  0  0  0  0  0  0  0  0
  152.9421  139.0397  153.8417 H   0  0  0  0  0  0  0  0  0  0  0  0
  152.8364  137.2370  154.1758 H   0  0  0  0  0  0  0  0  0  0  0  0
  150.3209  137.3562  153.9258 H   0  0  0  0  0  0  0  0  0  0  0  0
  150.4536  139.1519  153.5791 H   0  0  0  0  0  0  0  0  0  0  0  0
  1  2  1  0  0  0  0
  1 19  1  0  0  0  0
  1 20  1  0  0  0  0
  1 21  1  0  0  0  0
  2  3  1  0  0  0  0
  2 22  1  0  0  0  0
  2 23  1  0  0  0  0
  3  4  1  0  0  0  0
  3 24  1  0  0  0  0
  3 25  1  0  0  0  0
  4  5  1  0  0  0  0
  4 26  1  0  0  0  0
  5  6  2  0  0  0  0
  5  7  1  0  0  0  0
  7  8  1  0  0  0  0
  7 27  1  0  0  0  0
  7 28  1  0  0  0  0
  8 18  1  0  0  0  0
  8  9  2  0  0  0  0
  9 10  1  0  0  0  0
  9 29  1  0  0  0  0
 10 11  1  0  0  0  0
 11 12  1  0  0  0  0
 11 18  2  0  0  0  0
 12 13  1  0  0  0  0
 12 30  1  0  0  0  0
 13 14  2  0  0  0  0
 13 15  1  0  0  0  0
 15 17  1  0  0  0  0
 15 16  1  0  0  0  0
 15 31  1  0  0  0  0
 16 17  1  0  0  0  0
 16 32  1  0  0  0  0
 16 33  1  0  0  0  0
 17 34  1  0  0  0  0
 17 35  1  0  0  0  0
M  END
> <s_m_source_file>
AV-unprocessed.smi

> <i_m_source_file_index>
406

> <i_lp_mmshare_version>
43012

> <i_f3d_flags>
0

> <s_epik_input>
W0NIM11bQ0gyXVtDSDJdW05IXUMoPU8pW0NIMl1jMVtjSF1zYyhuMSlbTkhdQyg9TylbQ0hdMltDSDJdW0NIMl0y

> <s_epik_cmdline>
J2VwaWtfcHl0aG9uJywgJy1waCcsICc3LjAnLCAnLXRuJywgJzgnLCAnLW1hJywgJzIwMCcsICctbWV0YWxfYmluZGluZycsICctaW1hZScsICc8aW5maWxlLm1hZT4nLCAnLW9tYWUnLCAnPG91dGZpbGUubWFlPic=

> <r_lp_tautomer_probability>
1

> <r_epik_Ionization_Penalty>
0.000156784

> <r_epik_Ionization_Penalty_Charging>
0

> <r_epik_Ionization_Penalty_Neutral>
0.000156784

> <r_epik_State_Penalty>
-0

> <r_epik_Charging_Adjusted_Penalty>
0

> <i_epik_Tot_Q>
0

> <i_epik_Tot_abs_Q>
0

> <r_epik_Metal_State_Penalty>
0.0968639

> <b_epik_Metal_Only>
0

> <s_lp_Force_Field>
OPLS_2005

> <r_lp_Energy>
11.5054

> <b_lp_Chiralities_Consistent>
1

> <s_lp_Variant>
AV-unprocessed.smi:406-1

> <Gold.Version>
5.8.1

> <Gold.Id.Protein>
6NUR|6NUR_protein|mol2

> <Gold.PLP.Fitness>
43.7171

> <Gold.PLP.PLP>
-39.7189

> <Gold.PLP.part.hbond>
-2.6802

> <Gold.PLP.part.metal>
0.0000

> <Gold.PLP.part.buried>
-7.5285

> <Gold.PLP.part.nonpolar>
-30.6557

> <Gold.PLP.part.repulsive>
0.6574

> <Gold.PLP.ligand.clash>
0.0000

> <Gold.PLP.ligand.torsion>
0.7228

> <Gold.PLP.Chemscore.Hbond>
1.7840

> <Gold.PLP.Chemscore.CHOScore>
0.0000

> <Gold.PLP.Chemscore.Metal>
0.0000

> <Gold.Chemscore.Hbonds>
donor molecule, donor type, donor heavy atom, donor atom, acceptor molecule, acceptor atom, score
      L1  H     4    26       P1  8029  1.00
      P1  H  7989  7998       L1    14  0.75

> <Gold.PLP.Chemscore.Internal.Correction>
0.0919

> <Gold.Rescore>
     Score         DG    S(hbond)    S(metal)    S(lipo)     H(rot)  DE(clash)    DE(int)     intcor
     14.63     -16.69       1.83        0.00      85.28       1.91       0.21       1.85       ----

> <Gold.Chemscore.Fitness>
14.6276

> <Gold.Chemscore.DG>
-16.6895

> <Gold.Chemscore.ZeroCoef>
-5.4800

> <Gold.Chemscore.Hbond>
1.8306

> <Gold.Chemscore.Metal>
0.0000

> <Gold.Chemscore.Lipo>
85.2750

> <Gold.Chemscore.Internal_Hbond>
0.0000

> <Gold.Chemscore.DEClash>
0.2102

> <Gold.Chemscore.DEInternal>
1.8516

> <Gold.Chemscore.Rot>
1.9070

> <Gold.Chemscore.Internal.Correction>
   9.000000E+99

> <Gold.Chemscore.Hbonds>
donor molecule, donor type, donor heavy atom, donor atom, acceptor molecule, acceptor atom, score
      L1  H     4    26       P1  8029  0.98
      P1  H  7989  7998       L1    14  0.69

> <Gold.Chemscore.Hbond.Weighted>
-6.1143

> <Gold.Chemscore.Metal.Weighted>
-0.0000

> <Gold.Chemscore.Lipo.Weighted>
-9.9772

> <Gold.Chemscore.Internal_Hbond.Weighted>
0.0000

> <Gold.Chemscore.DEClash.Weighted>
0.2102

> <Gold.Chemscore.DEInternal.Weighted>
1.8516

> <Gold.Chemscore.Rot.Weighted>
4.8820

> <Gold.Chemscore.Internal.Correction.Weighted>
   9.000000E+99

> <Gold.Protein.RotatedTorsions>
[ 6907 6896 6895 6894 ] final  137.84 input  -60.11 | X-H torsion
[ 7974 7965 7964 7962 ] final  -80.22 input  175.53 | X-H torsion
[ 8008 7997 7996 7995 ] final -132.31 input   59.86 | X-H torsion
[ 10167 10162 10161 10158 ] final  -42.52 input  -65.29 | X-H torsion
[ 10718 10713 10712 10709 ] final   37.61 input   66.30 | X-H torsion
[ 10763 10752 10751 10750 ] final  142.63 input  -60.55 | X-H torsion
[ 11005 11000 10999 10996 ] final  103.80 input  -57.11 | X-H torsion

> <Gold.Protein.ActiveResidues>
 VAL166  LYS551  ARG553  GLY616  TRP617  ASP618  TYR619  PRO620  LYS621  CYS622 
 ASP623  PHE694  ASN695  SER759  ASP760  ASP761  ALA762  ILE779  LEU786  VAL792 
 PHE793  MET794  SER795  GLU796  ALA797  LYS798  CYS799  TRP800  GLU811  SER814 

> <Gold.Protein.RotatedAtoms>
  152.2735  133.5404  159.5453 H   0  0  0  0  0  0  0  0  0  0  0  0  # atno 6907 bound_to 6896
  150.7168  134.0665  159.3858 H   0  0  0  0  0  0  0  0  0  0  0  0  # atno 6908 bound_to 6896
  151.8578  135.0535  160.0517 H   0  0  0  0  0  0  0  0  0  0  0  0  # atno 6909 bound_to 6896
  145.5628  140.9479  143.1438 H   0  0  0  0  0  0  0  0  0  0  0  0  # atno 7974 bound_to 7965
  155.3267  140.0465  157.3041 H   0  0  0  0  0  0  0  0  0  0  0  0  # atno 8008 bound_to 7997
  154.5350  140.2269  155.8704 H   0  0  0  0  0  0  0  0  0  0  0  0  # atno 8009 bound_to 7997
  156.1826  140.3070  155.9184 H   0  0  0  0  0  0  0  0  0  0  0  0  # atno 8010 bound_to 7997
  140.6966  143.3033  151.3220 H   0  0  0  0  0  0  0  0  0  0  0  0  # atno 10167 bound_to 10162
  157.3490  130.7588  149.6965 H   0  0  0  0  0  0  0  0  0  0  0  0  # atno 10718 bound_to 10713
  153.9590  135.2962  155.3434 H   0  0  0  0  0  0  0  0  0  0  0  0  # atno 10763 bound_to 10752
  154.7385  135.5035  153.9085 H   0  0  0  0  0  0  0  0  0  0  0  0  # atno 10764 bound_to 10752
  153.0956  135.6720  153.9880 H   0  0  0  0  0  0  0  0  0  0  0  0  # atno 10765 bound_to 10752
  139.8786  134.9277  156.5265 H   0  0  0  0  0  0  0  0  0  0  0  0  # atno 11005 bound_to 11000
  144.7475  139.7282  143.7286 LP  0  0  0  0  0  0  0  0  0  0  0  0  # atno 17320 bound_to 7965
  146.1839  139.5045  142.9848 LP  0  0  0  0  0  0  0  0  0  0  0  0  # atno 17321 bound_to 7965
  139.6430  144.0504  152.2569 LP  0  0  0  0  0  0  0  0  0  0  0  0  # atno 17342 bound_to 10162
  140.0016  144.6289  150.7725 LP  0  0  0  0  0  0  0  0  0  0  0  0  # atno 17343 bound_to 10162
  155.9718  130.4146  150.4140 LP  0  0  0  0  0  0  0  0  0  0  0  0  # atno 17370 bound_to 10713
  157.2200  131.0480  151.2552 LP  0  0  0  0  0  0  0  0  0  0  0  0  # atno 17371 bound_to 10713
  140.8412  133.8203  155.9077 LP  0  0  0  0  0  0  0  0  0  0  0  0  # atno 17394 bound_to 11000
  140.9235  134.2112  157.4911 LP  0  0  0  0  0  0  0  0  0  0  0  0  # atno 17395 bound_to 11000

$$$$
