AV-unprocessed.smi:919|AV-procd|sdf|4164|dock2
  -GOLD-   22720 2 73D 1   1.00000     0.00000
 Structure written by MMmdl.
 43 45  0  0  0  0  0  0  0  0  1 V2000
  146.8465  142.5063  153.9367 C   0  0  0  0  0  0  0  0  0  0  0  0
  147.9269  141.4798  154.1199 C   0  0  0  0  0  0  0  0  0  0  0  0
  149.1685  141.8818  154.3333 N   0  0  0  0  0  0  0  0  0  0  0  0
  149.9307  140.7178  154.4722 O   0  0  0  0  0  0  0  0  0  0  0  0
  149.1073  139.6475  154.3360 C   0  0  0  0  0  0  0  0  0  0  0  0
  149.7309  138.2983  154.4575 C   0  0  0  0  0  0  0  0  0  0  0  0
  147.8234  140.0587  154.1073 C   0  0  0  0  0  0  0  0  0  0  0  0
  146.5974  139.2107  153.9029 C   0  0  0  0  0  0  0  0  0  0  0  0
  146.4462  138.7924  152.4321 C   0  0  0  0  0  0  0  0  0  0  0  0
  146.7404  137.3773  152.2439 N   0  0  0  0  0  0  0  0  0  0  0  0
  145.8321  136.3885  152.3018 C   0  0  0  0  0  0  0  0  0  0  0  0
  144.6393  136.5765  152.5342 O   0  0  0  0  0  0  0  0  0  0  0  0
  146.3254  135.1582  152.0758 N   0  0  0  0  0  0  0  0  0  0  0  0
  145.6012  133.8851  152.0685 C   0  0  2  0  0  0  0  0  0  0  0  0
  146.4466  132.7050  151.5327 C   0  0  0  0  0  0  0  0  0  0  0  0
  145.6067  132.1905  150.3492 C   0  0  1  0  0  0  0  0  0  0  0  0
  144.3165  131.5339  150.8779 C   0  0  0  0  0  0  0  0  0  0  0  0
  143.4864  132.7430  151.3531 C   0  0  0  0  0  0  0  0  0  0  0  0
  144.4269  133.9282  151.0661 C   0  0  2  0  0  0  0  0  0  0  0  0
  145.0793  133.4902  149.7577 C   0  0  0  0  0  0  0  0  0  0  0  0
  145.8882  142.0421  153.7040 H   0  0  0  0  0  0  0  0  0  0  0  0
  147.0883  143.1904  153.1227 H   0  0  0  0  0  0  0  0  0  0  0  0
  146.7137  143.0990  154.8420 H   0  0  0  0  0  0  0  0  0  0  0  0
  149.1295  137.6514  155.0967 H   0  0  0  0  0  0  0  0  0  0  0  0
  150.7301  138.3632  154.8886 H   0  0  0  0  0  0  0  0  0  0  0  0
  149.8138  137.8235  153.4798 H   0  0  0  0  0  0  0  0  0  0  0  0
  146.6350  138.3203  154.5312 H   0  0  0  0  0  0  0  0  0  0  0  0
  145.7060  139.7531  154.2201 H   0  0  0  0  0  0  0  0  0  0  0  0
  145.4391  139.0138  152.0740 H   0  0  0  0  0  0  0  0  0  0  0  0
  147.1304  139.3681  151.8081 H   0  0  0  0  0  0  0  0  0  0  0  0
  147.6990  137.1312  152.0443 H   0  0  0  0  0  0  0  0  0  0  0  0
  147.3122  135.1010  151.8688 H   0  0  0  0  0  0  0  0  0  0  0  0
  145.2282  133.6827  153.0742 H   0  0  0  0  0  0  0  0  0  0  0  0
  147.4262  133.0369  151.1849 H   0  0  0  0  0  0  0  0  0  0  0  0
  146.6086  131.9361  152.2890 H   0  0  0  0  0  0  0  0  0  0  0  0
  146.1668  131.5622  149.6563 H   0  0  0  0  0  0  0  0  0  0  0  0
  143.7956  131.0014  150.0810 H   0  0  0  0  0  0  0  0  0  0  0  0
  144.5148  130.8234  151.6813 H   0  0  0  0  0  0  0  0  0  0  0  0
  142.5678  132.8283  150.7710 H   0  0  0  0  0  0  0  0  0  0  0  0
  143.2088  132.6729  152.4055 H   0  0  0  0  0  0  0  0  0  0  0  0
  143.9096  134.8877  151.0262 H   0  0  0  0  0  0  0  0  0  0  0  0
  145.8685  134.1632  149.4182 H   0  0  0  0  0  0  0  0  0  0  0  0
  144.3650  133.3389  148.9463 H   0  0  0  0  0  0  0  0  0  0  0  0
  1  2  1  0  0  0  0
  1 21  1  0  0  0  0
  1 22  1  0  0  0  0
  1 23  1  0  0  0  0
  2  7  1  0  0  0  0
  2  3  2  0  0  0  0
  3  4  1  0  0  0  0
  4  5  1  0  0  0  0
  5  6  1  0  0  0  0
  5  7  2  0  0  0  0
  6 24  1  0  0  0  0
  6 25  1  0  0  0  0
  6 26  1  0  0  0  0
  7  8  1  0  0  0  0
  8  9  1  0  0  0  0
  8 27  1  0  0  0  0
  8 28  1  0  0  0  0
  9 10  1  0  0  0  0
  9 29  1  0  0  0  0
  9 30  1  0  0  0  0
 10 11  1  0  0  0  0
 10 31  1  0  0  0  0
 11 12  2  0  0  0  0
 11 13  1  0  0  0  0
 13 14  1  0  0  0  0
 13 32  1  0  0  0  0
 14 19  1  0  0  0  0
 14 15  1  0  0  0  0
 14 33  1  0  0  0  0
 15 16  1  0  0  0  0
 15 34  1  0  0  0  0
 15 35  1  0  0  0  0
 16 20  1  0  0  0  0
 16 17  1  0  0  0  0
 16 36  1  0  0  0  0
 17 18  1  0  0  0  0
 17 37  1  0  0  0  0
 17 38  1  0  0  0  0
 18 19  1  0  0  0  0
 18 39  1  0  0  0  0
 18 40  1  0  0  0  0
 19 20  1  0  0  0  0
 19 41  1  0  0  0  0
 20 42  1  0  0  0  0
 20 43  1  0  0  0  0
M  END
> <s_m_source_file>
AV-unprocessed.smi

> <i_m_source_file_index>
919

> <i_lp_mmshare_version>
43012

> <i_f3d_flags>
0

> <s_epik_input>
W0NIM11jMW5vYyhbQ0gzXSljMVtDSDJdW0NIMl1bTkhdQyg9TylbTkhdW0NASF0oW0NIMl1bQ0BASF0yMylbQ0BASF0oW0NIMl0zKVtDSDJdW0NIMl0y

> <s_epik_cmdline>
J2VwaWtfcHl0aG9uJywgJy1waCcsICc3LjAnLCAnLXRuJywgJzgnLCAnLW1hJywgJzIwMCcsICctbWV0YWxfYmluZGluZycsICctaW1hZScsICc8aW5maWxlLm1hZT4nLCAnLW9tYWUnLCAnPG91dGZpbGUubWFlPic=

> <r_lp_tautomer_probability>
1

> <r_epik_Ionization_Penalty>
6.40771e-05

> <r_epik_Ionization_Penalty_Charging>
0

> <r_epik_Ionization_Penalty_Neutral>
6.40771e-05

> <r_epik_State_Penalty>
-0

> <r_epik_Charging_Adjusted_Penalty>
0

> <i_epik_Tot_Q>
0

> <i_epik_Tot_abs_Q>
0

> <r_epik_Metal_State_Penalty>
-0

> <b_epik_Metal_Only>
0

> <s_lp_Force_Field>
OPLS_2005

> <r_lp_Energy>
47.5349

> <b_lp_Chiralities_Consistent>
1

> <s_lp_Variant>
AV-unprocessed.smi:919-1

> <Gold.Version>
5.8.1

> <Gold.Id.Protein>
6NUR|6NUR_protein|mol2

> <Gold.PLP.Fitness>
44.5180

> <Gold.PLP.PLP>
-37.5433

> <Gold.PLP.part.hbond>
-4.4528

> <Gold.PLP.part.metal>
0.0000

> <Gold.PLP.part.buried>
-1.6695

> <Gold.PLP.part.nonpolar>
-31.5133

> <Gold.PLP.part.repulsive>
0.6044

> <Gold.PLP.ligand.clash>
0.0000

> <Gold.PLP.ligand.torsion>
0.9358

> <Gold.PLP.Chemscore.Hbond>
2.9390

> <Gold.PLP.Chemscore.CHOScore>
0.0000

> <Gold.PLP.Chemscore.Metal>
0.0000

> <Gold.Chemscore.Hbonds>
donor molecule, donor type, donor heavy atom, donor atom, acceptor molecule, acceptor atom, score
      L1  H    10    31       P1  7948  1.00
      L1  H    13    32       P1  7948  0.85
      P1  H  7989  7998       L1     4  0.74
      P1  H  8011  8017       L1     3  0.28

> <Gold.PLP.Chemscore.Internal.Correction>
0.0293

> <Gold.Rescore>
     Score         DG    S(hbond)    S(metal)    S(lipo)     H(rot)  DE(clash)    DE(int)     intcor
     18.72     -20.90       2.31        0.00      99.11       1.52       1.33       0.85       ----

> <Gold.Chemscore.Fitness>
18.7163

> <Gold.Chemscore.DG>
-20.9049

> <Gold.Chemscore.ZeroCoef>
-5.4800

> <Gold.Chemscore.Hbond>
2.3086

> <Gold.Chemscore.Metal>
0.0000

> <Gold.Chemscore.Lipo>
99.1058

> <Gold.Chemscore.Internal_Hbond>
0.0000

> <Gold.Chemscore.DEClash>
1.3349

> <Gold.Chemscore.DEInternal>
0.8536

> <Gold.Chemscore.Rot>
1.5161

> <Gold.Chemscore.Internal.Correction>
   9.000000E+99

> <Gold.Chemscore.Hbonds>
donor molecule, donor type, donor heavy atom, donor atom, acceptor molecule, acceptor atom, score
      L1  H    10    31       P1  7948  0.93
      L1  H    13    32       P1  7948  0.78
      P1  H  7989  7998       L1     4  0.54
      P1  H  8011  8017       L1     3  0.02

> <Gold.Chemscore.Hbond.Weighted>
-7.7108

> <Gold.Chemscore.Metal.Weighted>
-0.0000

> <Gold.Chemscore.Lipo.Weighted>
-11.5954

> <Gold.Chemscore.Internal_Hbond.Weighted>
0.0000

> <Gold.Chemscore.DEClash.Weighted>
1.3349

> <Gold.Chemscore.DEInternal.Weighted>
0.8536

> <Gold.Chemscore.Rot.Weighted>
3.8813

> <Gold.Chemscore.Internal.Correction.Weighted>
   9.000000E+99

> <Gold.Protein.RotatedTorsions>
[ 6907 6896 6895 6894 ] final  178.66 input  -60.11 | X-H torsion
[ 7974 7965 7964 7962 ] final  111.08 input  175.53 | X-H torsion
[ 8008 7997 7996 7995 ] final   17.92 input   59.86 | X-H torsion
[ 10167 10162 10161 10158 ] final   39.43 input  -65.29 | X-H torsion
[ 10718 10713 10712 10709 ] final  -39.66 input   66.30 | X-H torsion
[ 10763 10752 10751 10750 ] final -139.57 input  -60.55 | X-H torsion
[ 11005 11000 10999 10996 ] final   62.30 input  -57.11 | X-H torsion

> <Gold.Protein.ActiveResidues>
 VAL166  LYS551  ARG553  GLY616  TRP617  ASP618  TYR619  PRO620  LYS621  CYS622 
 ASP623  PHE694  ASN695  SER759  ASP760  ASP761  ALA762  ILE779  LEU786  VAL792 
 PHE793  MET794  SER795  GLU796  ALA797  LYS798  CYS799  TRP800  GLU811  SER814 

> <Gold.Protein.RotatedAtoms>
  151.6842  133.3311  159.3226 H   0  0  0  0  0  0  0  0  0  0  0  0  # atno 6907 bound_to 6896
  150.7808  134.6754  159.6424 H   0  0  0  0  0  0  0  0  0  0  0  0  # atno 6908 bound_to 6896
  152.3865  134.6512  160.0175 H   0  0  0  0  0  0  0  0  0  0  0  0  # atno 6909 bound_to 6896
  145.2468  139.2756  143.4089 H   0  0  0  0  0  0  0  0  0  0  0  0  # atno 7974 bound_to 7965
  154.8985  140.2997  155.5331 H   0  0  0  0  0  0  0  0  0  0  0  0  # atno 8008 bound_to 7997
  156.3019  140.2411  156.3944 H   0  0  0  0  0  0  0  0  0  0  0  0  # atno 8009 bound_to 7997
  154.8546  140.0408  157.1615 H   0  0  0  0  0  0  0  0  0  0  0  0  # atno 8010 bound_to 7997
  140.3840  144.1941  150.6130 H   0  0  0  0  0  0  0  0  0  0  0  0  # atno 10167 bound_to 10162
  156.2899  130.4227  149.8249 H   0  0  0  0  0  0  0  0  0  0  0  0  # atno 10718 bound_to 10713
  154.8605  135.3578  154.5567 H   0  0  0  0  0  0  0  0  0  0  0  0  # atno 10763 bound_to 10752
  153.6184  135.7007  153.5325 H   0  0  0  0  0  0  0  0  0  0  0  0  # atno 10764 bound_to 10752
  153.3150  135.4167  155.1328 H   0  0  0  0  0  0  0  0  0  0  0  0  # atno 10765 bound_to 10752
  140.0102  134.6308  155.9793 H   0  0  0  0  0  0  0  0  0  0  0  0  # atno 11005 bound_to 11000
  146.3313  140.2847  142.8612 LP  0  0  0  0  0  0  0  0  0  0  0  0  # atno 17320 bound_to 7965
  144.9539  140.8207  143.5555 LP  0  0  0  0  0  0  0  0  0  0  0  0  # atno 17321 bound_to 7965
  140.4908  143.2348  151.8821 LP  0  0  0  0  0  0  0  0  0  0  0  0  # atno 17342 bound_to 10162
  139.4793  144.5168  151.8857 LP  0  0  0  0  0  0  0  0  0  0  0  0  # atno 17343 bound_to 10162
  156.5666  130.8406  151.3344 LP  0  0  0  0  0  0  0  0  0  0  0  0  # atno 17370 bound_to 10713
  157.7339  130.9738  150.2003 LP  0  0  0  0  0  0  0  0  0  0  0  0  # atno 17371 bound_to 10713
  141.1705  133.6537  156.4635 LP  0  0  0  0  0  0  0  0  0  0  0  0  # atno 17394 bound_to 11000
  140.4569  134.6877  157.5067 LP  0  0  0  0  0  0  0  0  0  0  0  0  # atno 17395 bound_to 11000

$$$$
