AV-unprocessed.smi:976|AV-procd|sdf|4302|dock7
  -GOLD-   22720 2213D 1   1.00000     0.00000
 Structure written by MMmdl.
 41 42  0  0  0  0  0  0  0  0  1 V2000
  154.1396  138.5499  160.5142 C   0  0  0  0  0  0  0  0  0  0  0  0
  154.9166  139.7908  160.9786 C   0  0  2  0  0  0  0  0  0  0  0  0
  155.2229  139.6138  162.3596 O   0  0  0  0  0  0  0  0  0  0  0  0
  156.1531  138.5764  162.6553 C   0  0  0  0  0  0  0  0  0  0  0  0
  155.8952  138.0511  164.0726 C   0  0  0  0  0  0  0  0  0  0  0  0
  154.7452  137.3782  164.0882 F   0  0  0  0  0  0  0  0  0  0  0  0
  156.8761  137.2298  164.4461 F   0  0  0  0  0  0  0  0  0  0  0  0
  155.8086  139.0661  164.9318 F   0  0  0  0  0  0  0  0  0  0  0  0
  154.0968  141.0748  160.7717 C   0  0  0  0  0  0  0  0  0  0  0  0
  153.9274  141.8512  161.7118 O   0  0  0  0  0  0  0  0  0  0  0  0
  153.6055  141.2594  159.5332 N   0  0  0  0  0  0  0  0  0  0  0  0
  152.8148  142.3399  159.0489 C   0  0  0  0  0  0  0  0  0  0  0  0
  152.9613  143.6621  159.5342 C   0  0  0  0  0  0  0  0  0  0  0  0
  152.1816  144.6897  158.9741 C   0  0  0  0  0  0  0  0  0  0  0  0
  151.2890  144.3616  157.9390 C   0  0  0  0  0  0  0  0  0  0  0  0
  151.1483  143.1108  157.4553 N   0  0  0  0  0  0  0  0  0  0  0  0
  151.8933  142.1129  157.9909 C   0  0  0  0  0  0  0  0  0  0  0  0
  151.7049  140.8147  157.4756 N   0  0  0  0  0  0  0  0  0  0  0  0
  151.0723  139.8996  158.4185 C   0  0  0  0  0  0  0  0  0  0  0  0
  151.1459  138.4602  157.8822 C   0  0  0  0  0  0  0  0  0  0  0  0
  150.5582  138.4001  156.5855 O   0  0  0  0  0  0  0  0  0  0  0  0
  151.2283  139.2425  155.6518 C   0  0  0  0  0  0  0  0  0  0  0  0
  151.1536  140.7032  156.1287 C   0  0  0  0  0  0  0  0  0  0  0  0
  153.8620  138.6266  159.4624 H   0  0  0  0  0  0  0  0  0  0  0  0
  153.2264  138.4075  161.0933 H   0  0  0  0  0  0  0  0  0  0  0  0
  154.7447  137.6505  160.6299 H   0  0  0  0  0  0  0  0  0  0  0  0
  155.8448  139.8459  160.4060 H   0  0  0  0  0  0  0  0  0  0  0  0
  156.0450  137.7637  161.9356 H   0  0  0  0  0  0  0  0  0  0  0  0
  157.1794  138.9388  162.5853 H   0  0  0  0  0  0  0  0  0  0  0  0
  153.7366  140.4956  158.8857 H   0  0  0  0  0  0  0  0  0  0  0  0
  153.6705  143.9081  160.3096 H   0  0  0  0  0  0  0  0  0  0  0  0
  152.2730  145.7071  159.3245 H   0  0  0  0  0  0  0  0  0  0  0  0
  150.6758  145.1243  157.4825 H   0  0  0  0  0  0  0  0  0  0  0  0
  151.5485  139.9553  159.3973 H   0  0  0  0  0  0  0  0  0  0  0  0
  150.0309  140.1938  158.5553 H   0  0  0  0  0  0  0  0  0  0  0  0
  152.1800  138.1140  157.8415 H   0  0  0  0  0  0  0  0  0  0  0  0
  150.6092  137.7838  158.5473 H   0  0  0  0  0  0  0  0  0  0  0  0
  152.2653  138.9231  155.5360 H   0  0  0  0  0  0  0  0  0  0  0  0
  150.7525  139.1405  154.6764 H   0  0  0  0  0  0  0  0  0  0  0  0
  150.1150  141.0374  156.1263 H   0  0  0  0  0  0  0  0  0  0  0  0
  151.7064  141.3491  155.4454 H   0  0  0  0  0  0  0  0  0  0  0  0
  1  2  1  0  0  0  0
  1 24  1  0  0  0  0
  1 25  1  0  0  0  0
  1 26  1  0  0  0  0
  2  3  1  0  0  0  0
  2  9  1  0  0  0  0
  2 27  1  0  0  0  0
  3  4  1  0  0  0  0
  4  5  1  0  0  0  0
  4 28  1  0  0  0  0
  4 29  1  0  0  0  0
  5  6  1  0  0  0  0
  5  7  1  0  0  0  0
  5  8  1  0  0  0  0
  9 10  2  0  0  0  0
  9 11  1  0  0  0  0
 11 12  1  0  0  0  0
 11 30  1  0  0  0  0
 12 17  1  0  0  0  0
 12 13  2  0  0  0  0
 13 14  1  0  0  0  0
 13 31  1  0  0  0  0
 14 15  2  0  0  0  0
 14 32  1  0  0  0  0
 15 16  1  0  0  0  0
 15 33  1  0  0  0  0
 16 17  2  0  0  0  0
 17 18  1  0  0  0  0
 18 23  1  0  0  0  0
 18 19  1  0  0  0  0
 19 20  1  0  0  0  0
 19 34  1  0  0  0  0
 19 35  1  0  0  0  0
 20 21  1  0  0  0  0
 20 36  1  0  0  0  0
 20 37  1  0  0  0  0
 21 22  1  0  0  0  0
 22 23  1  0  0  0  0
 22 38  1  0  0  0  0
 22 39  1  0  0  0  0
 23 40  1  0  0  0  0
 23 41  1  0  0  0  0
M  END
> <s_m_source_file>
AV-unprocessed.smi

> <i_m_source_file_index>
976

> <i_lp_mmshare_version>
43012

> <i_f3d_flags>
0

> <s_epik_input>
RkMoRikoRilbQ0gyXU9bQ0BASF0oW0NIM10pQyg9TylbTkhdYzFbY0hdW2NIXVtjSF1uYzFOMltDSDJdW0NIMl1PW0NIMl1bQ0gyXTI=

> <s_epik_cmdline>
J2VwaWtfcHl0aG9uJywgJy1waCcsICc3LjAnLCAnLXRuJywgJzgnLCAnLW1hJywgJzIwMCcsICctbWV0YWxfYmluZGluZycsICctaW1hZScsICc8aW5maWxlLm1hZT4nLCAnLW9tYWUnLCAnPG91dGZpbGUubWFlPic=

> <r_lp_tautomer_probability>
1

> <r_epik_Ionization_Penalty>
0.000443367

> <r_epik_Ionization_Penalty_Charging>
0

> <r_epik_Ionization_Penalty_Neutral>
0.000443367

> <r_epik_State_Penalty>
0.00027288

> <r_epik_Charging_Adjusted_Penalty>
0.00027288

> <i_epik_Tot_Q>
0

> <i_epik_Tot_abs_Q>
0

> <r_epik_Metal_State_Penalty>
-0

> <b_epik_Metal_Only>
0

> <s_lp_Force_Field>
OPLS_2005

> <r_lp_Energy>
26.1193

> <b_lp_Chiralities_Consistent>
1

> <s_lp_Variant>
AV-unprocessed.smi:976-1

> <Gold.Version>
5.8.1

> <Gold.Id.Protein>
6NUR|6NUR_protein|mol2

> <Gold.PLP.Fitness>
43.6012

> <Gold.PLP.PLP>
-42.6200

> <Gold.PLP.part.hbond>
-0.1940

> <Gold.PLP.part.metal>
0.0000

> <Gold.PLP.part.buried>
-7.3905

> <Gold.PLP.part.nonpolar>
-35.5295

> <Gold.PLP.part.repulsive>
0.2076

> <Gold.PLP.ligand.clash>
0.0000

> <Gold.PLP.ligand.torsion>
0.9692

> <Gold.PLP.Chemscore.Hbond>
0.0000

> <Gold.PLP.Chemscore.CHOScore>
0.8881

> <Gold.PLP.Chemscore.Metal>
0.0000

> <Gold.Chemscore.Hbonds>
donor molecule, donor type, donor heavy atom, donor atom, acceptor molecule, acceptor atom, score
      L1  C    15    33       P1  8028  0.83
      L1  C    15    33       P1  8029  0.02

> <Gold.PLP.Chemscore.Internal.Correction>
0.2555

> <Gold.Rescore>
     Score         DG    S(hbond)    S(metal)    S(lipo)     H(rot)  DE(clash)    DE(int)     intcor
     10.00     -11.80       0.00        0.00      96.69       1.95       0.05       1.75       ----

> <Gold.Chemscore.Fitness>
10.0034

> <Gold.Chemscore.DG>
-11.8032

> <Gold.Chemscore.ZeroCoef>
-5.4800

> <Gold.Chemscore.Hbond>
0.0000

> <Gold.Chemscore.Metal>
0.0000

> <Gold.Chemscore.Lipo>
96.6911

> <Gold.Chemscore.Internal_Hbond>
0.0000

> <Gold.Chemscore.DEClash>
0.0544

> <Gold.Chemscore.DEInternal>
1.7453

> <Gold.Chemscore.Rot>
1.9491

> <Gold.Chemscore.Internal.Correction>
   9.000000E+99

> <Gold.Chemscore.Hbond.Weighted>
-0.0000

> <Gold.Chemscore.Metal.Weighted>
-0.0000

> <Gold.Chemscore.Lipo.Weighted>
-11.3129

> <Gold.Chemscore.Internal_Hbond.Weighted>
0.0000

> <Gold.Chemscore.DEClash.Weighted>
0.0544

> <Gold.Chemscore.DEInternal.Weighted>
1.7453

> <Gold.Chemscore.Rot.Weighted>
4.9897

> <Gold.Chemscore.Internal.Correction.Weighted>
   9.000000E+99

> <Gold.Protein.RotatedTorsions>
[ 6907 6896 6895 6894 ] final   30.20 input  -60.11 | X-H torsion
[ 7974 7965 7964 7962 ] final  110.51 input  175.53 | X-H torsion
[ 8008 7997 7996 7995 ] final  172.97 input   59.86 | X-H torsion
[ 10167 10162 10161 10158 ] final  119.36 input  -65.29 | X-H torsion
[ 10718 10713 10712 10709 ] final -168.97 input   66.30 | X-H torsion
[ 10763 10752 10751 10750 ] final -156.46 input  -60.55 | X-H torsion
[ 11005 11000 10999 10996 ] final  131.63 input  -57.11 | X-H torsion

> <Gold.Protein.ActiveResidues>
 VAL166  LYS551  ARG553  GLY616  TRP617  ASP618  TYR619  PRO620  LYS621  CYS622 
 ASP623  PHE694  ASN695  SER759  ASP760  ASP761  ALA762  ILE779  LEU786  VAL792 
 PHE793  MET794  SER795  GLU796  ALA797  LYS798  CYS799  TRP800  GLU811  SER814 

> <Gold.Protein.RotatedAtoms>
  152.0426  134.9702  160.0573 H   0  0  0  0  0  0  0  0  0  0  0  0  # atno 6907 bound_to 6896
  152.1135  133.4309  159.4650 H   0  0  0  0  0  0  0  0  0  0  0  0  # atno 6908 bound_to 6896
  150.6845  134.2539  159.4565 H   0  0  0  0  0  0  0  0  0  0  0  0  # atno 6909 bound_to 6896
  145.2540  139.2728  143.4052 H   0  0  0  0  0  0  0  0  0  0  0  0  # atno 7974 bound_to 7965
  156.1122  140.1472  156.9322 H   0  0  0  0  0  0  0  0  0  0  0  0  # atno 8008 bound_to 7997
  154.4775  140.0890  156.7341 H   0  0  0  0  0  0  0  0  0  0  0  0  # atno 8009 bound_to 7997
  155.4576  140.3437  155.4311 H   0  0  0  0  0  0  0  0  0  0  0  0  # atno 8010 bound_to 7997
  139.6051  144.7067  151.2972 H   0  0  0  0  0  0  0  0  0  0  0  0  # atno 10167 bound_to 10162
  156.7048  130.9210  151.3083 H   0  0  0  0  0  0  0  0  0  0  0  0  # atno 10718 bound_to 10713
  154.7711  135.3145  154.8187 H   0  0  0  0  0  0  0  0  0  0  0  0  # atno 10763 bound_to 10752
  153.8922  135.6824  153.4764 H   0  0  0  0  0  0  0  0  0  0  0  0  # atno 10764 bound_to 10752
  153.1325  135.4774  154.9306 H   0  0  0  0  0  0  0  0  0  0  0  0  # atno 10765 bound_to 10752
  139.9741  134.9568  156.9465 H   0  0  0  0  0  0  0  0  0  0  0  0  # atno 11005 bound_to 11000
  146.3294  140.2938  142.8617 LP  0  0  0  0  0  0  0  0  0  0  0  0  # atno 17320 bound_to 7965
  144.9477  140.8146  143.5591 LP  0  0  0  0  0  0  0  0  0  0  0  0  # atno 17321 bound_to 7965
  140.7279  143.6951  150.7890 LP  0  0  0  0  0  0  0  0  0  0  0  0  # atno 17342 bound_to 10162
  140.0535  143.5226  152.2662 LP  0  0  0  0  0  0  0  0  0  0  0  0  # atno 17343 bound_to 10162
  157.6959  130.9281  150.0644 LP  0  0  0  0  0  0  0  0  0  0  0  0  # atno 17370 bound_to 10713
  156.1703  130.3646  149.9174 LP  0  0  0  0  0  0  0  0  0  0  0  0  # atno 17371 bound_to 10713
  140.5231  134.0888  155.7297 LP  0  0  0  0  0  0  0  0  0  0  0  0  # atno 17394 bound_to 11000
  141.1419  133.9122  157.2305 LP  0  0  0  0  0  0  0  0  0  0  0  0  # atno 17395 bound_to 11000

$$$$
