#       Name:                AV-unprocessed.smi:1971
#       Creating user name   scv26
#       Creation time:       Fri Mar 27 10:14:45 2020


#       File generated by GOLD software.
#

@<TRIPOS>MOLECULE
AV-unprocessed.smi:1971
    48    49     1
SMALL
NO_CHARGES


@<TRIPOS>ATOM
      1 ****        -4.6965   1.2300   3.1431 C.3            1 S1                 0.0000
      2 ****        -4.0778   1.5966   1.7865 C.3            1 S1                 0.0000
      3 ****        -2.6172   1.6405   1.7692 N.3            1 S1                 0.0000
      4 ****        -2.1257   2.1953   0.5105 C.3            1 S1                 0.0000
      5 ****        -0.5883   2.2700   0.4836 C.3            1 S1                 0.0000
      6 ****         0.0336   0.9507   0.6580 N.3            1 S1                 0.0000
      7 ****         1.5115   1.0090   0.6254 C.3            1 S1                 0.0000
      8 ****         2.0746   1.6587  -0.6589 C.3            1 S1                 0.0000
      9 ****         2.2026  -0.3661   0.8269 C.3            1 S1                 0.0000
     10 ****         1.7465  -1.3672  -0.1370 N.am           1 S1                 0.0000
     11 ****         2.3928  -1.7642  -1.2426 C.2            1 S1                 0.0000
     12 ****         3.4971  -1.2888  -1.5173 O.2            1 S1                 0.0000
     13 ****         1.7158  -2.6844  -1.9666 N.pl3          1 S1                -1.0000
     14 ****         2.2387  -3.1561  -3.1103 C.2            1 S1                 0.0000
     15 ****         2.8137  -4.3603  -3.2065 N.2            1 S1                 0.0000
     16 ****         3.2854  -4.6496  -4.4882 C.2            1 S1                 0.0000
     17 ****         3.0565  -3.6458  -5.3916 C.2            1 S1                 0.0000
     18 ****         2.2338  -2.3000  -4.6554 S.3            1 S1                 0.0000
     19 ****        -0.4786   0.3832   1.9128 C.3            1 S1                 0.0000
     20 ****        -2.0166   0.3176   1.9408 C.3            1 S1                 0.0000
     21 ****        -5.7819   1.3226   3.1057 H              1 S1                 0.0000
     22 ****        -4.3347   1.8909   3.9313 H              1 S1                 0.0000
     23 ****        -4.4696   0.2039   3.4314 H              1 S1                 0.0000
     24 ****        -4.4379   0.9057   1.0230 H              1 S1                 0.0000
     25 ****        -4.4621   2.5784   1.5070 H              1 S1                 0.0000
     26 ****        -2.4777   1.5922  -0.3284 H              1 S1                 0.0000
     27 ****        -2.5329   3.1965   0.3660 H              1 S1                 0.0000
     28 ****        -0.3016   2.7018  -0.4741 H              1 S1                 0.0000
     29 ****        -0.2383   2.9550   1.2575 H              1 S1                 0.0000
     30 ****         1.8391   1.6381   1.4544 H              1 S1                 0.0000
     31 ****         3.1608   1.5738  -0.7012 H              1 S1                 0.0000
     32 ****         1.8513   2.7237  -0.7111 H              1 S1                 0.0000
     33 ****         1.6728   1.1861  -1.5557 H              1 S1                 0.0000
     34 ****         3.2866  -0.2504   0.7843 H              1 S1                 0.0000
     35 ****         2.0153  -0.7523   1.8279 H              1 S1                 0.0000
     36 ****         0.8439  -1.7831   0.0398 H              1 S1                 0.0000
     37 ****         3.7721  -5.5966  -4.6682 H              1 S1                 0.0000
     38 ****         3.3174  -3.6160  -6.4386 H              1 S1                 0.0000
     39 ****        -0.1103  -0.6320   2.0500 H              1 S1                 0.0000
     40 ****        -0.1190   0.9665   2.7618 H              1 S1                 0.0000
     41 ****        -2.3246  -0.1146   2.8923 H              1 S1                 0.0000
     42 ****        -2.3690  -0.3595   1.1609 H              1 S1                 0.0000
     43 ****        -2.3523   2.2225   2.5381 LP             1 S1                 0.0000
     44 ****        -0.2106   0.3576  -0.1092 LP             1 S1                 0.0000
     45 ****         3.9115  -0.6064  -0.9151 LP             1 S1                 0.0000
     46 ****         3.9781  -1.5857  -2.3422 LP             1 S1                 0.0000
     47 ****         0.8260  -3.0135  -1.6504 LP             1 S1                 0.0000
     48 ****         2.8974  -4.9916  -2.4354 LP             1 S1                 0.0000
@<TRIPOS>BOND
    1    1    2 1     
    2    1   21 1     
    3    1   22 1     
    4    1   23 1     
    5    2    3 1     
    6    2   24 1     
    7    2   25 1     
    8    3   20 1     
    9    3    4 1     
   10    4    5 1     
   11    4   26 1     
   12    4   27 1     
   13    5    6 1     
   14    5   28 1     
   15    5   29 1     
   16    6    7 1     
   17    6   19 1     
   18    7    8 1     
   19    7    9 1     
   20    7   30 1     
   21    8   31 1     
   22    8   32 1     
   23    8   33 1     
   24    9   10 1     
   25    9   34 1     
   26    9   35 1     
   27   10   11 am    
   28   10   36 1     
   29   11   12 2     
   30   11   13 1     
   31   13   14 1     
   32   14   18 1     
   33   14   15 2     
   34   15   16 1     
   35   16   17 2     
   36   16   37 1     
   37   17   18 1     
   38   17   38 1     
   39   19   20 1     
   40   19   39 1     
   41   19   40 1     
   42   20   41 1     
   43   20   42 1     
   44    3   43 1     
   45    6   44 1     
   46   12   45 1     
   47   12   46 1     
   48   13   47 1     
   49   15   48 1     
@<TRIPOS>SUBSTRUCTURE
      1 S1             1
@<TRIPOS>SET
LONE_PAIRS      STATIC     ATOMS    <user>   **** ""
6 43 44 45 46 47 48
DONOR_HYDROGENS      STATIC     ATOMS    <user>   **** ""
1 36
ATOM$BLUE        STATIC     ATOMS    COLORGROUP SYSTEM
6 43 44 45 46 47 48
ATOM$RED        STATIC     ATOMS    COLORGROUP SYSTEM
1 36
