AV-unprocessed.smi:916|AV-procd|sdf|4160|dock3
  -GOLD-   22720 2 63D 1   1.00000     0.00000
 Structure written by MMmdl.
 43 44  0  0  0  0  0  0  0  0  1 V2000
  145.2882  129.3464  152.0001 C   0  0  0  0  0  0  0  0  0  0  0  0
  145.5699  130.8503  151.9073 C   0  0  0  0  0  0  0  0  0  0  0  0
  146.6972  131.2742  152.7989 C   0  0  0  0  0  0  0  0  0  0  0  0
  147.3726  130.4917  153.7038 C   0  0  0  0  0  0  0  0  0  0  0  0
  148.6215  131.3812  154.5336 S   0  0  0  0  0  0  0  0  0  0  0  0
  148.1741  132.8020  153.6027 C   0  0  0  0  0  0  0  0  0  0  0  0
  148.8488  134.0418  153.7520 N   0  0  0  0  0  0  0  0  0  0  0  0
  149.5544  134.4801  154.8092 C   0  0  0  0  0  0  0  0  0  0  0  0
  149.7817  133.8335  155.8325 O   0  0  0  0  0  0  0  0  0  0  0  0
  149.9894  135.7337  154.6164 N   0  0  0  0  0  0  0  0  0  0  0  0
  150.7592  136.5099  155.5834 C   0  0  0  0  0  0  0  0  0  0  0  0
  150.9397  137.9859  155.1458 C   0  0  2  0  0  0  0  0  0  0  0  0
  151.9093  138.1356  153.9814 C   0  0  0  0  0  0  0  0  0  0  0  0
  153.2734  138.2668  154.6638 C   0  0  0  0  0  0  0  0  0  0  0  0
  153.0044  138.5328  156.0375 O   0  0  0  0  0  0  0  0  0  0  0  0
  151.6345  138.8809  156.1860 C   0  0  2  0  0  0  0  0  0  0  0  0
  151.1699  138.7593  157.6551 C   0  0  0  0  0  0  0  0  0  0  0  0
  149.6625  139.0310  157.7992 C   0  0  0  0  0  0  0  0  0  0  0  0
  151.9636  139.7107  158.5650 C   0  0  0  0  0  0  0  0  0  0  0  0
  147.1627  132.5918  152.7528 N   0  0  0  0  0  0  0  0  0  0  0  0
  144.4658  129.0639  151.3427 H   0  0  0  0  0  0  0  0  0  0  0  0
  145.0170  129.0594  153.0163 H   0  0  0  0  0  0  0  0  0  0  0  0
  146.1622  128.7628  151.7087 H   0  0  0  0  0  0  0  0  0  0  0  0
  145.7947  131.1113  150.8725 H   0  0  0  0  0  0  0  0  0  0  0  0
  144.6637  131.4001  152.1638 H   0  0  0  0  0  0  0  0  0  0  0  0
  147.2124  129.4480  153.9300 H   0  0  0  0  0  0  0  0  0  0  0  0
  148.7602  134.6796  152.9748 H   0  0  0  0  0  0  0  0  0  0  0  0
  149.7615  136.1900  153.7454 H   0  0  0  0  0  0  0  0  0  0  0  0
  150.2622  136.4460  156.5514 H   0  0  0  0  0  0  0  0  0  0  0  0
  151.7300  136.0291  155.7070 H   0  0  0  0  0  0  0  0  0  0  0  0
  149.9666  138.4034  154.8850 H   0  0  0  0  0  0  0  0  0  0  0  0
  151.8741  137.3176  153.2617 H   0  0  0  0  0  0  0  0  0  0  0  0
  151.6846  139.0550  153.4389 H   0  0  0  0  0  0  0  0  0  0  0  0
  153.8493  137.3445  154.5862 H   0  0  0  0  0  0  0  0  0  0  0  0
  153.8611  139.0722  154.2226 H   0  0  0  0  0  0  0  0  0  0  0  0
  151.5288  139.9219  155.8721 H   0  0  0  0  0  0  0  0  0  0  0  0
  151.3677  137.7460  158.0052 H   0  0  0  0  0  0  0  0  0  0  0  0
  149.4092  140.0373  157.4637 H   0  0  0  0  0  0  0  0  0  0  0  0
  149.3446  138.9381  158.8380 H   0  0  0  0  0  0  0  0  0  0  0  0
  149.0670  138.3291  157.2158 H   0  0  0  0  0  0  0  0  0  0  0  0
  151.8231  140.7513  158.2706 H   0  0  0  0  0  0  0  0  0  0  0  0
  153.0320  139.4961  158.5281 H   0  0  0  0  0  0  0  0  0  0  0  0
  151.6490  139.6141  159.6046 H   0  0  0  0  0  0  0  0  0  0  0  0
  1  2  1  0  0  0  0
  1 21  1  0  0  0  0
  1 22  1  0  0  0  0
  1 23  1  0  0  0  0
  2  3  1  0  0  0  0
  2 24  1  0  0  0  0
  2 25  1  0  0  0  0
  3 20  1  0  0  0  0
  3  4  2  0  0  0  0
  4  5  1  0  0  0  0
  4 26  1  0  0  0  0
  5  6  1  0  0  0  0
  6  7  1  0  0  0  0
  6 20  2  0  0  0  0
  7  8  1  0  0  0  0
  7 27  1  0  0  0  0
  8  9  2  0  0  0  0
  8 10  1  0  0  0  0
 10 11  1  0  0  0  0
 10 28  1  0  0  0  0
 11 12  1  0  0  0  0
 11 29  1  0  0  0  0
 11 30  1  0  0  0  0
 12 16  1  0  0  0  0
 12 13  1  0  0  0  0
 12 31  1  0  0  0  0
 13 14  1  0  0  0  0
 13 32  1  0  0  0  0
 13 33  1  0  0  0  0
 14 15  1  0  0  0  0
 14 34  1  0  0  0  0
 14 35  1  0  0  0  0
 15 16  1  0  0  0  0
 16 17  1  0  0  0  0
 16 36  1  0  0  0  0
 17 18  1  0  0  0  0
 17 19  1  0  0  0  0
 17 37  1  0  0  0  0
 18 38  1  0  0  0  0
 18 39  1  0  0  0  0
 18 40  1  0  0  0  0
 19 41  1  0  0  0  0
 19 42  1  0  0  0  0
 19 43  1  0  0  0  0
M  END
> <s_m_source_file>
AV-unprocessed.smi

> <i_m_source_file_index>
916

> <i_lp_mmshare_version>
43012

> <i_f3d_flags>
0

> <s_epik_input>
W0NIM11bQ0gyXWMxW2NIXXNjKG4xKVtOSF1DKD1PKVtOSF1bQ0gyXVtDQEBIXTJbQ0gyXVtDSDJdT1tDQEhdMltDSF0oW0NIM10pW0NIM10=

> <s_epik_cmdline>
J2VwaWtfcHl0aG9uJywgJy1waCcsICc3LjAnLCAnLXRuJywgJzgnLCAnLW1hJywgJzIwMCcsICctbWV0YWxfYmluZGluZycsICctaW1hZScsICc8aW5maWxlLm1hZT4nLCAnLW9tYWUnLCAnPG91dGZpbGUubWFlPic=

> <r_lp_tautomer_probability>
0.999

> <r_epik_Ionization_Penalty>
0.000518907

> <r_epik_Ionization_Penalty_Charging>
0

> <r_epik_Ionization_Penalty_Neutral>
0.000518907

> <r_epik_State_Penalty>
0.000177984

> <r_epik_Charging_Adjusted_Penalty>
0.000177984

> <i_epik_Tot_Q>
0

> <i_epik_Tot_abs_Q>
0

> <r_epik_Metal_State_Penalty>
-0

> <b_epik_Metal_Only>
0

> <s_lp_Force_Field>
OPLS_2005

> <r_lp_Energy>
18.5448

> <b_lp_Chiralities_Consistent>
1

> <s_lp_Variant>
AV-unprocessed.smi:916-3

> <Gold.Version>
5.8.1

> <Gold.Id.Protein>
6NUR|6NUR_protein|mol2

> <Gold.PLP.Fitness>
41.8894

> <Gold.PLP.PLP>
-33.4604

> <Gold.PLP.part.hbond>
-3.0908

> <Gold.PLP.part.metal>
0.0000

> <Gold.PLP.part.buried>
-5.8792

> <Gold.PLP.part.nonpolar>
-24.3498

> <Gold.PLP.part.repulsive>
0.2095

> <Gold.PLP.ligand.clash>
0.0000

> <Gold.PLP.ligand.torsion>
0.2230

> <Gold.PLP.Chemscore.Hbond>
2.9360

> <Gold.PLP.Chemscore.CHOScore>
0.0000

> <Gold.PLP.Chemscore.Metal>
0.0000

> <Gold.Chemscore.Hbonds>
donor molecule, donor type, donor heavy atom, donor atom, acceptor molecule, acceptor atom, score
      L1  H     7    27       P1  7948  0.85
      L1  H    10    28       P1  7948  1.00
      P1  H  7997  8009       L1    15  0.86

> <Gold.PLP.Chemscore.Internal.Correction>
0.0670

> <Gold.Rescore>
     Score         DG    S(hbond)    S(metal)    S(lipo)     H(rot)  DE(clash)    DE(int)     intcor
     12.91     -15.74       1.30        0.00      84.00       1.52       1.32       1.52       ----

> <Gold.Chemscore.Fitness>
12.9078

> <Gold.Chemscore.DG>
-15.7435

> <Gold.Chemscore.ZeroCoef>
-5.4800

> <Gold.Chemscore.Hbond>
1.2984

> <Gold.Chemscore.Metal>
0.0000

> <Gold.Chemscore.Lipo>
83.9974

> <Gold.Chemscore.Internal_Hbond>
0.0000

> <Gold.Chemscore.DEClash>
1.3171

> <Gold.Chemscore.DEInternal>
1.5185

> <Gold.Chemscore.Rot>
1.5238

> <Gold.Chemscore.Internal.Correction>
   9.000000E+99

> <Gold.Chemscore.Hbonds>
donor molecule, donor type, donor heavy atom, donor atom, acceptor molecule, acceptor atom, score
      L1  H     7    27       P1  7948  0.15
      L1  H    10    28       P1  7948  0.28
      P1  H  7997  8009       L1    15  0.19

> <Gold.Chemscore.Hbond.Weighted>
-4.3366

> <Gold.Chemscore.Metal.Weighted>
-0.0000

> <Gold.Chemscore.Lipo.Weighted>
-9.8277

> <Gold.Chemscore.Internal_Hbond.Weighted>
0.0000

> <Gold.Chemscore.DEClash.Weighted>
1.3171

> <Gold.Chemscore.DEInternal.Weighted>
1.5185

> <Gold.Chemscore.Rot.Weighted>
3.9008

> <Gold.Chemscore.Internal.Correction.Weighted>
   9.000000E+99

> <Gold.Protein.RotatedTorsions>
[ 6907 6896 6895 6894 ] final   21.13 input  -60.11 | X-H torsion
[ 7974 7965 7964 7962 ] final   87.63 input  175.53 | X-H torsion
[ 8008 7997 7996 7995 ] final -164.80 input   59.86 | X-H torsion
[ 10167 10162 10161 10158 ] final   94.82 input  -65.29 | X-H torsion
[ 10718 10713 10712 10709 ] final -147.59 input   66.30 | X-H torsion
[ 10763 10752 10751 10750 ] final  136.29 input  -60.55 | X-H torsion
[ 11005 11000 10999 10996 ] final  -49.90 input  -57.11 | X-H torsion

> <Gold.Protein.ActiveResidues>
 VAL166  LYS551  ARG553  GLY616  TRP617  ASP618  TYR619  PRO620  LYS621  CYS622 
 ASP623  PHE694  ASN695  SER759  ASP760  ASP761  ALA762  ILE779  LEU786  VAL792 
 PHE793  MET794  SER795  GLU796  ALA797  LYS798  CYS799  TRP800  GLU811  SER814 

> <Gold.Protein.RotatedAtoms>
  151.9071  135.0354  160.0511 H   0  0  0  0  0  0  0  0  0  0  0  0  # atno 6907 bound_to 6896
  152.2310  133.5054  159.5224 H   0  0  0  0  0  0  0  0  0  0  0  0  # atno 6908 bound_to 6896
  150.7025  134.1133  159.4050 H   0  0  0  0  0  0  0  0  0  0  0  0  # atno 6909 bound_to 6896
  145.5564  139.2300  143.2484 H   0  0  0  0  0  0  0  0  0  0  0  0  # atno 7974 bound_to 7965
  155.8407  140.0948  157.1736 H   0  0  0  0  0  0  0  0  0  0  0  0  # atno 8008 bound_to 7997
  154.3982  140.1401  156.3787 H   0  0  0  0  0  0  0  0  0  0  0  0  # atno 8009 bound_to 7997
  155.8067  140.3451  155.5436 H   0  0  0  0  0  0  0  0  0  0  0  0  # atno 8010 bound_to 7997
  139.8047  144.6799  150.9718 H   0  0  0  0  0  0  0  0  0  0  0  0  # atno 10167 bound_to 10162
  156.4095  130.7974  151.2190 H   0  0  0  0  0  0  0  0  0  0  0  0  # atno 10718 bound_to 10713
  153.8541  135.3075  155.3434 H   0  0  0  0  0  0  0  0  0  0  0  0  # atno 10763 bound_to 10752
  154.7878  135.4799  153.9988 H   0  0  0  0  0  0  0  0  0  0  0  0  # atno 10764 bound_to 10752
  153.1501  135.6841  153.8989 H   0  0  0  0  0  0  0  0  0  0  0  0  # atno 10765 bound_to 10752
  141.0786  133.6659  156.3653 H   0  0  0  0  0  0  0  0  0  0  0  0  # atno 11005 bound_to 11000
  146.1881  140.6388  142.9158 LP  0  0  0  0  0  0  0  0  0  0  0  0  # atno 17320 bound_to 7965
  144.7504  140.5176  143.6806 LP  0  0  0  0  0  0  0  0  0  0  0  0  # atno 17321 bound_to 7965
  140.7819  143.4245  151.0789 LP  0  0  0  0  0  0  0  0  0  0  0  0  # atno 17342 bound_to 10162
  139.7915  143.8211  152.3152 LP  0  0  0  0  0  0  0  0  0  0  0  0  # atno 17343 bound_to 10162
  157.7506  131.0262  150.3952 LP  0  0  0  0  0  0  0  0  0  0  0  0  # atno 17370 bound_to 10713
  156.4247  130.3960  149.6801 LP  0  0  0  0  0  0  0  0  0  0  0  0  # atno 17371 bound_to 10713
  140.5519  134.6019  157.5410 LP  0  0  0  0  0  0  0  0  0  0  0  0  # atno 17394 bound_to 11000
  139.9598  134.7471  156.0261 LP  0  0  0  0  0  0  0  0  0  0  0  0  # atno 17395 bound_to 11000

$$$$
