#       Name:                AV-unprocessed.smi:2985
#       Creating user name   scv26
#       Creation time:       Fri Mar 27 16:30:11 2020


#       File generated by GOLD software.
#

@<TRIPOS>MOLECULE
AV-unprocessed.smi:2985
    38    39     1
SMALL
NO_CHARGES


@<TRIPOS>ATOM
      1 ****        -1.9275   3.3220   1.3919 C.3            1 S1                 0.0000
      2 ****        -1.4083   2.0040   1.3825 O.3            1 S1                 0.0000
      3 ****        -1.9367   1.2179   0.3267 C.3            1 S1                 0.0000
      4 ****        -1.3352  -0.1941   0.3721 C.3            1 S1                 0.0000
      5 ****         0.1296  -0.1804   0.2410 N.pl3          1 S1                 0.0000
      6 ****         0.9152  -0.1956  -0.8717 C.2            1 S1                 0.0000
      7 ****         0.3688  -0.2541  -2.5440 S.3            1 S1                 0.0000
      8 ****        -0.0727  -1.9921  -2.8067 C.3            1 S1                 0.0000
      9 ****        -0.5963  -2.2532  -4.2158 C.2            1 S1                 0.0000
     10 ****        -1.8491  -1.8731  -4.4792 N.am           1 S1                 0.0000
     11 ****         0.1190  -2.7940  -5.0560 O.2            1 S1                 0.0000
     12 ****         2.2133  -0.1545  -0.4662 N.pl3          1 S1                 1.0000
     13 ****         2.2630  -0.1119   0.9281 C.ar           1 S1                 0.0000
     14 ****         3.3472  -0.0613   1.7989 C.ar           1 S1                 0.0000
     15 ****         3.0507  -0.0198   3.1770 C.ar           1 S1                 0.0000
     16 ****         1.7197  -0.0283   3.6424 C.ar           1 S1                 0.0000
     17 ****         0.6284  -0.0816   2.7508 C.ar           1 S1                 0.0000
     18 ****         0.9289  -0.1252   1.3894 C.ar           1 S1                 0.0000
     19 ****        -1.4912   3.8816   2.2191 H              1 S1                 0.0000
     20 ****        -3.0104   3.3183   1.5224 H              1 S1                 0.0000
     21 ****        -1.6877   3.8475   0.4666 H              1 S1                 0.0000
     22 ****        -3.0224   1.1575   0.4138 H              1 S1                 0.0000
     23 ****        -1.7126   1.6852  -0.6337 H              1 S1                 0.0000
     24 ****        -1.6100  -0.7092   1.2925 H              1 S1                 0.0000
     25 ****        -1.7380  -0.7934  -0.4439 H              1 S1                 0.0000
     26 ****         0.8069  -2.6100  -2.6234 H              1 S1                 0.0000
     27 ****        -0.8260  -2.2897  -2.0772 H              1 S1                 0.0000
     28 ****        -2.2427  -2.0271  -5.3961 H              1 S1                 0.0000
     29 ****        -2.4010  -1.4344  -3.7562 H              1 S1                 0.0000
     30 ****         4.3678  -0.0511   1.4449 H              1 S1                 0.0000
     31 ****         3.8600   0.0223   3.8916 H              1 S1                 0.0000
     32 ****         1.5309   0.0087   4.7056 H              1 S1                 0.0000
     33 ****        -0.3865  -0.0814   3.1196 H              1 S1                 0.0000
     34 ****         3.0035  -0.1539  -1.0983 H              1 S1                 0.0000
     35 ****        -1.6331   1.5649   2.2524 LP             1 S1                 0.0000
     36 ****        -0.4147   2.0518   1.2801 LP             1 S1                 0.0000
     37 ****         1.0513  -3.0663  -4.8182 LP             1 S1                 0.0000
     38 ****        -0.2313  -2.9618  -5.9775 LP             1 S1                 0.0000
@<TRIPOS>BOND
    1    1    2 1     
    2    1   19 1     
    3    1   20 1     
    4    1   21 1     
    5    2    3 1     
    6    3    4 1     
    7    3   22 1     
    8    3   23 1     
    9    4    5 1     
   10    4   24 1     
   11    4   25 1     
   12    5   18 1     
   13    5    6 1     
   14    6    7 1     
   15    6   12 2     
   16    7    8 1     
   17    8    9 1     
   18    8   26 1     
   19    8   27 1     
   20    9   10 am    
   21    9   11 2     
   22   10   28 1     
   23   10   29 1     
   24   12   13 1     
   25   12   34 1     
   26   13   18 ar    
   27   13   14 ar    
   28   14   15 ar    
   29   14   30 1     
   30   15   16 ar    
   31   15   31 1     
   32   16   17 ar    
   33   16   32 1     
   34   17   18 ar    
   35   17   33 1     
   36    2   35 1     
   37    2   36 1     
   38   11   37 1     
   39   11   38 1     
@<TRIPOS>SUBSTRUCTURE
      1 S1             1
@<TRIPOS>SET
LONE_PAIRS      STATIC     ATOMS    <user>   **** ""
4 35 36 37 38
DONOR_HYDROGENS      STATIC     ATOMS    <user>   **** ""
3 28 29 34
ATOM$BLUE        STATIC     ATOMS    COLORGROUP SYSTEM
4 35 36 37 38
ATOM$RED        STATIC     ATOMS    COLORGROUP SYSTEM
3 28 29 34
