#       Name:                AV-unprocessed.smi:2510
#       Creating user name   scv26
#       Creation time:       Fri Mar 27 13:50:12 2020


#       File generated by GOLD software.
#

@<TRIPOS>MOLECULE
AV-unprocessed.smi:2510
    53    54     1
SMALL
NO_CHARGES


@<TRIPOS>ATOM
      1 ****        -2.6350   0.0922  -2.2397 C.3            1 S1                 0.0000
      2 ****        -1.6556   0.8875  -1.3649 C.3            1 S1                 0.0000
      3 ****        -1.2157   0.1971  -0.0548 C.3            1 S1                 0.0000
      4 ****        -0.3141  -1.0197  -0.4307 C.3            1 S1                 0.0000
      5 ****        -1.0200  -2.3823  -0.5445 C.3            1 S1                 0.0000
      6 ****        -0.6432   1.1811   1.0067 C.3            1 S1                 0.0000
      7 ****         0.8122   1.2209   1.0988 N.am           1 S1                 0.0000
      8 ****         1.5982   1.9924   0.3337 C.2            1 S1                 0.0000
      9 ****         1.1632   2.8038  -0.4833 O.2            1 S1                 0.0000
     10 ****         3.1061   1.8037   0.4985 C.3            1 S1                 0.0000
     11 ****         3.6007   0.7820  -0.4906 C.2            1 S1                 0.0000
     12 ****         3.4552  -0.6366  -0.4370 C.2            1 S1                 0.0000
     13 ****         4.0624  -1.0831  -1.5766 C.2            1 S1                 0.0000
     14 ****         4.2466  -2.4579  -2.1228 C.3            1 S1                 0.0000
     15 ****         4.5344   0.0355  -2.2234 N.pl3          1 S1                 0.0000
     16 ****         4.2606   1.1795  -1.5698 N.2            1 S1                 0.0000
     17 ****        -1.2960   0.3281   2.0994 C.3            1 S1                 0.0000
     18 ****        -1.7370   0.9797   3.4039 C.3            1 S1                 0.0000
     19 ****        -2.3221  -0.0543   1.0138 C.3            1 S1                 0.0000
     20 ****        -3.3855   0.8883   0.9073 O.3            1 S1                 0.0000
     21 ****        -4.5656   0.4799   1.5782 C.3            1 S1                 0.0000
     22 ****         5.0373   0.0335  -3.0997 H              1 S1                 0.0000
     23 ****        -3.0258   0.7200  -3.0404 H              1 S1                 0.0000
     24 ****        -3.4851  -0.2722  -1.6627 H              1 S1                 0.0000
     25 ****        -2.1488  -0.7586  -2.7149 H              1 S1                 0.0000
     26 ****        -0.7845   1.1577  -1.9626 H              1 S1                 0.0000
     27 ****        -2.1299   1.8412  -1.1313 H              1 S1                 0.0000
     28 ****         0.2145  -0.8252  -1.3647 H              1 S1                 0.0000
     29 ****         0.4793  -1.1610   0.3017 H              1 S1                 0.0000
     30 ****        -0.3430  -3.1243  -0.9681 H              1 S1                 0.0000
     31 ****        -1.9051  -2.3493  -1.1760 H              1 S1                 0.0000
     32 ****        -1.3233  -2.7550   0.4336 H              1 S1                 0.0000
     33 ****        -1.0990   2.1734   0.9554 H              1 S1                 0.0000
     34 ****         1.2505   0.5846   1.7486 H              1 S1                 0.0000
     35 ****         3.6052   2.7633   0.3556 H              1 S1                 0.0000
     36 ****         3.3309   1.4863   1.5175 H              1 S1                 0.0000
     37 ****         2.9688  -1.2333   0.3202 H              1 S1                 0.0000
     38 ****         3.5912  -3.1681  -1.6182 H              1 S1                 0.0000
     39 ****         5.2753  -2.7927  -1.9880 H              1 S1                 0.0000
     40 ****         4.0169  -2.4878  -3.1883 H              1 S1                 0.0000
     41 ****        -0.6745  -0.5440   2.3135 H              1 S1                 0.0000
     42 ****        -2.3463   1.8658   3.2246 H              1 S1                 0.0000
     43 ****        -0.8763   1.2905   3.9961 H              1 S1                 0.0000
     44 ****        -2.3226   0.2904   4.0119 H              1 S1                 0.0000
     45 ****        -2.6765  -1.0831   1.0706 H              1 S1                 0.0000
     46 ****        -5.3224   1.2596   1.4938 H              1 S1                 0.0000
     47 ****        -4.3854   0.2994   2.6378 H              1 S1                 0.0000
     48 ****        -4.9707  -0.4300   1.1340 H              1 S1                 0.0000
     49 ****         0.1764   2.9132  -0.6026 LP             1 S1                 0.0000
     50 ****         1.7966   3.3536  -1.0279 LP             1 S1                 0.0000
     51 ****         4.4995   2.1133  -1.8364 LP             1 S1                 0.0000
     52 ****        -3.5994   1.0176  -0.0610 LP             1 S1                 0.0000
     53 ****        -3.0811   1.7561   1.3001 LP             1 S1                 0.0000
@<TRIPOS>BOND
    1    1    2 1     
    2    1   23 1     
    3    1   24 1     
    4    1   25 1     
    5    2    3 1     
    6    2   26 1     
    7    2   27 1     
    8    3   19 1     
    9    3    4 1     
   10    3    6 1     
   11    4    5 1     
   12    4   28 1     
   13    4   29 1     
   14    5   30 1     
   15    5   31 1     
   16    5   32 1     
   17    6    7 1     
   18    6   17 1     
   19    6   33 1     
   20    7    8 am    
   21    7   34 1     
   22    8    9 2     
   23    8   10 1     
   24   10   11 1     
   25   10   35 1     
   26   10   36 1     
   27   11   16 2     
   28   11   12 1     
   29   12   13 2     
   30   12   37 1     
   31   13   14 1     
   32   13   15 1     
   33   14   38 1     
   34   14   39 1     
   35   14   40 1     
   36   15   22 1     
   37   15   16 1     
   38   17   18 1     
   39   17   19 1     
   40   17   41 1     
   41   18   42 1     
   42   18   43 1     
   43   18   44 1     
   44   19   20 1     
   45   19   45 1     
   46   20   21 1     
   47   21   46 1     
   48   21   47 1     
   49   21   48 1     
   50    9   49 1     
   51    9   50 1     
   52   16   51 1     
   53   20   52 1     
   54   20   53 1     
@<TRIPOS>SUBSTRUCTURE
      1 S1             1
@<TRIPOS>SET
LONE_PAIRS      STATIC     ATOMS    <user>   **** ""
5 49 50 51 52 53
DONOR_HYDROGENS      STATIC     ATOMS    <user>   **** ""
2 34 22
ATOM$BLUE        STATIC     ATOMS    COLORGROUP SYSTEM
5 49 50 51 52 53
ATOM$RED        STATIC     ATOMS    COLORGROUP SYSTEM
2 34 22
