AV-unprocessed.smi:2107|AV-procd|sdf|8603|dock3
  -GOLD-   2272011343D 1   1.00000     0.00000
 Structure written by MMmdl.
 46 47  0  0  0  0  0  0  0  0  3 V2000
  147.7306  132.3381  159.2030 C   0  0  0  0  0  0  0  0  0  0  0  0
  146.9856  133.6746  159.3176 C   0  0  0  0  0  0  0  0  0  0  0  0
  147.7371  134.6270  160.1513 N   0  0  0  0  0  0  0  0  0  0  0  0
  147.7873  134.3450  161.5962 C   0  0  0  0  0  0  0  0  0  0  0  0
  146.8032  135.2309  162.3717 C   0  0  0  0  0  0  0  0  0  0  0  0
  148.0999  136.2251  159.5592 S   0  0  0  0  0  0  0  0  0  0  0  0
  147.1932  136.4838  158.4270 O   0  0  0  0  0  0  0  0  0  0  0  0
  147.9873  137.1078  160.7302 O   0  0  0  0  0  0  0  0  0  0  0  0
  149.6513  135.9715  159.1295 N   0  5  0  0  0  0  0  0  0  0  0  0
  150.1483  136.3370  157.8091 C   0  0  0  0  0  0  0  0  0  0  0  0
  149.4930  135.4981  156.7048 C   0  0  0  0  0  0  0  0  0  0  0  0
  148.9136  134.2538  157.0605 C   0  0  0  0  0  0  0  0  0  0  0  0
  148.2869  133.4582  156.0814 C   0  0  0  0  0  0  0  0  0  0  0  0
  148.2463  133.9158  154.7534 C   0  0  0  0  0  0  0  0  0  0  0  0
  148.8068  135.1009  154.4372 N   0  3  0  0  0  0  0  0  0  0  0  0
  149.4251  135.9101  155.3346 C   0  0  0  0  0  0  0  0  0  0  0  0
  149.9807  137.1056  154.8326 N   0  0  0  0  0  0  0  0  0  0  0  0
  149.1717  138.2835  155.1205 C   0  0  0  0  0  0  0  0  0  0  0  0
  149.7540  139.5147  154.4050 C   0  0  0  0  0  0  0  0  0  0  0  0
  151.1247  139.6740  154.7612 O   0  0  0  0  0  0  0  0  0  0  0  0
  151.9095  138.5455  154.3859 C   0  0  0  0  0  0  0  0  0  0  0  0
  151.3947  137.2988  155.1241 C   0  0  0  0  0  0  0  0  0  0  0  0
  147.1605  131.6288  158.6033 H   0  0  0  0  0  0  0  0  0  0  0  0
  147.8902  131.8906  160.1843 H   0  0  0  0  0  0  0  0  0  0  0  0
  148.7052  132.4592  158.7308 H   0  0  0  0  0  0  0  0  0  0  0  0
  146.8282  134.1086  158.3297 H   0  0  0  0  0  0  0  0  0  0  0  0
  145.9943  133.5055  159.7395 H   0  0  0  0  0  0  0  0  0  0  0  0
  147.5404  133.2973  161.7718 H   0  0  0  0  0  0  0  0  0  0  0  0
  148.8053  134.4855  161.9605 H   0  0  0  0  0  0  0  0  0  0  0  0
  146.8188  134.9858  163.4336 H   0  0  0  0  0  0  0  0  0  0  0  0
  145.7828  135.0894  162.0143 H   0  0  0  0  0  0  0  0  0  0  0  0
  147.0499  136.2879  162.2739 H   0  0  0  0  0  0  0  0  0  0  0  0
  149.9804  137.3950  157.6054 H   0  0  0  0  0  0  0  0  0  0  0  0
  151.2255  136.1995  157.7153 H   0  0  0  0  0  0  0  0  0  0  0  0
  148.9374  133.8895  158.0790 H   0  0  0  0  0  0  0  0  0  0  0  0
  147.8449  132.5096  156.3483 H   0  0  0  0  0  0  0  0  0  0  0  0
  147.7898  133.3733  153.9387 H   0  0  0  0  0  0  0  0  0  0  0  0
  148.1441  138.1156  154.7956 H   0  0  0  0  0  0  0  0  0  0  0  0
  149.1462  138.4566  156.1972 H   0  0  0  0  0  0  0  0  0  0  0  0
  149.6582  139.4202  153.3227 H   0  0  0  0  0  0  0  0  0  0  0  0
  149.2043  140.4106  154.6934 H   0  0  0  0  0  0  0  0  0  0  0  0
  151.8688  138.4028  153.3044 H   0  0  0  0  0  0  0  0  0  0  0  0
  152.9514  138.7336  154.6449 H   0  0  0  0  0  0  0  0  0  0  0  0
  151.5410  137.4191  156.1982 H   0  0  0  0  0  0  0  0  0  0  0  0
  151.9585  136.4180  154.8148 H   0  0  0  0  0  0  0  0  0  0  0  0
  148.7698  135.4046  153.4643 H   0  0  0  0  0  0  0  0  0  0  0  0
  1  2  1  0  0  0  0
  1 23  1  0  0  0  0
  1 24  1  0  0  0  0
  1 25  1  0  0  0  0
  2  3  1  0  0  0  0
  2 26  1  0  0  0  0
  2 27  1  0  0  0  0
  3  4  1  0  0  0  0
  3  6  1  0  0  0  0
  4  5  1  0  0  0  0
  4 28  1  0  0  0  0
  4 29  1  0  0  0  0
  5 30  1  0  0  0  0
  5 31  1  0  0  0  0
  5 32  1  0  0  0  0
  6  7  2  0  0  0  0
  6  8  2  0  0  0  0
  6  9  1  0  0  0  0
  9 10  1  0  0  0  0
 10 11  1  0  0  0  0
 10 33  1  0  0  0  0
 10 34  1  0  0  0  0
 11 16  1  0  0  0  0
 11 12  2  0  0  0  0
 12 13  1  0  0  0  0
 12 35  1  0  0  0  0
 13 14  2  0  0  0  0
 13 36  1  0  0  0  0
 14 15  1  0  0  0  0
 14 37  1  0  0  0  0
 15 16  2  0  0  0  0
 15 46  1  0  0  0  0
 16 17  1  0  0  0  0
 17 22  1  0  0  0  0
 17 18  1  0  0  0  0
 18 19  1  0  0  0  0
 18 38  1  0  0  0  0
 18 39  1  0  0  0  0
 19 20  1  0  0  0  0
 19 40  1  0  0  0  0
 19 41  1  0  0  0  0
 20 21  1  0  0  0  0
 21 22  1  0  0  0  0
 21 42  1  0  0  0  0
 21 43  1  0  0  0  0
 22 44  1  0  0  0  0
 22 45  1  0  0  0  0
M  CHG  1   9  -1
M  CHG  1  15   1
M  END
> <s_m_source_file>
AV-unprocessed.smi

> <i_m_source_file_index>
2107

> <i_lp_mmshare_version>
43012

> <i_f3d_flags>
0

> <s_epik_input>
W0NIM11bQ0gyXU4oW0NIMl1bQ0gzXSlTKD1PKSg9TylbTkhdW0NIMl1jMVtjSF1bY0hdW2NIXW5jMU4yW0NIMl1bQ0gyXU9bQ0gyXVtDSDJdMg==

> <s_epik_cmdline>
J2VwaWtfcHl0aG9uJywgJy1waCcsICc3LjAnLCAnLXRuJywgJzgnLCAnLW1hJywgJzIwMCcsICctbWV0YWxfYmluZGluZycsICctaW1hZScsICc8aW5maWxlLm1hZT4nLCAnLW9tYWUnLCAnPG91dGZpbGUubWFlPic=

> <r_lp_tautomer_probability>
0.999994

> <r_epik_Ionization_Penalty>
2.67026

> <r_epik_Ionization_Penalty_Charging>
2.67026

> <r_epik_Ionization_Penalty_Neutral>
4.07977e-08

> <r_epik_State_Penalty>
4.05768

> <r_epik_Charging_Adjusted_Penalty>
6.72795

> <i_epik_Tot_Q>
0

> <i_epik_Tot_abs_Q>
2

> <r_epik_Metal_State_Penalty>
2.91237

> <b_epik_Metal_Only>
1

> <s_lp_Force_Field>
OPLS_2005

> <r_lp_Energy>
19.7011

> <b_lp_Chiralities_Consistent>
1

> <s_lp_Variant>
AV-unprocessed.smi:2107-4

> <Gold.Version>
5.8.1

> <Gold.Id.Protein>
6NUR|6NUR_protein|mol2

> <Gold.PLP.Fitness>
47.4793

> <Gold.PLP.PLP>
-28.6554

> <Gold.PLP.part.hbond>
-5.0000

> <Gold.PLP.part.metal>
0.0000

> <Gold.PLP.part.buried>
-5.3318

> <Gold.PLP.part.nonpolar>
-18.8842

> <Gold.PLP.part.repulsive>
0.2375

> <Gold.PLP.ligand.clash>
0.0000

> <Gold.PLP.ligand.torsion>
2.4042

> <Gold.PLP.Chemscore.Hbond>
6.6640

> <Gold.PLP.Chemscore.CHOScore>
0.0000

> <Gold.PLP.Chemscore.Metal>
0.0000

> <Gold.Chemscore.Hbonds>
donor molecule, donor type, donor heavy atom, donor atom, acceptor molecule, acceptor atom, score
      L1  H    15    46       P1  7948  2.00
      P1  H  6896  6907       L1     9  2.00
      P1  H  6931  6943       L1     8  0.88
      P1  H  6934  6947       L1     8  0.69
      P1  H  7989  7998       L1    20  1.00

> <Gold.PLP.Chemscore.Internal.Correction>
3.6402

> <Gold.Rescore>
     Score         DG    S(hbond)    S(metal)    S(lipo)     H(rot)  DE(clash)    DE(int)     intcor
     15.80     -18.33       2.99        0.00      62.13       1.72       0.10       2.43       ----

> <Gold.Chemscore.Fitness>
15.7960

> <Gold.Chemscore.DG>
-18.3298

> <Gold.Chemscore.ZeroCoef>
-5.4800

> <Gold.Chemscore.Hbond>
2.9861

> <Gold.Chemscore.Metal>
0.0000

> <Gold.Chemscore.Lipo>
62.1253

> <Gold.Chemscore.Internal_Hbond>
0.0000

> <Gold.Chemscore.DEClash>
0.0990

> <Gold.Chemscore.DEInternal>
2.4348

> <Gold.Chemscore.Rot>
1.7159

> <Gold.Chemscore.Internal.Correction>
   9.000000E+99

> <Gold.Chemscore.Hbonds>
donor molecule, donor type, donor heavy atom, donor atom, acceptor molecule, acceptor atom, score
      L1  H    15    46       P1  7948  0.85
      P1  H  6896  6907       L1     9  0.34
      P1  H  6931  6943       L1     8  0.86
      P1  H  6934  6947       L1     8  0.66
      P1  H  7989  7998       L1    20  0.07

> <Gold.Chemscore.Hbond.Weighted>
-9.9737

> <Gold.Chemscore.Metal.Weighted>
-0.0000

> <Gold.Chemscore.Lipo.Weighted>
-7.2687

> <Gold.Chemscore.Internal_Hbond.Weighted>
0.0000

> <Gold.Chemscore.DEClash.Weighted>
0.0990

> <Gold.Chemscore.DEInternal.Weighted>
2.4348

> <Gold.Chemscore.Rot.Weighted>
4.3926

> <Gold.Chemscore.Internal.Correction.Weighted>
   9.000000E+99

> <Gold.Protein.RotatedTorsions>
[ 6907 6896 6895 6894 ] final  -71.55 input  -60.11 | X-H torsion
[ 7974 7965 7964 7962 ] final  -58.67 input  175.53 | X-H torsion
[ 8008 7997 7996 7995 ] final    8.12 input   59.86 | X-H torsion
[ 10167 10162 10161 10158 ] final  174.92 input  -65.29 | X-H torsion
[ 10718 10713 10712 10709 ] final  -19.06 input   66.30 | X-H torsion
[ 10763 10752 10751 10750 ] final  -13.43 input  -60.55 | X-H torsion
[ 11005 11000 10999 10996 ] final -154.07 input  -57.11 | X-H torsion

> <Gold.Protein.ActiveResidues>
 VAL166  LYS551  ARG553  GLY616  TRP617  ASP618  TYR619  PRO620  LYS621  CYS622 
 ASP623  PHE694  ASN695  SER759  ASP760  ASP761  ALA762  ILE779  LEU786  VAL792 
 PHE793  MET794  SER795  GLU796  ALA797  LYS798  CYS799  TRP800  GLU811  SER814 

> <Gold.Protein.RotatedAtoms>
  150.7208  134.5293  159.5691 H   0  0  0  0  0  0  0  0  0  0  0  0  # atno 6907 bound_to 6896
  152.2830  134.7805  160.0402 H   0  0  0  0  0  0  0  0  0  0  0  0  # atno 6908 bound_to 6896
  151.8445  133.3394  159.3690 H   0  0  0  0  0  0  0  0  0  0  0  0  # atno 6909 bound_to 6896
  145.8366  140.8445  143.0056 H   0  0  0  0  0  0  0  0  0  0  0  0  # atno 7974 bound_to 7965
  154.7626  140.2787  155.6201 H   0  0  0  0  0  0  0  0  0  0  0  0  # atno 8008 bound_to 7997
  156.2918  140.2657  156.2336 H   0  0  0  0  0  0  0  0  0  0  0  0  # atno 8009 bound_to 7997
  154.9998  140.0373  157.2345 H   0  0  0  0  0  0  0  0  0  0  0  0  # atno 8010 bound_to 7997
  139.5159  144.3091  152.0308 H   0  0  0  0  0  0  0  0  0  0  0  0  # atno 10167 bound_to 10162
  156.5509  130.4701  149.6452 H   0  0  0  0  0  0  0  0  0  0  0  0  # atno 10718 bound_to 10713
  153.5132  135.7016  153.5770 H   0  0  0  0  0  0  0  0  0  0  0  0  # atno 10763 bound_to 10752
  153.3851  135.3910  155.1884 H   0  0  0  0  0  0  0  0  0  0  0  0  # atno 10764 bound_to 10752
  154.8701  135.3844  154.4614 H   0  0  0  0  0  0  0  0  0  0  0  0  # atno 10765 bound_to 10752
  140.7013  134.3934  157.5209 H   0  0  0  0  0  0  0  0  0  0  0  0  # atno 11005 bound_to 11000
  144.6736  140.0750  143.7471 LP  0  0  0  0  0  0  0  0  0  0  0  0  # atno 17320 bound_to 7965
  145.9512  139.2735  143.1211 LP  0  0  0  0  0  0  0  0  0  0  0  0  # atno 17321 bound_to 7965
  140.2536  144.4143  150.6212 LP  0  0  0  0  0  0  0  0  0  0  0  0  # atno 17342 bound_to 10162
  140.6207  143.2176  151.6699 LP  0  0  0  0  0  0  0  0  0  0  0  0  # atno 17343 bound_to 10162
  156.2885  130.7111  151.1953 LP  0  0  0  0  0  0  0  0  0  0  0  0  # atno 17370 bound_to 10713
  157.7387  131.0537  150.5275 LP  0  0  0  0  0  0  0  0  0  0  0  0  # atno 17371 bound_to 10713
  139.8896  134.8826  156.2413 LP  0  0  0  0  0  0  0  0  0  0  0  0  # atno 17394 bound_to 11000
  141.0161  133.7068  156.1191 LP  0  0  0  0  0  0  0  0  0  0  0  0  # atno 17395 bound_to 11000

$$$$
