AV-unprocessed.smi:786|AV-procd|sdf|3723|dock1
  -GOLD-   22720 1153D 1   1.00000     0.00000
 Structure written by MMmdl.
 38 39  0  0  0  0  0  0  0  0  2 V2000
  152.3360  137.3693  155.5282 O   0  0  0  0  0  0  0  0  0  0  0  0
  152.0088  138.7881  155.3063 S   0  0  0  0  0  0  0  0  0  0  0  0
  153.0793  139.6310  154.7543 O   0  0  0  0  0  0  0  0  0  0  0  0
  150.6350  138.8030  154.0531 C   0  0  0  0  0  0  0  0  0  0  0  0
  149.3592  139.5313  154.5320 C   0  0  0  0  0  0  0  0  0  0  0  0
  148.1266  139.0520  153.7471 C   0  0  0  0  0  0  0  0  0  0  0  0
  146.8638  139.8142  154.1808 C   0  0  0  0  0  0  0  0  0  0  0  0
  147.0570  141.2135  154.0114 O   0  0  0  0  0  0  0  0  0  0  0  0
  148.1157  141.7227  154.8150 C   0  0  0  0  0  0  0  0  0  0  0  0
  149.4461  141.0651  154.4131 C   0  0  0  0  0  0  0  0  0  0  0  0
  151.3207  139.5021  156.5964 N   0  5  0  0  0  0  0  0  0  0  0  0
  151.6227  140.8818  156.9549 C   0  0  0  0  0  0  0  0  0  0  0  0
  152.0121  140.9894  158.4473 C   0  0  0  0  0  0  0  0  0  0  0  0
  151.9875  142.4016  159.0293 C   0  0  0  0  0  0  0  0  0  0  0  0
  151.9219  143.5307  158.1807 C   0  0  0  0  0  0  0  0  0  0  0  0
  151.8855  144.8124  158.7632 C   0  0  0  0  0  0  0  0  0  0  0  0
  151.9085  144.9205  160.1666 C   0  0  0  0  0  0  0  0  0  0  0  0
  151.9681  143.7369  160.9281 C   0  0  0  0  0  0  0  0  0  0  0  0
  152.0049  142.5041  160.3803 N   0  0  0  0  0  0  0  0  0  0  0  0
  151.0183  139.2731  153.1475 H   0  0  0  0  0  0  0  0  0  0  0  0
  150.4168  137.7693  153.7877 H   0  0  0  0  0  0  0  0  0  0  0  0
  149.1909  139.2776  155.5793 H   0  0  0  0  0  0  0  0  0  0  0  0
  148.2885  139.1999  152.6785 H   0  0  0  0  0  0  0  0  0  0  0  0
  147.9801  137.9819  153.8942 H   0  0  0  0  0  0  0  0  0  0  0  0
  146.0116  139.4997  153.5783 H   0  0  0  0  0  0  0  0  0  0  0  0
  146.6140  139.5982  155.2202 H   0  0  0  0  0  0  0  0  0  0  0  0
  148.1747  142.8021  154.6753 H   0  0  0  0  0  0  0  0  0  0  0  0
  147.9010  141.5500  155.8708 H   0  0  0  0  0  0  0  0  0  0  0  0
  150.2425  141.4650  155.0376 H   0  0  0  0  0  0  0  0  0  0  0  0
  149.6892  141.3436  153.3869 H   0  0  0  0  0  0  0  0  0  0  0  0
  152.4316  141.2986  156.3540 H   0  0  0  0  0  0  0  0  0  0  0  0
  150.7622  141.5256  156.7716 H   0  0  0  0  0  0  0  0  0  0  0  0
  151.3272  140.3758  159.0333 H   0  0  0  0  0  0  0  0  0  0  0  0
  153.0004  140.5539  158.6036 H   0  0  0  0  0  0  0  0  0  0  0  0
  151.9047  143.4161  157.1067 H   0  0  0  0  0  0  0  0  0  0  0  0
  151.8414  145.6963  158.1445 H   0  0  0  0  0  0  0  0  0  0  0  0
  151.8845  145.8866  160.6483 H   0  0  0  0  0  0  0  0  0  0  0  0
  151.9904  143.7814  162.0068 H   0  0  0  0  0  0  0  0  0  0  0  0
  1  2  2  0  0  0  0
  2  3  2  0  0  0  0
  2  4  1  0  0  0  0
  2 11  1  0  0  0  0
  4  5  1  0  0  0  0
  4 20  1  0  0  0  0
  4 21  1  0  0  0  0
  5 10  1  0  0  0  0
  5  6  1  0  0  0  0
  5 22  1  0  0  0  0
  6  7  1  0  0  0  0
  6 23  1  0  0  0  0
  6 24  1  0  0  0  0
  7  8  1  0  0  0  0
  7 25  1  0  0  0  0
  7 26  1  0  0  0  0
  8  9  1  0  0  0  0
  9 10  1  0  0  0  0
  9 27  1  0  0  0  0
  9 28  1  0  0  0  0
 10 29  1  0  0  0  0
 10 30  1  0  0  0  0
 11 12  1  0  0  0  0
 12 13  1  0  0  0  0
 12 31  1  0  0  0  0
 12 32  1  0  0  0  0
 13 14  1  0  0  0  0
 13 33  1  0  0  0  0
 13 34  1  0  0  0  0
 14 19  1  0  0  0  0
 14 15  2  0  0  0  0
 15 16  1  0  0  0  0
 15 35  1  0  0  0  0
 16 17  2  0  0  0  0
 16 36  1  0  0  0  0
 17 18  1  0  0  0  0
 17 37  1  0  0  0  0
 18 19  2  0  0  0  0
 18 38  1  0  0  0  0
M  CHG  1  11  -1
M  END
> <s_m_source_file>
AV-unprocessed.smi

> <i_m_source_file_index>
786

> <i_lp_mmshare_version>
43012

> <i_f3d_flags>
0

> <s_epik_input>
W0NIMl0xW0NIMl1PW0NIMl1bQ0gyXVtDSF0xW0NIMl1TKD1PKSg9TylbTkhdW0NIMl1bQ0gyXWMyW2NIXVtjSF1bY0hdW2NIXW4y

> <s_epik_cmdline>
J2VwaWtfcHl0aG9uJywgJy1waCcsICc3LjAnLCAnLXRuJywgJzgnLCAnLW1hJywgJzIwMCcsICctbWV0YWxfYmluZGluZycsICctaW1hZScsICc8aW5maWxlLm1hZT4nLCAnLW9tYWUnLCAnPG91dGZpbGUubWFlPic=

> <r_epik_Ionization_Penalty>
6.60618

> <r_epik_Ionization_Penalty_Charging>
6.53386

> <r_epik_Ionization_Penalty_Neutral>
0.0723214

> <r_epik_State_Penalty>
6.55045

> <r_epik_Charging_Adjusted_Penalty>
13.0843

> <i_epik_Tot_Q>
-1

> <i_epik_Tot_abs_Q>
1

> <r_epik_Metal_State_Penalty>
2.49618

> <b_epik_Metal_Only>
1

> <s_lp_Force_Field>
OPLS_2005

> <r_lp_Energy>
5.55421

> <b_lp_Chiralities_Consistent>
1

> <s_lp_Variant>
AV-unprocessed.smi:786-3

> <Gold.Version>
5.8.1

> <Gold.Id.Protein>
6NUR|6NUR_protein|mol2

> <Gold.PLP.Fitness>
47.9334

> <Gold.PLP.PLP>
-43.1908

> <Gold.PLP.part.hbond>
-3.1239

> <Gold.PLP.part.metal>
0.0000

> <Gold.PLP.part.buried>
-4.9389

> <Gold.PLP.part.nonpolar>
-35.1148

> <Gold.PLP.part.repulsive>
0.2258

> <Gold.PLP.ligand.clash>
0.0000

> <Gold.PLP.ligand.torsion>
1.0345

> <Gold.PLP.Chemscore.Hbond>
1.8661

> <Gold.PLP.Chemscore.CHOScore>
0.0000

> <Gold.PLP.Chemscore.Metal>
0.0000

> <Gold.Chemscore.Hbonds>
donor molecule, donor type, donor heavy atom, donor atom, acceptor molecule, acceptor atom, score
      P1  H  7989  7998       L1     3  0.13
      P1  H  7997  8010       L1     3  1.00
      P1  H 10752 10764       L1     1  0.68

> <Gold.PLP.Chemscore.Internal.Correction>
1.2134

> <Gold.Rescore>
     Score         DG    S(hbond)    S(metal)    S(lipo)     H(rot)  DE(clash)    DE(int)     intcor
     19.84     -20.60       1.81        0.00     112.12       1.57       0.04       0.73       ----

> <Gold.Chemscore.Fitness>
19.8358

> <Gold.Chemscore.DG>
-20.6045

> <Gold.Chemscore.ZeroCoef>
-5.4800

> <Gold.Chemscore.Hbond>
1.8071

> <Gold.Chemscore.Metal>
0.0000

> <Gold.Chemscore.Lipo>
112.1216

> <Gold.Chemscore.Internal_Hbond>
0.0000

> <Gold.Chemscore.DEClash>
0.0368

> <Gold.Chemscore.DEInternal>
0.7319

> <Gold.Chemscore.Rot>
1.5740

> <Gold.Chemscore.Internal.Correction>
   9.000000E+99

> <Gold.Chemscore.Hbonds>
donor molecule, donor type, donor heavy atom, donor atom, acceptor molecule, acceptor atom, score
      P1  H  7989  7998       L1     3  0.02
      P1  H  7997  8010       L1     3  0.98
      P1  H 10752 10764       L1     1  0.65

> <Gold.Chemscore.Hbond.Weighted>
-6.0356

> <Gold.Chemscore.Metal.Weighted>
-0.0000

> <Gold.Chemscore.Lipo.Weighted>
-13.1182

> <Gold.Chemscore.Internal_Hbond.Weighted>
0.0000

> <Gold.Chemscore.DEClash.Weighted>
0.0368

> <Gold.Chemscore.DEInternal.Weighted>
0.7319

> <Gold.Chemscore.Rot.Weighted>
4.0293

> <Gold.Chemscore.Internal.Correction.Weighted>
   9.000000E+99

> <Gold.Protein.RotatedTorsions>
[ 6907 6896 6895 6894 ] final   63.89 input  -60.11 | X-H torsion
[ 7974 7965 7964 7962 ] final -164.78 input  175.53 | X-H torsion
[ 8008 7997 7996 7995 ] final  127.52 input   59.86 | X-H torsion
[ 10167 10162 10161 10158 ] final   -7.73 input  -65.29 | X-H torsion
[ 10718 10713 10712 10709 ] final   -8.43 input   66.30 | X-H torsion
[ 10763 10752 10751 10750 ] final  -41.44 input  -60.55 | X-H torsion
[ 11005 11000 10999 10996 ] final -101.24 input  -57.11 | X-H torsion

> <Gold.Protein.ActiveResidues>
 VAL166  LYS551  ARG553  GLY616  TRP617  ASP618  TYR619  PRO620  LYS621  CYS622 
 ASP623  PHE694  ASN695  SER759  ASP760  ASP761  ALA762  ILE779  LEU786  VAL792 
 PHE793  MET794  SER795  GLU796  ALA797  LYS798  CYS799  TRP800  GLU811  SER814 

> <Gold.Protein.RotatedAtoms>
  152.4289  134.5816  159.9949 H   0  0  0  0  0  0  0  0  0  0  0  0  # atno 6907 bound_to 6896
  151.5945  133.3357  159.3042 H   0  0  0  0  0  0  0  0  0  0  0  0  # atno 6908 bound_to 6896
  150.8180  134.7409  159.6812 H   0  0  0  0  0  0  0  0  0  0  0  0  # atno 6909 bound_to 6896
  144.7287  140.2910  143.6220 H   0  0  0  0  0  0  0  0  0  0  0  0  # atno 7974 bound_to 7965
  156.2893  140.2667  156.2287 H   0  0  0  0  0  0  0  0  0  0  0  0  # atno 8008 bound_to 7997
  155.0094  140.0387  157.2411 H   0  0  0  0  0  0  0  0  0  0  0  0  # atno 8009 bound_to 7997
  154.7531  140.2747  155.6281 H   0  0  0  0  0  0  0  0  0  0  0  0  # atno 8010 bound_to 7997
  140.7038  143.6048  150.8762 H   0  0  0  0  0  0  0  0  0  0  0  0  # atno 10167 bound_to 10162
  156.7028  130.5098  149.5913 H   0  0  0  0  0  0  0  0  0  0  0  0  # atno 10718 bound_to 10713
  153.9625  135.6738  153.4745 H   0  0  0  0  0  0  0  0  0  0  0  0  # atno 10763 bound_to 10752
  153.0831  135.4913  154.8539 H   0  0  0  0  0  0  0  0  0  0  0  0  # atno 10764 bound_to 10752
  154.7264  135.3128  154.8923 H   0  0  0  0  0  0  0  0  0  0  0  0  # atno 10765 bound_to 10752
  141.1239  133.8462  157.1206 H   0  0  0  0  0  0  0  0  0  0  0  0  # atno 11005 bound_to 11000
  145.7855  139.1907  143.2133 LP  0  0  0  0  0  0  0  0  0  0  0  0  # atno 17320 bound_to 7965
  146.0799  140.7775  142.9646 LP  0  0  0  0  0  0  0  0  0  0  0  0  # atno 17321 bound_to 7965
  139.9771  143.5992  152.2955 LP  0  0  0  0  0  0  0  0  0  0  0  0  # atno 17342 bound_to 10162
  139.6599  144.7662  151.1982 LP  0  0  0  0  0  0  0  0  0  0  0  0  # atno 17343 bound_to 10162
  156.1717  130.6441  151.0845 LP  0  0  0  0  0  0  0  0  0  0  0  0  # atno 17370 bound_to 10713
  157.6966  131.0791  150.6948 LP  0  0  0  0  0  0  0  0  0  0  0  0  # atno 17371 bound_to 10713
  140.0219  134.9942  157.0609 LP  0  0  0  0  0  0  0  0  0  0  0  0  # atno 17394 bound_to 11000
  140.4425  134.1666  155.7175 LP  0  0  0  0  0  0  0  0  0  0  0  0  # atno 17395 bound_to 11000

$$$$
