#       Name:                AV-unprocessed.smi:2104
#       Creating user name   scv26
#       Creation time:       Fri Mar 27 11:31:27 2020


#       File generated by GOLD software.
#

@<TRIPOS>MOLECULE
AV-unprocessed.smi:2104
    50    51     1
SMALL
NO_CHARGES


@<TRIPOS>ATOM
      1 ****        -4.1661   5.4045  -1.6129 C.3            1 S1                 0.0000
      2 ****        -3.7133   4.0513  -1.1828 C.2            1 S1                 0.0000
      3 ****        -3.5314   3.4772   0.0439 C.2            1 S1                 0.0000
      4 ****        -3.0864   2.1675  -0.2787 C.2            1 S1                 0.0000
      5 ****        -2.7786   1.2317   0.7416 N.am           1 S1                 0.0000
      6 ****        -2.3440  -0.0309   0.5912 C.2            1 S1                 0.0000
      7 ****        -2.1699  -0.5967  -0.4885 O.2            1 S1                 0.0000
      8 ****        -2.1164  -0.6105   1.7790 N.am           1 S1                 0.0000
      9 ****        -1.5977  -1.9609   1.9711 C.3            1 S1                 0.0000
     10 ****        -0.0627  -1.9826   1.9421 C.3            1 S1                 0.0000
     11 ****         0.3782  -1.7839   0.6078 O.3            1 S1                 0.0000
     12 ****         1.7829  -1.6312   0.4621 C.3            1 S1                 0.0000
     13 ****         2.1541  -0.1509   0.6932 C.3            1 S1                 0.0000
     14 ****         3.6387   0.1120   0.4015 C.3            1 S1                 0.0000
     15 ****         4.0037  -0.3244  -1.0241 C.3            1 S1                 0.0000
     16 ****         3.6484  -1.8009  -1.2548 C.3            1 S1                 0.0000
     17 ****         2.1599  -2.0827  -0.9671 C.3            1 S1                 0.0000
     18 ****         1.8344  -3.5674  -1.1985 C.3            1 S1                 0.0000
     19 ****        -3.0031   1.9613  -1.5842 N.2            1 S1                 0.0000
     20 ****        -3.4048   3.1676  -2.1702 O.3            1 S1                 0.0000
     21 ****        -4.4091   6.0266  -0.7514 H              1 S1                 0.0000
     22 ****        -5.0549   5.3331  -2.2399 H              1 S1                 0.0000
     23 ****        -3.3872   5.9086  -2.1853 H              1 S1                 0.0000
     24 ****        -3.6918   3.9249   1.0135 H              1 S1                 0.0000
     25 ****        -2.8868   1.5644   1.6881 H              1 S1                 0.0000
     26 ****        -2.2926  -0.0706   2.6133 H              1 S1                 0.0000
     27 ****        -1.9451  -2.3084   2.9442 H              1 S1                 0.0000
     28 ****        -2.0095  -2.6502   1.2322 H              1 S1                 0.0000
     29 ****         0.3351  -1.2224   2.6151 H              1 S1                 0.0000
     30 ****         0.2998  -2.9491   2.2946 H              1 S1                 0.0000
     31 ****         2.3112  -2.2631   1.1791 H              1 S1                 0.0000
     32 ****         1.5412   0.4823   0.0501 H              1 S1                 0.0000
     33 ****         1.9302   0.1465   1.7172 H              1 S1                 0.0000
     34 ****         3.8625   1.1707   0.5356 H              1 S1                 0.0000
     35 ****         4.2552  -0.4294   1.1202 H              1 S1                 0.0000
     36 ****         3.4727   0.2978  -1.7456 H              1 S1                 0.0000
     37 ****         5.0677  -0.1654  -1.2016 H              1 S1                 0.0000
     38 ****         3.8876  -2.0755  -2.2828 H              1 S1                 0.0000
     39 ****         4.2725  -2.4269  -0.6154 H              1 S1                 0.0000
     40 ****         1.5670  -1.4994  -1.6737 H              1 S1                 0.0000
     41 ****         2.3873  -4.2063  -0.5094 H              1 S1                 0.0000
     42 ****         2.0907  -3.8719  -2.2134 H              1 S1                 0.0000
     43 ****         0.7719  -3.7676  -1.0574 H              1 S1                 0.0000
     44 ****        -2.3556  -0.1114  -1.3429 LP             1 S1                 0.0000
     45 ****        -1.8429  -1.5414  -0.5109 LP             1 S1                 0.0000
     46 ****        -0.0630  -0.9592   0.2538 LP             1 S1                 0.0000
     47 ****         0.0929  -2.5737   0.0649 LP             1 S1                 0.0000
     48 ****        -2.7155   1.1248  -2.0506 LP             1 S1                 0.0000
     49 ****        -2.6612   3.5341  -2.7293 LP             1 S1                 0.0000
     50 ****        -4.2081   3.0114  -2.7449 LP             1 S1                 0.0000
@<TRIPOS>BOND
    1    1    2 1     
    2    1   21 1     
    3    1   22 1     
    4    1   23 1     
    5    2   20 1     
    6    2    3 2     
    7    3    4 1     
    8    3   24 1     
    9    4    5 1     
   10    4   19 2     
   11    5    6 am    
   12    5   25 1     
   13    6    7 2     
   14    6    8 am    
   15    8    9 1     
   16    8   26 1     
   17    9   10 1     
   18    9   27 1     
   19    9   28 1     
   20   10   11 1     
   21   10   29 1     
   22   10   30 1     
   23   11   12 1     
   24   12   17 1     
   25   12   13 1     
   26   12   31 1     
   27   13   14 1     
   28   13   32 1     
   29   13   33 1     
   30   14   15 1     
   31   14   34 1     
   32   14   35 1     
   33   15   16 1     
   34   15   36 1     
   35   15   37 1     
   36   16   17 1     
   37   16   38 1     
   38   16   39 1     
   39   17   18 1     
   40   17   40 1     
   41   18   41 1     
   42   18   42 1     
   43   18   43 1     
   44   19   20 1     
   45    7   44 1     
   46    7   45 1     
   47   11   46 1     
   48   11   47 1     
   49   19   48 1     
   50   20   49 1     
   51   20   50 1     
@<TRIPOS>SUBSTRUCTURE
      1 S1             1
@<TRIPOS>SET
LONE_PAIRS      STATIC     ATOMS    <user>   **** ""
7 44 45 46 47 48 49 50
DONOR_HYDROGENS      STATIC     ATOMS    <user>   **** ""
2 25 26
ATOM$BLUE        STATIC     ATOMS    COLORGROUP SYSTEM
7 44 45 46 47 48 49 50
ATOM$RED        STATIC     ATOMS    COLORGROUP SYSTEM
2 25 26
