AV-unprocessed.smi:987|AV-procd|sdf|4323|dock1
  -GOLD-   22720 2223D 1   1.00000     0.00000
 Structure written by MMmdl.
 50 52  0  0  0  0  0  0  0  0  1 V2000
  152.5366  144.7005  157.8528 C   0  0  0  0  0  0  0  0  0  0  0  0
  151.5704  143.8731  158.7198 C   0  0  1  0  0  0  0  0  0  0  0  0
  150.6105  142.9899  157.8983 C   0  0  0  0  0  0  0  0  0  0  0  0
  151.3044  141.8227  157.3584 N   0  0  0  0  0  0  0  0  0  0  0  0
  150.6457  141.0561  156.3739 C   0  0  0  0  0  0  0  0  0  0  0  0
  149.3070  141.3510  156.0256 C   0  0  0  0  0  0  0  0  0  0  0  0
  148.6685  140.5761  155.0394 C   0  0  0  0  0  0  0  0  0  0  0  0
  149.3789  139.5324  154.4159 C   0  0  0  0  0  0  0  0  0  0  0  0
  148.7029  138.7561  153.4365 N   0  0  0  0  0  0  0  0  0  0  0  0
  147.3916  138.7366  153.1429 C   0  0  0  0  0  0  0  0  0  0  0  0
  146.5217  139.3796  153.7292 O   0  0  0  0  0  0  0  0  0  0  0  0
  147.1380  137.9009  152.1266 N   0  0  0  0  0  0  0  0  0  0  0  0
  145.8213  137.6561  151.5459 C   0  0  0  0  0  0  0  0  0  0  0  0
  145.3324  136.2151  151.7801 C   0  0  0  0  0  0  0  0  0  0  0  0
  146.4950  135.4121  151.7196 O   0  0  0  0  0  0  0  0  0  0  0  0
  144.4085  135.9183  152.9785 C   0  0  0  0  0  0  0  0  0  0  0  0
  143.5843  134.9895  152.0861 C   0  0  0  0  0  0  0  0  0  0  0  0
  144.1965  135.6988  150.8769 C   0  0  0  0  0  0  0  0  0  0  0  0
  150.7088  139.3000  154.8401 C   0  0  0  0  0  0  0  0  0  0  0  0
  151.3229  140.0380  155.7891 N   0  0  0  0  0  0  0  0  0  0  0  0
  152.0183  141.0583  158.3755 C   0  0  0  0  0  0  0  0  0  0  0  0
  152.9803  141.9723  159.1556 C   0  0  2  0  0  0  0  0  0  0  0  0
  153.6491  141.2356  160.3210 C   0  0  0  0  0  0  0  0  0  0  0  0
  152.2596  143.0821  159.6908 O   0  0  0  0  0  0  0  0  0  0  0  0
  151.9862  145.3946  157.2176 H   0  0  0  0  0  0  0  0  0  0  0  0
  153.1429  144.0760  157.1972 H   0  0  0  0  0  0  0  0  0  0  0  0
  153.2117  145.2880  158.4751 H   0  0  0  0  0  0  0  0  0  0  0  0
  150.9655  144.5848  159.2822 H   0  0  0  0  0  0  0  0  0  0  0  0
  149.7935  142.6476  158.5349 H   0  0  0  0  0  0  0  0  0  0  0  0
  150.1666  143.5784  157.0942 H   0  0  0  0  0  0  0  0  0  0  0  0
  148.7631  142.1474  156.5114 H   0  0  0  0  0  0  0  0  0  0  0  0
  147.6443  140.7854  154.7665 H   0  0  0  0  0  0  0  0  0  0  0  0
  149.2814  138.1058  152.9252 H   0  0  0  0  0  0  0  0  0  0  0  0
  147.9149  137.4080  151.7116 H   0  0  0  0  0  0  0  0  0  0  0  0
  145.1444  138.3619  152.0278 H   0  0  0  0  0  0  0  0  0  0  0  0
  145.8108  137.9293  150.4885 H   0  0  0  0  0  0  0  0  0  0  0  0
  147.2369  135.9932  151.7861 H   0  0  0  0  0  0  0  0  0  0  0  0
  144.8942  135.4203  153.8186 H   0  0  0  0  0  0  0  0  0  0  0  0
  143.8382  136.7880  153.3083 H   0  0  0  0  0  0  0  0  0  0  0  0
  143.8926  133.9461  152.1642 H   0  0  0  0  0  0  0  0  0  0  0  0
  142.5044  135.1031  152.1837 H   0  0  0  0  0  0  0  0  0  0  0  0
  143.5554  136.4939  150.4931 H   0  0  0  0  0  0  0  0  0  0  0  0
  144.5134  135.0275  150.0779 H   0  0  0  0  0  0  0  0  0  0  0  0
  151.3054  138.4956  154.4399 H   0  0  0  0  0  0  0  0  0  0  0  0
  151.2882  140.6151  159.0540 H   0  0  0  0  0  0  0  0  0  0  0  0
  152.5819  140.2349  157.9383 H   0  0  0  0  0  0  0  0  0  0  0  0
  153.7653  142.3300  158.4893 H   0  0  0  0  0  0  0  0  0  0  0  0
  154.2283  140.3830  159.9658 H   0  0  0  0  0  0  0  0  0  0  0  0
  152.9088  140.8656  161.0309 H   0  0  0  0  0  0  0  0  0  0  0  0
  154.3278  141.8963  160.8608 H   0  0  0  0  0  0  0  0  0  0  0  0
  1  2  1  0  0  0  0
  1 25  1  0  0  0  0
  1 26  1  0  0  0  0
  1 27  1  0  0  0  0
  2 24  1  0  0  0  0
  2  3  1  0  0  0  0
  2 28  1  0  0  0  0
  3  4  1  0  0  0  0
  3 29  1  0  0  0  0
  3 30  1  0  0  0  0
  4  5  1  0  0  0  0
  4 21  1  0  0  0  0
  5 20  1  0  0  0  0
  5  6  2  0  0  0  0
  6  7  1  0  0  0  0
  6 31  1  0  0  0  0
  7  8  2  0  0  0  0
  7 32  1  0  0  0  0
  8  9  1  0  0  0  0
  8 19  1  0  0  0  0
  9 10  1  0  0  0  0
  9 33  1  0  0  0  0
 10 11  2  0  0  0  0
 10 12  1  0  0  0  0
 12 13  1  0  0  0  0
 12 34  1  0  0  0  0
 13 14  1  0  0  0  0
 13 35  1  0  0  0  0
 13 36  1  0  0  0  0
 14 18  1  0  0  0  0
 14 15  1  0  0  0  0
 14 16  1  0  0  0  0
 15 37  1  0  0  0  0
 16 17  1  0  0  0  0
 16 38  1  0  0  0  0
 16 39  1  0  0  0  0
 17 18  1  0  0  0  0
 17 40  1  0  0  0  0
 17 41  1  0  0  0  0
 18 42  1  0  0  0  0
 18 43  1  0  0  0  0
 19 20  2  0  0  0  0
 19 44  1  0  0  0  0
 21 22  1  0  0  0  0
 21 45  1  0  0  0  0
 21 46  1  0  0  0  0
 22 23  1  0  0  0  0
 22 24  1  0  0  0  0
 22 47  1  0  0  0  0
 23 48  1  0  0  0  0
 23 49  1  0  0  0  0
 23 50  1  0  0  0  0
M  END
> <s_m_source_file>
AV-unprocessed.smi

> <i_m_source_file_index>
987

> <i_lp_mmshare_version>
43012

> <i_f3d_flags>
0

> <s_epik_input>
W0NIM11bQ0BASF0xW0NIMl1OKFtDSDJdW0NASF0oTzEpW0NIM10pYzJbY0hdW2NIXWMoW2NIXW4yKVtOSF1DKD1PKVtOSF1bQ0gyXUMzKFtPSF0pW0NIMl1bQ0gyXVtDSDJdMw==

> <s_epik_cmdline>
J2VwaWtfcHl0aG9uJywgJy1waCcsICc3LjAnLCAnLXRuJywgJzgnLCAnLW1hJywgJzIwMCcsICctbWV0YWxfYmluZGluZycsICctaW1hZScsICc8aW5maWxlLm1hZT4nLCAnLW9tYWUnLCAnPG91dGZpbGUubWFlPic=

> <r_lp_tautomer_probability>
1

> <r_epik_Ionization_Penalty>
0.00275455

> <r_epik_Ionization_Penalty_Charging>
0

> <r_epik_Ionization_Penalty_Neutral>
0.00275455

> <r_epik_State_Penalty>
0.00189097

> <r_epik_Charging_Adjusted_Penalty>
0.00189097

> <i_epik_Tot_Q>
0

> <i_epik_Tot_abs_Q>
0

> <r_epik_Metal_State_Penalty>
-0

> <b_epik_Metal_Only>
0

> <s_lp_Force_Field>
OPLS_2005

> <r_lp_Energy>
31.4947

> <b_lp_Chiralities_Consistent>
1

> <s_lp_Variant>
AV-unprocessed.smi:987-3

> <Gold.Version>
5.8.1

> <Gold.Id.Protein>
6NUR|6NUR_protein|mol2

> <Gold.PLP.Fitness>
51.7756

> <Gold.PLP.PLP>
-45.1170

> <Gold.PLP.part.hbond>
-3.7456

> <Gold.PLP.part.metal>
0.0000

> <Gold.PLP.part.buried>
-3.2127

> <Gold.PLP.part.nonpolar>
-39.6015

> <Gold.PLP.part.repulsive>
0.3709

> <Gold.PLP.ligand.clash>
0.0000

> <Gold.PLP.ligand.torsion>
0.6850

> <Gold.PLP.Chemscore.Hbond>
2.5339

> <Gold.PLP.Chemscore.CHOScore>
0.0000

> <Gold.PLP.Chemscore.Metal>
0.0000

> <Gold.Chemscore.Hbonds>
donor molecule, donor type, donor heavy atom, donor atom, acceptor molecule, acceptor atom, score
      L1  H     9    33       P1  7948  0.53
      L1  H    12    34       P1  7948  0.98
      L1  H    15    37       P1  7948  0.98

> <Gold.PLP.Chemscore.Internal.Correction>
0.4268

> <Gold.Rescore>
     Score         DG    S(hbond)    S(metal)    S(lipo)     H(rot)  DE(clash)    DE(int)     intcor
     19.03     -22.36       2.72        0.00     109.06       1.93       1.17       2.17       ----

> <Gold.Chemscore.Fitness>
19.0274

> <Gold.Chemscore.DG>
-22.3634

> <Gold.Chemscore.ZeroCoef>
-5.4800

> <Gold.Chemscore.Hbond>
2.7169

> <Gold.Chemscore.Metal>
0.0000

> <Gold.Chemscore.Lipo>
109.0582

> <Gold.Chemscore.Internal_Hbond>
0.0000

> <Gold.Chemscore.DEClash>
1.1700

> <Gold.Chemscore.DEInternal>
2.1659

> <Gold.Chemscore.Rot>
1.9340

> <Gold.Chemscore.Internal.Correction>
   9.000000E+99

> <Gold.Chemscore.Hbonds>
donor molecule, donor type, donor heavy atom, donor atom, acceptor molecule, acceptor atom, score
      L1  H     9    33       P1  7948  0.50
      L1  H    12    34       P1  7948  0.87
      L1  H    15    37       P1  7948  0.93

> <Gold.Chemscore.Hbond.Weighted>
-9.0745

> <Gold.Chemscore.Metal.Weighted>
-0.0000

> <Gold.Chemscore.Lipo.Weighted>
-12.7598

> <Gold.Chemscore.Internal_Hbond.Weighted>
0.0000

> <Gold.Chemscore.DEClash.Weighted>
1.1700

> <Gold.Chemscore.DEInternal.Weighted>
2.1659

> <Gold.Chemscore.Rot.Weighted>
4.9509

> <Gold.Chemscore.Internal.Correction.Weighted>
   9.000000E+99

> <Gold.Protein.RotatedTorsions>
[ 6907 6896 6895 6894 ] final -107.51 input  -60.11 | X-H torsion
[ 7974 7965 7964 7962 ] final  -25.47 input  175.53 | X-H torsion
[ 8008 7997 7996 7995 ] final   77.78 input   59.86 | X-H torsion
[ 10167 10162 10161 10158 ] final  -43.30 input  -65.29 | X-H torsion
[ 10718 10713 10712 10709 ] final    0.27 input   66.30 | X-H torsion
[ 10763 10752 10751 10750 ] final  128.08 input  -60.55 | X-H torsion
[ 11005 11000 10999 10996 ] final  123.50 input  -57.11 | X-H torsion

> <Gold.Protein.ActiveResidues>
 VAL166  LYS551  ARG553  GLY616  TRP617  ASP618  TYR619  PRO620  LYS621  CYS622 
 ASP623  PHE694  ASN695  SER759  ASP760  ASP761  ALA762  ILE779  LEU786  VAL792 
 PHE793  MET794  SER795  GLU796  ALA797  LYS798  CYS799  TRP800  GLU811  SER814 

> <Gold.Protein.RotatedAtoms>
  150.7448  133.9816  159.3577 H   0  0  0  0  0  0  0  0  0  0  0  0  # atno 6907 bound_to 6896
  151.7757  135.0772  160.0376 H   0  0  0  0  0  0  0  0  0  0  0  0  # atno 6908 bound_to 6896
  152.3308  133.5920  159.5844 H   0  0  0  0  0  0  0  0  0  0  0  0  # atno 6909 bound_to 6896
  146.1489  140.4891  142.8620 H   0  0  0  0  0  0  0  0  0  0  0  0  # atno 7974 bound_to 7965
  155.8464  140.3460  155.5665 H   0  0  0  0  0  0  0  0  0  0  0  0  # atno 8008 bound_to 7997
  155.8085  140.0895  157.1937 H   0  0  0  0  0  0  0  0  0  0  0  0  # atno 8009 bound_to 7997
  154.4006  140.1452  156.3346 H   0  0  0  0  0  0  0  0  0  0  0  0  # atno 8010 bound_to 7997
  140.6939  143.2990  151.3332 H   0  0  0  0  0  0  0  0  0  0  0  0  # atno 10167 bound_to 10162
  156.8308  130.5488  149.5687 H   0  0  0  0  0  0  0  0  0  0  0  0  # atno 10718 bound_to 10713
  153.7198  135.3255  155.3264 H   0  0  0  0  0  0  0  0  0  0  0  0  # atno 10763 bound_to 10752
  154.8359  135.4497  154.1229 H   0  0  0  0  0  0  0  0  0  0  0  0  # atno 10764 bound_to 10752
  153.2346  135.6964  153.7931 H   0  0  0  0  0  0  0  0  0  0  0  0  # atno 10765 bound_to 10752
  139.9315  134.9641  156.8269 H   0  0  0  0  0  0  0  0  0  0  0  0  # atno 11005 bound_to 11000
  144.7879  140.5974  143.6561 LP  0  0  0  0  0  0  0  0  0  0  0  0  # atno 17320 bound_to 7965
  145.4871  139.1491  143.3730 LP  0  0  0  0  0  0  0  0  0  0  0  0  # atno 17321 bound_to 7965
  139.6371  144.0609  152.2525 LP  0  0  0  0  0  0  0  0  0  0  0  0  # atno 17342 bound_to 10162
  140.0103  144.6229  150.7653 LP  0  0  0  0  0  0  0  0  0  0  0  0  # atno 17343 bound_to 10162
  156.0935  130.5914  150.9774 LP  0  0  0  0  0  0  0  0  0  0  0  0  # atno 17370 bound_to 10713
  157.6407  131.0910  150.8256 LP  0  0  0  0  0  0  0  0  0  0  0  0  # atno 17371 bound_to 10713
  140.6188  134.0013  155.7609 LP  0  0  0  0  0  0  0  0  0  0  0  0  # atno 17394 bound_to 11000
  141.0907  133.9921  157.3242 LP  0  0  0  0  0  0  0  0  0  0  0  0  # atno 17395 bound_to 11000

$$$$
