AV-unprocessed.smi:2059|AV-procd|sdf|8350|dock9
  -GOLD-   2272011 23D 1   1.00000     0.00000
 Structure written by MMmdl.
 29 30  0  0  0  0  0  0  0  0  2 V2000
  145.7552  133.0702  161.9788 C   0  0  0  0  0  0  0  0  0  0  0  0
  146.2776  134.4381  161.6999 C   0  0  0  0  0  0  0  0  0  0  0  0
  147.2406  134.9087  160.8532 C   0  0  0  0  0  0  0  0  0  0  0  0
  147.2269  136.3100  161.0912 C   0  0  0  0  0  0  0  0  0  0  0  0
  148.0064  137.2195  160.4800 N   0  5  0  0  0  0  0  0  0  0  0  0
  148.9692  136.8808  159.5818 C   0  0  0  0  0  0  0  0  0  0  0  0
  149.5024  135.7723  159.5499 O   0  0  0  0  0  0  0  0  0  0  0  0
  149.3497  137.8121  158.6861 N   0  0  0  0  0  0  0  0  0  0  0  0
  150.3691  137.6499  157.6546 C   0  0  2  0  0  0  0  0  0  0  0  0
  151.5694  138.5766  157.9207 C   0  0  0  0  0  0  0  0  0  0  0  0
  152.4319  138.6418  156.6545 C   0  0  0  0  0  0  0  0  0  0  0  0
  151.2782  138.4374  155.2445 S   0  0  0  0  0  0  0  0  0  0  0  0
  151.0317  139.7445  154.6165 O   0  0  0  0  0  0  0  0  0  0  0  0
  151.7082  137.2823  154.4419 O   0  0  0  0  0  0  0  0  0  0  0  0
  149.8224  137.9737  156.2550 C   0  0  0  0  0  0  0  0  0  0  0  0
  146.3280  136.6603  161.9960 N   0  0  0  0  0  0  0  0  0  0  0  0
  145.7186  135.4649  162.3954 O   0  0  0  0  0  0  0  0  0  0  0  0
  145.1563  132.7100  161.1422 H   0  0  0  0  0  0  0  0  0  0  0  0
  145.1286  133.0624  162.8710 H   0  0  0  0  0  0  0  0  0  0  0  0
  146.5742  132.3683  162.1356 H   0  0  0  0  0  0  0  0  0  0  0  0
  147.8576  134.3426  160.1716 H   0  0  0  0  0  0  0  0  0  0  0  0
  148.8906  138.7100  158.7320 H   0  0  0  0  0  0  0  0  0  0  0  0
  150.7339  136.6211  157.6602 H   0  0  0  0  0  0  0  0  0  0  0  0
  151.2036  139.5801  158.1442 H   0  0  0  0  0  0  0  0  0  0  0  0
  152.1498  138.2508  158.7845 H   0  0  0  0  0  0  0  0  0  0  0  0
  152.9810  139.5787  156.5611 H   0  0  0  0  0  0  0  0  0  0  0  0
  153.1427  137.8156  156.6292 H   0  0  0  0  0  0  0  0  0  0  0  0
  149.2975  137.1342  155.7989 H   0  0  0  0  0  0  0  0  0  0  0  0
  149.1483  138.8305  156.2836 H   0  0  0  0  0  0  0  0  0  0  0  0
  1  2  1  0  0  0  0
  1 18  1  0  0  0  0
  1 19  1  0  0  0  0
  1 20  1  0  0  0  0
  2 17  1  0  0  0  0
  2  3  2  0  0  0  0
  3  4  1  0  0  0  0
  3 21  1  0  0  0  0
  4  5  1  0  0  0  0
  4 16  2  0  0  0  0
  5  6  1  0  0  0  0
  6  7  2  0  0  0  0
  6  8  1  0  0  0  0
  8  9  1  0  0  0  0
  8 22  1  0  0  0  0
  9 15  1  0  0  0  0
  9 10  1  0  0  0  0
  9 23  1  0  0  0  0
 10 11  1  0  0  0  0
 10 24  1  0  0  0  0
 10 25  1  0  0  0  0
 11 12  1  0  0  0  0
 11 26  1  0  0  0  0
 11 27  1  0  0  0  0
 12 13  2  0  0  0  0
 12 14  2  0  0  0  0
 12 15  1  0  0  0  0
 15 28  1  0  0  0  0
 15 29  1  0  0  0  0
 16 17  1  0  0  0  0
M  CHG  1   5  -1
M  END
> <s_m_source_file>
AV-unprocessed.smi

> <i_m_source_file_index>
2059

> <i_lp_mmshare_version>
43012

> <i_f3d_flags>
0

> <s_epik_input>
W0NIM11jMVtjSF1jKG5vMSlbTkhdQyg9TylbTkhdW0NAQEhdKFtDSDJdMilbQ0gyXVtDSDJdUzIoPU8pPU8=

> <s_epik_cmdline>
J2VwaWtfcHl0aG9uJywgJy1waCcsICc3LjAnLCAnLXRuJywgJzgnLCAnLW1hJywgJzIwMCcsICctbWV0YWxfYmluZGluZycsICctaW1hZScsICc8aW5maWxlLm1hZT4nLCAnLW9tYWUnLCAnPG91dGZpbGUubWFlPic=

> <r_lp_tautomer_probability>
1

> <r_epik_Ionization_Penalty>
6.15571

> <r_epik_Ionization_Penalty_Charging>
6.1556

> <r_epik_Ionization_Penalty_Neutral>
0.000110918

> <r_epik_State_Penalty>
6.15558

> <r_epik_Charging_Adjusted_Penalty>
12.3112

> <i_epik_Tot_Q>
-1

> <i_epik_Tot_abs_Q>
1

> <r_epik_Metal_State_Penalty>
2.1059

> <b_epik_Metal_Only>
1

> <s_lp_Force_Field>
OPLS_2005

> <r_lp_Energy>
-1.67492

> <b_lp_Chiralities_Consistent>
1

> <s_lp_Variant>
AV-unprocessed.smi:2059-3

> <Gold.Version>
5.8.1

> <Gold.Id.Protein>
6NUR|6NUR_protein|mol2

> <Gold.PLP.Fitness>
38.8054

> <Gold.PLP.PLP>
-21.0964

> <Gold.PLP.part.hbond>
-5.0000

> <Gold.PLP.part.metal>
0.0000

> <Gold.PLP.part.buried>
-4.1183

> <Gold.PLP.part.nonpolar>
-13.5650

> <Gold.PLP.part.repulsive>
0.4541

> <Gold.PLP.ligand.clash>
0.0154

> <Gold.PLP.ligand.torsion>
0.1501

> <Gold.PLP.Chemscore.Hbond>
6.0080

> <Gold.PLP.Chemscore.CHOScore>
0.0000

> <Gold.PLP.Chemscore.Metal>
0.0000

> <Gold.Chemscore.Hbonds>
donor molecule, donor type, donor heavy atom, donor atom, acceptor molecule, acceptor atom, score
      P1  H  6896  6907       L1     7  1.00
      P1  H  6931  6943       L1     5  1.47
      P1  H  6934  6947       L1     5  1.50
      P1  H  7989  7998       L1    13  1.00
      P1  H 10752 10765       L1    14  0.96

> <Gold.PLP.Chemscore.Internal.Correction>
0.0005

> <Gold.Rescore>
     Score         DG    S(hbond)    S(metal)    S(lipo)     H(rot)  DE(clash)    DE(int)     intcor
     16.88     -18.54       3.41        0.00      36.11       1.00       0.03       1.64       ----

> <Gold.Chemscore.Fitness>
16.8773

> <Gold.Chemscore.DG>
-18.5375

> <Gold.Chemscore.ZeroCoef>
-5.4800

> <Gold.Chemscore.Hbond>
3.4109

> <Gold.Chemscore.Metal>
0.0000

> <Gold.Chemscore.Lipo>
36.1108

> <Gold.Chemscore.Internal_Hbond>
0.0000

> <Gold.Chemscore.DEClash>
0.0251

> <Gold.Chemscore.DEInternal>
1.6350

> <Gold.Chemscore.Rot>
1.0000

> <Gold.Chemscore.Internal.Correction>
   9.000000E+99

> <Gold.Chemscore.Hbonds>
donor molecule, donor type, donor heavy atom, donor atom, acceptor molecule, acceptor atom, score
      P1  H  6896  6907       L1     7  0.99
      P1  H  6931  6943       L1     5  0.19
      P1  H  6934  6947       L1     5  0.39
      P1  H  7989  7998       L1    13  1.00
      P1  H 10752 10765       L1    14  0.88

> <Gold.Chemscore.Hbond.Weighted>
-11.3925

> <Gold.Chemscore.Metal.Weighted>
-0.0000

> <Gold.Chemscore.Lipo.Weighted>
-4.2250

> <Gold.Chemscore.Internal_Hbond.Weighted>
0.0000

> <Gold.Chemscore.DEClash.Weighted>
0.0251

> <Gold.Chemscore.DEInternal.Weighted>
1.6350

> <Gold.Chemscore.Rot.Weighted>
2.5600

> <Gold.Chemscore.Internal.Correction.Weighted>
   9.000000E+99

> <Gold.Protein.RotatedTorsions>
[ 6907 6896 6895 6894 ] final  -67.53 input  -60.11 | X-H torsion
[ 7974 7965 7964 7962 ] final  -59.14 input  175.53 | X-H torsion
[ 8008 7997 7996 7995 ] final    9.61 input   59.86 | X-H torsion
[ 10167 10162 10161 10158 ] final -179.39 input  -65.29 | X-H torsion
[ 10718 10713 10712 10709 ] final  -18.91 input   66.30 | X-H torsion
[ 10763 10752 10751 10750 ] final  155.22 input  -60.55 | X-H torsion
[ 11005 11000 10999 10996 ] final -119.00 input  -57.11 | X-H torsion

> <Gold.Protein.ActiveResidues>
 VAL166  LYS551  ARG553  GLY616  TRP617  ASP618  TYR619  PRO620  LYS621  CYS622 
 ASP623  PHE694  ASN695  SER759  ASP760  ASP761  ALA762  ILE779  LEU786  VAL792 
 PHE793  MET794  SER795  GLU796  ALA797  LYS798  CYS799  TRP800  GLU811  SER814 

> <Gold.Protein.RotatedAtoms>
  150.7404  134.5867  159.5966 H   0  0  0  0  0  0  0  0  0  0  0  0  # atno 6907 bound_to 6896
  152.3266  134.7310  160.0309 H   0  0  0  0  0  0  0  0  0  0  0  0  # atno 6908 bound_to 6896
  151.7808  133.3314  159.3507 H   0  0  0  0  0  0  0  0  0  0  0  0  # atno 6909 bound_to 6896
  145.8309  140.8480  143.0084 H   0  0  0  0  0  0  0  0  0  0  0  0  # atno 7974 bound_to 7965
  154.7823  140.2821  155.6054 H   0  0  0  0  0  0  0  0  0  0  0  0  # atno 8008 bound_to 7997
  156.2952  140.2620  156.2580 H   0  0  0  0  0  0  0  0  0  0  0  0  # atno 8009 bound_to 7997
  154.9769  140.0375  157.2249 H   0  0  0  0  0  0  0  0  0  0  0  0  # atno 8010 bound_to 7997
  139.5388  144.2421  152.0852 H   0  0  0  0  0  0  0  0  0  0  0  0  # atno 10167 bound_to 10162
  156.5530  130.4706  149.6443 H   0  0  0  0  0  0  0  0  0  0  0  0  # atno 10718 bound_to 10713
  154.1648  135.2807  155.3098 H   0  0  0  0  0  0  0  0  0  0  0  0  # atno 10763 bound_to 10752
  154.6119  135.5496  153.7486 H   0  0  0  0  0  0  0  0  0  0  0  0  # atno 10764 bound_to 10752
  153.0182  135.6417  154.1789 H   0  0  0  0  0  0  0  0  0  0  0  0  # atno 10765 bound_to 10752
  141.0247  134.0072  157.3232 H   0  0  0  0  0  0  0  0  0  0  0  0  # atno 11005 bound_to 11000
  144.6740  140.0671  143.7474 LP  0  0  0  0  0  0  0  0  0  0  0  0  # atno 17320 bound_to 7965
  145.9571  139.2774  143.1177 LP  0  0  0  0  0  0  0  0  0  0  0  0  # atno 17321 bound_to 7965
  140.1896  144.4765  150.6486 LP  0  0  0  0  0  0  0  0  0  0  0  0  # atno 17342 bound_to 10162
  140.6608  143.2251  151.5860 LP  0  0  0  0  0  0  0  0  0  0  0  0  # atno 17343 bound_to 10162
  156.2867  130.7101  151.1940 LP  0  0  0  0  0  0  0  0  0  0  0  0  # atno 17370 bound_to 10713
  157.7384  131.0541  150.5299 LP  0  0  0  0  0  0  0  0  0  0  0  0  # atno 17371 bound_to 10713
  139.9168  135.0197  156.7912 LP  0  0  0  0  0  0  0  0  0  0  0  0  # atno 17394 bound_to 11000
  140.6513  133.9729  155.7756 LP  0  0  0  0  0  0  0  0  0  0  0  0  # atno 17395 bound_to 11000

$$$$
