#       Name:                AV-unprocessed.smi:2419
#       Creating user name   scv26
#       Creation time:       Fri Mar 27 13:18:41 2020


#       File generated by GOLD software.
#

@<TRIPOS>MOLECULE
AV-unprocessed.smi:2419
    33    34     1
SMALL
NO_CHARGES


@<TRIPOS>ATOM
      1 ****        -0.4034   1.9990  -1.0583 O.2            1 S1                 0.0000
      2 ****        -0.9064   1.0181  -0.5056 C.2            1 S1                 0.0000
      3 ****        -0.1941  -0.1080  -0.3697 N.am           1 S1                 0.0000
      4 ****         1.1803  -0.2950  -0.8206 C.3            1 S1                 0.0000
      5 ****         1.7427  -1.6421  -0.3480 C.3            1 S1                 0.0000
      6 ****         1.3462  -2.5777  -1.3321 O.3            1 S1                 0.0000
      7 ****         3.2466  -1.7038  -0.0228 C.3            1 S1                 0.0000
      8 ****         2.9288  -2.5805   1.1898 C.3            1 S1                 0.0000
      9 ****         1.4844  -2.0849   1.1049 C.3            1 S1                 0.0000
     10 ****        -2.1556   0.9389   0.0073 N.pl3          1 S1                -1.0000
     11 ****        -2.9779   1.9988  -0.0599 C.2            1 S1                 0.0000
     12 ****        -3.1720   2.8379   0.9641 N.2            1 S1                 0.0000
     13 ****        -4.0717   3.8659   0.6766 C.2            1 S1                 0.0000
     14 ****        -4.5828   3.8023  -0.5926 C.2            1 S1                 0.0000
     15 ****        -3.9438   2.4419  -1.4705 S.3            1 S1                 0.0000
     16 ****        -0.6399  -0.8934   0.0811 H              1 S1                 0.0000
     17 ****         1.2298  -0.1938  -1.9065 H              1 S1                 0.0000
     18 ****         1.7789   0.5210  -0.4132 H              1 S1                 0.0000
     19 ****         1.6688  -3.4216  -1.0562 H              1 S1                 0.0000
     20 ****         3.8611  -2.1928  -0.7795 H              1 S1                 0.0000
     21 ****         3.6649  -0.7367   0.2609 H              1 S1                 0.0000
     22 ****         3.0225  -3.6463   0.9765 H              1 S1                 0.0000
     23 ****         3.4529  -2.3008   2.1040 H              1 S1                 0.0000
     24 ****         1.2903  -1.2472   1.7769 H              1 S1                 0.0000
     25 ****         0.7333  -2.8675   1.2187 H              1 S1                 0.0000
     26 ****        -4.2922   4.6000   1.4372 H              1 S1                 0.0000
     27 ****        -5.2920   4.4670  -1.0622 H              1 S1                 0.0000
     28 ****         0.5339   1.9524  -1.4036 LP             1 S1                 0.0000
     29 ****        -0.9328   2.8411  -1.1612 LP             1 S1                 0.0000
     30 ****         1.7400  -2.3322  -2.2179 LP             1 S1                 0.0000
     31 ****         0.3491  -2.5980  -1.4048 LP             1 S1                 0.0000
     32 ****        -2.4669   0.0911   0.4366 LP             1 S1                 0.0000
     33 ****        -2.7170   2.7384   1.8490 LP             1 S1                 0.0000
@<TRIPOS>BOND
    1    1    2 2     
    2    2    3 am    
    3    2   10 1     
    4    3    4 1     
    5    3   16 1     
    6    4    5 1     
    7    4   17 1     
    8    4   18 1     
    9    5    9 1     
   10    5    6 1     
   11    5    7 1     
   12    6   19 1     
   13    7    8 1     
   14    7   20 1     
   15    7   21 1     
   16    8    9 1     
   17    8   22 1     
   18    8   23 1     
   19    9   24 1     
   20    9   25 1     
   21   10   11 1     
   22   11   15 1     
   23   11   12 2     
   24   12   13 1     
   25   13   14 2     
   26   13   26 1     
   27   14   15 1     
   28   14   27 1     
   29    1   28 1     
   30    1   29 1     
   31    6   30 1     
   32    6   31 1     
   33   10   32 1     
   34   12   33 1     
@<TRIPOS>SUBSTRUCTURE
      1 S1             1
@<TRIPOS>SET
LONE_PAIRS      STATIC     ATOMS    <user>   **** ""
6 28 29 30 31 32 33
DONOR_HYDROGENS      STATIC     ATOMS    <user>   **** ""
2 16 19
ATOM$BLUE        STATIC     ATOMS    COLORGROUP SYSTEM
6 28 29 30 31 32 33
ATOM$RED        STATIC     ATOMS    COLORGROUP SYSTEM
2 16 19
