#       Name:                AV-unprocessed.smi:218
#       Creating user name   scv26
#       Creation time:       Thu Mar 26 20:09:38 2020


#       File generated by GOLD software.
#

@<TRIPOS>MOLECULE
AV-unprocessed.smi:218
    68    71     1
SMALL
NO_CHARGES


@<TRIPOS>ATOM
      1 ****        -3.0674   4.3256  -4.6443 C.3            1 S1                 0.0000
      2 ****        -3.2410   3.7511  -3.2332 C.3            1 S1                 0.0000
      3 ****        -2.3212   4.4631  -2.2262 C.3            1 S1                 0.0000
      4 ****        -2.9143   2.3617  -3.3073 O.3            1 S1                 0.0000
      5 ****        -3.3587   1.4907  -2.3309 C.ar           1 S1                 0.0000
      6 ****        -2.9566   0.1413  -2.4056 C.ar           1 S1                 0.0000
      7 ****        -3.4073  -0.7606  -1.4195 C.ar           1 S1                 0.0000
      8 ****        -3.0001  -2.2233  -1.4586 C.3            1 S1                 0.0000
      9 ****        -1.5598  -2.4536  -1.4841 N.pl3          1 S1                 0.0000
     10 ****        -0.7942  -2.1524  -0.4116 C.ar           1 S1                 0.0000
     11 ****        -1.3543  -1.8181   0.7805 N.ar           1 S1                 0.0000
     12 ****        -0.5755  -1.5278   1.8267 C.ar           1 S1                 0.0000
     13 ****         0.7571  -1.5169   1.8959 N.ar           1 S1                 0.0000
     14 ****         1.3259  -1.8570   0.7031 C.ar           1 S1                 0.0000
     15 ****         0.6222  -2.1885  -0.4884 C.ar           1 S1                 0.0000
     16 ****         1.5242  -2.4857  -1.5016 N.2            1 S1                 0.0000
     17 ****         2.6923  -2.3361  -0.9375 C.2            1 S1                 0.0000
     18 ****         2.6662  -1.9516   0.3850 N.pl3          1 S1                 0.0000
     19 ****         3.8379  -1.6896   1.2800 C.3            1 S1                 0.0000
     20 ****         3.5564  -2.2018   2.5443 O.3            1 S1                 0.0000
     21 ****         4.1500  -1.3613   3.5268 C.3            1 S1                 0.0000
     22 ****         3.5199  -1.5963   4.9108 C.3            1 S1                 0.0000
     23 ****         4.1126  -2.7194   5.5268 O.3            1 S1                 0.0000
     24 ****         3.9632   0.0466   2.9415 C.3            1 S1                 0.0000
     25 ****         2.6825   0.5652   3.2575 O.3            1 S1                 0.0000
     26 ****         4.1526  -0.1872   1.4438 C.3            1 S1                 0.0000
     27 ****         3.3978   0.6964   0.6295 O.3            1 S1                 0.0000
     28 ****        -4.2477  -0.2771  -0.3973 C.ar           1 S1                 0.0000
     29 ****        -4.5941   1.0876  -0.4046 C.ar           1 S1                 0.0000
     30 ****        -4.1671   1.9557  -1.3460 N.ar           1 S1                 0.0000
     31 ****         4.6608  -2.2431   0.8256 H              1 S1                 0.0000
     32 ****         5.2204  -1.5744   3.5610 H              1 S1                 0.0000
     33 ****         4.7068   0.7429   3.3304 H              1 S1                 0.0000
     34 ****         5.2067  -0.0583   1.1950 H              1 S1                 0.0000
     35 ****        -3.2999   5.3908  -4.6667 H              1 S1                 0.0000
     36 ****        -3.7304   3.8271  -5.3519 H              1 S1                 0.0000
     37 ****        -2.0445   4.1981  -5.0000 H              1 S1                 0.0000
     38 ****        -4.2852   3.8970  -2.9524 H              1 S1                 0.0000
     39 ****        -2.5384   5.5309  -2.1871 H              1 S1                 0.0000
     40 ****        -1.2727   4.3466  -2.5014 H              1 S1                 0.0000
     41 ****        -2.4428   4.0692  -1.2175 H              1 S1                 0.0000
     42 ****        -2.3128  -0.1930  -3.2059 H              1 S1                 0.0000
     43 ****        -3.4399  -2.7564  -0.6147 H              1 S1                 0.0000
     44 ****        -3.4282  -2.6698  -2.3562 H              1 S1                 0.0000
     45 ****        -1.1711  -2.7032  -2.3821 H              1 S1                 0.0000
     46 ****        -1.0929  -1.2678   2.7383 H              1 S1                 0.0000
     47 ****         3.6137  -2.4970  -1.4780 H              1 S1                 0.0000
     48 ****         3.7013  -0.7373   5.5573 H              1 S1                 0.0000
     49 ****         2.4398  -1.7297   4.8401 H              1 S1                 0.0000
     50 ****         3.9296  -3.4803   4.9971 H              1 S1                 0.0000
     51 ****         2.5412   1.3440   2.7407 H              1 S1                 0.0000
     52 ****         3.4856   0.4233  -0.2709 H              1 S1                 0.0000
     53 ****        -4.6142  -0.9326   0.3789 H              1 S1                 0.0000
     54 ****        -5.2332   1.4925   0.3659 H              1 S1                 0.0000
     55 ****        -1.9162   2.3006  -3.3150 LP             1 S1                 0.0000
     56 ****        -3.2755   2.0270  -4.1777 LP             1 S1                 0.0000
     57 ****        -2.3495  -1.7894   0.8748 LP             1 S1                 0.0000
     58 ****         1.2749  -1.2878   2.7201 LP             1 S1                 0.0000
     59 ****         1.3252  -2.7525  -2.4446 LP             1 S1                 0.0000
     60 ****         3.9309  -3.1257   2.6228 LP             1 S1                 0.0000
     61 ****         2.5663  -2.2307   2.6816 LP             1 S1                 0.0000
     62 ****         3.7292  -2.8445   6.4419 LP             1 S1                 0.0000
     63 ****         5.1011  -2.5850   5.5951 LP             1 S1                 0.0000
     64 ****         2.6407   0.7929   4.2303 LP             1 S1                 0.0000
     65 ****         1.9806  -0.1142   3.0437 LP             1 S1                 0.0000
     66 ****         3.7427   1.6292   0.7342 LP             1 S1                 0.0000
     67 ****         2.4354   0.6646   0.8993 LP             1 S1                 0.0000
     68 ****        -4.4399   2.9174  -1.3180 LP             1 S1                 0.0000
@<TRIPOS>BOND
    1    1    2 1     
    2    1   35 1     
    3    1   36 1     
    4    1   37 1     
    5    2    3 1     
    6    2    4 1     
    7    2   38 1     
    8    3   39 1     
    9    3   40 1     
   10    3   41 1     
   11    4    5 1     
   12    5   30 ar    
   13    5    6 ar    
   14    6    7 ar    
   15    6   42 1     
   16    7    8 1     
   17    7   28 ar    
   18    8    9 1     
   19    8   43 1     
   20    8   44 1     
   21    9   10 1     
   22    9   45 1     
   23   10   15 ar    
   24   10   11 ar    
   25   11   12 ar    
   26   12   13 ar    
   27   12   46 1     
   28   13   14 ar    
   29   14   18 1     
   30   14   15 ar    
   31   15   16 1     
   32   16   17 2     
   33   17   18 1     
   34   17   47 1     
   35   18   19 1     
   36   19   31 1     
   37   19   26 1     
   38   19   20 1     
   39   20   21 1     
   40   21   32 1     
   41   21   22 1     
   42   21   24 1     
   43   22   23 1     
   44   22   48 1     
   45   22   49 1     
   46   23   50 1     
   47   24   33 1     
   48   24   25 1     
   49   24   26 1     
   50   25   51 1     
   51   26   34 1     
   52   26   27 1     
   53   27   52 1     
   54   28   29 ar    
   55   28   53 1     
   56   29   30 ar    
   57   29   54 1     
   58    4   55 1     
   59    4   56 1     
   60   11   57 1     
   61   13   58 1     
   62   16   59 1     
   63   20   60 1     
   64   20   61 1     
   65   23   62 1     
   66   23   63 1     
   67   25   64 1     
   68   25   65 1     
   69   27   66 1     
   70   27   67 1     
   71   30   68 1     
@<TRIPOS>SUBSTRUCTURE
      1 S1             1
@<TRIPOS>SET
LONE_PAIRS      STATIC     ATOMS    <user>   **** ""
14 55 56 57 58 59 60 61 62 63 64 65 66 67 68
DONOR_HYDROGENS      STATIC     ATOMS    <user>   **** ""
4 45 50 51 52
ATOM$BLUE        STATIC     ATOMS    COLORGROUP SYSTEM
14 55 56 57 58 59 60 61 62 63 64 65 66 67 68
ATOM$RED        STATIC     ATOMS    COLORGROUP SYSTEM
4 45 50 51 52
