#       Name:                AV-unprocessed.smi:763
#       Creating user name   scv26
#       Creation time:       Fri Mar 27 01:03:20 2020


#       File generated by GOLD software.
#

@<TRIPOS>MOLECULE
AV-unprocessed.smi:763
    51    52     1
SMALL
NO_CHARGES


@<TRIPOS>ATOM
      1 ****        -3.1519   3.8295  -4.1831 C.3            1 S1                 0.0000
      2 ****        -3.0350   3.4178  -2.8326 O.3            1 S1                 0.0000
      3 ****        -2.0678   4.1691  -2.1186 C.3            1 S1                 0.0000
      4 ****        -2.0136   3.6662  -0.6673 C.3            1 S1                 0.0000
      5 ****        -1.4294   2.3660  -0.5826 O.3            1 S1                 0.0000
      6 ****        -0.0551   2.2193  -0.6345 C.ar           1 S1                 0.0000
      7 ****         0.7163   3.3308  -0.7380 N.ar           1 S1                 0.0000
      8 ****         2.0562   3.1828  -0.7815 C.ar           1 S1                 0.0000
      9 ****         2.6950   1.9308  -0.7186 C.ar           1 S1                 0.0000
     10 ****         1.8965   0.7779  -0.6076 C.ar           1 S1                 0.0000
     11 ****         0.4913   0.9170  -0.5646 C.ar           1 S1                 0.0000
     12 ****        -0.3656  -0.1847  -0.4520 N.pl3          1 S1                 0.0000
     13 ****        -2.0994  -0.2341  -0.3782 S.o2           1 S1                 0.0000
     14 ****        -2.4260  -1.6630  -0.2614 O.2            1 S1                 0.0000
     15 ****        -2.4838   0.7050   0.6873 O.2            1 S1                 0.0000
     16 ****        -2.5947   0.4373  -2.0533 C.3            1 S1                 0.0000
     17 ****        -3.7009   1.5036  -1.9132 C.3            1 S1                 0.0000
     18 ****        -5.0551   0.8818  -1.5281 C.3            1 S1                 0.0000
     19 ****        -5.4858  -0.1822  -2.5508 C.3            1 S1                 0.0000
     20 ****        -4.4111  -1.2683  -2.7219 C.3            1 S1                 0.0000
     21 ****        -3.0425  -0.6462  -3.0662 C.3            1 S1                 0.0000
     22 ****        -2.0601  -1.6510  -3.2156 O.3            1 S1                 0.0000
     23 ****        -3.9021   3.2211  -4.6879 H              1 S1                 0.0000
     24 ****        -2.2075   3.7094  -4.7154 H              1 S1                 0.0000
     25 ****        -3.4628   4.8728  -4.2519 H              1 S1                 0.0000
     26 ****        -1.0925   4.1011  -2.6015 H              1 S1                 0.0000
     27 ****        -2.3581   5.2208  -2.1231 H              1 S1                 0.0000
     28 ****        -1.4896   4.3768  -0.0264 H              1 S1                 0.0000
     29 ****        -3.0262   3.6082  -0.2678 H              1 S1                 0.0000
     30 ****         2.6363   4.0898  -0.8664 H              1 S1                 0.0000
     31 ****         3.7717   1.8563  -0.7544 H              1 S1                 0.0000
     32 ****         2.3706  -0.1898  -0.5538 H              1 S1                 0.0000
     33 ****         0.0966  -1.0829  -0.4482 H              1 S1                 0.0000
     34 ****        -1.7128   0.9362  -2.4542 H              1 S1                 0.0000
     35 ****        -3.4141   2.2616  -1.1843 H              1 S1                 0.0000
     36 ****        -3.8106   2.0314  -2.8614 H              1 S1                 0.0000
     37 ****        -4.9944   0.4345  -0.5354 H              1 S1                 0.0000
     38 ****        -5.8146   1.6616  -1.4664 H              1 S1                 0.0000
     39 ****        -6.4274  -0.6369  -2.2417 H              1 S1                 0.0000
     40 ****        -5.6757   0.2955  -3.5128 H              1 S1                 0.0000
     41 ****        -4.3547  -1.8650  -1.8129 H              1 S1                 0.0000
     42 ****        -4.7133  -1.9565  -3.5123 H              1 S1                 0.0000
     43 ****        -3.1355  -0.1687  -4.0425 H              1 S1                 0.0000
     44 ****        -1.2569  -1.2480  -3.5076 H              1 S1                 0.0000
     45 ****        -2.7708   2.4535  -2.8129 LP             1 S1                 0.0000
     46 ****        -3.9223   3.5295  -2.3852 LP             1 S1                 0.0000
     47 ****        -1.8053   1.8310  -1.3392 LP             1 S1                 0.0000
     48 ****        -1.7290   1.9712   0.2859 LP             1 S1                 0.0000
     49 ****         0.3007   4.2393  -0.7811 LP             1 S1                 0.0000
     50 ****        -2.3651  -2.3220  -3.8915 LP             1 S1                 0.0000
     51 ****        -1.9086  -2.1067  -2.3384 LP             1 S1                 0.0000
@<TRIPOS>BOND
    1    1    2 1     
    2    1   23 1     
    3    1   24 1     
    4    1   25 1     
    5    2    3 1     
    6    3    4 1     
    7    3   26 1     
    8    3   27 1     
    9    4    5 1     
   10    4   28 1     
   11    4   29 1     
   12    5    6 1     
   13    6   11 ar    
   14    6    7 ar    
   15    7    8 ar    
   16    8    9 ar    
   17    8   30 1     
   18    9   10 ar    
   19    9   31 1     
   20   10   11 ar    
   21   10   32 1     
   22   11   12 1     
   23   12   13 1     
   24   12   33 1     
   25   13   14 2     
   26   13   15 2     
   27   13   16 1     
   28   16   21 1     
   29   16   17 1     
   30   16   34 1     
   31   17   18 1     
   32   17   35 1     
   33   17   36 1     
   34   18   19 1     
   35   18   37 1     
   36   18   38 1     
   37   19   20 1     
   38   19   39 1     
   39   19   40 1     
   40   20   21 1     
   41   20   41 1     
   42   20   42 1     
   43   21   22 1     
   44   21   43 1     
   45   22   44 1     
   46    2   45 1     
   47    2   46 1     
   48    5   47 1     
   49    5   48 1     
   50    7   49 1     
   51   22   50 1     
   52   22   51 1     
@<TRIPOS>SUBSTRUCTURE
      1 S1             1
@<TRIPOS>SET
LONE_PAIRS      STATIC     ATOMS    <user>   **** ""
9 45 46 47 48 49 14 15 50 51
DONOR_HYDROGENS      STATIC     ATOMS    <user>   **** ""
2 33 44
ATOM$BLUE        STATIC     ATOMS    COLORGROUP SYSTEM
9 45 46 47 48 49 14 15 50 51
ATOM$RED        STATIC     ATOMS    COLORGROUP SYSTEM
2 33 44
