AV-unprocessed.smi:1047|AV-procd|sdf|4567|dock8
  -GOLD-   22720 3 13D 1   1.00000     0.00000
 Structure written by MMmdl.
 57 59  0  0  0  0  0  0  0  0  3 V2000
  144.0492  133.3212  150.6171 C   0  0  0  0  0  0  0  0  0  0  0  0
  144.6071  134.7452  150.4797 C   0  0  0  0  0  0  0  0  0  0  0  0
  145.0164  135.3271  151.7828 N   0  3  2  0  0  0  0  0  0  0  0  0
  143.9303  135.2704  152.7903 C   0  0  0  0  0  0  0  0  0  0  0  0
  144.4165  135.8223  154.1408 C   0  0  0  0  0  0  0  0  0  0  0  0
  144.8899  137.1534  153.9732 O   0  0  0  0  0  0  0  0  0  0  0  0
  145.9847  137.2259  153.0664 C   0  0  2  0  0  0  0  0  0  0  0  0
  146.5208  138.6681  153.0465 C   0  0  0  0  0  0  0  0  0  0  0  0
  147.9918  138.7200  153.1801 N   0  3  0  0  0  0  0  0  0  0  0  0
  148.4617  139.2271  154.4852 C   0  0  0  0  0  0  0  0  0  0  0  0
  149.5775  140.2692  154.3067 C   0  0  1  0  0  0  0  0  0  0  0  0
  149.2508  141.1017  153.2097 O   0  0  0  0  0  0  0  0  0  0  0  0
  149.7719  141.1308  155.5695 C   0  0  0  0  0  0  0  0  0  0  0  0
  150.6994  140.5313  156.5124 N   0  0  0  0  0  0  0  0  0  0  0  0
  151.1778  139.2723  156.4882 C   0  0  0  0  0  0  0  0  0  0  0  0
  152.0281  138.9253  157.4497 N   0  0  0  0  0  0  0  0  0  0  0  0
  152.1084  140.0946  158.1864 C   0  0  0  0  0  0  0  0  0  0  0  0
  152.8510  140.3960  159.3490 C   0  0  0  0  0  0  0  0  0  0  0  0
  152.7788  141.6757  159.9438 C   0  0  0  0  0  0  0  0  0  0  0  0
  153.5928  141.9545  161.1952 C   0  0  0  0  0  0  0  0  0  0  0  0
  151.9522  142.6778  159.3752 C   0  0  0  0  0  0  0  0  0  0  0  0
  151.8522  144.0574  160.0014 C   0  0  0  0  0  0  0  0  0  0  0  0
  151.2070  142.3950  158.2113 C   0  0  0  0  0  0  0  0  0  0  0  0
  151.2869  141.1176  157.6286 C   0  0  0  0  0  0  0  0  0  0  0  0
  145.5508  136.7080  151.6783 C   0  0  0  0  0  0  0  0  0  0  0  0
  143.6627  132.9681  149.6606 H   0  0  0  0  0  0  0  0  0  0  0  0
  143.2302  133.2852  151.3361 H   0  0  0  0  0  0  0  0  0  0  0  0
  144.8115  132.6113  150.9364 H   0  0  0  0  0  0  0  0  0  0  0  0
  145.4438  134.7639  149.7798 H   0  0  0  0  0  0  0  0  0  0  0  0
  143.8254  135.3691  150.0441 H   0  0  0  0  0  0  0  0  0  0  0  0
  143.0723  135.8453  152.4377 H   0  0  0  0  0  0  0  0  0  0  0  0
  143.5949  134.2403  152.9174 H   0  0  0  0  0  0  0  0  0  0  0  0
  143.5980  135.8272  154.8610 H   0  0  0  0  0  0  0  0  0  0  0  0
  145.2033  135.1922  154.5590 H   0  0  0  0  0  0  0  0  0  0  0  0
  146.7851  136.5856  153.4420 H   0  0  0  0  0  0  0  0  0  0  0  0
  146.2347  139.1505  152.1108 H   0  0  0  0  0  0  0  0  0  0  0  0
  146.0646  139.2443  153.8527 H   0  0  0  0  0  0  0  0  0  0  0  0
  148.3674  137.7923  153.0446 H   0  0  0  0  0  0  0  0  0  0  0  0
  147.6263  139.6535  155.0429 H   0  0  0  0  0  0  0  0  0  0  0  0
  148.8356  138.3827  155.0657 H   0  0  0  0  0  0  0  0  0  0  0  0
  150.5150  139.7593  154.0793 H   0  0  0  0  0  0  0  0  0  0  0  0
  148.9720  140.5588  152.4876 H   0  0  0  0  0  0  0  0  0  0  0  0
  150.1352  142.1244  155.3042 H   0  0  0  0  0  0  0  0  0  0  0  0
  148.8176  141.2756  156.0778 H   0  0  0  0  0  0  0  0  0  0  0  0
  150.8881  138.5719  155.7185 H   0  0  0  0  0  0  0  0  0  0  0  0
  153.4786  139.6315  159.7829 H   0  0  0  0  0  0  0  0  0  0  0  0
  152.9340  142.1427  162.0429 H   0  0  0  0  0  0  0  0  0  0  0  0
  154.2321  142.8258  161.0527 H   0  0  0  0  0  0  0  0  0  0  0  0
  154.2338  141.1101  161.4490 H   0  0  0  0  0  0  0  0  0  0  0  0
  151.1315  144.6825  159.4738 H   0  0  0  0  0  0  0  0  0  0  0  0
  152.8187  144.5609  159.9717 H   0  0  0  0  0  0  0  0  0  0  0  0
  151.5309  143.9834  161.0407 H   0  0  0  0  0  0  0  0  0  0  0  0
  150.5761  143.1512  157.7682 H   0  0  0  0  0  0  0  0  0  0  0  0
  146.4062  136.7317  151.0038 H   0  0  0  0  0  0  0  0  0  0  0  0
  144.7858  137.3562  151.2484 H   0  0  0  0  0  0  0  0  0  0  0  0
  148.3596  139.3241  152.4580 H   0  0  0  0  0  0  0  0  0  0  0  0
  145.7616  134.7435  152.1361 H   0  0  0  0  0  0  0  0  0  0  0  0
  1  2  1  0  0  0  0
  1 26  1  0  0  0  0
  1 27  1  0  0  0  0
  1 28  1  0  0  0  0
  2  3  1  0  0  0  0
  2 29  1  0  0  0  0
  2 30  1  0  0  0  0
  3 25  1  0  0  0  0
  3  4  1  0  0  0  0
  3 57  1  0  0  0  0
  4  5  1  0  0  0  0
  4 31  1  0  0  0  0
  4 32  1  0  0  0  0
  5  6  1  0  0  0  0
  5 33  1  0  0  0  0
  5 34  1  0  0  0  0
  6  7  1  0  0  0  0
  7  8  1  0  0  0  0
  7 25  1  0  0  0  0
  7 35  1  0  0  0  0
  8  9  1  0  0  0  0
  8 36  1  0  0  0  0
  8 37  1  0  0  0  0
  9 10  1  0  0  0  0
  9 38  1  0  0  0  0
  9 56  1  0  0  0  0
 10 11  1  0  0  0  0
 10 39  1  0  0  0  0
 10 40  1  0  0  0  0
 11 12  1  0  0  0  0
 11 13  1  0  0  0  0
 11 41  1  0  0  0  0
 12 42  1  0  0  0  0
 13 14  1  0  0  0  0
 13 43  1  0  0  0  0
 13 44  1  0  0  0  0
 14 24  1  0  0  0  0
 14 15  1  0  0  0  0
 15 16  2  0  0  0  0
 15 45  1  0  0  0  0
 16 17  1  0  0  0  0
 17 24  2  0  0  0  0
 17 18  1  0  0  0  0
 18 19  2  0  0  0  0
 18 46  1  0  0  0  0
 19 20  1  0  0  0  0
 19 21  1  0  0  0  0
 20 47  1  0  0  0  0
 20 48  1  0  0  0  0
 20 49  1  0  0  0  0
 21 22  1  0  0  0  0
 21 23  2  0  0  0  0
 22 50  1  0  0  0  0
 22 51  1  0  0  0  0
 22 52  1  0  0  0  0
 23 24  1  0  0  0  0
 23 53  1  0  0  0  0
 25 54  1  0  0  0  0
 25 55  1  0  0  0  0
M  CHG  1   3   1
M  CHG  1   9   1
M  END
> <s_m_source_file>
AV-unprocessed.smi

> <i_m_source_file_index>
1047

> <i_lp_mmshare_version>
43012

> <i_f3d_flags>
0

> <s_epik_input>
W0NIM11bQ0gyXU4xW0NIMl1bQ0gyXU9bQ0BIXShbQ0gyXTEpW0NIMl1bTkhdW0NIMl1bQ0BIXShbT0hdKVtDSDJdbihbY0hdbjIpYyhjMjMpW2NIXWMoW0NIM10pYyhbY0hdMylbQ0gzXQ==

> <s_epik_cmdline>
J2VwaWtfcHl0aG9uJywgJy1waCcsICc3LjAnLCAnLXRuJywgJzgnLCAnLW1hJywgJzIwMCcsICctbWV0YWxfYmluZGluZycsICctaW1hZScsICc8aW5maWxlLm1hZT4nLCAnLW9tYWUnLCAnPG91dGZpbGUubWFlPic=

> <r_epik_Ionization_Penalty>
0.528991

> <r_epik_Ionization_Penalty_Charging>
0.438567

> <r_epik_Ionization_Penalty_Neutral>
0.0904237

> <r_epik_State_Penalty>
0.533036

> <r_epik_Charging_Adjusted_Penalty>
0.971603

> <i_epik_Tot_Q>
2

> <i_epik_Tot_abs_Q>
2

> <r_epik_Metal_State_Penalty>
0.448985

> <b_epik_Metal_Only>
0

> <s_lp_Force_Field>
OPLS_2005

> <r_lp_Energy>
32.051

> <b_lp_Chiralities_Consistent>
1

> <s_lp_Variant>
AV-unprocessed.smi:1047-8

> <Gold.Version>
5.8.1

> <Gold.Id.Protein>
6NUR|6NUR_protein|mol2

> <Gold.PLP.Fitness>
58.1092

> <Gold.PLP.PLP>
-47.7443

> <Gold.PLP.part.hbond>
-4.2579

> <Gold.PLP.part.metal>
0.0000

> <Gold.PLP.part.buried>
-5.1504

> <Gold.PLP.part.nonpolar>
-39.1976

> <Gold.PLP.part.repulsive>
0.1323

> <Gold.PLP.ligand.clash>
0.0000

> <Gold.PLP.ligand.torsion>
1.9811

> <Gold.PLP.Chemscore.Hbond>
4.7200

> <Gold.PLP.Chemscore.CHOScore>
0.0000

> <Gold.PLP.Chemscore.Metal>
0.0000

> <Gold.Chemscore.Hbonds>
donor molecule, donor type, donor heavy atom, donor atom, acceptor molecule, acceptor atom, score
      L1  H     9    38       P1  7948  2.00
      L1  H     9    56       P1  7957  1.00
      L1  H    12    42       P1  7957  0.72
      P1  H  8011  8017       L1    12  0.90

> <Gold.PLP.Chemscore.Internal.Correction>
0.1671

> <Gold.Rescore>
     Score         DG    S(hbond)    S(metal)    S(lipo)     H(rot)  DE(clash)    DE(int)     intcor
     21.13     -23.77       2.99        0.00     129.94       2.70       0.64       2.00       ----

> <Gold.Chemscore.Fitness>
21.1279

> <Gold.Chemscore.DG>
-23.7692

> <Gold.Chemscore.ZeroCoef>
-5.4800

> <Gold.Chemscore.Hbond>
2.9923

> <Gold.Chemscore.Metal>
0.0000

> <Gold.Chemscore.Lipo>
129.9401

> <Gold.Chemscore.Internal_Hbond>
0.0000

> <Gold.Chemscore.DEClash>
0.6425

> <Gold.Chemscore.DEInternal>
1.9988

> <Gold.Chemscore.Rot>
2.6985

> <Gold.Chemscore.Internal.Correction>
   9.000000E+99

> <Gold.Chemscore.Hbonds>
donor molecule, donor type, donor heavy atom, donor atom, acceptor molecule, acceptor atom, score
      L1  H     9    38       P1  7948  0.90
      L1  H     9    56       P1  7957  0.99
      L1  H    12    42       P1  7957  0.69
      P1  H  8011  8017       L1    12  0.18

> <Gold.Chemscore.Hbond.Weighted>
-9.9944

> <Gold.Chemscore.Metal.Weighted>
-0.0000

> <Gold.Chemscore.Lipo.Weighted>
-15.2030

> <Gold.Chemscore.Internal_Hbond.Weighted>
0.0000

> <Gold.Chemscore.DEClash.Weighted>
0.6425

> <Gold.Chemscore.DEInternal.Weighted>
1.9988

> <Gold.Chemscore.Rot.Weighted>
6.9081

> <Gold.Chemscore.Internal.Correction.Weighted>
   9.000000E+99

> <Gold.Protein.RotatedTorsions>
[ 6907 6896 6895 6894 ] final  120.00 input  -60.11 | X-H torsion
[ 7974 7965 7964 7962 ] final -162.26 input  175.53 | X-H torsion
[ 8008 7997 7996 7995 ] final  -61.45 input   59.86 | X-H torsion
[ 10167 10162 10161 10158 ] final -132.74 input  -65.29 | X-H torsion
[ 10718 10713 10712 10709 ] final -137.97 input   66.30 | X-H torsion
[ 10763 10752 10751 10750 ] final -138.47 input  -60.55 | X-H torsion
[ 11005 11000 10999 10996 ] final   73.16 input  -57.11 | X-H torsion

> <Gold.Protein.ActiveResidues>
 VAL166  LYS551  ARG553  GLY616  TRP617  ASP618  TYR619  PRO620  LYS621  CYS622 
 ASP623  PHE694  ASN695  SER759  ASP760  ASP761  ALA762  ILE779  LEU786  VAL792 
 PHE793  MET794  SER795  GLU796  ALA797  LYS798  CYS799  TRP800  GLU811  SER814 

> <Gold.Protein.RotatedAtoms>
  152.4431  133.7485  159.6680 H   0  0  0  0  0  0  0  0  0  0  0  0  # atno 6907 bound_to 6896
  150.8325  133.8057  159.3099 H   0  0  0  0  0  0  0  0  0  0  0  0  # atno 6908 bound_to 6896
  151.5706  135.1065  160.0046 H   0  0  0  0  0  0  0  0  0  0  0  0  # atno 6909 bound_to 6896
  144.7363  140.3279  143.6158 H   0  0  0  0  0  0  0  0  0  0  0  0  # atno 7974 bound_to 7965
  154.4448  140.1017  156.6433 H   0  0  0  0  0  0  0  0  0  0  0  0  # atno 8008 bound_to 7997
  155.5478  140.3485  155.4443 H   0  0  0  0  0  0  0  0  0  0  0  0  # atno 8009 bound_to 7997
  156.0551  140.1313  156.9995 H   0  0  0  0  0  0  0  0  0  0  0  0  # atno 8010 bound_to 7997
  139.9054  143.6557  152.2586 H   0  0  0  0  0  0  0  0  0  0  0  0  # atno 10167 bound_to 10162
  156.2941  130.7391  151.1425 H   0  0  0  0  0  0  0  0  0  0  0  0  # atno 10718 bound_to 10713
  154.8636  135.3611  154.5391 H   0  0  0  0  0  0  0  0  0  0  0  0  # atno 10763 bound_to 10752
  153.6013  135.7012  153.5388 H   0  0  0  0  0  0  0  0  0  0  0  0  # atno 10764 bound_to 10752
  153.3288  135.4130  155.1440 H   0  0  0  0  0  0  0  0  0  0  0  0  # atno 10765 bound_to 10752
  139.9454  134.7323  156.0994 H   0  0  0  0  0  0  0  0  0  0  0  0  # atno 11005 bound_to 11000
  145.7502  139.1791  143.2326 LP  0  0  0  0  0  0  0  0  0  0  0  0  # atno 17320 bound_to 7965
  146.1066  140.7479  142.9523 LP  0  0  0  0  0  0  0  0  0  0  0  0  # atno 17321 bound_to 7965
  139.6988  144.7638  151.1309 LP  0  0  0  0  0  0  0  0  0  0  0  0  # atno 17342 bound_to 10162
  140.7697  143.5486  150.9230 LP  0  0  0  0  0  0  0  0  0  0  0  0  # atno 17343 bound_to 10162
  157.7350  131.0576  150.5492 LP  0  0  0  0  0  0  0  0  0  0  0  0  # atno 17370 bound_to 10713
  156.5611  130.4256  149.6062 LP  0  0  0  0  0  0  0  0  0  0  0  0  # atno 17371 bound_to 10713
  141.1102  133.6646  156.2961 LP  0  0  0  0  0  0  0  0  0  0  0  0  # atno 17394 bound_to 11000
  140.5848  134.5709  157.5487 LP  0  0  0  0  0  0  0  0  0  0  0  0  # atno 17395 bound_to 11000

$$$$
