AV-unprocessed.smi:276|AV-procd|sdf|2070|dock5
  -GOLD-   2262021323D 1   1.00000     0.00000
 Structure written by MMmdl.
 57 61  0  0  0  0  0  0  0  0  1 V2000
  147.3181  136.0974  162.4799 C   0  0  0  0  0  0  0  0  0  0  0  0
  147.4313  136.9423  161.3484 O   0  0  0  0  0  0  0  0  0  0  0  0
  148.2252  136.3737  160.3188 C   0  0  2  0  0  0  0  0  0  0  0  0
  148.2167  137.1583  159.0012 C   0  0  0  0  0  0  0  0  0  0  0  0
  148.1243  135.8153  158.2497 C   0  0  1  0  0  0  0  0  0  0  0  0
  149.4529  135.3151  157.8674 N   0  0  0  0  0  0  0  0  0  0  0  0
  150.3321  136.2700  157.1997 C   0  0  0  0  0  0  0  0  0  0  0  0
  149.4720  134.1377  157.2034 C   0  0  0  0  0  0  0  0  0  0  0  0
  149.9864  133.0691  157.8615 N   0  0  0  0  0  0  0  0  0  0  0  0
  150.0232  131.8724  157.2678 C   0  0  0  0  0  0  0  0  0  0  0  0
  149.6114  131.5337  156.0442 N   0  0  0  0  0  0  0  0  0  0  0  0
  149.1084  132.6106  155.3747 C   0  0  0  0  0  0  0  0  0  0  0  0
  149.0069  133.9408  155.8711 C   0  0  0  0  0  0  0  0  0  0  0  0
  148.4509  134.7658  154.9001 N   0  0  0  0  0  0  0  0  0  0  0  0
  148.2215  133.9666  153.8946 C   0  0  0  0  0  0  0  0  0  0  0  0
  148.5843  132.6546  154.0952 N   0  0  0  0  0  0  0  0  0  0  0  0
  148.4343  131.5602  153.1513 C   0  0  0  0  0  0  0  0  0  0  0  0
  146.9547  131.2752  152.8042 C   0  0  2  0  0  0  0  0  0  0  0  0
  146.9251  130.1718  151.9173 O   0  0  0  0  0  0  0  0  0  0  0  0
  146.2303  132.4475  152.1002 C   0  0  2  0  0  0  0  0  0  0  0  0
  144.7074  132.2861  151.9451 C   0  0  0  0  0  0  0  0  0  0  0  0
  144.5566  131.6695  150.5740 C   0  0  0  0  0  0  0  0  0  0  0  0
  145.6609  132.3857  149.8151 C   0  0  0  0  0  0  0  0  0  0  0  0
  146.7204  132.4988  150.7562 O   0  0  0  0  0  0  0  0  0  0  0  0
  147.5346  135.2259  159.5602 C   0  0  0  0  0  0  0  0  0  0  0  0
  146.0118  135.0335  159.6825 C   0  0  0  0  0  0  0  0  0  0  0  0
  146.2893  133.9062  160.6806 C   0  0  0  0  0  0  0  0  0  0  0  0
  147.6699  133.7661  160.0351 C   0  0  0  0  0  0  0  0  0  0  0  0
  146.6892  136.5752  163.2310 H   0  0  0  0  0  0  0  0  0  0  0  0
  148.2923  135.9043  162.9306 H   0  0  0  0  0  0  0  0  0  0  0  0
  146.8603  135.1440  162.2143 H   0  0  0  0  0  0  0  0  0  0  0  0
  149.2310  136.0988  160.6436 H   0  0  0  0  0  0  0  0  0  0  0  0
  147.3160  137.7625  158.8803 H   0  0  0  0  0  0  0  0  0  0  0  0
  149.1122  137.7553  158.8318 H   0  0  0  0  0  0  0  0  0  0  0  0
  147.4098  135.8570  157.4277 H   0  0  0  0  0  0  0  0  0  0  0  0
  151.1777  135.7808  156.7129 H   0  0  0  0  0  0  0  0  0  0  0  0
  150.7422  136.9788  157.9182 H   0  0  0  0  0  0  0  0  0  0  0  0
  149.7843  136.8308  156.4415 H   0  0  0  0  0  0  0  0  0  0  0  0
  150.4398  131.0705  157.8593 H   0  0  0  0  0  0  0  0  0  0  0  0
  147.7750  134.3131  152.9739 H   0  0  0  0  0  0  0  0  0  0  0  0
  149.0020  131.8258  152.2608 H   0  0  0  0  0  0  0  0  0  0  0  0
  148.9067  130.6700  153.5688 H   0  0  0  0  0  0  0  0  0  0  0  0
  146.4186  131.0013  153.7137 H   0  0  0  0  0  0  0  0  0  0  0  0
  147.7391  130.1496  151.4377 H   0  0  0  0  0  0  0  0  0  0  0  0
  146.4461  133.3855  152.6139 H   0  0  0  0  0  0  0  0  0  0  0  0
  144.2192  131.7045  152.7240 H   0  0  0  0  0  0  0  0  0  0  0  0
  144.2397  133.2718  151.9449 H   0  0  0  0  0  0  0  0  0  0  0  0
  144.7549  130.5977  150.6153 H   0  0  0  0  0  0  0  0  0  0  0  0
  143.5691  131.8234  150.1384 H   0  0  0  0  0  0  0  0  0  0  0  0
  145.9748  131.8495  148.9192 H   0  0  0  0  0  0  0  0  0  0  0  0
  145.3386  133.3858  149.5219 H   0  0  0  0  0  0  0  0  0  0  0  0
  145.4585  135.8811  160.0875 H   0  0  0  0  0  0  0  0  0  0  0  0
  145.5604  134.6701  158.7577 H   0  0  0  0  0  0  0  0  0  0  0  0
  146.3384  134.2569  161.7127 H   0  0  0  0  0  0  0  0  0  0  0  0
  145.6438  133.0335  160.5774 H   0  0  0  0  0  0  0  0  0  0  0  0
  147.6538  133.0302  159.2315 H   0  0  0  0  0  0  0  0  0  0  0  0
  148.4866  133.5822  160.7334 H   0  0  0  0  0  0  0  0  0  0  0  0
  1  2  1  0  0  0  0
  1 29  1  0  0  0  0
  1 30  1  0  0  0  0
  1 31  1  0  0  0  0
  2  3  1  0  0  0  0
  3 25  1  0  0  0  0
  3  4  1  0  0  0  0
  3 32  1  0  0  0  0
  4  5  1  0  0  0  0
  4 33  1  0  0  0  0
  4 34  1  0  0  0  0
  5  6  1  0  0  0  0
  5 25  1  0  0  0  0
  5 35  1  0  0  0  0
  6  7  1  0  0  0  0
  6  8  1  0  0  0  0
  7 36  1  0  0  0  0
  7 37  1  0  0  0  0
  7 38  1  0  0  0  0
  8 13  1  0  0  0  0
  8  9  2  0  0  0  0
  9 10  1  0  0  0  0
 10 11  2  0  0  0  0
 10 39  1  0  0  0  0
 11 12  1  0  0  0  0
 12 16  1  0  0  0  0
 12 13  2  0  0  0  0
 13 14  1  0  0  0  0
 14 15  2  0  0  0  0
 15 16  1  0  0  0  0
 15 40  1  0  0  0  0
 16 17  1  0  0  0  0
 17 18  1  0  0  0  0
 17 41  1  0  0  0  0
 17 42  1  0  0  0  0
 18 19  1  0  0  0  0
 18 20  1  0  0  0  0
 18 43  1  0  0  0  0
 19 44  1  0  0  0  0
 20 24  1  0  0  0  0
 20 21  1  0  0  0  0
 20 45  1  0  0  0  0
 21 22  1  0  0  0  0
 21 46  1  0  0  0  0
 21 47  1  0  0  0  0
 22 23  1  0  0  0  0
 22 48  1  0  0  0  0
 22 49  1  0  0  0  0
 23 24  1  0  0  0  0
 23 50  1  0  0  0  0
 23 51  1  0  0  0  0
 25 28  1  0  0  0  0
 25 26  1  0  0  0  0
 26 27  1  0  0  0  0
 26 52  1  0  0  0  0
 26 53  1  0  0  0  0
 27 28  1  0  0  0  0
 27 54  1  0  0  0  0
 27 55  1  0  0  0  0
 28 56  1  0  0  0  0
 28 57  1  0  0  0  0
M  END
> <s_m_source_file>
AV-unprocessed.smi

> <i_m_source_file_index>
276

> <i_lp_mmshare_version>
43012

> <i_f3d_flags>
0

> <s_epik_input>
W0NIMl0xW0NIMl1bQ0gyXUMxMltDQEhdKE9bQ0gzXSlbQ0gyXVtDQEhdMk4oW0NIM10pYyhuW2NIXW4zKWMoYzM0KW5bY0hdbjRbQ0gyXVtDQEhdKFtPSF0pW0NAQEhdNVtDSDJdW0NIMl1bQ0gyXU81

> <s_epik_cmdline>
J2VwaWtfcHl0aG9uJywgJy1waCcsICc3LjAnLCAnLXRuJywgJzgnLCAnLW1hJywgJzIwMCcsICctbWV0YWxfYmluZGluZycsICctaW1hZScsICc8aW5maWxlLm1hZT4nLCAnLW9tYWUnLCAnPG91dGZpbGUubWFlPic=

> <r_lp_tautomer_probability>
1

> <r_epik_Ionization_Penalty>
0.00204117

> <r_epik_Ionization_Penalty_Charging>
0

> <r_epik_Ionization_Penalty_Neutral>
0.00204117

> <r_epik_State_Penalty>
0.00127401

> <r_epik_Charging_Adjusted_Penalty>
0.00127401

> <i_epik_Tot_Q>
0

> <i_epik_Tot_abs_Q>
0

> <r_epik_Metal_State_Penalty>
-0

> <b_epik_Metal_Only>
0

> <s_lp_Force_Field>
OPLS_2005

> <r_lp_Energy>
59.1309

> <b_lp_Chiralities_Consistent>
1

> <s_lp_Variant>
AV-unprocessed.smi:276-1

> <Gold.Version>
5.8.1

> <Gold.Id.Protein>
6NUR|6NUR_protein|mol2

> <Gold.PLP.Fitness>
49.7441

> <Gold.PLP.PLP>
-36.8620

> <Gold.PLP.part.hbond>
-5.0000

> <Gold.PLP.part.metal>
0.0000

> <Gold.PLP.part.buried>
-3.3023

> <Gold.PLP.part.nonpolar>
-31.2139

> <Gold.PLP.part.repulsive>
2.3675

> <Gold.PLP.ligand.clash>
0.0000

> <Gold.PLP.ligand.torsion>
0.6974

> <Gold.PLP.Chemscore.Hbond>
3.7337

> <Gold.PLP.Chemscore.CHOScore>
0.7760

> <Gold.PLP.Chemscore.Metal>
0.0000

> <Gold.Chemscore.Hbonds>
donor molecule, donor type, donor heavy atom, donor atom, acceptor molecule, acceptor atom, score
      L1  H    19    44       P1 10747  1.00
      P1  H  6896  6909       L1     9  0.93
      P1  H  6931  6943       L1     2  0.40
      P1  H  6934  6947       L1     2  0.73
      L1  C    15    40       P1  7948  0.71

> <Gold.PLP.Chemscore.Internal.Correction>
0.7478

> <Gold.Rescore>
     Score         DG    S(hbond)    S(metal)    S(lipo)     H(rot)  DE(clash)    DE(int)     intcor
     13.78     -16.10       2.45        0.00      80.23       2.72       1.06       1.26       ----

> <Gold.Chemscore.Fitness>
13.7779

> <Gold.Chemscore.DG>
-16.0954

> <Gold.Chemscore.ZeroCoef>
-5.4800

> <Gold.Chemscore.Hbond>
2.4504

> <Gold.Chemscore.Metal>
0.0000

> <Gold.Chemscore.Lipo>
80.2324

> <Gold.Chemscore.Internal_Hbond>
0.0000

> <Gold.Chemscore.DEClash>
1.0602

> <Gold.Chemscore.DEInternal>
1.2572

> <Gold.Chemscore.Rot>
2.7172

> <Gold.Chemscore.Internal.Correction>
   9.000000E+99

> <Gold.Chemscore.Hbonds>
donor molecule, donor type, donor heavy atom, donor atom, acceptor molecule, acceptor atom, score
      L1  H    19    44       P1 10747  0.98
      P1  H  6896  6909       L1     9  0.83
      P1  H  6931  6943       L1     2  0.01
      P1  H  6934  6947       L1     2  0.47

> <Gold.Chemscore.Hbond.Weighted>
-8.1842

> <Gold.Chemscore.Metal.Weighted>
-0.0000

> <Gold.Chemscore.Lipo.Weighted>
-9.3872

> <Gold.Chemscore.Internal_Hbond.Weighted>
0.0000

> <Gold.Chemscore.DEClash.Weighted>
1.0602

> <Gold.Chemscore.DEInternal.Weighted>
1.2572

> <Gold.Chemscore.Rot.Weighted>
6.9560

> <Gold.Chemscore.Internal.Correction.Weighted>
   9.000000E+99

> <Gold.Protein.RotatedTorsions>
[ 6907 6896 6895 6894 ] final  -33.02 input  -60.11 | X-H torsion
[ 7974 7965 7964 7962 ] final  -12.31 input  175.53 | X-H torsion
[ 8008 7997 7996 7995 ] final  -34.59 input   59.86 | X-H torsion
[ 10167 10162 10161 10158 ] final  130.12 input  -65.29 | X-H torsion
[ 10718 10713 10712 10709 ] final   28.00 input   66.30 | X-H torsion
[ 10763 10752 10751 10750 ] final   17.18 input  -60.55 | X-H torsion
[ 11005 11000 10999 10996 ] final  -97.09 input  -57.11 | X-H torsion

> <Gold.Protein.ActiveResidues>
 VAL166  LYS551  ARG553  GLY616  TRP617  ASP618  TYR619  PRO620  LYS621  CYS622 
 ASP623  PHE694  ASN695  SER759  ASP760  ASP761  ALA762  ILE779  LEU786  VAL792 
 PHE793  MET794  SER795  GLU796  ALA797  LYS798  CYS799  TRP800  GLU811  SER814 

> <Gold.Protein.RotatedAtoms>
  151.0711  134.9799  159.8308 H   0  0  0  0  0  0  0  0  0  0  0  0  # atno 6907 bound_to 6896
  152.5408  134.2298  159.8830 H   0  0  0  0  0  0  0  0  0  0  0  0  # atno 6908 bound_to 6896
  151.2322  133.4400  159.2638 H   0  0  0  0  0  0  0  0  0  0  0  0  # atno 6909 bound_to 6896
  146.2156  140.3039  142.8377 H   0  0  0  0  0  0  0  0  0  0  0  0  # atno 7974 bound_to 7965
  154.4117  140.1680  156.2075 H   0  0  0  0  0  0  0  0  0  0  0  0  # atno 8008 bound_to 7997
  155.9472  140.3403  155.6354 H   0  0  0  0  0  0  0  0  0  0  0  0  # atno 8009 bound_to 7997
  155.6915  140.0734  157.2437 H   0  0  0  0  0  0  0  0  0  0  0  0  # atno 8010 bound_to 7997
  139.5445  144.6761  151.4518 H   0  0  0  0  0  0  0  0  0  0  0  0  # atno 10167 bound_to 10162
  157.2277  130.7009  149.6299 H   0  0  0  0  0  0  0  0  0  0  0  0  # atno 10718 bound_to 10713
  153.1363  135.6750  153.9098 H   0  0  0  0  0  0  0  0  0  0  0  0  # atno 10763 bound_to 10752
  153.8569  135.3086  155.3437 H   0  0  0  0  0  0  0  0  0  0  0  0  # atno 10764 bound_to 10752
  154.7750  135.4919  153.9808 H   0  0  0  0  0  0  0  0  0  0  0  0  # atno 10765 bound_to 10752
  141.1390  133.8145  157.0660 H   0  0  0  0  0  0  0  0  0  0  0  0  # atno 11005 bound_to 11000
  144.9037  140.7674  143.5851 LP  0  0  0  0  0  0  0  0  0  0  0  0  # atno 17320 bound_to 7965
  145.2966  139.1865  143.4712 LP  0  0  0  0  0  0  0  0  0  0  0  0  # atno 17321 bound_to 7965
  140.6688  143.8340  150.6973 LP  0  0  0  0  0  0  0  0  0  0  0  0  # atno 17342 bound_to 10162
  140.1758  143.4156  152.1969 LP  0  0  0  0  0  0  0  0  0  0  0  0  # atno 17343 bound_to 10162
  155.9677  130.4499  150.5676 LP  0  0  0  0  0  0  0  0  0  0  0  0  # atno 17370 bound_to 10713
  157.3510  131.0733  151.1713 LP  0  0  0  0  0  0  0  0  0  0  0  0  # atno 17371 bound_to 10713
  140.0541  134.9790  157.1189 LP  0  0  0  0  0  0  0  0  0  0  0  0  # atno 17394 bound_to 11000
  140.3945  134.2149  155.7165 LP  0  0  0  0  0  0  0  0  0  0  0  0  # atno 17395 bound_to 11000

$$$$
