AV-unprocessed.smi:1285|AV-procd|sdf|5371|dock4
  -GOLD-   22720 4513D 1   1.00000     0.00000
 Structure written by MMmdl.
 47 48  0  0  0  0  0  0  0  0  2 V2000
  149.2264  131.9719  154.1975 C   0  0  0  0  0  0  0  0  0  0  0  0
  148.6140  133.2281  153.5527 C   0  0  0  0  0  0  0  0  0  0  0  0
  148.0802  134.3059  154.5466 C   0  0  1  0  0  0  0  0  0  0  0  0
  147.1196  133.5849  155.5298 C   0  0  0  0  0  0  0  0  0  0  0  0
  149.2672  134.9129  155.3587 C   0  0  0  0  0  0  0  0  0  0  0  0
  149.9484  135.9955  154.6522 N   0  0  0  0  0  0  0  0  0  0  0  0
  151.0427  136.6471  155.0761 C   0  0  0  0  0  0  0  0  0  0  0  0
  151.6588  136.3415  156.0978 O   0  0  0  0  0  0  0  0  0  0  0  0
  151.4684  137.8553  154.2301 C   0  0  2  0  0  0  0  0  0  0  0  0
  152.8451  138.4174  154.6316 C   0  0  0  0  0  0  0  0  0  0  0  0
  150.4351  138.8797  154.2979 N   0  0  0  0  0  0  0  0  0  0  0  0
  149.1286  138.8242  154.0235 C   0  0  0  0  0  0  0  0  0  0  0  0
  148.5039  139.9864  154.1477 N   0  0  0  0  0  0  0  0  0  0  0  0
  149.5559  140.7716  154.5246 C   0  0  0  0  0  0  0  0  0  0  0  0
  150.7371  140.1609  154.6187 N   0  0  0  0  0  0  0  0  0  0  0  0
  147.3458  135.3848  153.7896 N   0  3  0  0  0  0  0  0  0  0  0  0
  146.2340  134.9266  152.9088 C   0  0  0  0  0  0  0  0  0  0  0  0
  145.7043  136.0925  152.0563 C   0  0  0  0  0  0  0  0  0  0  0  0
  145.2796  137.1535  152.8999 O   0  0  0  0  0  0  0  0  0  0  0  0
  146.3500  137.6627  153.6826 C   0  0  0  0  0  0  0  0  0  0  0  0
  146.8903  136.5519  154.5977 C   0  0  0  0  0  0  0  0  0  0  0  0
  149.5770  131.2839  153.4280 H   0  0  0  0  0  0  0  0  0  0  0  0
  148.5027  131.4322  154.8079 H   0  0  0  0  0  0  0  0  0  0  0  0
  150.0832  132.2153  154.8253 H   0  0  0  0  0  0  0  0  0  0  0  0
  149.3821  133.6663  152.9151 H   0  0  0  0  0  0  0  0  0  0  0  0
  147.8289  132.9249  152.8605 H   0  0  0  0  0  0  0  0  0  0  0  0
  147.5533  132.6604  155.9135 H   0  0  0  0  0  0  0  0  0  0  0  0
  146.1747  133.3213  155.0542 H   0  0  0  0  0  0  0  0  0  0  0  0
  146.8900  134.1979  156.4016 H   0  0  0  0  0  0  0  0  0  0  0  0
  148.9368  135.2665  156.3355 H   0  0  0  0  0  0  0  0  0  0  0  0
  150.0216  134.1527  155.5577 H   0  0  0  0  0  0  0  0  0  0  0  0
  149.5147  136.3215  153.8001 H   0  0  0  0  0  0  0  0  0  0  0  0
  151.5434  137.5191  153.1939 H   0  0  0  0  0  0  0  0  0  0  0  0
  153.6193  137.6529  154.5572 H   0  0  0  0  0  0  0  0  0  0  0  0
  152.8491  138.7963  155.6544 H   0  0  0  0  0  0  0  0  0  0  0  0
  153.1343  139.2390  153.9755 H   0  0  0  0  0  0  0  0  0  0  0  0
  148.6275  137.9182  153.7148 H   0  0  0  0  0  0  0  0  0  0  0  0
  149.4496  141.8271  154.7274 H   0  0  0  0  0  0  0  0  0  0  0  0
  146.5579  134.1434  152.2262 H   0  0  0  0  0  0  0  0  0  0  0  0
  145.4216  134.5163  153.5091 H   0  0  0  0  0  0  0  0  0  0  0  0
  146.4689  136.4465  151.3629 H   0  0  0  0  0  0  0  0  0  0  0  0
  144.8582  135.7621  151.4534 H   0  0  0  0  0  0  0  0  0  0  0  0
  147.1374  138.0575  153.0383 H   0  0  0  0  0  0  0  0  0  0  0  0
  145.9813  138.4958  154.2812 H   0  0  0  0  0  0  0  0  0  0  0  0
  146.1032  136.2518  155.2896 H   0  0  0  0  0  0  0  0  0  0  0  0
  147.7004  136.9678  155.1933 H   0  0  0  0  0  0  0  0  0  0  0  0
  148.0389  135.7583  153.1569 H   0  0  0  0  0  0  0  0  0  0  0  0
  1  2  1  0  0  0  0
  1 22  1  0  0  0  0
  1 23  1  0  0  0  0
  1 24  1  0  0  0  0
  2  3  1  0  0  0  0
  2 25  1  0  0  0  0
  2 26  1  0  0  0  0
  3  4  1  0  0  0  0
  3  5  1  0  0  0  0
  3 16  1  0  0  0  0
  4 27  1  0  0  0  0
  4 28  1  0  0  0  0
  4 29  1  0  0  0  0
  5  6  1  0  0  0  0
  5 30  1  0  0  0  0
  5 31  1  0  0  0  0
  6  7  1  0  0  0  0
  6 32  1  0  0  0  0
  7  8  2  0  0  0  0
  7  9  1  0  0  0  0
  9 10  1  0  0  0  0
  9 11  1  0  0  0  0
  9 33  1  0  0  0  0
 10 34  1  0  0  0  0
 10 35  1  0  0  0  0
 10 36  1  0  0  0  0
 11 15  1  0  0  0  0
 11 12  1  0  0  0  0
 12 13  2  0  0  0  0
 12 37  1  0  0  0  0
 13 14  1  0  0  0  0
 14 15  2  0  0  0  0
 14 38  1  0  0  0  0
 16 21  1  0  0  0  0
 16 17  1  0  0  0  0
 16 47  1  0  0  0  0
 17 18  1  0  0  0  0
 17 39  1  0  0  0  0
 17 40  1  0  0  0  0
 18 19  1  0  0  0  0
 18 41  1  0  0  0  0
 18 42  1  0  0  0  0
 19 20  1  0  0  0  0
 20 21  1  0  0  0  0
 20 43  1  0  0  0  0
 20 44  1  0  0  0  0
 21 45  1  0  0  0  0
 21 46  1  0  0  0  0
M  CHG  1  16   1
M  END
> <s_m_source_file>
AV-unprocessed.smi

> <i_m_source_file_index>
1285

> <i_lp_mmshare_version>
43012

> <i_f3d_flags>
0

> <s_epik_input>
W0NIMl0xW0NIMl1PW0NIMl1bQ0gyXU4xW0NAQF0oW0NIM10pKFtDSDJdW0NIM10pW0NIMl1bTkhdQyg9TylbQ0BIXShbQ0gzXSluMltjSF1uW2NIXW4y

> <s_epik_cmdline>
J2VwaWtfcHl0aG9uJywgJy1waCcsICc3LjAnLCAnLXRuJywgJzgnLCAnLW1hJywgJzIwMCcsICctbWV0YWxfYmluZGluZycsICctaW1hZScsICc8aW5maWxlLm1hZT4nLCAnLW9tYWUnLCAnPG91dGZpbGUubWFlPic=

> <r_lp_tautomer_probability>
1

> <r_epik_Ionization_Penalty>
0.569304

> <r_epik_Ionization_Penalty_Charging>
0.569295

> <r_epik_Ionization_Penalty_Neutral>
8.22697e-06

> <r_epik_State_Penalty>
0.581114

> <r_epik_Charging_Adjusted_Penalty>
1.15041

> <i_epik_Tot_Q>
1

> <i_epik_Tot_abs_Q>
1

> <r_epik_Metal_State_Penalty>
0.581117

> <b_epik_Metal_Only>
0

> <s_lp_Force_Field>
OPLS_2005

> <r_lp_Energy>
33.7003

> <b_lp_Chiralities_Consistent>
1

> <s_lp_Variant>
AV-unprocessed.smi:1285-5

> <Gold.Version>
5.8.1

> <Gold.Id.Protein>
6NUR|6NUR_protein|mol2

> <Gold.PLP.Fitness>
50.5082

> <Gold.PLP.PLP>
-33.4256

> <Gold.PLP.part.hbond>
-4.3072

> <Gold.PLP.part.metal>
0.0000

> <Gold.PLP.part.buried>
-1.3385

> <Gold.PLP.part.nonpolar>
-26.8578

> <Gold.PLP.part.repulsive>
0.4778

> <Gold.PLP.ligand.clash>
0.0000

> <Gold.PLP.ligand.torsion>
0.6214

> <Gold.PLP.Chemscore.Hbond>
5.0000

> <Gold.PLP.Chemscore.CHOScore>
0.9987

> <Gold.PLP.Chemscore.Metal>
0.0000

> <Gold.Chemscore.Hbonds>
donor molecule, donor type, donor heavy atom, donor atom, acceptor molecule, acceptor atom, score
      L1  H     6    32       P1  7948  1.00
      L1  H    16    47       P1  7948  2.00
      P1  H  7989  7998       L1    15  1.00
      P1  H 10752 10765       L1     8  0.60
      L1  C    12    37       P1  7948  1.00

> <Gold.PLP.Chemscore.Internal.Correction>
0.3293

> <Gold.Rescore>
     Score         DG    S(hbond)    S(metal)    S(lipo)     H(rot)  DE(clash)    DE(int)     intcor
     12.61     -13.49       2.71        0.00      51.36       2.76       0.07       0.82       ----

> <Gold.Chemscore.Fitness>
12.6061

> <Gold.Chemscore.DG>
-13.4897

> <Gold.Chemscore.ZeroCoef>
-5.4800

> <Gold.Chemscore.Hbond>
2.7136

> <Gold.Chemscore.Metal>
0.0000

> <Gold.Chemscore.Lipo>
51.3574

> <Gold.Chemscore.Internal_Hbond>
0.0000

> <Gold.Chemscore.DEClash>
0.0651

> <Gold.Chemscore.DEInternal>
0.8184

> <Gold.Chemscore.Rot>
2.7589

> <Gold.Chemscore.Internal.Correction>
   9.000000E+99

> <Gold.Chemscore.Hbonds>
donor molecule, donor type, donor heavy atom, donor atom, acceptor molecule, acceptor atom, score
      L1  H     6    32       P1  7948  0.66
      L1  H    16    47       P1  7948  1.00
      P1  H  7989  7998       L1    15  0.36
      P1  H 10752 10765       L1     8  0.04

> <Gold.Chemscore.Hbond.Weighted>
-9.0635

> <Gold.Chemscore.Metal.Weighted>
-0.0000

> <Gold.Chemscore.Lipo.Weighted>
-6.0088

> <Gold.Chemscore.Internal_Hbond.Weighted>
0.0000

> <Gold.Chemscore.DEClash.Weighted>
0.0651

> <Gold.Chemscore.DEInternal.Weighted>
0.8184

> <Gold.Chemscore.Rot.Weighted>
7.0627

> <Gold.Chemscore.Internal.Correction.Weighted>
   9.000000E+99

> <Gold.Protein.RotatedTorsions>
[ 6907 6896 6895 6894 ] final   15.63 input  -60.11 | X-H torsion
[ 7974 7965 7964 7962 ] final   20.66 input  175.53 | X-H torsion
[ 8008 7997 7996 7995 ] final   69.14 input   59.86 | X-H torsion
[ 10167 10162 10161 10158 ] final  106.91 input  -65.29 | X-H torsion
[ 10718 10713 10712 10709 ] final -110.46 input   66.30 | X-H torsion
[ 10763 10752 10751 10750 ] final -150.25 input  -60.55 | X-H torsion
[ 11005 11000 10999 10996 ] final   55.40 input  -57.11 | X-H torsion

> <Gold.Protein.ActiveResidues>
 VAL166  LYS551  ARG553  GLY616  TRP617  ASP618  TYR619  PRO620  LYS621  CYS622 
 ASP623  PHE694  ASN695  SER759  ASP760  ASP761  ALA762  ILE779  LEU786  VAL792 
 PHE793  MET794  SER795  GLU796  ALA797  LYS798  CYS799  TRP800  GLU811  SER814 

> <Gold.Protein.RotatedAtoms>
  151.8211  135.0651  160.0424 H   0  0  0  0  0  0  0  0  0  0  0  0  # atno 6907 bound_to 6896
  152.2950  133.5594  159.5590 H   0  0  0  0  0  0  0  0  0  0  0  0  # atno 6908 bound_to 6896
  150.7247  134.0290  159.3769 H   0  0  0  0  0  0  0  0  0  0  0  0  # atno 6909 bound_to 6896
  146.2102  139.8137  142.8694 H   0  0  0  0  0  0  0  0  0  0  0  0  # atno 7974 bound_to 7965
  155.7190  140.3493  155.5007 H   0  0  0  0  0  0  0  0  0  0  0  0  # atno 8008 bound_to 7997
  155.9287  140.1080  157.1172 H   0  0  0  0  0  0  0  0  0  0  0  0  # atno 8009 bound_to 7997
  154.4081  140.1235  156.4760 H   0  0  0  0  0  0  0  0  0  0  0  0  # atno 8010 bound_to 7997
  139.6970  144.7100  151.1250 H   0  0  0  0  0  0  0  0  0  0  0  0  # atno 10167 bound_to 10162
  156.0592  130.5816  150.8240 H   0  0  0  0  0  0  0  0  0  0  0  0  # atno 10718 bound_to 10713
  154.8130  135.3289  154.7254 H   0  0  0  0  0  0  0  0  0  0  0  0  # atno 10763 bound_to 10752
  153.7900  135.6912  153.4877 H   0  0  0  0  0  0  0  0  0  0  0  0  # atno 10764 bound_to 10752
  153.1923  135.4546  155.0111 H   0  0  0  0  0  0  0  0  0  0  0  0  # atno 10765 bound_to 10752
  140.0610  134.5602  155.9152 H   0  0  0  0  0  0  0  0  0  0  0  0  # atno 11005 bound_to 11000
  145.3169  141.0234  143.3523 LP  0  0  0  0  0  0  0  0  0  0  0  0  # atno 17320 bound_to 7965
  144.8895  139.4794  143.6684 LP  0  0  0  0  0  0  0  0  0  0  0  0  # atno 17321 bound_to 7965
  140.7699  143.5477  150.9240 LP  0  0  0  0  0  0  0  0  0  0  0  0  # atno 17342 bound_to 10162
  139.9157  143.6666  152.3106 LP  0  0  0  0  0  0  0  0  0  0  0  0  # atno 17343 bound_to 10162
  157.5587  131.0945  150.9591 LP  0  0  0  0  0  0  0  0  0  0  0  0  # atno 17370 bound_to 10713
  156.9833  130.5535  149.5298 LP  0  0  0  0  0  0  0  0  0  0  0  0  # atno 17371 bound_to 10713
  141.1973  133.6595  156.5734 LP  0  0  0  0  0  0  0  0  0  0  0  0  # atno 17394 bound_to 11000
  140.3770  134.7556  157.4636 LP  0  0  0  0  0  0  0  0  0  0  0  0  # atno 17395 bound_to 11000

$$$$
