AV-unprocessed.smi:2263|AV-procd|sdf|9140|dock4
  -GOLD-   2272012343D 1   1.00000     0.00000
 Structure written by MMmdl.
 40 41  0  0  0  0  0  0  0  0  1 V2000
  149.7283  133.9586  154.6365 C   0  0  0  0  0  0  0  0  0  0  0  0
  149.6426  135.3122  155.3338 C   0  0  0  0  0  0  0  0  0  0  0  0
  149.8353  135.3951  156.5464 O   0  0  0  0  0  0  0  0  0  0  0  0
  149.3499  136.3647  154.5555 N   0  0  0  0  0  0  0  0  0  0  0  0
  149.2105  137.7384  155.0249 C   0  0  0  0  0  0  0  0  0  0  0  0
  150.4930  138.5501  154.7825 C   0  0  0  0  0  0  0  0  0  0  0  0
  150.5212  139.8185  155.5669 C   0  0  0  0  0  0  0  0  0  0  0  0
  151.0774  139.9258  156.7764 N   0  0  0  0  0  0  0  0  0  0  0  0
  150.9448  141.2081  157.3182 C   0  0  0  0  0  0  0  0  0  0  0  0
  151.5220  141.5148  158.6669 C   0  0  0  0  0  0  0  0  0  0  0  0
  152.4849  142.7124  158.6302 C   0  0  0  0  0  0  0  0  0  0  0  0
  153.0380  143.0913  160.0157 C   0  0  0  0  0  0  0  0  0  0  0  0
  153.4274  141.8804  160.8693 C   0  0  0  0  0  0  0  0  0  0  0  0
  153.4068  142.3728  162.3224 C   0  0  0  0  0  0  0  0  0  0  0  0
  152.6144  143.6885  162.3243 C   0  0  0  0  0  0  0  0  0  0  0  0
  152.0487  143.8428  160.9106 C   0  0  0  0  0  0  0  0  0  0  0  0
  150.2659  142.0743  156.4979 C   0  0  0  0  0  0  0  0  0  0  0  0
  149.7625  141.3076  155.0170 S   0  0  0  0  0  0  0  0  0  0  0  0
  148.8010  133.7437  154.1046 H   0  0  0  0  0  0  0  0  0  0  0  0
  149.8988  133.1601  155.3596 H   0  0  0  0  0  0  0  0  0  0  0  0
  150.5493  133.9507  153.9192 H   0  0  0  0  0  0  0  0  0  0  0  0
  149.2089  136.2023  153.5689 H   0  0  0  0  0  0  0  0  0  0  0  0
  148.3575  138.2155  154.5391 H   0  0  0  0  0  0  0  0  0  0  0  0
  148.9844  137.7109  156.0913 H   0  0  0  0  0  0  0  0  0  0  0  0
  151.3698  137.9562  155.0440 H   0  0  0  0  0  0  0  0  0  0  0  0
  150.5898  138.7995  153.7253 H   0  0  0  0  0  0  0  0  0  0  0  0
  150.7180  141.7193  159.3749 H   0  0  0  0  0  0  0  0  0  0  0  0
  152.0414  140.6368  159.0519 H   0  0  0  0  0  0  0  0  0  0  0  0
  153.3096  142.5025  157.9474 H   0  0  0  0  0  0  0  0  0  0  0  0
  151.9582  143.5729  158.2152 H   0  0  0  0  0  0  0  0  0  0  0  0
  153.9269  143.7117  159.8880 H   0  0  0  0  0  0  0  0  0  0  0  0
  152.6874  141.0879  160.7486 H   0  0  0  0  0  0  0  0  0  0  0  0
  154.3963  141.4684  160.5852 H   0  0  0  0  0  0  0  0  0  0  0  0
  152.9486  141.6290  162.9757 H   0  0  0  0  0  0  0  0  0  0  0  0
  154.4203  142.5455  162.6869 H   0  0  0  0  0  0  0  0  0  0  0  0
  151.8282  143.6974  163.0797 H   0  0  0  0  0  0  0  0  0  0  0  0
  153.2870  144.5186  162.5434 H   0  0  0  0  0  0  0  0  0  0  0  0
  151.9315  144.8885  160.6250 H   0  0  0  0  0  0  0  0  0  0  0  0
  151.0657  143.3724  160.8576 H   0  0  0  0  0  0  0  0  0  0  0  0
  150.0297  143.1129  156.6758 H   0  0  0  0  0  0  0  0  0  0  0  0
  1  2  1  0  0  0  0
  1 19  1  0  0  0  0
  1 20  1  0  0  0  0
  1 21  1  0  0  0  0
  2  3  2  0  0  0  0
  2  4  1  0  0  0  0
  4  5  1  0  0  0  0
  4 22  1  0  0  0  0
  5  6  1  0  0  0  0
  5 23  1  0  0  0  0
  5 24  1  0  0  0  0
  6  7  1  0  0  0  0
  6 25  1  0  0  0  0
  6 26  1  0  0  0  0
  7 18  1  0  0  0  0
  7  8  2  0  0  0  0
  8  9  1  0  0  0  0
  9 10  1  0  0  0  0
  9 17  2  0  0  0  0
 10 11  1  0  0  0  0
 10 27  1  0  0  0  0
 10 28  1  0  0  0  0
 11 12  1  0  0  0  0
 11 29  1  0  0  0  0
 11 30  1  0  0  0  0
 12 16  1  0  0  0  0
 12 13  1  0  0  0  0
 12 31  1  0  0  0  0
 13 14  1  0  0  0  0
 13 32  1  0  0  0  0
 13 33  1  0  0  0  0
 14 15  1  0  0  0  0
 14 34  1  0  0  0  0
 14 35  1  0  0  0  0
 15 16  1  0  0  0  0
 15 36  1  0  0  0  0
 15 37  1  0  0  0  0
 16 38  1  0  0  0  0
 16 39  1  0  0  0  0
 17 18  1  0  0  0  0
 17 40  1  0  0  0  0
M  END
> <s_m_source_file>
AV-unprocessed.smi

> <i_m_source_file_index>
2263

> <i_lp_mmshare_version>
43012

> <i_f3d_flags>
0

> <s_epik_input>
W0NIM11DKD1PKVtOSF1bQ0gyXVtDSDJdYzFuYyhbY0hdczEpW0NIMl1bQ0gyXVtDSF0yW0NIMl1bQ0gyXVtDSDJdW0NIMl0y

> <s_epik_cmdline>
J2VwaWtfcHl0aG9uJywgJy1waCcsICc3LjAnLCAnLXRuJywgJzgnLCAnLW1hJywgJzIwMCcsICctbWV0YWxfYmluZGluZycsICctaW1hZScsICc8aW5maWxlLm1hZT4nLCAnLW9tYWUnLCAnPG91dGZpbGUubWFlPic=

> <r_epik_Ionization_Penalty>
0.00116713

> <r_epik_Ionization_Penalty_Charging>
0

> <r_epik_Ionization_Penalty_Neutral>
0.00116713

> <r_epik_State_Penalty>
0.000768465

> <r_epik_Charging_Adjusted_Penalty>
0.000768465

> <i_epik_Tot_Q>
0

> <i_epik_Tot_abs_Q>
0

> <r_epik_Metal_State_Penalty>
-0

> <b_epik_Metal_Only>
0

> <s_lp_Force_Field>
OPLS_2005

> <r_lp_Energy>
10.4461

> <b_lp_Chiralities_Consistent>
1

> <s_lp_Variant>
AV-unprocessed.smi:2263-1

> <Gold.Version>
5.8.1

> <Gold.Id.Protein>
6NUR|6NUR_protein|mol2

> <Gold.PLP.Fitness>
46.3289

> <Gold.PLP.PLP>
-41.7207

> <Gold.PLP.part.hbond>
-1.0000

> <Gold.PLP.part.metal>
0.0000

> <Gold.PLP.part.buried>
-2.5653

> <Gold.PLP.part.nonpolar>
-37.2987

> <Gold.PLP.part.repulsive>
0.0341

> <Gold.PLP.ligand.clash>
0.0000

> <Gold.PLP.ligand.torsion>
0.7347

> <Gold.PLP.Chemscore.Hbond>
1.0000

> <Gold.PLP.Chemscore.CHOScore>
1.0000

> <Gold.PLP.Chemscore.Metal>
0.0000

> <Gold.Chemscore.Hbonds>
donor molecule, donor type, donor heavy atom, donor atom, acceptor molecule, acceptor atom, score
      L1  H     4    22       P1  7948  1.00
      L1  C    17    40       P1  8028  1.00

> <Gold.PLP.Chemscore.Internal.Correction>
0.0776

> <Gold.Rescore>
     Score         DG    S(hbond)    S(metal)    S(lipo)     H(rot)  DE(clash)    DE(int)     intcor
     17.56     -18.35       0.98        0.00     121.37       1.80       0.13       0.66       ----

> <Gold.Chemscore.Fitness>
17.5622

> <Gold.Chemscore.DG>
-18.3463

> <Gold.Chemscore.ZeroCoef>
-5.4800

> <Gold.Chemscore.Hbond>
0.9779

> <Gold.Chemscore.Metal>
0.0000

> <Gold.Chemscore.Lipo>
121.3744

> <Gold.Chemscore.Internal_Hbond>
0.0000

> <Gold.Chemscore.DEClash>
0.1288

> <Gold.Chemscore.DEInternal>
0.6552

> <Gold.Chemscore.Rot>
1.7972

> <Gold.Chemscore.Internal.Correction>
   9.000000E+99

> <Gold.Chemscore.Hbonds>
donor molecule, donor type, donor heavy atom, donor atom, acceptor molecule, acceptor atom, score
      L1  H     4    22       P1  7948  0.91

> <Gold.Chemscore.Hbond.Weighted>
-3.2662

> <Gold.Chemscore.Metal.Weighted>
-0.0000

> <Gold.Chemscore.Lipo.Weighted>
-14.2008

> <Gold.Chemscore.Internal_Hbond.Weighted>
0.0000

> <Gold.Chemscore.DEClash.Weighted>
0.1288

> <Gold.Chemscore.DEInternal.Weighted>
0.6552

> <Gold.Chemscore.Rot.Weighted>
4.6008

> <Gold.Chemscore.Internal.Correction.Weighted>
   9.000000E+99

> <Gold.Protein.RotatedTorsions>
[ 6907 6896 6895 6894 ] final  -24.35 input  -60.11 | X-H torsion
[ 7974 7965 7964 7962 ] final  119.33 input  175.53 | X-H torsion
[ 8008 7997 7996 7995 ] final   76.52 input   59.86 | X-H torsion
[ 10167 10162 10161 10158 ] final   88.79 input  -65.29 | X-H torsion
[ 10718 10713 10712 10709 ] final  154.04 input   66.30 | X-H torsion
[ 10763 10752 10751 10750 ] final -116.87 input  -60.55 | X-H torsion
[ 11005 11000 10999 10996 ] final -119.62 input  -57.11 | X-H torsion

> <Gold.Protein.ActiveResidues>
 VAL166  LYS551  ARG553  GLY616  TRP617  ASP618  TYR619  PRO620  LYS621  CYS622 
 ASP623  PHE694  ASN695  SER759  ASP760  ASP761  ALA762  ILE779  LEU786  VAL792 
 PHE793  MET794  SER795  GLU796  ALA797  LYS798  CYS799  TRP800  GLU811  SER814 

> <Gold.Protein.RotatedAtoms>
  151.1908  135.0401  159.8831 H   0  0  0  0  0  0  0  0  0  0  0  0  # atno 6907 bound_to 6896
  152.5439  134.0958  159.8306 H   0  0  0  0  0  0  0  0  0  0  0  0  # atno 6908 bound_to 6896
  151.1086  133.5142  159.2639 H   0  0  0  0  0  0  0  0  0  0  0  0  # atno 6909 bound_to 6896
  145.1444  139.3248  143.4599 H   0  0  0  0  0  0  0  0  0  0  0  0  # atno 7974 bound_to 7965
  155.8285  140.3467  155.5558 H   0  0  0  0  0  0  0  0  0  0  0  0  # atno 8008 bound_to 7997
  155.8267  140.0921  157.1837 H   0  0  0  0  0  0  0  0  0  0  0  0  # atno 8009 bound_to 7997
  154.4004  140.1420  156.3552 H   0  0  0  0  0  0  0  0  0  0  0  0  # atno 8010 bound_to 7997
  139.8637  144.6530  150.9029 H   0  0  0  0  0  0  0  0  0  0  0  0  # atno 10167 bound_to 10162
  157.2368  131.0751  151.1818 H   0  0  0  0  0  0  0  0  0  0  0  0  # atno 10718 bound_to 10713
  154.8535  135.4330  154.1890 H   0  0  0  0  0  0  0  0  0  0  0  0  # atno 10763 bound_to 10752
  153.2963  135.6965  153.7251 H   0  0  0  0  0  0  0  0  0  0  0  0  # atno 10764 bound_to 10752
  153.6399  135.3470  155.3042 H   0  0  0  0  0  0  0  0  0  0  0  0  # atno 10765 bound_to 10752
  141.0202  134.0135  157.3293 H   0  0  0  0  0  0  0  0  0  0  0  0  # atno 11005 bound_to 11000
  146.3501  140.1494  142.8593 LP  0  0  0  0  0  0  0  0  0  0  0  0  # atno 17320 bound_to 7965
  145.0497  140.9008  143.5003 LP  0  0  0  0  0  0  0  0  0  0  0  0  # atno 17321 bound_to 7965
  140.7771  143.3722  151.1628 LP  0  0  0  0  0  0  0  0  0  0  0  0  # atno 17342 bound_to 10162
  139.7349  143.9014  152.3032 LP  0  0  0  0  0  0  0  0  0  0  0  0  # atno 17343 bound_to 10162
  157.3420  130.7038  149.6387 LP  0  0  0  0  0  0  0  0  0  0  0  0  # atno 17370 bound_to 10713
  155.9672  130.4277  150.4756 LP  0  0  0  0  0  0  0  0  0  0  0  0  # atno 17371 bound_to 10713
  139.9141  135.0194  156.7812 LP  0  0  0  0  0  0  0  0  0  0  0  0  # atno 17394 bound_to 11000
  140.6586  133.9666  155.7793 LP  0  0  0  0  0  0  0  0  0  0  0  0  # atno 17395 bound_to 11000

$$$$
