AV-unprocessed.smi:3343|AV-procd|sdf|12894|dock6
  -GOLD-   2272019303D 1   1.00000     0.00000
 Structure written by MMmdl.
 41 42  0  0  0  0  0  0  0  0  1 V2000
  146.7737  138.6889  151.7331 C   0  0  0  0  0  0  0  0  0  0  0  0
  146.6804  139.0233  153.2359 C   0  0  1  0  0  0  0  0  0  0  0  0
  146.3624  137.7871  154.0904 C   0  0  0  0  0  0  0  0  0  0  0  0
  145.4422  137.8130  154.9082 O   0  0  0  0  0  0  0  0  0  0  0  0
  147.1373  136.7094  153.8879 N   0  0  0  0  0  0  0  0  0  0  0  0
  147.0312  135.4441  154.6069 C   0  0  0  0  0  0  0  0  0  0  0  0
  147.3512  134.2447  153.6932 C   0  0  0  0  0  0  0  0  0  0  0  0
  146.2653  133.8141  152.8127 N   0  0  0  0  0  0  0  0  0  0  0  0
  145.8878  134.8419  151.8376 C   0  0  0  0  0  0  0  0  0  0  0  0
  144.7349  134.3651  150.9348 C   0  0  0  0  0  0  0  0  0  0  0  0
  145.0916  133.1454  150.2129 N   0  0  0  0  0  0  0  0  0  0  0  0
  144.0054  132.6947  149.3566 C   0  0  0  0  0  0  0  0  0  0  0  0
  145.4752  132.1185  151.1793 C   0  0  0  0  0  0  0  0  0  0  0  0
  146.6269  132.5992  152.0818 C   0  0  0  0  0  0  0  0  0  0  0  0
  147.8807  139.6837  153.7344 N   0  0  0  0  0  0  0  0  0  0  0  0
  149.1383  139.2405  153.7972 C   0  0  0  0  0  0  0  0  0  0  0  0
  150.0009  140.1294  154.2692 N   0  0  0  0  0  0  0  0  0  0  0  0
  149.1529  141.1790  154.4812 C   0  0  0  0  0  0  0  0  0  0  0  0
  147.8748  140.9695  154.1675 N   0  0  0  0  0  0  0  0  0  0  0  0
  145.8458  138.2428  151.3732 H   0  0  0  0  0  0  0  0  0  0  0  0
  147.5810  137.9882  151.5158 H   0  0  0  0  0  0  0  0  0  0  0  0
  146.9519  139.5899  151.1456 H   0  0  0  0  0  0  0  0  0  0  0  0
  145.8562  139.7290  153.3554 H   0  0  0  0  0  0  0  0  0  0  0  0
  147.8701  136.7775  153.1969 H   0  0  0  0  0  0  0  0  0  0  0  0
  147.6434  135.4433  155.5093 H   0  0  0  0  0  0  0  0  0  0  0  0
  146.0011  135.3569  154.9528 H   0  0  0  0  0  0  0  0  0  0  0  0
  148.2318  134.4785  153.0934 H   0  0  0  0  0  0  0  0  0  0  0  0
  147.6435  133.4104  154.3323 H   0  0  0  0  0  0  0  0  0  0  0  0
  145.5730  135.7521  152.3464 H   0  0  0  0  0  0  0  0  0  0  0  0
  146.7487  135.1103  151.2233 H   0  0  0  0  0  0  0  0  0  0  0  0
  143.8437  134.1950  151.5413 H   0  0  0  0  0  0  0  0  0  0  0  0
  144.4831  135.1533  150.2244 H   0  0  0  0  0  0  0  0  0  0  0  0
  144.2936  131.7981  148.8070 H   0  0  0  0  0  0  0  0  0  0  0  0
  143.7457  133.4624  148.6271 H   0  0  0  0  0  0  0  0  0  0  0  0
  143.1131  132.4636  149.9400 H   0  0  0  0  0  0  0  0  0  0  0  0
  144.6172  131.8460  151.7964 H   0  0  0  0  0  0  0  0  0  0  0  0
  145.7818  131.2137  150.6534 H   0  0  0  0  0  0  0  0  0  0  0  0
  147.5177  132.7769  151.4769 H   0  0  0  0  0  0  0  0  0  0  0  0
  146.8815  131.8069  152.7867 H   0  0  0  0  0  0  0  0  0  0  0  0
  149.4298  138.2474  153.4878 H   0  0  0  0  0  0  0  0  0  0  0  0
  149.4883  142.1280  154.8728 H   0  0  0  0  0  0  0  0  0  0  0  0
  1  2  1  0  0  0  0
  1 20  1  0  0  0  0
  1 21  1  0  0  0  0
  1 22  1  0  0  0  0
  2  3  1  0  0  0  0
  2 15  1  0  0  0  0
  2 23  1  0  0  0  0
  3  4  2  0  0  0  0
  3  5  1  0  0  0  0
  5  6  1  0  0  0  0
  5 24  1  0  0  0  0
  6  7  1  0  0  0  0
  6 25  1  0  0  0  0
  6 26  1  0  0  0  0
  7  8  1  0  0  0  0
  7 27  1  0  0  0  0
  7 28  1  0  0  0  0
  8 14  1  0  0  0  0
  8  9  1  0  0  0  0
  9 10  1  0  0  0  0
  9 29  1  0  0  0  0
  9 30  1  0  0  0  0
 10 11  1  0  0  0  0
 10 31  1  0  0  0  0
 10 32  1  0  0  0  0
 11 12  1  0  0  0  0
 11 13  1  0  0  0  0
 12 33  1  0  0  0  0
 12 34  1  0  0  0  0
 12 35  1  0  0  0  0
 13 14  1  0  0  0  0
 13 36  1  0  0  0  0
 13 37  1  0  0  0  0
 14 38  1  0  0  0  0
 14 39  1  0  0  0  0
 15 19  1  0  0  0  0
 15 16  1  0  0  0  0
 16 17  2  0  0  0  0
 16 40  1  0  0  0  0
 17 18  1  0  0  0  0
 18 19  2  0  0  0  0
 18 41  1  0  0  0  0
M  END
> <s_m_source_file>
AV-unprocessed.smi

> <i_m_source_file_index>
3343

> <i_lp_mmshare_version>
43012

> <i_f3d_flags>
0

> <s_epik_input>
bjFbY0hdbltjSF1uMVtDQEhdKFtDSDNdKUMoPU8pW05IXVtDSDJdW0NIMl1OMltDSDJdW0NIMl1OKFtDSDNdKVtDSDJdW0NIMl0y

> <s_epik_cmdline>
J2VwaWtfcHl0aG9uJywgJy1waCcsICc3LjAnLCAnLXRuJywgJzgnLCAnLW1hJywgJzIwMCcsICctbWV0YWxfYmluZGluZycsICctaW1hZScsICc8aW5maWxlLm1hZT4nLCAnLW9tYWUnLCAnPG91dGZpbGUubWFlPic=

> <r_lp_tautomer_probability>
1

> <r_epik_Ionization_Penalty>
1.97295

> <r_epik_Ionization_Penalty_Charging>
0

> <r_epik_Ionization_Penalty_Neutral>
1.97295

> <r_epik_State_Penalty>
1.8027

> <r_epik_Charging_Adjusted_Penalty>
1.8027

> <i_epik_Tot_Q>
0

> <i_epik_Tot_abs_Q>
0

> <r_epik_Metal_State_Penalty>
1.8027

> <b_epik_Metal_Only>
0

> <s_lp_Force_Field>
OPLS_2005

> <r_lp_Energy>
40.9653

> <b_lp_Chiralities_Consistent>
1

> <s_lp_Variant>
AV-unprocessed.smi:3343-4

> <Gold.Version>
5.8.1

> <Gold.Id.Protein>
6NUR|6NUR_protein|mol2

> <Gold.PLP.Fitness>
36.9752

> <Gold.PLP.PLP>
-28.4253

> <Gold.PLP.part.hbond>
-2.0000

> <Gold.PLP.part.metal>
0.0000

> <Gold.PLP.part.buried>
0.2526

> <Gold.PLP.part.nonpolar>
-27.3169

> <Gold.PLP.part.repulsive>
0.5633

> <Gold.PLP.ligand.clash>
0.0000

> <Gold.PLP.ligand.torsion>
0.5849

> <Gold.PLP.Chemscore.Hbond>
1.9760

> <Gold.PLP.Chemscore.CHOScore>
1.2240

> <Gold.PLP.Chemscore.Metal>
0.0000

> <Gold.Chemscore.Hbonds>
donor molecule, donor type, donor heavy atom, donor atom, acceptor molecule, acceptor atom, score
      L1  H     5    24       P1  7948  1.00
      P1  H  7989  7998       L1    17  0.96
      L1  C    16    40       P1  7948  0.82
      L1  C    18    41       P1  8028  0.41

> <Gold.PLP.Chemscore.Internal.Correction>
0.1197

> <Gold.Rescore>
     Score         DG    S(hbond)    S(metal)    S(lipo)     H(rot)  DE(clash)    DE(int)     intcor
      9.67     -10.92       1.62        0.00      56.16       2.56       0.59       0.66       ----

> <Gold.Chemscore.Fitness>
9.6660

> <Gold.Chemscore.DG>
-10.9164

> <Gold.Chemscore.ZeroCoef>
-5.4800

> <Gold.Chemscore.Hbond>
1.6208

> <Gold.Chemscore.Metal>
0.0000

> <Gold.Chemscore.Lipo>
56.1588

> <Gold.Chemscore.Internal_Hbond>
0.0000

> <Gold.Chemscore.DEClash>
0.5942

> <Gold.Chemscore.DEInternal>
0.6562

> <Gold.Chemscore.Rot>
2.5577

> <Gold.Chemscore.Internal.Correction>
   9.000000E+99

> <Gold.Chemscore.Hbonds>
donor molecule, donor type, donor heavy atom, donor atom, acceptor molecule, acceptor atom, score
      L1  H     5    24       P1  7948  0.99
      P1  H  7989  7998       L1    17  0.50

> <Gold.Chemscore.Hbond.Weighted>
-5.4135

> <Gold.Chemscore.Metal.Weighted>
-0.0000

> <Gold.Chemscore.Lipo.Weighted>
-6.5706

> <Gold.Chemscore.Internal_Hbond.Weighted>
0.0000

> <Gold.Chemscore.DEClash.Weighted>
0.5942

> <Gold.Chemscore.DEInternal.Weighted>
0.6562

> <Gold.Chemscore.Rot.Weighted>
6.5477

> <Gold.Chemscore.Internal.Correction.Weighted>
   9.000000E+99

> <Gold.Protein.RotatedTorsions>
[ 6907 6896 6895 6894 ] final -161.12 input  -60.11 | X-H torsion
[ 7974 7965 7964 7962 ] final -146.81 input  175.53 | X-H torsion
[ 8008 7997 7996 7995 ] final   61.27 input   59.86 | X-H torsion
[ 10167 10162 10161 10158 ] final -149.12 input  -65.29 | X-H torsion
[ 10718 10713 10712 10709 ] final  -97.16 input   66.30 | X-H torsion
[ 10763 10752 10751 10750 ] final  105.20 input  -60.55 | X-H torsion
[ 11005 11000 10999 10996 ] final  130.65 input  -57.11 | X-H torsion

> <Gold.Protein.ActiveResidues>
 VAL166  LYS551  ARG553  GLY616  TRP617  ASP618  TYR619  PRO620  LYS621  CYS622 
 ASP623  PHE694  ASN695  SER759  ASP760  ASP761  ALA762  ILE779  LEU786  VAL792 
 PHE793  MET794  SER795  GLU796  ALA797  LYS798  CYS799  TRP800  GLU811  SER814 

> <Gold.Protein.RotatedAtoms>
  151.3597  133.3894  159.2688 H   0  0  0  0  0  0  0  0  0  0  0  0  # atno 6907 bound_to 6896
  150.9736  134.9105  159.7813 H   0  0  0  0  0  0  0  0  0  0  0  0  # atno 6908 bound_to 6896
  152.5193  134.3559  159.9320 H   0  0  0  0  0  0  0  0  0  0  0  0  # atno 6909 bound_to 6896
  144.8134  140.5407  143.5627 H   0  0  0  0  0  0  0  0  0  0  0  0  # atno 7974 bound_to 7965
  155.5956  140.3493  155.4579 H   0  0  0  0  0  0  0  0  0  0  0  0  # atno 8008 bound_to 7997
  156.0267  140.1265  157.0325 H   0  0  0  0  0  0  0  0  0  0  0  0  # atno 8009 bound_to 7997
  154.4336  140.1051  156.6027 H   0  0  0  0  0  0  0  0  0  0  0  0  # atno 8010 bound_to 7997
  139.7471  143.8574  152.2577 H   0  0  0  0  0  0  0  0  0  0  0  0  # atno 10167 bound_to 10162
  156.0077  130.5182  150.6334 H   0  0  0  0  0  0  0  0  0  0  0  0  # atno 10718 bound_to 10713
  153.3761  135.3918  155.1823 H   0  0  0  0  0  0  0  0  0  0  0  0  # atno 10763 bound_to 10752
  154.8701  135.3714  154.4916 H   0  0  0  0  0  0  0  0  0  0  0  0  # atno 10764 bound_to 10752
  153.5388  135.7085  153.5707 H   0  0  0  0  0  0  0  0  0  0  0  0  # atno 10765 bound_to 10752
  139.9684  134.9584  156.9325 H   0  0  0  0  0  0  0  0  0  0  0  0  # atno 11005 bound_to 11000
  145.5270  139.1476  143.3521 LP  0  0  0  0  0  0  0  0  0  0  0  0  # atno 17320 bound_to 7965
  146.2435  140.5411  142.8924 LP  0  0  0  0  0  0  0  0  0  0  0  0  # atno 17321 bound_to 7965
  139.8542  144.7149  150.9177 LP  0  0  0  0  0  0  0  0  0  0  0  0  # atno 17342 bound_to 10162
  140.7793  143.3873  151.1371 LP  0  0  0  0  0  0  0  0  0  0  0  0  # atno 17343 bound_to 10162
  157.4127  131.0826  151.1205 LP  0  0  0  0  0  0  0  0  0  0  0  0  # atno 17370 bound_to 10713
  157.1832  130.6318  149.5679 LP  0  0  0  0  0  0  0  0  0  0  0  0  # atno 17371 bound_to 10713
  140.5346  134.0780  155.7325 LP  0  0  0  0  0  0  0  0  0  0  0  0  # atno 17394 bound_to 11000
  141.1364  133.9214  157.2424 LP  0  0  0  0  0  0  0  0  0  0  0  0  # atno 17395 bound_to 11000

$$$$
