AV-unprocessed.smi:2083|AV-procd|sdf|8509|dock10
  -GOLD-   2272011223D 1   1.00000     0.00000
 Structure written by MMmdl.
 44 45  0  0  0  0  0  0  0  0  3 V2000
  145.8095  134.9553  162.4983 C   0  0  0  0  0  0  0  0  0  0  0  0
  146.6700  135.3561  161.3494 C   0  0  0  0  0  0  0  0  0  0  0  0
  147.0224  136.5705  160.8318 C   0  0  0  0  0  0  0  0  0  0  0  0
  147.8688  136.2233  159.7452 C   0  0  0  0  0  0  0  0  0  0  0  0
  148.4571  137.2306  158.9359 N   0  0  0  0  0  0  0  0  0  0  0  0
  149.4884  137.1268  158.0780 C   0  0  0  0  0  0  0  0  0  0  0  0
  150.0478  136.0378  157.9012 O   0  0  0  0  0  0  0  0  0  0  0  0
  149.7850  138.3147  157.4816 N   0  5  0  0  0  0  0  0  0  0  0  0
  149.9307  139.5896  158.1861 C   0  0  0  0  0  0  0  0  0  0  0  0
  151.4282  139.9353  158.4155 C   0  0  1  0  0  0  0  0  0  0  0  0
  152.3801  139.4051  157.3137 C   0  0  0  0  0  0  0  0  0  0  0  0
  151.5951  141.4000  158.6724 N   0  3  2  0  0  0  0  0  0  0  0  0
  151.2678  142.3103  157.5353 C   0  0  0  0  0  0  0  0  0  0  0  0
  151.2221  143.7723  158.0040 C   0  0  0  0  0  0  0  0  0  0  0  0
  152.5491  144.1769  158.6619 C   0  0  0  0  0  0  0  0  0  0  0  0
  152.9369  143.2010  159.7888 C   0  0  1  0  0  0  0  0  0  0  0  0
  152.0856  143.3887  161.0570 C   0  0  0  0  0  0  0  0  0  0  0  0
  152.9089  141.7436  159.2822 C   0  0  0  0  0  0  0  0  0  0  0  0
  148.0174  134.9134  159.6115 N   0  0  0  0  0  0  0  0  0  0  0  0
  147.2508  134.3515  160.6391 O   0  0  0  0  0  0  0  0  0  0  0  0
  145.1006  135.7453  162.7466 H   0  0  0  0  0  0  0  0  0  0  0  0
  146.4159  134.7544  163.3814 H   0  0  0  0  0  0  0  0  0  0  0  0
  145.2421  134.0544  162.2643 H   0  0  0  0  0  0  0  0  0  0  0  0
  146.7242  137.5492  161.1774 H   0  0  0  0  0  0  0  0  0  0  0  0
  148.0523  138.1510  159.0232 H   0  0  0  0  0  0  0  0  0  0  0  0
  149.4601  140.4029  157.6336 H   0  0  0  0  0  0  0  0  0  0  0  0
  149.4211  139.5724  159.1509 H   0  0  0  0  0  0  0  0  0  0  0  0
  151.7110  139.4257  159.3378 H   0  0  0  0  0  0  0  0  0  0  0  0
  152.3587  138.3156  157.2503 H   0  0  0  0  0  0  0  0  0  0  0  0
  153.4127  139.6810  157.5278 H   0  0  0  0  0  0  0  0  0  0  0  0
  152.1368  139.7911  156.3224 H   0  0  0  0  0  0  0  0  0  0  0  0
  152.0128  142.2053  156.7456 H   0  0  0  0  0  0  0  0  0  0  0  0
  150.3041  142.0500  157.0972 H   0  0  0  0  0  0  0  0  0  0  0  0
  151.0148  144.4268  157.1569 H   0  0  0  0  0  0  0  0  0  0  0  0
  150.3982  143.9094  158.7049 H   0  0  0  0  0  0  0  0  0  0  0  0
  153.3340  144.1803  157.9044 H   0  0  0  0  0  0  0  0  0  0  0  0
  152.4885  145.1972  159.0423 H   0  0  0  0  0  0  0  0  0  0  0  0
  153.9651  143.4274  160.0739 H   0  0  0  0  0  0  0  0  0  0  0  0
  151.0350  143.1567  160.8817 H   0  0  0  0  0  0  0  0  0  0  0  0
  152.1428  144.4155  161.4190 H   0  0  0  0  0  0  0  0  0  0  0  0
  152.4343  142.7396  161.8608 H   0  0  0  0  0  0  0  0  0  0  0  0
  153.1293  141.0745  160.1149 H   0  0  0  0  0  0  0  0  0  0  0  0
  153.6960  141.5899  158.5425 H   0  0  0  0  0  0  0  0  0  0  0  0
  150.9161  141.6020  159.3927 H   0  0  0  0  0  0  0  0  0  0  0  0
  1  2  1  0  0  0  0
  1 21  1  0  0  0  0
  1 22  1  0  0  0  0
  1 23  1  0  0  0  0
  2 20  1  0  0  0  0
  2  3  2  0  0  0  0
  3  4  1  0  0  0  0
  3 24  1  0  0  0  0
  4  5  1  0  0  0  0
  4 19  2  0  0  0  0
  5  6  1  0  0  0  0
  5 25  1  0  0  0  0
  6  7  2  0  0  0  0
  6  8  1  0  0  0  0
  8  9  1  0  0  0  0
  9 10  1  0  0  0  0
  9 26  1  0  0  0  0
  9 27  1  0  0  0  0
 10 11  1  0  0  0  0
 10 12  1  0  0  0  0
 10 28  1  0  0  0  0
 11 29  1  0  0  0  0
 11 30  1  0  0  0  0
 11 31  1  0  0  0  0
 12 18  1  0  0  0  0
 12 13  1  0  0  0  0
 12 44  1  0  0  0  0
 13 14  1  0  0  0  0
 13 32  1  0  0  0  0
 13 33  1  0  0  0  0
 14 15  1  0  0  0  0
 14 34  1  0  0  0  0
 14 35  1  0  0  0  0
 15 16  1  0  0  0  0
 15 36  1  0  0  0  0
 15 37  1  0  0  0  0
 16 17  1  0  0  0  0
 16 18  1  0  0  0  0
 16 38  1  0  0  0  0
 17 39  1  0  0  0  0
 17 40  1  0  0  0  0
 17 41  1  0  0  0  0
 18 42  1  0  0  0  0
 18 43  1  0  0  0  0
 19 20  1  0  0  0  0
M  CHG  1   8  -1
M  CHG  1  12   1
M  END
> <s_m_source_file>
AV-unprocessed.smi

> <i_m_source_file_index>
2083

> <i_lp_mmshare_version>
43012

> <i_f3d_flags>
0

> <s_epik_input>
W0NIM11jMVtjSF1jKG5vMSlbTkhdQyg9TylbTkhdW0NIMl1bQ0BIXShbQ0gzXSlOMltDSDJdW0NIMl1bQ0gyXVtDQEBIXShbQ0gzXSlbQ0gyXTI=

> <s_epik_cmdline>
J2VwaWtfcHl0aG9uJywgJy1waCcsICc3LjAnLCAnLXRuJywgJzgnLCAnLW1hJywgJzIwMCcsICctbWV0YWxfYmluZGluZycsICctaW1hZScsICc8aW5maWxlLm1hZT4nLCAnLW9tYWUnLCAnPG91dGZpbGUubWFlPic=

> <r_epik_Ionization_Penalty>
6.76934

> <r_epik_Ionization_Penalty_Charging>
6.76934

> <r_epik_Ionization_Penalty_Neutral>
5.77849e-06

> <r_epik_State_Penalty>
6.79457

> <r_epik_Charging_Adjusted_Penalty>
13.5639

> <i_epik_Tot_Q>
0

> <i_epik_Tot_abs_Q>
2

> <r_epik_Metal_State_Penalty>
2.72837

> <b_epik_Metal_Only>
1

> <s_lp_Force_Field>
OPLS_2005

> <r_lp_Energy>
19.7061

> <b_lp_Chiralities_Consistent>
1

> <s_lp_Variant>
AV-unprocessed.smi:2083-20

> <Gold.Version>
5.8.1

> <Gold.Id.Protein>
6NUR|6NUR_protein|mol2

> <Gold.PLP.Fitness>
38.4391

> <Gold.PLP.PLP>
-37.8852

> <Gold.PLP.part.hbond>
-1.7264

> <Gold.PLP.part.metal>
0.0000

> <Gold.PLP.part.buried>
-4.0829

> <Gold.PLP.part.nonpolar>
-33.2576

> <Gold.PLP.part.repulsive>
0.3024

> <Gold.PLP.ligand.clash>
0.0000

> <Gold.PLP.ligand.torsion>
0.9660

> <Gold.PLP.Chemscore.Hbond>
0.7771

> <Gold.PLP.Chemscore.CHOScore>
0.0000

> <Gold.PLP.Chemscore.Metal>
0.0000

> <Gold.Chemscore.Hbonds>
donor molecule, donor type, donor heavy atom, donor atom, acceptor molecule, acceptor atom, score
      P1  H  6896  6907       L1     7  0.37

> <Gold.PLP.Chemscore.Internal.Correction>
0.1544

> <Gold.Rescore>
     Score         DG    S(hbond)    S(metal)    S(lipo)     H(rot)  DE(clash)    DE(int)     intcor
     14.59     -16.86       0.92        0.00     104.19       1.52       0.07       2.20       ----

> <Gold.Chemscore.Fitness>
14.5892

> <Gold.Chemscore.DG>
-16.8616

> <Gold.Chemscore.ZeroCoef>
-5.4800

> <Gold.Chemscore.Hbond>
0.9221

> <Gold.Chemscore.Metal>
0.0000

> <Gold.Chemscore.Lipo>
104.1928

> <Gold.Chemscore.Internal_Hbond>
0.0000

> <Gold.Chemscore.DEClash>
0.0727

> <Gold.Chemscore.DEInternal>
2.1996

> <Gold.Chemscore.Rot>
1.5190

> <Gold.Chemscore.Internal.Correction>
   9.000000E+99

> <Gold.Chemscore.Hbonds>
donor molecule, donor type, donor heavy atom, donor atom, acceptor molecule, acceptor atom, score
      P1  H  6896  6907       L1     7  0.35

> <Gold.Chemscore.Hbond.Weighted>
-3.0797

> <Gold.Chemscore.Metal.Weighted>
-0.0000

> <Gold.Chemscore.Lipo.Weighted>
-12.1906

> <Gold.Chemscore.Internal_Hbond.Weighted>
0.0000

> <Gold.Chemscore.DEClash.Weighted>
0.0727

> <Gold.Chemscore.DEInternal.Weighted>
2.1996

> <Gold.Chemscore.Rot.Weighted>
3.8886

> <Gold.Chemscore.Internal.Correction.Weighted>
   9.000000E+99

> <Gold.Protein.RotatedTorsions>
[ 6907 6896 6895 6894 ] final  -55.46 input  -60.11 | X-H torsion
[ 7974 7965 7964 7962 ] final -105.44 input  175.53 | X-H torsion
[ 8008 7997 7996 7995 ] final  154.57 input   59.86 | X-H torsion
[ 10167 10162 10161 10158 ] final  -48.94 input  -65.29 | X-H torsion
[ 10718 10713 10712 10709 ] final    9.37 input   66.30 | X-H torsion
[ 10763 10752 10751 10750 ] final  -52.56 input  -60.55 | X-H torsion
[ 11005 11000 10999 10996 ] final  161.02 input  -57.11 | X-H torsion

> <Gold.Protein.ActiveResidues>
 VAL166  LYS551  ARG553  GLY616  TRP617  ASP618  TYR619  PRO620  LYS621  CYS622 
 ASP623  PHE694  ASN695  SER759  ASP760  ASP761  ALA762  ILE779  LEU786  VAL792 
 PHE793  MET794  SER795  GLU796  ALA797  LYS798  CYS799  TRP800  GLU811  SER814 

> <Gold.Protein.RotatedAtoms>
  150.8250  134.7476  159.6804 H   0  0  0  0  0  0  0  0  0  0  0  0  # atno 6907 bound_to 6896
  152.4361  134.5679  159.9923 H   0  0  0  0  0  0  0  0  0  0  0  0  # atno 6908 bound_to 6896
  151.5854  133.3335  159.3053 H   0  0  0  0  0  0  0  0  0  0  0  0  # atno 6909 bound_to 6896
  145.2304  140.9168  143.3208 H   0  0  0  0  0  0  0  0  0  0  0  0  # atno 7974 bound_to 7965
  156.2524  140.1963  156.6666 H   0  0  0  0  0  0  0  0  0  0  0  0  # atno 8008 bound_to 7997
  154.6424  140.0582  156.9887 H   0  0  0  0  0  0  0  0  0  0  0  0  # atno 8009 bound_to 7997
  155.1542  140.3254  155.4427 H   0  0  0  0  0  0  0  0  0  0  0  0  # atno 8010 bound_to 7997
  140.6708  143.2718  151.4143 H   0  0  0  0  0  0  0  0  0  0  0  0  # atno 10167 bound_to 10162
  156.9654  130.5948  149.5665 H   0  0  0  0  0  0  0  0  0  0  0  0  # atno 10718 bound_to 10713
  154.1446  135.6499  153.4950 H   0  0  0  0  0  0  0  0  0  0  0  0  # atno 10763 bound_to 10752
  153.0155  135.5323  154.6870 H   0  0  0  0  0  0  0  0  0  0  0  0  # atno 10764 bound_to 10752
  154.6141  135.2957  155.0371 H   0  0  0  0  0  0  0  0  0  0  0  0  # atno 10765 bound_to 10752
  140.2117  134.8263  157.3127 H   0  0  0  0  0  0  0  0  0  0  0  0  # atno 11005 bound_to 11000
  144.9681  139.3908  143.6322 LP  0  0  0  0  0  0  0  0  0  0  0  0  # atno 17320 bound_to 7965
  146.3354  139.8766  142.8831 LP  0  0  0  0  0  0  0  0  0  0  0  0  # atno 17321 bound_to 7965
  139.5976  144.1365  152.2161 LP  0  0  0  0  0  0  0  0  0  0  0  0  # atno 17342 bound_to 10162
  140.0739  144.5757  150.7171 LP  0  0  0  0  0  0  0  0  0  0  0  0  # atno 17343 bound_to 10162
  156.0305  130.5396  150.8521 LP  0  0  0  0  0  0  0  0  0  0  0  0  # atno 17370 bound_to 10713
  157.5629  131.0946  150.9532 LP  0  0  0  0  0  0  0  0  0  0  0  0  # atno 17371 bound_to 10713
  140.1944  134.4332  155.7697 LP  0  0  0  0  0  0  0  0  0  0  0  0  # atno 17394 bound_to 11000
  141.2226  133.7042  156.8081 LP  0  0  0  0  0  0  0  0  0  0  0  0  # atno 17395 bound_to 11000

$$$$
