AV-unprocessed.smi:2280|AV-procd|sdf|9191|dock9
  -GOLD-   2272012403D 1   1.00000     0.00000
 Structure written by MMmdl.
 41 42  0  0  0  0  0  0  0  0  1 V2000
  151.9353  140.5296  156.4947 C   0  0  0  0  0  0  0  0  0  0  0  0
  150.5967  140.5978  155.7812 C   0  0  0  0  0  0  0  0  0  0  0  0
  150.5108  139.8761  154.5870 N   0  0  0  0  0  0  0  0  0  0  0  0
  149.4115  139.8842  153.9064 C   0  0  0  0  0  0  0  0  0  0  0  0
  148.2858  140.6078  154.3321 N   0  0  0  0  0  0  0  0  0  0  0  0
  147.1008  140.5399  153.4616 C   0  0  0  0  0  0  0  0  0  0  0  0
  146.9492  139.1554  152.7920 C   0  0  2  0  0  0  0  0  0  0  0  0
  146.1861  139.2636  151.6073 O   0  0  0  0  0  0  0  0  0  0  0  0
  146.2594  138.1204  153.6961 C   0  0  0  0  0  0  0  0  0  0  0  0
  145.7287  137.0705  152.8971 O   0  0  0  0  0  0  0  0  0  0  0  0
  144.4392  136.6419  153.1330 C   0  0  0  0  0  0  0  0  0  0  0  0
  143.5635  137.2667  154.0573 C   0  0  0  0  0  0  0  0  0  0  0  0
  142.2588  136.7768  154.2506 C   0  0  0  0  0  0  0  0  0  0  0  0
  141.8121  135.6591  153.5253 C   0  0  0  0  0  0  0  0  0  0  0  0
  142.6719  135.0308  152.6064 C   0  0  0  0  0  0  0  0  0  0  0  0
  143.9844  135.5147  152.4049 C   0  0  0  0  0  0  0  0  0  0  0  0
  144.9126  134.8307  151.4058 C   0  0  0  0  0  0  0  0  0  0  0  0
  144.3073  133.8291  150.7665 F   0  0  0  0  0  0  0  0  0  0  0  0
  145.3273  135.7133  150.4966 F   0  0  0  0  0  0  0  0  0  0  0  0
  145.9749  134.3360  152.0419 F   0  0  0  0  0  0  0  0  0  0  0  0
  148.2768  141.3208  155.4955 C   0  0  0  0  0  0  0  0  0  0  0  0
  147.2735  141.9289  155.8739 O   0  0  0  0  0  0  0  0  0  0  0  0
  149.5372  141.3087  156.2556 C   0  0  0  0  0  0  0  0  0  0  0  0
  149.5731  142.1148  157.5482 C   0  0  0  0  0  0  0  0  0  0  0  0
  152.3694  141.5253  156.5886 H   0  0  0  0  0  0  0  0  0  0  0  0
  152.6448  139.9057  155.9498 H   0  0  0  0  0  0  0  0  0  0  0  0
  151.8154  140.1054  157.4916 H   0  0  0  0  0  0  0  0  0  0  0  0
  149.2901  139.3334  152.9721 H   0  0  0  0  0  0  0  0  0  0  0  0
  146.2162  140.7464  154.0673 H   0  0  0  0  0  0  0  0  0  0  0  0
  147.0982  141.3330  152.7106 H   0  0  0  0  0  0  0  0  0  0  0  0
  147.9266  138.7581  152.5155 H   0  0  0  0  0  0  0  0  0  0  0  0
  145.2875  139.4349  151.8456 H   0  0  0  0  0  0  0  0  0  0  0  0
  146.9583  137.7368  154.4416 H   0  0  0  0  0  0  0  0  0  0  0  0
  145.4425  138.6111  154.2277 H   0  0  0  0  0  0  0  0  0  0  0  0
  143.8692  138.1262  154.6339 H   0  0  0  0  0  0  0  0  0  0  0  0
  141.6001  137.2600  154.9573 H   0  0  0  0  0  0  0  0  0  0  0  0
  140.8104  135.2831  153.6734 H   0  0  0  0  0  0  0  0  0  0  0  0
  142.3106  134.1734  152.0583 H   0  0  0  0  0  0  0  0  0  0  0  0
  148.7978  141.7661  158.2313 H   0  0  0  0  0  0  0  0  0  0  0  0
  149.3902  143.1691  157.3382 H   0  0  0  0  0  0  0  0  0  0  0  0
  150.5251  142.0452  158.0719 H   0  0  0  0  0  0  0  0  0  0  0  0
  1  2  1  0  0  0  0
  1 25  1  0  0  0  0
  1 26  1  0  0  0  0
  1 27  1  0  0  0  0
  2 23  2  0  0  0  0
  2  3  1  0  0  0  0
  3  4  2  0  0  0  0
  4  5  1  0  0  0  0
  4 28  1  0  0  0  0
  5  6  1  0  0  0  0
  5 21  1  0  0  0  0
  6  7  1  0  0  0  0
  6 29  1  0  0  0  0
  6 30  1  0  0  0  0
  7  8  1  0  0  0  0
  7  9  1  0  0  0  0
  7 31  1  0  0  0  0
  8 32  1  0  0  0  0
  9 10  1  0  0  0  0
  9 33  1  0  0  0  0
  9 34  1  0  0  0  0
 10 11  1  0  0  0  0
 11 16  1  0  0  0  0
 11 12  2  0  0  0  0
 12 13  1  0  0  0  0
 12 35  1  0  0  0  0
 13 14  2  0  0  0  0
 13 36  1  0  0  0  0
 14 15  1  0  0  0  0
 14 37  1  0  0  0  0
 15 16  2  0  0  0  0
 15 38  1  0  0  0  0
 16 17  1  0  0  0  0
 17 18  1  0  0  0  0
 17 19  1  0  0  0  0
 17 20  1  0  0  0  0
 21 22  2  0  0  0  0
 21 23  1  0  0  0  0
 23 24  1  0  0  0  0
 24 39  1  0  0  0  0
 24 40  1  0  0  0  0
 24 41  1  0  0  0  0
M  END
> <s_m_source_file>
AV-unprocessed.smi

> <i_m_source_file_index>
2280

> <i_lp_mmshare_version>
43012

> <i_f3d_flags>
0

> <s_epik_input>
W0NIM11jMW5bY0hdbihjKD1PKWMxW0NIM10pW0NIMl1bQ0BIXShbT0hdKVtDSDJdT2MyW2NIXVtjSF1bY0hdW2NIXWMyQyhGKShGKUY=

> <s_epik_cmdline>
J2VwaWtfcHl0aG9uJywgJy1waCcsICc3LjAnLCAnLXRuJywgJzgnLCAnLW1hJywgJzIwMCcsICctbWV0YWxfYmluZGluZycsICctaW1hZScsICc8aW5maWxlLm1hZT4nLCAnLW9tYWUnLCAnPG91dGZpbGUubWFlPic=

> <r_lp_tautomer_probability>
1

> <r_epik_Ionization_Penalty>
3.7476e-05

> <r_epik_Ionization_Penalty_Charging>
8.44705e-08

> <r_epik_Ionization_Penalty_Neutral>
3.73915e-05

> <r_epik_State_Penalty>
-0

> <r_epik_Charging_Adjusted_Penalty>
8.44705e-08

> <i_epik_Tot_Q>
0

> <i_epik_Tot_abs_Q>
0

> <r_epik_Metal_State_Penalty>
-0

> <b_epik_Metal_Only>
0

> <s_lp_Force_Field>
OPLS_2005

> <r_lp_Energy>
25.7706

> <b_lp_Chiralities_Consistent>
1

> <s_lp_Variant>
AV-unprocessed.smi:2280-1

> <Gold.Version>
5.8.1

> <Gold.Id.Protein>
6NUR|6NUR_protein|mol2

> <Gold.PLP.Fitness>
46.5111

> <Gold.PLP.PLP>
-40.0686

> <Gold.PLP.part.hbond>
-3.0000

> <Gold.PLP.part.metal>
0.0000

> <Gold.PLP.part.buried>
-4.6983

> <Gold.PLP.part.nonpolar>
-33.0078

> <Gold.PLP.part.repulsive>
0.4089

> <Gold.PLP.ligand.clash>
0.3884

> <Gold.PLP.ligand.torsion>
1.1973

> <Gold.PLP.Chemscore.Hbond>
2.0000

> <Gold.PLP.Chemscore.CHOScore>
0.9035

> <Gold.PLP.Chemscore.Metal>
0.0000

> <Gold.Chemscore.Hbonds>
donor molecule, donor type, donor heavy atom, donor atom, acceptor molecule, acceptor atom, score
      L1  H     8    32       P1 10175  1.00
      P1  H  7989  7998       L1     3  1.00
      L1  C     4    28       P1  7957  0.78

> <Gold.PLP.Chemscore.Internal.Correction>
0.5150

> <Gold.Rescore>
     Score         DG    S(hbond)    S(metal)    S(lipo)     H(rot)  DE(clash)    DE(int)     intcor
      6.43     -11.01       1.46        0.00      65.31       2.73       0.57       4.02       ----

> <Gold.Chemscore.Fitness>
6.4252

> <Gold.Chemscore.DG>
-11.0142

> <Gold.Chemscore.ZeroCoef>
-5.4800

> <Gold.Chemscore.Hbond>
1.4617

> <Gold.Chemscore.Metal>
0.0000

> <Gold.Chemscore.Lipo>
65.3055

> <Gold.Chemscore.Internal_Hbond>
0.0000

> <Gold.Chemscore.DEClash>
0.5723

> <Gold.Chemscore.DEInternal>
4.0168

> <Gold.Chemscore.Rot>
2.7300

> <Gold.Chemscore.Internal.Correction>
   9.000000E+99

> <Gold.Chemscore.Hbonds>
donor molecule, donor type, donor heavy atom, donor atom, acceptor molecule, acceptor atom, score
      L1  H     8    32       P1 10175  0.87
      P1  H  7989  7998       L1     3  0.09

> <Gold.Chemscore.Hbond.Weighted>
-4.8822

> <Gold.Chemscore.Metal.Weighted>
-0.0000

> <Gold.Chemscore.Lipo.Weighted>
-7.6407

> <Gold.Chemscore.Internal_Hbond.Weighted>
0.0000

> <Gold.Chemscore.DEClash.Weighted>
0.5723

> <Gold.Chemscore.DEInternal.Weighted>
4.0168

> <Gold.Chemscore.Rot.Weighted>
6.9888

> <Gold.Chemscore.Internal.Correction.Weighted>
   9.000000E+99

> <Gold.Protein.RotatedTorsions>
[ 6907 6896 6895 6894 ] final   38.04 input  -60.11 | X-H torsion
[ 7974 7965 7964 7962 ] final  -18.59 input  175.53 | X-H torsion
[ 8008 7997 7996 7995 ] final  154.32 input   59.86 | X-H torsion
[ 10167 10162 10161 10158 ] final   41.40 input  -65.29 | X-H torsion
[ 10718 10713 10712 10709 ] final -111.92 input   66.30 | X-H torsion
[ 10763 10752 10751 10750 ] final  -39.73 input  -60.55 | X-H torsion
[ 11005 11000 10999 10996 ] final -119.86 input  -57.11 | X-H torsion

> <Gold.Protein.ActiveResidues>
 VAL166  LYS551  ARG553  GLY616  TRP617  ASP618  TYR619  PRO620  LYS621  CYS622 
 ASP623  PHE694  ASN695  SER759  ASP760  ASP761  ALA762  ILE779  LEU786  VAL792 
 PHE793  MET794  SER795  GLU796  ALA797  LYS798  CYS799  TRP800  GLU811  SER814 

> <Gold.Protein.RotatedAtoms>
  152.1512  134.8987  160.0547 H   0  0  0  0  0  0  0  0  0  0  0  0  # atno 6907 bound_to 6896
  152.0018  133.3823  159.4193 H   0  0  0  0  0  0  0  0  0  0  0  0  # atno 6908 bound_to 6896
  150.6876  134.3747  159.5051 H   0  0  0  0  0  0  0  0  0  0  0  0  # atno 6909 bound_to 6896
  146.1884  140.3942  142.8467 H   0  0  0  0  0  0  0  0  0  0  0  0  # atno 7974 bound_to 7965
  156.2537  140.1969  156.6628 H   0  0  0  0  0  0  0  0  0  0  0  0  # atno 8008 bound_to 7997
  154.6451  140.0579  156.9916 H   0  0  0  0  0  0  0  0  0  0  0  0  # atno 8009 bound_to 7997
  155.1503  140.3250  155.4435 H   0  0  0  0  0  0  0  0  0  0  0  0  # atno 8010 bound_to 7997
  140.3646  144.2183  150.6136 H   0  0  0  0  0  0  0  0  0  0  0  0  # atno 10167 bound_to 10162
  156.0675  130.5893  150.8439 H   0  0  0  0  0  0  0  0  0  0  0  0  # atno 10718 bound_to 10713
  153.9342  135.6768  153.4745 H   0  0  0  0  0  0  0  0  0  0  0  0  # atno 10763 bound_to 10752
  153.0964  135.4849  154.8784 H   0  0  0  0  0  0  0  0  0  0  0  0  # atno 10764 bound_to 10752
  154.7412  135.3161  154.8683 H   0  0  0  0  0  0  0  0  0  0  0  0  # atno 10765 bound_to 10752
  141.0185  134.0159  157.3315 H   0  0  0  0  0  0  0  0  0  0  0  0  # atno 11005 bound_to 11000
  144.8441  140.6902  143.6210 LP  0  0  0  0  0  0  0  0  0  0  0  0  # atno 17320 bound_to 7965
  145.3867  139.1625  143.4251 LP  0  0  0  0  0  0  0  0  0  0  0  0  # atno 17321 bound_to 7965
  140.5093  143.2295  151.8560 LP  0  0  0  0  0  0  0  0  0  0  0  0  # atno 17342 bound_to 10162
  139.4810  144.4968  151.9112 LP  0  0  0  0  0  0  0  0  0  0  0  0  # atno 17343 bound_to 10162
  157.5726  131.0946  150.9394 LP  0  0  0  0  0  0  0  0  0  0  0  0  # atno 17370 bound_to 10713
  156.9607  130.5454  149.5286 LP  0  0  0  0  0  0  0  0  0  0  0  0  # atno 17371 bound_to 10713
  139.9132  135.0193  156.7775 LP  0  0  0  0  0  0  0  0  0  0  0  0  # atno 17394 bound_to 11000
  140.6613  133.9643  155.7806 LP  0  0  0  0  0  0  0  0  0  0  0  0  # atno 17395 bound_to 11000

$$$$
