AV-unprocessed.smi:1443|AV-procd|sdf|5879|dock6
  -GOLD-   22720 5553D 1   1.00000     0.00000
 Structure written by MMmdl.
 27 28  0  0  0  0  0  0  0  0  1 V2000
  147.7373  122.5608  152.2877 C   0  0  0  0  0  0  0  0  0  0  0  0
  148.0647  124.0475  153.2712 S   0  0  0  0  0  0  0  0  0  0  0  0
  148.2667  125.3670  152.1179 C   0  0  0  0  0  0  0  0  0  0  0  0
  149.0469  125.2062  151.0338 N   0  0  0  0  0  0  0  0  0  0  0  0
  149.0394  126.6439  150.1462 S   0  0  0  0  0  0  0  0  0  0  0  0
  147.9770  127.3887  151.3038 C   0  0  0  0  0  0  0  0  0  0  0  0
  147.5315  128.7352  151.1681 N   0  0  0  0  0  0  0  0  0  0  0  0
  146.3703  129.3302  151.5152 C   0  0  0  0  0  0  0  0  0  0  0  0
  145.4670  128.6899  152.0504 O   0  0  0  0  0  0  0  0  0  0  0  0
  146.2712  130.6405  151.2420 N   0  0  0  0  0  0  0  0  0  0  0  0
  145.1319  131.4627  151.4943 C   0  0  2  0  0  0  0  0  0  0  0  0
  144.5178  132.1720  150.3067 C   0  0  0  0  0  0  0  0  0  0  0  0
  145.2620  132.9676  151.3457 C   0  0  2  0  0  0  0  0  0  0  0  0
  146.5829  133.6324  151.0126 C   0  0  0  0  0  0  0  0  0  0  0  0
  147.6606  126.5552  152.2956 N   0  0  0  0  0  0  0  0  0  0  0  0
  147.5480  121.7109  152.9432 H   0  0  0  0  0  0  0  0  0  0  0  0
  148.5977  122.3273  151.6615 H   0  0  0  0  0  0  0  0  0  0  0  0
  146.8660  122.7061  151.6490 H   0  0  0  0  0  0  0  0  0  0  0  0
  148.2160  129.3609  150.7688 H   0  0  0  0  0  0  0  0  0  0  0  0
  147.0649  131.0873  150.8054 H   0  0  0  0  0  0  0  0  0  0  0  0
  144.4296  131.1162  152.2512 H   0  0  0  0  0  0  0  0  0  0  0  0
  144.9914  132.0382  149.3356 H   0  0  0  0  0  0  0  0  0  0  0  0
  143.4340  132.2658  150.2846 H   0  0  0  0  0  0  0  0  0  0  0  0
  144.6468  133.5561  152.0238 H   0  0  0  0  0  0  0  0  0  0  0  0
  147.1453  133.0456  150.2872 H   0  0  0  0  0  0  0  0  0  0  0  0
  147.1852  133.7393  151.9147 H   0  0  0  0  0  0  0  0  0  0  0  0
  146.4066  134.6226  150.5924 H   0  0  0  0  0  0  0  0  0  0  0  0
  1  2  1  0  0  0  0
  1 16  1  0  0  0  0
  1 17  1  0  0  0  0
  1 18  1  0  0  0  0
  2  3  1  0  0  0  0
  3 15  1  0  0  0  0
  3  4  2  0  0  0  0
  4  5  1  0  0  0  0
  5  6  1  0  0  0  0
  6  7  1  0  0  0  0
  6 15  2  0  0  0  0
  7  8  1  0  0  0  0
  7 19  1  0  0  0  0
  8  9  2  0  0  0  0
  8 10  1  0  0  0  0
 10 11  1  0  0  0  0
 10 20  1  0  0  0  0
 11 13  1  0  0  0  0
 11 12  1  0  0  0  0
 11 21  1  0  0  0  0
 12 13  1  0  0  0  0
 12 22  1  0  0  0  0
 12 23  1  0  0  0  0
 13 14  1  0  0  0  0
 13 24  1  0  0  0  0
 14 25  1  0  0  0  0
 14 26  1  0  0  0  0
 14 27  1  0  0  0  0
M  END
> <s_m_source_file>
AV-unprocessed.smi

> <i_m_source_file_index>
1443

> <i_lp_mmshare_version>
43012

> <i_f3d_flags>
0

> <s_epik_input>
W0NIM11TYzFuc2MobjEpW05IXUMoPU8pW05IXVtDQEBIXTJbQ0gyXVtDQEhdMltDSDNd

> <s_epik_cmdline>
J2VwaWtfcHl0aG9uJywgJy1waCcsICc3LjAnLCAnLXRuJywgJzgnLCAnLW1hJywgJzIwMCcsICctbWV0YWxfYmluZGluZycsICctaW1hZScsICc8aW5maWxlLm1hZT4nLCAnLW9tYWUnLCAnPG91dGZpbGUubWFlPic=

> <r_lp_tautomer_probability>
1

> <r_epik_Ionization_Penalty>
2.74658e-05

> <r_epik_Ionization_Penalty_Charging>
0

> <r_epik_Ionization_Penalty_Neutral>
2.74658e-05

> <r_epik_State_Penalty>
-0

> <r_epik_Charging_Adjusted_Penalty>
0

> <i_epik_Tot_Q>
0

> <i_epik_Tot_abs_Q>
0

> <r_epik_Metal_State_Penalty>
-0

> <b_epik_Metal_Only>
0

> <s_lp_Force_Field>
OPLS_2005

> <r_lp_Energy>
21.2108

> <b_lp_Chiralities_Consistent>
1

> <s_lp_Variant>
AV-unprocessed.smi:1443-3

> <Gold.Version>
5.8.1

> <Gold.Id.Protein>
6NUR|6NUR_protein|mol2

> <Gold.PLP.Fitness>
33.9513

> <Gold.PLP.PLP>
-29.1538

> <Gold.PLP.part.hbond>
-2.0000

> <Gold.PLP.part.metal>
0.0000

> <Gold.PLP.part.buried>
-5.8218

> <Gold.PLP.part.nonpolar>
-20.9033

> <Gold.PLP.part.repulsive>
0.3662

> <Gold.PLP.ligand.clash>
0.0000

> <Gold.PLP.ligand.torsion>
0.4401

> <Gold.PLP.Chemscore.Hbond>
1.8800

> <Gold.PLP.Chemscore.CHOScore>
0.0000

> <Gold.PLP.Chemscore.Metal>
0.0000

> <Gold.Chemscore.Hbonds>
donor molecule, donor type, donor heavy atom, donor atom, acceptor molecule, acceptor atom, score
      L1  H     7    19       P1 10747  1.00
      L1  H    10    20       P1 10747  0.88

> <Gold.PLP.Chemscore.Internal.Correction>
0.0377

> <Gold.Rescore>
     Score         DG    S(hbond)    S(metal)    S(lipo)     H(rot)  DE(clash)    DE(int)     intcor
     11.14     -11.60       1.16        0.00      46.85       1.27       0.05       0.41       ----

> <Gold.Chemscore.Fitness>
11.1406

> <Gold.Chemscore.DG>
-11.5989

> <Gold.Chemscore.ZeroCoef>
-5.4800

> <Gold.Chemscore.Hbond>
1.1642

> <Gold.Chemscore.Metal>
0.0000

> <Gold.Chemscore.Lipo>
46.8502

> <Gold.Chemscore.Internal_Hbond>
0.0000

> <Gold.Chemscore.DEClash>
0.0478

> <Gold.Chemscore.DEInternal>
0.4105

> <Gold.Chemscore.Rot>
1.2699

> <Gold.Chemscore.Internal.Correction>
   9.000000E+99

> <Gold.Chemscore.Hbonds>
donor molecule, donor type, donor heavy atom, donor atom, acceptor molecule, acceptor atom, score
      L1  H     7    19       P1 10747  0.26
      L1  H    10    20       P1 10747  0.84

> <Gold.Chemscore.Hbond.Weighted>
-3.8884

> <Gold.Chemscore.Metal.Weighted>
-0.0000

> <Gold.Chemscore.Lipo.Weighted>
-5.4815

> <Gold.Chemscore.Internal_Hbond.Weighted>
0.0000

> <Gold.Chemscore.DEClash.Weighted>
0.0478

> <Gold.Chemscore.DEInternal.Weighted>
0.4105

> <Gold.Chemscore.Rot.Weighted>
3.2509

> <Gold.Chemscore.Internal.Correction.Weighted>
   9.000000E+99

> <Gold.Protein.RotatedTorsions>
[ 6907 6896 6895 6894 ] final   22.31 input  -60.11 | X-H torsion
[ 7974 7965 7964 7962 ] final   87.64 input  175.53 | X-H torsion
[ 8008 7997 7996 7995 ] final  -16.09 input   59.86 | X-H torsion
[ 10167 10162 10161 10158 ] final -174.05 input  -65.29 | X-H torsion
[ 10718 10713 10712 10709 ] final -148.00 input   66.30 | X-H torsion
[ 10763 10752 10751 10750 ] final   30.62 input  -60.55 | X-H torsion
[ 11005 11000 10999 10996 ] final  -23.39 input  -57.11 | X-H torsion

> <Gold.Protein.ActiveResidues>
 VAL166  LYS551  ARG553  GLY616  TRP617  ASP618  TYR619  PRO620  LYS621  CYS622 
 ASP623  PHE694  ASN695  SER759  ASP760  ASP761  ALA762  ILE779  LEU786  VAL792 
 PHE793  MET794  SER795  GLU796  ALA797  LYS798  CYS799  TRP800  GLU811  SER814 

> <Gold.Protein.RotatedAtoms>
  151.9251  135.0281  160.0524 H   0  0  0  0  0  0  0  0  0  0  0  0  # atno 6907 bound_to 6896
  152.2166  133.4947  159.5148 H   0  0  0  0  0  0  0  0  0  0  0  0  # atno 6908 bound_to 6896
  150.6989  134.1314  159.4114 H   0  0  0  0  0  0  0  0  0  0  0  0  # atno 6909 bound_to 6896
  145.5563  139.2300  143.2484 H   0  0  0  0  0  0  0  0  0  0  0  0  # atno 7974 bound_to 7965
  154.5079  140.2179  155.9213 H   0  0  0  0  0  0  0  0  0  0  0  0  # atno 8008 bound_to 7997
  156.1517  140.3160  155.8625 H   0  0  0  0  0  0  0  0  0  0  0  0  # atno 8009 bound_to 7997
  155.3926  140.0479  157.3031 H   0  0  0  0  0  0  0  0  0  0  0  0  # atno 8010 bound_to 7997
  139.5655  144.1767  152.1305 H   0  0  0  0  0  0  0  0  0  0  0  0  # atno 10167 bound_to 10162
  156.4147  130.7999  151.2218 H   0  0  0  0  0  0  0  0  0  0  0  0  # atno 10718 bound_to 10713
  153.0361  135.6459  154.1073 H   0  0  0  0  0  0  0  0  0  0  0  0  # atno 10763 bound_to 10752
  154.0788  135.2875  155.3296 H   0  0  0  0  0  0  0  0  0  0  0  0  # atno 10764 bound_to 10752
  154.6544  135.5414  153.8005 H   0  0  0  0  0  0  0  0  0  0  0  0  # atno 10765 bound_to 10752
  140.8747  133.7696  156.0229 H   0  0  0  0  0  0  0  0  0  0  0  0  # atno 11005 bound_to 11000
  146.1882  140.6387  142.9158 LP  0  0  0  0  0  0  0  0  0  0  0  0  # atno 17320 bound_to 7965
  144.7505  140.5178  143.6805 LP  0  0  0  0  0  0  0  0  0  0  0  0  # atno 17321 bound_to 7965
  140.1289  144.5306  150.6815 LP  0  0  0  0  0  0  0  0  0  0  0  0  # atno 17342 bound_to 10162
  140.6938  143.2391  151.5058 LP  0  0  0  0  0  0  0  0  0  0  0  0  # atno 17343 bound_to 10162
  157.7507  131.0247  150.3886 LP  0  0  0  0  0  0  0  0  0  0  0  0  # atno 17370 bound_to 10713
  156.4191  130.3949  149.6837 LP  0  0  0  0  0  0  0  0  0  0  0  0  # atno 17371 bound_to 10713
  140.8532  134.2929  157.5266 LP  0  0  0  0  0  0  0  0  0  0  0  0  # atno 17394 bound_to 11000
  139.8714  134.9479  156.3980 LP  0  0  0  0  0  0  0  0  0  0  0  0  # atno 17395 bound_to 11000

$$$$
