#       Name:                AV-unprocessed.smi:1740
#       Creating user name   scv26
#       Creation time:       Fri Mar 27 08:22:43 2020


#       File generated by GOLD software.
#

@<TRIPOS>MOLECULE
AV-unprocessed.smi:1740
    58    60     1
SMALL
NO_CHARGES


@<TRIPOS>ATOM
      1 ****        -5.9051  -3.8526  -0.6413 N.pl3          1 S1                -1.0000
      2 ****        -6.4589  -2.6420  -0.8555 C.2            1 S1                 0.0000
      3 ****        -7.2544  -2.3199  -1.7348 O.2            1 S1                 0.0000
      4 ****        -5.9878  -1.5971   0.1619 C.3            1 S1                 0.0000
      5 ****        -4.5241  -1.3725   0.0455 N.4            1 S1                 1.0000
      6 ****        -3.9211  -0.8841   1.3111 C.3            1 S1                 0.0000
      7 ****        -2.3885  -0.8101   1.2031 C.3            1 S1                 0.0000
      8 ****        -1.9540   0.0727   0.0218 C.3            1 S1                 0.0000
      9 ****        -0.4999   0.0483  -0.1083 N.am           1 S1                 0.0000
     10 ****         0.2373   0.9937  -0.7085 C.2            1 S1                 0.0000
     11 ****        -0.2393   2.0159  -1.2017 O.2            1 S1                 0.0000
     12 ****         1.5437   0.6807  -0.6818 N.am           1 S1                 0.0000
     13 ****         2.6397   1.4159  -1.2177 C.ar           1 S1                 0.0000
     14 ****         2.5001   2.2293  -2.3693 C.ar           1 S1                 0.0000
     15 ****         3.6293   2.8785  -2.8974 C.ar           1 S1                 0.0000
     16 ****         4.8673   2.6787  -2.2647 C.ar           1 S1                 0.0000
     17 ****         5.0202   1.8976  -1.1772 N.ar           1 S1                 0.0000
     18 ****         3.9375   1.2767  -0.6474 C.ar           1 S1                 0.0000
     19 ****         4.1528   0.4860   0.5041 N.3            1 S1                 0.0000
     20 ****         3.4044   0.8303   1.7096 C.3            1 S1                 0.0000
     21 ****         4.3544   0.6005   2.8896 C.3            1 S1                 0.0000
     22 ****         5.3913  -0.3700   2.3332 C.3            1 S1                 0.0000
     23 ****         5.5023   0.0748   0.8778 C.3            1 S1                 0.0000
     24 ****        -2.6257  -0.4291  -1.2699 C.3            1 S1                 0.0000
     25 ****        -4.1521  -0.5111  -1.1084 C.3            1 S1                 0.0000
     26 ****        -6.1625  -4.6282  -1.2636 H              1 S1                 0.0000
     27 ****        -6.5293  -0.6588   0.0308 H              1 S1                 0.0000
     28 ****        -6.2396  -1.9648   1.1581 H              1 S1                 0.0000
     29 ****        -4.3318   0.0966   1.5566 H              1 S1                 0.0000
     30 ****        -4.1890  -1.5551   2.1282 H              1 S1                 0.0000
     31 ****        -1.9726  -0.4218   2.1336 H              1 S1                 0.0000
     32 ****        -1.9871  -1.8175   1.0816 H              1 S1                 0.0000
     33 ****        -2.2798   1.0958   0.2204 H              1 S1                 0.0000
     34 ****        -0.0214  -0.7541   0.2744 H              1 S1                 0.0000
     35 ****         1.7952  -0.1417  -0.1530 H              1 S1                 0.0000
     36 ****         1.5523   2.3480  -2.8713 H              1 S1                 0.0000
     37 ****         3.5497   3.5041  -3.7741 H              1 S1                 0.0000
     38 ****         5.7600   3.1531  -2.6444 H              1 S1                 0.0000
     39 ****         3.0370   1.8575   1.6882 H              1 S1                 0.0000
     40 ****         2.5440   0.1655   1.7902 H              1 S1                 0.0000
     41 ****         4.8411   1.5394   3.1571 H              1 S1                 0.0000
     42 ****         3.8458   0.2207   3.7760 H              1 S1                 0.0000
     43 ****         6.3428  -0.3322   2.8639 H              1 S1                 0.0000
     44 ****         5.0118  -1.3916   2.3844 H              1 S1                 0.0000
     45 ****         5.8648  -0.7280   0.2353 H              1 S1                 0.0000
     46 ****         6.1992   0.9109   0.8086 H              1 S1                 0.0000
     47 ****        -2.3824   0.2308  -2.1034 H              1 S1                 0.0000
     48 ****        -2.2369  -1.4142  -1.5327 H              1 S1                 0.0000
     49 ****        -4.5861  -0.9046  -2.0280 H              1 S1                 0.0000
     50 ****        -4.5674   0.4877  -0.9664 H              1 S1                 0.0000
     51 ****        -4.1297  -2.2872  -0.1262 H              1 S1                 0.0000
     52 ****        -5.2574  -3.9924   0.1077 LP             1 S1                 0.0000
     53 ****        -7.5642  -2.9978  -2.4014 LP             1 S1                 0.0000
     54 ****        -7.5919  -1.3799  -1.7837 LP             1 S1                 0.0000
     55 ****        -1.2259   2.1748  -1.1667 LP             1 S1                 0.0000
     56 ****         0.3602   2.6873  -1.6372 LP             1 S1                 0.0000
     57 ****         5.9234   1.7771  -0.7650 LP             1 S1                 0.0000
     58 ****         3.7433  -0.3235   0.0833 LP             1 S1                 0.0000
@<TRIPOS>BOND
    1    1    2 1     
    2    1   26 1     
    3    2    3 2     
    4    2    4 1     
    5    4    5 1     
    6    4   27 1     
    7    4   28 1     
    8    5   25 1     
    9    5    6 1     
   10    5   51 1     
   11    6    7 1     
   12    6   29 1     
   13    6   30 1     
   14    7    8 1     
   15    7   31 1     
   16    7   32 1     
   17    8    9 1     
   18    8   24 1     
   19    8   33 1     
   20    9   10 am    
   21    9   34 1     
   22   10   11 2     
   23   10   12 am    
   24   12   13 1     
   25   12   35 1     
   26   13   18 ar    
   27   13   14 ar    
   28   14   15 ar    
   29   14   36 1     
   30   15   16 ar    
   31   15   37 1     
   32   16   17 ar    
   33   16   38 1     
   34   17   18 ar    
   35   18   19 1     
   36   19   23 1     
   37   19   20 1     
   38   20   21 1     
   39   20   39 1     
   40   20   40 1     
   41   21   22 1     
   42   21   41 1     
   43   21   42 1     
   44   22   23 1     
   45   22   43 1     
   46   22   44 1     
   47   23   45 1     
   48   23   46 1     
   49   24   25 1     
   50   24   47 1     
   51   24   48 1     
   52   25   49 1     
   53   25   50 1     
   54    1   52 1     
   55    3   53 1     
   56    3   54 1     
   57   11   55 1     
   58   11   56 1     
   59   17   57 1     
   60   19   58 1     
@<TRIPOS>SUBSTRUCTURE
      1 S1             1
@<TRIPOS>SET
LONE_PAIRS      STATIC     ATOMS    <user>   **** ""
7 52 53 54 55 56 57 58
DONOR_HYDROGENS      STATIC     ATOMS    <user>   **** ""
4 26 51 34 35
ATOM$BLUE        STATIC     ATOMS    COLORGROUP SYSTEM
7 52 53 54 55 56 57 58
ATOM$RED        STATIC     ATOMS    COLORGROUP SYSTEM
4 26 51 34 35
