AV-unprocessed.smi:1920|AV-procd|sdf|7779|dock3
  -GOLD-   22720 9523D 1   1.00000     0.00000
 Structure written by MMmdl.
 37 38  0  0  0  0  0  0  0  0  2 V2000
  150.6269  138.5574  154.2471 C   0  0  0  0  0  0  0  0  0  0  0  0
  149.7829  139.5695  155.0444 C   0  0  2  0  0  0  0  0  0  0  0  0
  149.4936  140.8654  154.2618 C   0  0  0  0  0  0  0  0  0  0  0  0
  148.0649  141.1904  154.2039 N   0  0  0  0  0  0  0  0  0  0  0  0
  147.3858  142.0777  154.9988 C   0  0  0  0  0  0  0  0  0  0  0  0
  146.0797  142.0553  154.5823 C   0  0  0  0  0  0  0  0  0  0  0  0
  146.0175  141.1586  153.5493 N   0  3  0  0  0  0  0  0  0  0  0  0
  147.2263  140.6358  153.3186 C   0  0  0  0  0  0  0  0  0  0  0  0
  150.4502  139.9086  156.2979 N   0  0  0  0  0  0  0  0  0  0  0  0
  151.7284  140.3010  156.4167 C   0  0  0  0  0  0  0  0  0  0  0  0
  152.4919  140.4182  155.4583 O   0  0  0  0  0  0  0  0  0  0  0  0
  152.2200  140.6068  157.8356 C   0  0  0  0  0  0  0  0  0  0  0  0
  151.5745  141.8656  158.4552 C   0  0  1  0  0  0  0  0  0  0  0  0
  152.4430  142.5486  159.4846 C   0  0  0  0  0  0  0  0  0  0  0  0
  152.6321  143.8398  159.2229 C   0  0  0  0  0  0  0  0  0  0  0  0
  151.9329  144.2816  157.9675 C   0  0  0  0  0  0  0  0  0  0  0  0
  151.3014  142.9835  157.4162 C   0  0  0  0  0  0  0  0  0  0  0  0
  150.1136  138.2347  153.3411 H   0  0  0  0  0  0  0  0  0  0  0  0
  150.8304  137.6616  154.8349 H   0  0  0  0  0  0  0  0  0  0  0  0
  151.5858  138.9856  153.9531 H   0  0  0  0  0  0  0  0  0  0  0  0
  148.8242  139.1033  155.2788 H   0  0  0  0  0  0  0  0  0  0  0  0
  150.0000  141.7122  154.7272 H   0  0  0  0  0  0  0  0  0  0  0  0
  149.8723  140.7923  153.2408 H   0  0  0  0  0  0  0  0  0  0  0  0
  147.8699  142.6428  155.7823 H   0  0  0  0  0  0  0  0  0  0  0  0
  145.2134  142.5966  154.9341 H   0  0  0  0  0  0  0  0  0  0  0  0
  147.4737  139.9062  152.5680 H   0  0  0  0  0  0  0  0  0  0  0  0
  149.8990  139.8413  157.1414 H   0  0  0  0  0  0  0  0  0  0  0  0
  152.0374  139.7448  158.4797 H   0  0  0  0  0  0  0  0  0  0  0  0
  153.3023  140.7348  157.7944 H   0  0  0  0  0  0  0  0  0  0  0  0
  150.6380  141.5958  158.9459 H   0  0  0  0  0  0  0  0  0  0  0  0
  152.8418  142.0273  160.3427 H   0  0  0  0  0  0  0  0  0  0  0  0
  153.2078  144.5212  159.8318 H   0  0  0  0  0  0  0  0  0  0  0  0
  151.1764  145.0300  158.2055 H   0  0  0  0  0  0  0  0  0  0  0  0
  152.6452  144.7160  157.2653 H   0  0  0  0  0  0  0  0  0  0  0  0
  151.7480  142.7393  156.4514 H   0  0  0  0  0  0  0  0  0  0  0  0
  150.2313  143.1080  157.2469 H   0  0  0  0  0  0  0  0  0  0  0  0
  145.1791  140.9238  153.0326 H   0  0  0  0  0  0  0  0  0  0  0  0
  1  2  1  0  0  0  0
  1 18  1  0  0  0  0
  1 19  1  0  0  0  0
  1 20  1  0  0  0  0
  2  3  1  0  0  0  0
  2  9  1  0  0  0  0
  2 21  1  0  0  0  0
  3  4  1  0  0  0  0
  3 22  1  0  0  0  0
  3 23  1  0  0  0  0
  4  8  1  0  0  0  0
  4  5  1  0  0  0  0
  5  6  2  0  0  0  0
  5 24  1  0  0  0  0
  6  7  1  0  0  0  0
  6 25  1  0  0  0  0
  7  8  2  0  0  0  0
  7 37  1  0  0  0  0
  8 26  1  0  0  0  0
  9 10  1  0  0  0  0
  9 27  1  0  0  0  0
 10 11  2  0  0  0  0
 10 12  1  0  0  0  0
 12 13  1  0  0  0  0
 12 28  1  0  0  0  0
 12 29  1  0  0  0  0
 13 17  1  0  0  0  0
 13 14  1  0  0  0  0
 13 30  1  0  0  0  0
 14 15  2  0  0  0  0
 14 31  1  0  0  0  0
 15 16  1  0  0  0  0
 15 32  1  0  0  0  0
 16 17  1  0  0  0  0
 16 33  1  0  0  0  0
 16 34  1  0  0  0  0
 17 35  1  0  0  0  0
 17 36  1  0  0  0  0
M  CHG  1   7   1
M  END
> <s_m_source_file>
AV-unprocessed.smi

> <i_m_source_file_index>
1920

> <i_lp_mmshare_version>
43012

> <i_f3d_flags>
0

> <s_epik_input>
W2NIXTFuW2NIXVtjSF1uMVtDSDJdW0NAQEhdKFtDSDNdKVtOSF1DKD1PKVtDSDJdW0NAQEhdMltDSF09W0NIXVtDSDJdW0NIMl0y

> <s_epik_cmdline>
J2VwaWtfcHl0aG9uJywgJy1waCcsICc3LjAnLCAnLXRuJywgJzgnLCAnLW1hJywgJzIwMCcsICctbWV0YWxfYmluZGluZycsICctaW1hZScsICc8aW5maWxlLm1hZT4nLCAnLW9tYWUnLCAnPG91dGZpbGUubWFlPic=

> <r_lp_tautomer_probability>
1

> <r_epik_Ionization_Penalty>
0.24816

> <r_epik_Ionization_Penalty_Charging>
0

> <r_epik_Ionization_Penalty_Neutral>
0.24816

> <r_epik_State_Penalty>
0.2394

> <r_epik_Charging_Adjusted_Penalty>
0.2394

> <i_epik_Tot_Q>
1

> <i_epik_Tot_abs_Q>
1

> <r_epik_Metal_State_Penalty>
0.531457

> <b_epik_Metal_Only>
0

> <s_lp_Force_Field>
OPLS_2005

> <r_lp_Energy>
20.8449

> <b_lp_Chiralities_Consistent>
1

> <s_lp_Variant>
AV-unprocessed.smi:1920-3

> <Gold.Version>
5.8.1

> <Gold.Id.Protein>
6NUR|6NUR_protein|mol2

> <Gold.PLP.Fitness>
49.6495

> <Gold.PLP.PLP>
-37.4265

> <Gold.PLP.part.hbond>
-3.0000

> <Gold.PLP.part.metal>
0.0000

> <Gold.PLP.part.buried>
3.0803

> <Gold.PLP.part.nonpolar>
-37.6898

> <Gold.PLP.part.repulsive>
0.0548

> <Gold.PLP.ligand.clash>
0.0000

> <Gold.PLP.ligand.torsion>
1.5167

> <Gold.PLP.Chemscore.Hbond>
3.2298

> <Gold.PLP.Chemscore.CHOScore>
1.8298

> <Gold.PLP.Chemscore.Metal>
0.0000

> <Gold.Chemscore.Hbonds>
donor molecule, donor type, donor heavy atom, donor atom, acceptor molecule, acceptor atom, score
      L1  H     7    37       P1 10175  2.00
      P1  H  7989  7998       L1    11  0.33
      P1  H  7997  8008       L1    11  0.90
      L1  C     5    24       P1  8028  0.96
      L1  C     8    26       P1  7957  0.84

> <Gold.PLP.Chemscore.Internal.Correction>
0.0775

> <Gold.Rescore>
     Score         DG    S(hbond)    S(metal)    S(lipo)     H(rot)  DE(clash)    DE(int)     intcor
     14.85     -18.51       2.02        0.00      97.64       2.01       0.99       2.67       ----

> <Gold.Chemscore.Fitness>
14.8483

> <Gold.Chemscore.DG>
-18.5068

> <Gold.Chemscore.ZeroCoef>
-5.4800

> <Gold.Chemscore.Hbond>
2.0228

> <Gold.Chemscore.Metal>
0.0000

> <Gold.Chemscore.Lipo>
97.6401

> <Gold.Chemscore.Internal_Hbond>
0.0000

> <Gold.Chemscore.DEClash>
0.9886

> <Gold.Chemscore.DEInternal>
2.6698

> <Gold.Chemscore.Rot>
2.0130

> <Gold.Chemscore.Internal.Correction>
   9.000000E+99

> <Gold.Chemscore.Hbonds>
donor molecule, donor type, donor heavy atom, donor atom, acceptor molecule, acceptor atom, score
      L1  H     7    37       P1 10175  0.40
      P1  H  7989  7998       L1    11  0.31
      P1  H  7997  8008       L1    11  0.37

> <Gold.Chemscore.Hbond.Weighted>
-6.7561

> <Gold.Chemscore.Metal.Weighted>
-0.0000

> <Gold.Chemscore.Lipo.Weighted>
-11.4239

> <Gold.Chemscore.Internal_Hbond.Weighted>
0.0000

> <Gold.Chemscore.DEClash.Weighted>
0.9886

> <Gold.Chemscore.DEInternal.Weighted>
2.6698

> <Gold.Chemscore.Rot.Weighted>
5.1533

> <Gold.Chemscore.Internal.Correction.Weighted>
   9.000000E+99

> <Gold.Protein.RotatedTorsions>
[ 6907 6896 6895 6894 ] final -149.33 input  -60.11 | X-H torsion
[ 7974 7965 7964 7962 ] final -156.38 input  175.53 | X-H torsion
[ 8008 7997 7996 7995 ] final  -41.00 input   59.86 | X-H torsion
[ 10167 10162 10161 10158 ] final -153.71 input  -65.29 | X-H torsion
[ 10718 10713 10712 10709 ] final -102.01 input   66.30 | X-H torsion
[ 10763 10752 10751 10750 ] final   37.49 input  -60.55 | X-H torsion
[ 11005 11000 10999 10996 ] final  -16.36 input  -57.11 | X-H torsion

> <Gold.Protein.ActiveResidues>
 VAL166  LYS551  ARG553  GLY616  TRP617  ASP618  TYR619  PRO620  LYS621  CYS622 
 ASP623  PHE694  ASN695  SER759  ASP760  ASP761  ALA762  ILE779  LEU786  VAL792 
 PHE793  MET794  SER795  GLU796  ALA797  LYS798  CYS799  TRP800  GLU811  SER814 

> <Gold.Protein.RotatedAtoms>
  151.1825  133.4716  159.2593 H   0  0  0  0  0  0  0  0  0  0  0  0  # atno 6907 bound_to 6896
  151.1244  135.0097  159.8564 H   0  0  0  0  0  0  0  0  0  0  0  0  # atno 6908 bound_to 6896
  152.5457  134.1734  159.8659 H   0  0  0  0  0  0  0  0  0  0  0  0  # atno 6909 bound_to 6896
  144.7595  140.4117  143.5987 H   0  0  0  0  0  0  0  0  0  0  0  0  # atno 7974 bound_to 7965
  154.4007  140.1510  156.3120 H   0  0  0  0  0  0  0  0  0  0  0  0  # atno 8008 bound_to 7997
  155.8607  140.3453  155.5733 H   0  0  0  0  0  0  0  0  0  0  0  0  # atno 8009 bound_to 7997
  155.7883  140.0853  157.2013 H   0  0  0  0  0  0  0  0  0  0  0  0  # atno 8010 bound_to 7997
  139.7074  143.9164  152.2454 H   0  0  0  0  0  0  0  0  0  0  0  0  # atno 10167 bound_to 10162
  156.0214  130.5400  150.7046 H   0  0  0  0  0  0  0  0  0  0  0  0  # atno 10718 bound_to 10713
  153.0035  135.6276  154.2154 H   0  0  0  0  0  0  0  0  0  0  0  0  # atno 10763 bound_to 10752
  154.1897  135.2809  155.3027 H   0  0  0  0  0  0  0  0  0  0  0  0  # atno 10764 bound_to 10752
  154.5769  135.5659  153.7208 H   0  0  0  0  0  0  0  0  0  0  0  0  # atno 10765 bound_to 10752
  140.8059  133.8177  155.9516 H   0  0  0  0  0  0  0  0  0  0  0  0  # atno 11005 bound_to 11000
  145.6665  139.1591  143.2779 LP  0  0  0  0  0  0  0  0  0  0  0  0  # atno 17320 bound_to 7965
  146.1644  140.6740  142.9262 LP  0  0  0  0  0  0  0  0  0  0  0  0  # atno 17321 bound_to 7965
  139.9023  144.6904  150.8651 LP  0  0  0  0  0  0  0  0  0  0  0  0  # atno 17342 bound_to 10162
  140.7725  143.3504  151.2026 LP  0  0  0  0  0  0  0  0  0  0  0  0  # atno 17343 bound_to 10162
  157.4699  131.0892  151.0654 LP  0  0  0  0  0  0  0  0  0  0  0  0  # atno 17370 bound_to 10713
  157.1118  130.6024  149.5484 LP  0  0  0  0  0  0  0  0  0  0  0  0  # atno 17371 bound_to 10713
  140.9247  134.2097  157.4904 LP  0  0  0  0  0  0  0  0  0  0  0  0  # atno 17394 bound_to 11000
  139.8718  134.9807  156.5087 LP  0  0  0  0  0  0  0  0  0  0  0  0  # atno 17395 bound_to 11000

$$$$
