AV-unprocessed.smi:3349|AV-procd|sdf|12938|dock4
  -GOLD-   2272019373D 1   1.00000     0.00000
 Structure written by MMmdl.
 41 42  0  0  0  0  0  0  0  0  2 V2000
  147.7136  136.7730  156.7800 C   0  0  0  0  0  0  0  0  0  0  0  0
  148.1141  136.2851  155.3652 C   0  0  1  0  0  0  0  0  0  0  0  0
  146.8531  135.9445  154.5263 C   0  0  0  0  0  0  0  0  0  0  0  0
  147.0924  134.8977  153.5356 N   0  0  0  0  0  0  0  0  0  0  0  0
  146.5169  133.6843  153.5236 C   0  0  0  0  0  0  0  0  0  0  0  0
  145.7146  133.3112  154.3800 O   0  0  0  0  0  0  0  0  0  0  0  0
  146.9190  132.7557  152.3668 C   0  0  1  0  0  0  0  0  0  0  0  0
  147.5687  131.4466  152.8509 C   0  0  0  0  0  0  0  0  0  0  0  0
  145.7752  132.4804  151.5084 N   0  0  0  0  0  0  0  0  0  0  0  0
  145.6625  131.7328  150.4064 C   0  0  0  0  0  0  0  0  0  0  0  0
  144.4481  131.7385  149.8753 N   0  0  0  0  0  0  0  0  0  0  0  0
  143.8198  132.5764  150.7523 C   0  0  0  0  0  0  0  0  0  0  0  0
  144.5705  133.0524  151.7456 N   0  0  0  0  0  0  0  0  0  0  0  0
  148.9839  137.2627  154.6292 N   0  3  0  0  0  0  0  0  0  0  0  0
  148.4788  138.6641  154.5904 C   0  0  0  0  0  0  0  0  0  0  0  0
  149.4271  139.5796  153.7966 C   0  0  0  0  0  0  0  0  0  0  0  0
  150.7310  139.5263  154.3543 O   0  0  0  0  0  0  0  0  0  0  0  0
  151.2688  138.2147  154.2874 C   0  0  0  0  0  0  0  0  0  0  0  0
  150.3928  137.2585  155.1127 C   0  0  0  0  0  0  0  0  0  0  0  0
  147.0737  136.0556  157.2920 H   0  0  0  0  0  0  0  0  0  0  0  0
  147.1736  137.7196  156.7366 H   0  0  0  0  0  0  0  0  0  0  0  0
  148.5774  136.8992  157.4325 H   0  0  0  0  0  0  0  0  0  0  0  0
  148.6922  135.3697  155.5032 H   0  0  0  0  0  0  0  0  0  0  0  0
  146.0273  135.6782  155.1883 H   0  0  0  0  0  0  0  0  0  0  0  0
  146.5112  136.8071  153.9579 H   0  0  0  0  0  0  0  0  0  0  0  0
  147.7385  135.1170  152.7904 H   0  0  0  0  0  0  0  0  0  0  0  0
  147.6643  133.2888  151.7730 H   0  0  0  0  0  0  0  0  0  0  0  0
  148.4275  131.6443  153.4936 H   0  0  0  0  0  0  0  0  0  0  0  0
  147.9229  130.8547  152.0064 H   0  0  0  0  0  0  0  0  0  0  0  0
  146.8659  130.8295  153.4124 H   0  0  0  0  0  0  0  0  0  0  0  0
  146.4851  131.1736  149.9850 H   0  0  0  0  0  0  0  0  0  0  0  0
  142.7781  132.8450  150.6549 H   0  0  0  0  0  0  0  0  0  0  0  0
  147.5042  138.7144  154.1061 H   0  0  0  0  0  0  0  0  0  0  0  0
  148.3609  139.0392  155.6083 H   0  0  0  0  0  0  0  0  0  0  0  0
  149.4553  139.2928  152.7440 H   0  0  0  0  0  0  0  0  0  0  0  0
  149.0711  140.6094  153.8343 H   0  0  0  0  0  0  0  0  0  0  0  0
  151.3391  137.8851  153.2494 H   0  0  0  0  0  0  0  0  0  0  0  0
  152.2837  138.2308  154.6852 H   0  0  0  0  0  0  0  0  0  0  0  0
  150.4181  137.5512  156.1636 H   0  0  0  0  0  0  0  0  0  0  0  0
  150.8305  136.2645  155.0516 H   0  0  0  0  0  0  0  0  0  0  0  0
  149.0034  136.9528  153.6678 H   0  0  0  0  0  0  0  0  0  0  0  0
  1  2  1  0  0  0  0
  1 20  1  0  0  0  0
  1 21  1  0  0  0  0
  1 22  1  0  0  0  0
  2  3  1  0  0  0  0
  2 14  1  0  0  0  0
  2 23  1  0  0  0  0
  3  4  1  0  0  0  0
  3 24  1  0  0  0  0
  3 25  1  0  0  0  0
  4  5  1  0  0  0  0
  4 26  1  0  0  0  0
  5  6  2  0  0  0  0
  5  7  1  0  0  0  0
  7  8  1  0  0  0  0
  7  9  1  0  0  0  0
  7 27  1  0  0  0  0
  8 28  1  0  0  0  0
  8 29  1  0  0  0  0
  8 30  1  0  0  0  0
  9 13  1  0  0  0  0
  9 10  1  0  0  0  0
 10 11  2  0  0  0  0
 10 31  1  0  0  0  0
 11 12  1  0  0  0  0
 12 13  2  0  0  0  0
 12 32  1  0  0  0  0
 14 19  1  0  0  0  0
 14 15  1  0  0  0  0
 14 41  1  0  0  0  0
 15 16  1  0  0  0  0
 15 33  1  0  0  0  0
 15 34  1  0  0  0  0
 16 17  1  0  0  0  0
 16 35  1  0  0  0  0
 16 36  1  0  0  0  0
 17 18  1  0  0  0  0
 18 19  1  0  0  0  0
 18 37  1  0  0  0  0
 18 38  1  0  0  0  0
 19 39  1  0  0  0  0
 19 40  1  0  0  0  0
M  CHG  1  14   1
M  END
> <s_m_source_file>
AV-unprocessed.smi

> <i_m_source_file_index>
3349

> <i_lp_mmshare_version>
43012

> <i_f3d_flags>
0

> <s_epik_input>
W0NIMl0xW0NIMl1PW0NIMl1bQ0gyXU4xW0NASF0oW0NIM10pW0NIMl1bTkhdQyg9TylbQ0BIXShbQ0gzXSluMltjSF1uW2NIXW4y

> <s_epik_cmdline>
J2VwaWtfcHl0aG9uJywgJy1waCcsICc3LjAnLCAnLXRuJywgJzgnLCAnLW1hJywgJzIwMCcsICctbWV0YWxfYmluZGluZycsICctaW1hZScsICc8aW5maWxlLm1hZT4nLCAnLW9tYWUnLCAnPG91dGZpbGUubWFlPic=

> <r_lp_tautomer_probability>
1

> <r_epik_Ionization_Penalty>
0.71326

> <r_epik_Ionization_Penalty_Charging>
0.713252

> <r_epik_Ionization_Penalty_Neutral>
8.10337e-06

> <r_epik_State_Penalty>
0.737017

> <r_epik_Charging_Adjusted_Penalty>
1.45027

> <i_epik_Tot_Q>
1

> <i_epik_Tot_abs_Q>
1

> <r_epik_Metal_State_Penalty>
0.73702

> <b_epik_Metal_Only>
0

> <s_lp_Force_Field>
OPLS_2005

> <r_lp_Energy>
26.9228

> <b_lp_Chiralities_Consistent>
1

> <s_lp_Variant>
AV-unprocessed.smi:3349-8

> <Gold.Version>
5.8.1

> <Gold.Id.Protein>
6NUR|6NUR_protein|mol2

> <Gold.PLP.Fitness>
41.9937

> <Gold.PLP.PLP>
-24.6955

> <Gold.PLP.part.hbond>
-3.9238

> <Gold.PLP.part.metal>
0.0000

> <Gold.PLP.part.buried>
-1.1308

> <Gold.PLP.part.nonpolar>
-20.7225

> <Gold.PLP.part.repulsive>
0.5130

> <Gold.PLP.ligand.clash>
0.0000

> <Gold.PLP.ligand.torsion>
0.6309

> <Gold.PLP.Chemscore.Hbond>
4.1456

> <Gold.PLP.Chemscore.CHOScore>
2.0000

> <Gold.PLP.Chemscore.Metal>
0.0000

> <Gold.Chemscore.Hbonds>
donor molecule, donor type, donor heavy atom, donor atom, acceptor molecule, acceptor atom, score
      L1  H     4    26       P1  7948  1.00
      L1  H    14    41       P1  7948  2.00
      P1  H  7989  7998       L1    17  1.00
      P1  H 10785 10796       L1    11  0.16
      L1  C    10    31       P1 10747  1.00
      L1  C    12    32       P1 10186  0.80

> <Gold.PLP.Chemscore.Internal.Correction>
0.1233

> <Gold.Rescore>
     Score         DG    S(hbond)    S(metal)    S(lipo)     H(rot)  DE(clash)    DE(int)     intcor
      8.96     -12.76       2.75        0.00      41.47       2.63       1.75       2.05       ----

> <Gold.Chemscore.Fitness>
8.9593

> <Gold.Chemscore.DG>
-12.7601

> <Gold.Chemscore.ZeroCoef>
-5.4800

> <Gold.Chemscore.Hbond>
2.7450

> <Gold.Chemscore.Metal>
0.0000

> <Gold.Chemscore.Lipo>
41.4698

> <Gold.Chemscore.Internal_Hbond>
0.0000

> <Gold.Chemscore.DEClash>
1.7505

> <Gold.Chemscore.DEInternal>
2.0502

> <Gold.Chemscore.Rot>
2.6329

> <Gold.Chemscore.Internal.Correction>
   9.000000E+99

> <Gold.Chemscore.Hbonds>
donor molecule, donor type, donor heavy atom, donor atom, acceptor molecule, acceptor atom, score
      L1  H     4    26       P1  7948  0.98
      L1  H    14    41       P1  7948  0.99
      P1  H  7989  7998       L1    17  0.43
      P1  H 10785 10796       L1    11  0.16

> <Gold.Chemscore.Hbond.Weighted>
-9.1684

> <Gold.Chemscore.Metal.Weighted>
-0.0000

> <Gold.Chemscore.Lipo.Weighted>
-4.8520

> <Gold.Chemscore.Internal_Hbond.Weighted>
0.0000

> <Gold.Chemscore.DEClash.Weighted>
1.7505

> <Gold.Chemscore.DEInternal.Weighted>
2.0502

> <Gold.Chemscore.Rot.Weighted>
6.7403

> <Gold.Chemscore.Internal.Correction.Weighted>
   9.000000E+99

> <Gold.Protein.RotatedTorsions>
[ 6907 6896 6895 6894 ] final  -54.49 input  -60.11 | X-H torsion
[ 7974 7965 7964 7962 ] final -131.68 input  175.53 | X-H torsion
[ 8008 7997 7996 7995 ] final   60.10 input   59.86 | X-H torsion
[ 10167 10162 10161 10158 ] final -125.11 input  -65.29 | X-H torsion
[ 10718 10713 10712 10709 ] final   -9.20 input   66.30 | X-H torsion
[ 10763 10752 10751 10750 ] final  149.51 input  -60.55 | X-H torsion
[ 11005 11000 10999 10996 ] final  146.43 input  -57.11 | X-H torsion

> <Gold.Protein.ActiveResidues>
 VAL166  LYS551  ARG553  GLY616  TRP617  ASP618  TYR619  PRO620  LYS621  CYS622 
 ASP623  PHE694  ASN695  SER759  ASP760  ASP761  ALA762  ILE779  LEU786  VAL792 
 PHE793  MET794  SER795  GLU796  ALA797  LYS798  CYS799  TRP800  GLU811  SER814 

> <Gold.Protein.RotatedAtoms>
  150.8333  134.7595  159.6871 H   0  0  0  0  0  0  0  0  0  0  0  0  # atno 6907 bound_to 6896
  152.4434  134.5541  159.9885 H   0  0  0  0  0  0  0  0  0  0  0  0  # atno 6908 bound_to 6896
  151.5697  133.3354  159.3023 H   0  0  0  0  0  0  0  0  0  0  0  0  # atno 6909 bound_to 6896
  144.9356  140.7180  143.4878 H   0  0  0  0  0  0  0  0  0  0  0  0  # atno 7974 bound_to 7965
  155.5769  140.3491  155.4530 H   0  0  0  0  0  0  0  0  0  0  0  0  # atno 8008 bound_to 7997
  156.0402  140.1294  157.0189 H   0  0  0  0  0  0  0  0  0  0  0  0  # atno 8009 bound_to 7997
  154.4389  140.1025  156.6212 H   0  0  0  0  0  0  0  0  0  0  0  0  # atno 8010 bound_to 7997
  139.9856  143.5695  152.2362 H   0  0  0  0  0  0  0  0  0  0  0  0  # atno 10167 bound_to 10162
  156.6914  130.5066  149.5942 H   0  0  0  0  0  0  0  0  0  0  0  0  # atno 10718 bound_to 10713
  154.0724  135.2865  155.3306 H   0  0  0  0  0  0  0  0  0  0  0  0  # atno 10763 bound_to 10752
  154.6738  135.5289  153.8176 H   0  0  0  0  0  0  0  0  0  0  0  0  # atno 10764 bound_to 10752
  153.0480  135.6564  154.0904 H   0  0  0  0  0  0  0  0  0  0  0  0  # atno 10765 bound_to 10752
  140.0793  134.9106  157.1474 H   0  0  0  0  0  0  0  0  0  0  0  0  # atno 11005 bound_to 11000
  145.3072  139.1830  143.4658 LP  0  0  0  0  0  0  0  0  0  0  0  0  # atno 17320 bound_to 7965
  146.3265  140.3071  142.8624 LP  0  0  0  0  0  0  0  0  0  0  0  0  # atno 17321 bound_to 7965
  139.6377  144.7651  151.2403 LP  0  0  0  0  0  0  0  0  0  0  0  0  # atno 17342 bound_to 10162
  140.7473  143.6369  150.8370 LP  0  0  0  0  0  0  0  0  0  0  0  0  # atno 17343 bound_to 10162
  156.1794  130.6489  151.0934 LP  0  0  0  0  0  0  0  0  0  0  0  0  # atno 17370 bound_to 10713
  157.7007  131.0777  150.6828 LP  0  0  0  0  0  0  0  0  0  0  0  0  # atno 17371 bound_to 10713
  140.3512  134.2597  155.7198 LP  0  0  0  0  0  0  0  0  0  0  0  0  # atno 17394 bound_to 11000
  141.2041  133.7896  157.0306 LP  0  0  0  0  0  0  0  0  0  0  0  0  # atno 17395 bound_to 11000

$$$$
