AV-unprocessed.smi:2006|AV-procd|sdf|8132|dock4
  -GOLD-   2272010363D 1   1.00000     0.00000
 Structure written by MMmdl.
 32 33  0  0  0  0  0  0  0  0  1 V2000
  151.7513  145.3141  159.2844 C   0  0  0  0  0  0  0  0  0  0  0  0
  151.8377  143.8007  159.5074 C   0  0  1  0  0  0  0  0  0  0  0  0
  151.6299  143.0108  158.2008 C   0  0  0  0  0  0  0  0  0  0  0  0
  151.8111  141.5849  158.4420 N   0  0  0  0  0  0  0  0  0  0  0  0
  151.5253  140.7905  157.3228 C   0  0  0  0  0  0  0  0  0  0  0  0
  150.3184  141.0034  156.6244 C   0  0  0  0  0  0  0  0  0  0  0  0
  150.0387  140.2069  155.4976 C   0  0  0  0  0  0  0  0  0  0  0  0
  150.9739  139.2268  155.1072 C   0  0  0  0  0  0  0  0  0  0  0  0
  150.7206  138.3451  153.9013 C   0  0  0  0  0  0  0  0  0  0  0  0
  151.4608  137.1001  153.9566 N   0  0  0  0  0  0  0  0  0  0  0  0
  152.1508  139.0881  155.8720 C   0  0  0  0  0  0  0  0  0  0  0  0
  152.4260  139.8477  156.9537 N   0  0  0  0  0  0  0  0  0  0  0  0
  153.0976  141.2820  159.0557 C   0  0  0  0  0  0  0  0  0  0  0  0
  153.2756  142.1118  160.3383 C   0  0  0  0  0  0  0  0  0  0  0  0
  153.1273  143.4964  160.0353 O   0  0  0  0  0  0  0  0  0  0  0  0
  150.7741  145.5971  158.8924 H   0  0  0  0  0  0  0  0  0  0  0  0
  152.5072  145.6523  158.5751 H   0  0  0  0  0  0  0  0  0  0  0  0
  151.9045  145.8549  160.2186 H   0  0  0  0  0  0  0  0  0  0  0  0
  151.0775  143.5128  160.2360 H   0  0  0  0  0  0  0  0  0  0  0  0
  150.6284  143.1913  157.8080 H   0  0  0  0  0  0  0  0  0  0  0  0
  152.3393  143.3496  157.4444 H   0  0  0  0  0  0  0  0  0  0  0  0
  149.6200  141.7631  156.9435 H   0  0  0  0  0  0  0  0  0  0  0  0
  149.1227  140.3479  154.9427 H   0  0  0  0  0  0  0  0  0  0  0  0
  149.6564  138.1222  153.8178 H   0  0  0  0  0  0  0  0  0  0  0  0
  151.0041  138.8866  152.9983 H   0  0  0  0  0  0  0  0  0  0  0  0
  151.3921  136.6305  153.0649 H   0  0  0  0  0  0  0  0  0  0  0  0
  152.4419  137.3001  154.0902 H   0  0  0  0  0  0  0  0  0  0  0  0
  152.8939  138.3493  155.6097 H   0  0  0  0  0  0  0  0  0  0  0  0
  153.1565  140.2176  159.2864 H   0  0  0  0  0  0  0  0  0  0  0  0
  153.9036  141.5070  158.3557 H   0  0  0  0  0  0  0  0  0  0  0  0
  152.5511  141.8150  161.0983 H   0  0  0  0  0  0  0  0  0  0  0  0
  154.2665  141.9444  160.7605 H   0  0  0  0  0  0  0  0  0  0  0  0
  1  2  1  0  0  0  0
  1 16  1  0  0  0  0
  1 17  1  0  0  0  0
  1 18  1  0  0  0  0
  2 15  1  0  0  0  0
  2  3  1  0  0  0  0
  2 19  1  0  0  0  0
  3  4  1  0  0  0  0
  3 20  1  0  0  0  0
  3 21  1  0  0  0  0
  4  5  1  0  0  0  0
  4 13  1  0  0  0  0
  5 12  1  0  0  0  0
  5  6  2  0  0  0  0
  6  7  1  0  0  0  0
  6 22  1  0  0  0  0
  7  8  2  0  0  0  0
  7 23  1  0  0  0  0
  8  9  1  0  0  0  0
  8 11  1  0  0  0  0
  9 10  1  0  0  0  0
  9 24  1  0  0  0  0
  9 25  1  0  0  0  0
 10 26  1  0  0  0  0
 10 27  1  0  0  0  0
 11 12  2  0  0  0  0
 11 28  1  0  0  0  0
 13 14  1  0  0  0  0
 13 29  1  0  0  0  0
 13 30  1  0  0  0  0
 14 15  1  0  0  0  0
 14 31  1  0  0  0  0
 14 32  1  0  0  0  0
M  END
> <s_m_source_file>
AV-unprocessed.smi

> <i_m_source_file_index>
2006

> <i_lp_mmshare_version>
43012

> <i_f3d_flags>
0

> <s_epik_input>
W0NIM11bQ0BASF0xW0NIMl1OKFtDSDJdW0NIMl1PMSljMltjSF1bY0hdYyhbY0hdbjIpW0NIMl1bTkgyXQ==

> <s_epik_cmdline>
J2VwaWtfcHl0aG9uJywgJy1waCcsICc3LjAnLCAnLXRuJywgJzgnLCAnLW1hJywgJzIwMCcsICctbWV0YWxfYmluZGluZycsICctaW1hZScsICc8aW5maWxlLm1hZT4nLCAnLW9tYWUnLCAnPG91dGZpbGUubWFlPic=

> <r_lp_tautomer_probability>
1

> <r_epik_Ionization_Penalty>
1.39389

> <r_epik_Ionization_Penalty_Charging>
0

> <r_epik_Ionization_Penalty_Neutral>
1.39389

> <r_epik_State_Penalty>
1.46818

> <r_epik_Charging_Adjusted_Penalty>
1.46818

> <i_epik_Tot_Q>
0

> <i_epik_Tot_abs_Q>
0

> <r_epik_Metal_State_Penalty>
1.46201

> <b_epik_Metal_Only>
0

> <s_lp_Force_Field>
OPLS_2005

> <r_lp_Energy>
16.9225

> <b_lp_Chiralities_Consistent>
1

> <s_lp_Variant>
AV-unprocessed.smi:2006-4

> <Gold.Version>
5.8.1

> <Gold.Id.Protein>
6NUR|6NUR_protein|mol2

> <Gold.PLP.Fitness>
40.4243

> <Gold.PLP.PLP>
-35.2037

> <Gold.PLP.part.hbond>
-3.0000

> <Gold.PLP.part.metal>
0.0000

> <Gold.PLP.part.buried>
-5.1446

> <Gold.PLP.part.nonpolar>
-27.0049

> <Gold.PLP.part.repulsive>
0.0000

> <Gold.PLP.ligand.clash>
0.0000

> <Gold.PLP.ligand.torsion>
0.4398

> <Gold.PLP.Chemscore.Hbond>
2.0000

> <Gold.PLP.Chemscore.CHOScore>
0.0000

> <Gold.PLP.Chemscore.Metal>
0.0000

> <Gold.Chemscore.Hbonds>
donor molecule, donor type, donor heavy atom, donor atom, acceptor molecule, acceptor atom, score
      L1  H    10    26       P1  7949  1.00
      P1  H  7997  8009       L1    12  1.00

> <Gold.PLP.Chemscore.Internal.Correction>
0.1002

> <Gold.Rescore>
     Score         DG    S(hbond)    S(metal)    S(lipo)     H(rot)  DE(clash)    DE(int)     intcor
     16.55     -17.11       1.34        0.00      88.95       1.28       0.13       0.43       ----

> <Gold.Chemscore.Fitness>
16.5510

> <Gold.Chemscore.DG>
-17.1105

> <Gold.Chemscore.ZeroCoef>
-5.4800

> <Gold.Chemscore.Hbond>
1.3444

> <Gold.Chemscore.Metal>
0.0000

> <Gold.Chemscore.Lipo>
88.9528

> <Gold.Chemscore.Internal_Hbond>
0.0000

> <Gold.Chemscore.DEClash>
0.1303

> <Gold.Chemscore.DEInternal>
0.4292

> <Gold.Chemscore.Rot>
1.2762

> <Gold.Chemscore.Internal.Correction>
   9.000000E+99

> <Gold.Chemscore.Hbonds>
donor molecule, donor type, donor heavy atom, donor atom, acceptor molecule, acceptor atom, score
      L1  H    10    26       P1  7949  0.82
      P1  H  7997  8009       L1    12  0.28

> <Gold.Chemscore.Hbond.Weighted>
-4.4901

> <Gold.Chemscore.Metal.Weighted>
-0.0000

> <Gold.Chemscore.Lipo.Weighted>
-10.4075

> <Gold.Chemscore.Internal_Hbond.Weighted>
0.0000

> <Gold.Chemscore.DEClash.Weighted>
0.1303

> <Gold.Chemscore.DEInternal.Weighted>
0.4292

> <Gold.Chemscore.Rot.Weighted>
3.2671

> <Gold.Chemscore.Internal.Correction.Weighted>
   9.000000E+99

> <Gold.Protein.RotatedTorsions>
[ 6907 6896 6895 6894 ] final  -43.27 input  -60.11 | X-H torsion
[ 7974 7965 7964 7962 ] final -120.66 input  175.53 | X-H torsion
[ 8008 7997 7996 7995 ] final  171.78 input   59.86 | X-H torsion
[ 10167 10162 10161 10158 ] final -126.69 input  -65.29 | X-H torsion
[ 10718 10713 10712 10709 ] final  -14.27 input   66.30 | X-H torsion
[ 10763 10752 10751 10750 ] final  -19.07 input  -60.55 | X-H torsion
[ 11005 11000 10999 10996 ] final  -70.94 input  -57.11 | X-H torsion

> <Gold.Protein.ActiveResidues>
 VAL166  LYS551  ARG553  GLY616  TRP617  ASP618  TYR619  PRO620  LYS621  CYS622 
 ASP623  PHE694  ASN695  SER759  ASP760  ASP761  ALA762  ILE779  LEU786  VAL792 
 PHE793  MET794  SER795  GLU796  ALA797  LYS798  CYS799  TRP800  GLU811  SER814 

> <Gold.Protein.RotatedAtoms>
  150.9458  134.8863  159.7640 H   0  0  0  0  0  0  0  0  0  0  0  0  # atno 6907 bound_to 6896
  152.5099  134.3876  159.9383 H   0  0  0  0  0  0  0  0  0  0  0  0  # atno 6908 bound_to 6896
  151.3895  133.3753  159.2754 H   0  0  0  0  0  0  0  0  0  0  0  0  # atno 6909 bound_to 6896
  145.0489  140.8203  143.4221 H   0  0  0  0  0  0  0  0  0  0  0  0  # atno 7974 bound_to 7965
  156.1238  140.1503  156.9166 H   0  0  0  0  0  0  0  0  0  0  0  0  # atno 8008 bound_to 7997
  154.4856  140.0866  156.7519 H   0  0  0  0  0  0  0  0  0  0  0  0  # atno 8009 bound_to 7997
  155.4381  140.3430  155.4289 H   0  0  0  0  0  0  0  0  0  0  0  0  # atno 8010 bound_to 7997
  139.9687  143.5869  152.2420 H   0  0  0  0  0  0  0  0  0  0  0  0  # atno 10167 bound_to 10162
  156.6184  130.4868  149.6174 H   0  0  0  0  0  0  0  0  0  0  0  0  # atno 10718 bound_to 10713
  153.5990  135.7000  153.5392 H   0  0  0  0  0  0  0  0  0  0  0  0  # atno 10763 bound_to 10752
  153.3113  135.4100  155.1338 H   0  0  0  0  0  0  0  0  0  0  0  0  # atno 10764 bound_to 10752
  154.8586  135.3673  154.5525 H   0  0  0  0  0  0  0  0  0  0  0  0  # atno 10765 bound_to 10752
  141.1583  133.6803  156.6829 H   0  0  0  0  0  0  0  0  0  0  0  0  # atno 11005 bound_to 11000
  145.1552  139.2491  143.5420 LP  0  0  0  0  0  0  0  0  0  0  0  0  # atno 17320 bound_to 7965
  146.3516  140.1265  142.8598 LP  0  0  0  0  0  0  0  0  0  0  0  0  # atno 17321 bound_to 7965
  139.6497  144.7660  151.2172 LP  0  0  0  0  0  0  0  0  0  0  0  0  # atno 17342 bound_to 10162
  140.7529  143.6180  150.8540 LP  0  0  0  0  0  0  0  0  0  0  0  0  # atno 17343 bound_to 10162
  156.2332  130.6807  151.1484 LP  0  0  0  0  0  0  0  0  0  0  0  0  # atno 17370 bound_to 10713
  157.7234  131.0666  150.6036 LP  0  0  0  0  0  0  0  0  0  0  0  0  # atno 17371 bound_to 10713
  140.3089  134.8103  157.4159 LP  0  0  0  0  0  0  0  0  0  0  0  0  # atno 17394 bound_to 11000
  140.1196  134.5237  155.8195 LP  0  0  0  0  0  0  0  0  0  0  0  0  # atno 17395 bound_to 11000

$$$$
