#       Name:                AV-unprocessed.smi:104
#       Creating user name   scv26
#       Creation time:       Thu Mar 26 18:00:20 2020


#       File generated by GOLD software.
#

@<TRIPOS>MOLECULE
AV-unprocessed.smi:104
    58    60     1
SMALL
NO_CHARGES


@<TRIPOS>ATOM
      1 ****        -2.3470   3.8675   2.0145 C.3            1 S1                 0.0000
      2 ****        -2.1493   2.3771   1.7731 C.2            1 S1                 0.0000
      3 ****        -3.0560   1.6718   1.3300 O.2            1 S1                 0.0000
      4 ****        -0.9113   1.9678   2.0906 O.3            1 S1                 0.0000
      5 ****        -0.5516   0.6074   1.9126 C.3            1 S1                 0.0000
      6 ****         0.9824   0.4869   1.8841 C.3            1 S1                 0.0000
      7 ****         1.4476   1.1000   0.6788 O.3            1 S1                 0.0000
      8 ****         2.0519   0.1594  -0.1566 C.3            1 S1                 0.0000
      9 ****         1.6764   0.4316  -1.5817 N.pl3          1 S1                 0.0000
     10 ****         2.3950   0.1451  -2.7189 C.2            1 S1                 0.0000
     11 ****         4.0997  -0.7000  -2.6485 Br             1 S1                 0.0000
     12 ****         1.8518   0.4515  -3.8632 N.2            1 S1                 0.0000
     13 ****         0.6299   0.9934  -3.4844 C.ar           1 S1                 0.0000
     14 ****        -0.4755   1.5213  -4.1981 C.ar           1 S1                 0.0000
     15 ****        -0.5142   1.5950  -5.5356 N.pl3          1 S1                 0.0000
     16 ****        -1.5447   1.9681  -3.4987 N.ar           1 S1                 0.0000
     17 ****        -1.5327   1.9025  -2.1638 C.ar           1 S1                 0.0000
     18 ****        -0.5727   1.4393  -1.3602 N.ar           1 S1                 0.0000
     19 ****         0.5071   0.9894  -2.0636 C.ar           1 S1                 0.0000
     20 ****         1.6084  -1.2269   0.3250 C.3            1 S1                 0.0000
     21 ****         0.3468  -1.5974  -0.2318 O.3            1 S1                 0.0000
     22 ****         0.2658  -2.5173  -1.2087 C.2            1 S1                 0.0000
     23 ****        -1.1669  -2.7422  -1.6716 C.3            1 S1                 0.0000
     24 ****         1.2095  -3.1183  -1.7213 O.2            1 S1                 0.0000
     25 ****         1.5053  -0.9595   1.8143 C.3            1 S1                 0.0000
     26 ****         0.7060  -1.9362   2.4731 O.3            1 S1                 0.0000
     27 ****         0.8251  -2.1256   3.7979 C.2            1 S1                 0.0000
     28 ****        -0.1066  -3.2137   4.3141 C.3            1 S1                 0.0000
     29 ****         1.5794  -1.5120   4.5525 O.2            1 S1                 0.0000
     30 ****        -1.7392   4.4461   1.3188 H              1 S1                 0.0000
     31 ****        -2.0554   4.1294   3.0317 H              1 S1                 0.0000
     32 ****        -3.3920   4.1437   1.8728 H              1 S1                 0.0000
     33 ****        -0.9650   0.0355   2.7436 H              1 S1                 0.0000
     34 ****        -0.9831   0.2034   0.9967 H              1 S1                 0.0000
     35 ****         1.4061   0.9926   2.7523 H              1 S1                 0.0000
     36 ****         3.1330   0.2943  -0.1117 H              1 S1                 0.0000
     37 ****         0.2694   1.2650  -6.0806 H              1 S1                 0.0000
     38 ****        -1.3258   1.9812  -5.9959 H              1 S1                 0.0000
     39 ****        -2.4173   2.2739  -1.6676 H              1 S1                 0.0000
     40 ****         2.3830  -1.9637   0.1079 H              1 S1                 0.0000
     41 ****        -1.8527  -2.7092  -0.8248 H              1 S1                 0.0000
     42 ****        -1.2645  -3.7138  -2.1564 H              1 S1                 0.0000
     43 ****        -1.4565  -1.9686  -2.3828 H              1 S1                 0.0000
     44 ****         2.5200  -0.9809   2.2163 H              1 S1                 0.0000
     45 ****         0.1701  -4.1798   3.8920 H              1 S1                 0.0000
     46 ****        -1.1373  -2.9947   4.0348 H              1 S1                 0.0000
     47 ****        -0.0510  -3.2819   5.4006 H              1 S1                 0.0000
     48 ****        -3.9465   2.0756   1.1202 LP             1 S1                 0.0000
     49 ****        -2.9020   0.6952   1.1799 LP             1 S1                 0.0000
     50 ****         2.1134   1.8099   0.9083 LP             1 S1                 0.0000
     51 ****         0.6721   1.5124   0.2007 LP             1 S1                 0.0000
     52 ****         2.2219   0.3276  -4.7839 LP             1 S1                 0.0000
     53 ****        -2.3380   2.3446  -3.9773 LP             1 S1                 0.0000
     54 ****        -0.6370   1.4238  -0.3624 LP             1 S1                 0.0000
     55 ****         2.1437  -2.9376  -1.4137 LP             1 S1                 0.0000
     56 ****         1.0421  -3.7873  -2.4455 LP             1 S1                 0.0000
     57 ****         2.1772  -0.7974   4.1893 LP             1 S1                 0.0000
     58 ****         1.5943  -1.7280   5.5287 LP             1 S1                 0.0000
@<TRIPOS>BOND
    1    1    2 1     
    2    1   30 1     
    3    1   31 1     
    4    1   32 1     
    5    2    3 2     
    6    2    4 1     
    7    4    5 1     
    8    5    6 1     
    9    5   33 1     
   10    5   34 1     
   11    6   25 1     
   12    6    7 1     
   13    6   35 1     
   14    7    8 1     
   15    8    9 1     
   16    8   20 1     
   17    8   36 1     
   18    9   19 1     
   19    9   10 1     
   20   10   11 1     
   21   10   12 2     
   22   12   13 1     
   23   13   19 ar    
   24   13   14 ar    
   25   14   15 1     
   26   14   16 ar    
   27   15   37 1     
   28   15   38 1     
   29   16   17 ar    
   30   17   18 ar    
   31   17   39 1     
   32   18   19 ar    
   33   20   21 1     
   34   20   25 1     
   35   20   40 1     
   36   21   22 1     
   37   22   23 1     
   38   22   24 2     
   39   23   41 1     
   40   23   42 1     
   41   23   43 1     
   42   25   26 1     
   43   25   44 1     
   44   26   27 1     
   45   27   28 1     
   46   27   29 2     
   47   28   45 1     
   48   28   46 1     
   49   28   47 1     
   50    3   48 1     
   51    3   49 1     
   52    7   50 1     
   53    7   51 1     
   54   12   52 1     
   55   16   53 1     
   56   18   54 1     
   57   24   55 1     
   58   24   56 1     
   59   29   57 1     
   60   29   58 1     
@<TRIPOS>SUBSTRUCTURE
      1 S1             1
@<TRIPOS>SET
LONE_PAIRS      STATIC     ATOMS    <user>   **** ""
11 48 49 50 51 52 53 54 55 56 57 58
DONOR_HYDROGENS      STATIC     ATOMS    <user>   **** ""
2 37 38
ATOM$BLUE        STATIC     ATOMS    COLORGROUP SYSTEM
11 48 49 50 51 52 53 54 55 56 57 58
ATOM$RED        STATIC     ATOMS    COLORGROUP SYSTEM
2 37 38
