AV-unprocessed.smi:334|AV-procd|sdf|2364|dock10
  -GOLD-   2262022283D 1   1.00000     0.00000
 Structure written by MMmdl.
 44 46  0  0  0  0  0  0  0  0  3 V2000
  153.7193  140.9940  160.6461 C   0  0  0  0  0  0  0  0  0  0  0  0
  152.4735  141.5067  159.9026 C   0  0  2  0  0  0  0  0  0  0  0  0
  152.5845  141.1919  158.4796 N   0  0  0  0  0  0  0  0  0  0  0  0
  152.4080  139.9802  157.9310 C   0  0  0  0  0  0  0  0  0  0  0  0
  152.1366  138.9745  158.5885 O   0  0  0  0  0  0  0  0  0  0  0  0
  152.5803  139.9094  156.4067 C   0  0  0  0  0  0  0  0  0  0  0  0
  151.8015  138.8308  155.7746 N   0  0  0  0  0  0  0  0  0  0  0  0
  152.1265  137.5101  156.1421 C   0  0  0  0  0  0  0  0  0  0  0  0
  151.4772  136.4448  155.6332 C   0  0  0  0  0  0  0  0  0  0  0  0
  151.8192  135.0958  156.0280 N   0  3  0  0  0  0  0  0  0  0  0  0
  151.0449  134.1865  155.7473 O   0  0  0  0  0  0  0  0  0  0  0  0
  152.8705  134.8998  156.6303 O   0  5  0  0  0  0  0  0  0  0  0  0
  150.4166  136.6957  154.6766 C   0  0  0  0  0  0  0  0  0  0  0  0
  150.0973  137.9568  154.3253 C   0  0  0  0  0  0  0  0  0  0  0  0
  150.8004  139.1151  154.8865 C   0  0  0  0  0  0  0  0  0  0  0  0
  150.5070  140.2699  154.5769 O   0  0  0  0  0  0  0  0  0  0  0  0
  152.2726  143.0311  160.0718 C   0  0  1  0  0  0  0  0  0  0  0  0
  153.1492  143.9076  159.1474 C   0  0  0  0  0  0  0  0  0  0  0  0
  152.1338  144.8915  158.5368 C   0  0  1  0  0  0  0  0  0  0  0  0
  151.2799  144.1484  157.4930 C   0  0  0  0  0  0  0  0  0  0  0  0
  150.3717  143.2653  158.3678 C   0  0  0  0  0  0  0  0  0  0  0  0
  150.8532  143.5879  159.7975 C   0  0  2  0  0  0  0  0  0  0  0  0
  151.1423  145.0811  159.6789 C   0  0  0  0  0  0  0  0  0  0  0  0
  153.6362  141.1611  161.7200 H   0  0  0  0  0  0  0  0  0  0  0  0
  154.6232  141.4961  160.2998 H   0  0  0  0  0  0  0  0  0  0  0  0
  153.8565  139.9223  160.4986 H   0  0  0  0  0  0  0  0  0  0  0  0
  151.5970  140.9900  160.2951 H   0  0  0  0  0  0  0  0  0  0  0  0
  152.8083  141.9601  157.8637 H   0  0  0  0  0  0  0  0  0  0  0  0
  152.3134  140.8761  155.9752 H   0  0  0  0  0  0  0  0  0  0  0  0
  153.6420  139.7855  156.1878 H   0  0  0  0  0  0  0  0  0  0  0  0
  152.9253  137.4309  156.8655 H   0  0  0  0  0  0  0  0  0  0  0  0
  149.8705  135.8748  154.2354 H   0  0  0  0  0  0  0  0  0  0  0  0
  149.3035  138.1211  153.6115 H   0  0  0  0  0  0  0  0  0  0  0  0
  152.5221  143.2821  161.1048 H   0  0  0  0  0  0  0  0  0  0  0  0
  153.9065  144.4356  159.7281 H   0  0  0  0  0  0  0  0  0  0  0  0
  153.6660  143.3342  158.3765 H   0  0  0  0  0  0  0  0  0  0  0  0
  152.5859  145.8087  158.1584 H   0  0  0  0  0  0  0  0  0  0  0  0
  150.6839  144.8478  156.9052 H   0  0  0  0  0  0  0  0  0  0  0  0
  151.8876  143.5633  156.8016 H   0  0  0  0  0  0  0  0  0  0  0  0
  149.3293  143.5614  158.2446 H   0  0  0  0  0  0  0  0  0  0  0  0
  150.4360  142.2083  158.1135 H   0  0  0  0  0  0  0  0  0  0  0  0
  150.1272  143.3321  160.5697 H   0  0  0  0  0  0  0  0  0  0  0  0
  151.5927  145.5105  160.5758 H   0  0  0  0  0  0  0  0  0  0  0  0
  150.2680  145.6724  159.4005 H   0  0  0  0  0  0  0  0  0  0  0  0
  1  2  1  0  0  0  0
  1 24  1  0  0  0  0
  1 25  1  0  0  0  0
  1 26  1  0  0  0  0
  2  3  1  0  0  0  0
  2 17  1  0  0  0  0
  2 27  1  0  0  0  0
  3  4  1  0  0  0  0
  3 28  1  0  0  0  0
  4  5  2  0  0  0  0
  4  6  1  0  0  0  0
  6  7  1  0  0  0  0
  6 29  1  0  0  0  0
  6 30  1  0  0  0  0
  7 15  1  0  0  0  0
  7  8  1  0  0  0  0
  8  9  2  0  0  0  0
  8 31  1  0  0  0  0
  9 10  1  0  0  0  0
  9 13  1  0  0  0  0
 10 11  2  0  0  0  0
 10 12  1  0  0  0  0
 13 14  2  0  0  0  0
 13 32  1  0  0  0  0
 14 15  1  0  0  0  0
 14 33  1  0  0  0  0
 15 16  2  0  0  0  0
 17 22  1  0  0  0  0
 17 18  1  0  0  0  0
 17 34  1  0  0  0  0
 18 19  1  0  0  0  0
 18 35  1  0  0  0  0
 18 36  1  0  0  0  0
 19 23  1  0  0  0  0
 19 20  1  0  0  0  0
 19 37  1  0  0  0  0
 20 21  1  0  0  0  0
 20 38  1  0  0  0  0
 20 39  1  0  0  0  0
 21 22  1  0  0  0  0
 21 40  1  0  0  0  0
 21 41  1  0  0  0  0
 22 23  1  0  0  0  0
 22 42  1  0  0  0  0
 23 43  1  0  0  0  0
 23 44  1  0  0  0  0
M  CHG  1  10   1
M  CHG  1  12  -1
M  END
> <s_m_source_file>
AV-unprocessed.smi

> <i_m_source_file_index>
334

> <i_lp_mmshare_version>
43012

> <i_f3d_flags>
0

> <s_epik_input>
W0NIMl0xW0NIMl1bQ0BIXShbQ0gyXTIpW0NAQEhdKFtDSDJdW0NAQEhdMTIpW0NASF0oW0NIM10pW05IXUMoPU8pW0NIMl1uM1tjSF1jKFtOK10oPU8pW08tXSlbY0hdW2NIXWMzPU8=

> <s_epik_cmdline>
J2VwaWtfcHl0aG9uJywgJy1waCcsICc3LjAnLCAnLXRuJywgJzgnLCAnLW1hJywgJzIwMCcsICctbWV0YWxfYmluZGluZycsICctaW1hZScsICc8aW5maWxlLm1hZT4nLCAnLW9tYWUnLCAnPG91dGZpbGUubWFlPic=

> <r_lp_tautomer_probability>
1

> <r_epik_Ionization_Penalty>
2.17081e-08

> <r_epik_Ionization_Penalty_Charging>
8.1195e-11

> <r_epik_Ionization_Penalty_Neutral>
2.16269e-08

> <r_epik_State_Penalty>
-0

> <r_epik_Charging_Adjusted_Penalty>
8.1195e-11

> <i_epik_Tot_Q>
0

> <i_epik_Tot_abs_Q>
2

> <r_epik_Metal_State_Penalty>
-0

> <b_epik_Metal_Only>
0

> <s_lp_Force_Field>
OPLS_2005

> <r_lp_Energy>
62.3999

> <b_lp_Chiralities_Consistent>
1

> <s_lp_Variant>
AV-unprocessed.smi:334-3

> <Gold.Version>
5.8.1

> <Gold.Id.Protein>
6NUR|6NUR_protein|mol2

> <Gold.PLP.Fitness>
47.1019

> <Gold.PLP.PLP>
-43.4933

> <Gold.PLP.part.hbond>
-2.1641

> <Gold.PLP.part.metal>
0.0000

> <Gold.PLP.part.buried>
-2.4260

> <Gold.PLP.part.nonpolar>
-37.8555

> <Gold.PLP.part.repulsive>
0.2171

> <Gold.PLP.ligand.clash>
0.0000

> <Gold.PLP.ligand.torsion>
1.0428

> <Gold.PLP.Chemscore.Hbond>
1.8882

> <Gold.PLP.Chemscore.CHOScore>
0.0000

> <Gold.PLP.Chemscore.Metal>
0.0000

> <Gold.Chemscore.Hbonds>
donor molecule, donor type, donor heavy atom, donor atom, acceptor molecule, acceptor atom, score
      P1  H  7989  7998       L1    16  1.00
      P1  H 10752 10765       L1    12  0.29

> <Gold.PLP.Chemscore.Internal.Correction>
0.0298

> <Gold.Rescore>
     Score         DG    S(hbond)    S(metal)    S(lipo)     H(rot)  DE(clash)    DE(int)     intcor
     15.20     -18.98       1.05        0.00     123.79       1.75       0.29       3.49       ----

> <Gold.Chemscore.Fitness>
15.1960

> <Gold.Chemscore.DG>
-18.9830

> <Gold.Chemscore.ZeroCoef>
-5.4800

> <Gold.Chemscore.Hbond>
1.0457

> <Gold.Chemscore.Metal>
0.0000

> <Gold.Chemscore.Lipo>
123.7935

> <Gold.Chemscore.Internal_Hbond>
0.0000

> <Gold.Chemscore.DEClash>
0.2924

> <Gold.Chemscore.DEInternal>
3.4947

> <Gold.Chemscore.Rot>
1.7474

> <Gold.Chemscore.Internal.Correction>
   9.000000E+99

> <Gold.Chemscore.Hbonds>
donor molecule, donor type, donor heavy atom, donor atom, acceptor molecule, acceptor atom, score
      P1  H  7989  7998       L1    16  0.73

> <Gold.Chemscore.Hbond.Weighted>
-3.4925

> <Gold.Chemscore.Metal.Weighted>
-0.0000

> <Gold.Chemscore.Lipo.Weighted>
-14.4838

> <Gold.Chemscore.Internal_Hbond.Weighted>
0.0000

> <Gold.Chemscore.DEClash.Weighted>
0.2924

> <Gold.Chemscore.DEInternal.Weighted>
3.4947

> <Gold.Chemscore.Rot.Weighted>
4.4733

> <Gold.Chemscore.Internal.Correction.Weighted>
   9.000000E+99

> <Gold.Protein.RotatedTorsions>
[ 6907 6896 6895 6894 ] final  -45.51 input  -60.11 | X-H torsion
[ 7974 7965 7964 7962 ] final   21.74 input  175.53 | X-H torsion
[ 8008 7997 7996 7995 ] final  -91.59 input   59.86 | X-H torsion
[ 10167 10162 10161 10158 ] final  116.86 input  -65.29 | X-H torsion
[ 10718 10713 10712 10709 ] final   -4.01 input   66.30 | X-H torsion
[ 10763 10752 10751 10750 ] final -119.77 input  -60.55 | X-H torsion
[ 11005 11000 10999 10996 ] final -140.72 input  -57.11 | X-H torsion

> <Gold.Protein.ActiveResidues>
 VAL166  LYS551  ARG553  GLY616  TRP617  ASP618  TYR619  PRO620  LYS621  CYS622 
 ASP623  PHE694  ASN695  SER759  ASP760  ASP761  ALA762  ILE779  LEU786  VAL792 
 PHE793  MET794  SER795  GLU796  ALA797  LYS798  CYS799  TRP800  GLU811  SER814 

> <Gold.Protein.RotatedAtoms>
  150.9211  134.8629  159.7489 H   0  0  0  0  0  0  0  0  0  0  0  0  # atno 6907 bound_to 6896
  152.4993  134.4216  159.9492 H   0  0  0  0  0  0  0  0  0  0  0  0  # atno 6908 bound_to 6896
  151.4250  133.3647  159.2796 H   0  0  0  0  0  0  0  0  0  0  0  0  # atno 6909 bound_to 6896
  146.2058  139.7984  142.8727 H   0  0  0  0  0  0  0  0  0  0  0  0  # atno 7974 bound_to 7965
  154.7126  140.0518  157.0564 H   0  0  0  0  0  0  0  0  0  0  0  0  # atno 8008 bound_to 7997
  155.0534  140.3181  155.4665 H   0  0  0  0  0  0  0  0  0  0  0  0  # atno 8009 bound_to 7997
  156.2794  140.2111  156.5660 H   0  0  0  0  0  0  0  0  0  0  0  0  # atno 8010 bound_to 7997
  139.6218  144.7102  151.2618 H   0  0  0  0  0  0  0  0  0  0  0  0  # atno 10167 bound_to 10162
  156.7676  130.5289  149.5773 H   0  0  0  0  0  0  0  0  0  0  0  0  # atno 10718 bound_to 10713
  154.8626  135.4226  154.2353 H   0  0  0  0  0  0  0  0  0  0  0  0  # atno 10763 bound_to 10752
  153.3329  135.6989  153.6938 H   0  0  0  0  0  0  0  0  0  0  0  0  # atno 10764 bound_to 10752
  153.5947  135.3548  155.2897 H   0  0  0  0  0  0  0  0  0  0  0  0  # atno 10765 bound_to 10752
  140.8395  134.2419  157.4817 H   0  0  0  0  0  0  0  0  0  0  0  0  # atno 11005 bound_to 11000
  145.3323  141.0269  143.3439 LP  0  0  0  0  0  0  0  0  0  0  0  0  # atno 17320 bound_to 7965
  144.8790  139.4930  143.6732 LP  0  0  0  0  0  0  0  0  0  0  0  0  # atno 17321 bound_to 7965
  140.7387  143.6641  150.8138 LP  0  0  0  0  0  0  0  0  0  0  0  0  # atno 17342 bound_to 10162
  140.0253  143.5500  152.2783 LP  0  0  0  0  0  0  0  0  0  0  0  0  # atno 17343 bound_to 10162
  156.1299  130.6170  151.0317 LP  0  0  0  0  0  0  0  0  0  0  0  0  # atno 17370 bound_to 10713
  157.6706  131.0862  150.7622 LP  0  0  0  0  0  0  0  0  0  0  0  0  # atno 17371 bound_to 10713
  139.8703  134.9628  156.4440 LP  0  0  0  0  0  0  0  0  0  0  0  0  # atno 17394 bound_to 11000
  140.8911  133.7847  155.9573 LP  0  0  0  0  0  0  0  0  0  0  0  0  # atno 17395 bound_to 11000

$$$$
