AV-unprocessed.smi:1648|AV-procd|sdf|6634|dock10
  -GOLD-   22720 7333D 1   1.00000     0.00000
 Structure written by MMmdl.
 41 41  0  0  0  0  0  0  0  0  1 V2000
  148.6855  133.4434  153.7616 C   0  0  0  0  0  0  0  0  0  0  0  0
  147.3003  134.0411  154.0157 C   0  0  0  0  0  0  0  0  0  0  0  0
  146.6038  133.5857  154.9197 O   0  0  0  0  0  0  0  0  0  0  0  0
  146.8731  135.0621  153.2526 N   0  0  0  0  0  0  0  0  0  0  0  0
  145.5889  135.7618  153.3418 C   0  0  1  0  0  0  0  0  0  0  0  0
  145.8776  137.2740  153.3321 C   0  0  0  0  0  0  0  0  0  0  0  0
  145.1238  138.0559  153.9137 O   0  0  0  0  0  0  0  0  0  0  0  0
  146.9759  137.6656  152.6664 N   0  0  0  0  0  0  0  0  0  0  0  0
  147.4310  139.0458  152.5068 C   0  0  1  0  0  0  0  0  0  0  0  0
  146.6090  139.7130  151.3961 C   0  0  0  0  0  0  0  0  0  0  0  0
  147.3154  139.8226  153.8363 C   0  0  0  0  0  0  0  0  0  0  0  0
  148.6076  140.1566  154.4086 N   0  0  0  0  0  0  0  0  0  0  0  0
  148.8678  141.0878  155.4058 C   0  0  0  0  0  0  0  0  0  0  0  0
  150.2282  141.0701  155.6153 C   0  0  0  0  0  0  0  0  0  0  0  0
  150.8196  140.1286  154.7762 N   0  0  0  0  0  0  0  0  0  0  0  0
  149.7975  139.6238  154.0982 C   0  0  0  0  0  0  0  0  0  0  0  0
  144.7205  135.3796  152.1069 C   0  0  0  0  0  0  0  0  0  0  0  0
  144.3166  133.8903  152.0941 C   0  0  0  0  0  0  0  0  0  0  0  0
  145.4288  135.7210  150.7811 C   0  0  0  0  0  0  0  0  0  0  0  0
  148.8131  133.1708  152.7145 H   0  0  0  0  0  0  0  0  0  0  0  0
  148.8301  132.5435  154.3601 H   0  0  0  0  0  0  0  0  0  0  0  0
  149.4633  134.1576  154.0327 H   0  0  0  0  0  0  0  0  0  0  0  0
  147.5193  135.4158  152.5621 H   0  0  0  0  0  0  0  0  0  0  0  0
  145.0557  135.4815  154.2519 H   0  0  0  0  0  0  0  0  0  0  0  0
  147.5355  136.9513  152.2235 H   0  0  0  0  0  0  0  0  0  0  0  0
  148.4733  139.0567  152.1826 H   0  0  0  0  0  0  0  0  0  0  0  0
  146.9376  140.7389  151.2275 H   0  0  0  0  0  0  0  0  0  0  0  0
  145.5481  139.7405  151.6473 H   0  0  0  0  0  0  0  0  0  0  0  0
  146.7149  139.1756  150.4531 H   0  0  0  0  0  0  0  0  0  0  0  0
  146.7734  140.7560  153.6787 H   0  0  0  0  0  0  0  0  0  0  0  0
  146.7421  139.2490  154.5665 H   0  0  0  0  0  0  0  0  0  0  0  0
  148.0869  141.6779  155.8621 H   0  0  0  0  0  0  0  0  0  0  0  0
  150.8218  141.6550  156.3022 H   0  0  0  0  0  0  0  0  0  0  0  0
  149.9199  138.8515  153.3534 H   0  0  0  0  0  0  0  0  0  0  0  0
  143.7991  135.9644  152.1331 H   0  0  0  0  0  0  0  0  0  0  0  0
  145.1942  133.2436  152.1164 H   0  0  0  0  0  0  0  0  0  0  0  0
  143.7500  133.6459  151.1952 H   0  0  0  0  0  0  0  0  0  0  0  0
  143.6859  133.6266  152.9434 H   0  0  0  0  0  0  0  0  0  0  0  0
  146.3796  135.1943  150.6947 H   0  0  0  0  0  0  0  0  0  0  0  0
  145.6300  136.7884  150.6888 H   0  0  0  0  0  0  0  0  0  0  0  0
  144.8156  135.4398  149.9245 H   0  0  0  0  0  0  0  0  0  0  0  0
  1  2  1  0  0  0  0
  1 20  1  0  0  0  0
  1 21  1  0  0  0  0
  1 22  1  0  0  0  0
  2  3  2  0  0  0  0
  2  4  1  0  0  0  0
  4  5  1  0  0  0  0
  4 23  1  0  0  0  0
  5  6  1  0  0  0  0
  5 17  1  0  0  0  0
  5 24  1  0  0  0  0
  6  7  2  0  0  0  0
  6  8  1  0  0  0  0
  8  9  1  0  0  0  0
  8 25  1  0  0  0  0
  9 10  1  0  0  0  0
  9 11  1  0  0  0  0
  9 26  1  0  0  0  0
 10 27  1  0  0  0  0
 10 28  1  0  0  0  0
 10 29  1  0  0  0  0
 11 12  1  0  0  0  0
 11 30  1  0  0  0  0
 11 31  1  0  0  0  0
 12 16  1  0  0  0  0
 12 13  1  0  0  0  0
 13 14  2  0  0  0  0
 13 32  1  0  0  0  0
 14 15  1  0  0  0  0
 14 33  1  0  0  0  0
 15 16  2  0  0  0  0
 16 34  1  0  0  0  0
 17 18  1  0  0  0  0
 17 19  1  0  0  0  0
 17 35  1  0  0  0  0
 18 36  1  0  0  0  0
 18 37  1  0  0  0  0
 18 38  1  0  0  0  0
 19 39  1  0  0  0  0
 19 40  1  0  0  0  0
 19 41  1  0  0  0  0
M  END
> <s_m_source_file>
AV-unprocessed.smi

> <i_m_source_file_index>
1648

> <i_lp_mmshare_version>
43012

> <i_f3d_flags>
0

> <s_epik_input>
W0NIM11DKD1PKVtOSF1bQ0BASF0oW0NIXShbQ0gzXSlbQ0gzXSlDKD1PKVtOSF1bQ0BIXShbQ0gzXSlbQ0gyXW4xW2NIXVtjSF1uW2NIXTE=

> <s_epik_cmdline>
J2VwaWtfcHl0aG9uJywgJy1waCcsICc3LjAnLCAnLXRuJywgJzgnLCAnLW1hJywgJzIwMCcsICctbWV0YWxfYmluZGluZycsICctaW1hZScsICc8aW5maWxlLm1hZT4nLCAnLW9tYWUnLCAnPG91dGZpbGUubWFlPic=

> <r_lp_tautomer_probability>
1

> <r_epik_Ionization_Penalty>
0.628885

> <r_epik_Ionization_Penalty_Charging>
0.628884

> <r_epik_Ionization_Penalty_Neutral>
4.35155e-07

> <r_epik_State_Penalty>
0.64556

> <r_epik_Charging_Adjusted_Penalty>
1.27444

> <i_epik_Tot_Q>
0

> <i_epik_Tot_abs_Q>
0

> <r_epik_Metal_State_Penalty>
0.30874

> <b_epik_Metal_Only>
0

> <s_lp_Force_Field>
OPLS_2005

> <r_lp_Energy>
9.11872

> <b_lp_Chiralities_Consistent>
1

> <s_lp_Variant>
AV-unprocessed.smi:1648-8

> <Gold.Version>
5.8.1

> <Gold.Id.Protein>
6NUR|6NUR_protein|mol2

> <Gold.PLP.Fitness>
33.3256

> <Gold.PLP.PLP>
-26.7596

> <Gold.PLP.part.hbond>
-3.0000

> <Gold.PLP.part.metal>
0.0000

> <Gold.PLP.part.buried>
3.5165

> <Gold.PLP.part.nonpolar>
-28.0048

> <Gold.PLP.part.repulsive>
0.3111

> <Gold.PLP.ligand.clash>
0.0000

> <Gold.PLP.ligand.torsion>
2.0561

> <Gold.PLP.Chemscore.Hbond>
3.0000

> <Gold.PLP.Chemscore.CHOScore>
0.5142

> <Gold.PLP.Chemscore.Metal>
0.0000

> <Gold.Chemscore.Hbonds>
donor molecule, donor type, donor heavy atom, donor atom, acceptor molecule, acceptor atom, score
      L1  H     4    23       P1  7948  1.00
      L1  H     8    25       P1  7948  1.00
      P1  H  7989  7998       L1    15  0.95
      L1  C    16    34       P1  7957  0.50

> <Gold.PLP.Chemscore.Internal.Correction>
0.1356

> <Gold.Rescore>
     Score         DG    S(hbond)    S(metal)    S(lipo)     H(rot)  DE(clash)    DE(int)     intcor
      8.98     -14.20       2.45        0.00      59.70       2.52       1.75       3.47       ----

> <Gold.Chemscore.Fitness>
8.9810

> <Gold.Chemscore.DG>
-14.2047

> <Gold.Chemscore.ZeroCoef>
-5.4800

> <Gold.Chemscore.Hbond>
2.4536

> <Gold.Chemscore.Metal>
0.0000

> <Gold.Chemscore.Lipo>
59.6997

> <Gold.Chemscore.Internal_Hbond>
0.0000

> <Gold.Chemscore.DEClash>
1.7507

> <Gold.Chemscore.DEInternal>
3.4730

> <Gold.Chemscore.Rot>
2.5216

> <Gold.Chemscore.Internal.Correction>
   9.000000E+99

> <Gold.Chemscore.Hbonds>
donor molecule, donor type, donor heavy atom, donor atom, acceptor molecule, acceptor atom, score
      L1  H     4    23       P1  7948  1.00
      L1  H     8    25       P1  7948  0.97
      P1  H  7989  7998       L1    15  0.17

> <Gold.Chemscore.Hbond.Weighted>
-8.1951

> <Gold.Chemscore.Metal.Weighted>
-0.0000

> <Gold.Chemscore.Lipo.Weighted>
-6.9849

> <Gold.Chemscore.Internal_Hbond.Weighted>
0.0000

> <Gold.Chemscore.DEClash.Weighted>
1.7507

> <Gold.Chemscore.DEInternal.Weighted>
3.4730

> <Gold.Chemscore.Rot.Weighted>
6.4553

> <Gold.Chemscore.Internal.Correction.Weighted>
   9.000000E+99

> <Gold.Protein.RotatedTorsions>
[ 6907 6896 6895 6894 ] final  -84.68 input  -60.11 | X-H torsion
[ 7974 7965 7964 7962 ] final -115.90 input  175.53 | X-H torsion
[ 8008 7997 7996 7995 ] final -127.69 input   59.86 | X-H torsion
[ 10167 10162 10161 10158 ] final -147.83 input  -65.29 | X-H torsion
[ 10718 10713 10712 10709 ] final   -2.71 input   66.30 | X-H torsion
[ 10763 10752 10751 10750 ] final -128.43 input  -60.55 | X-H torsion
[ 11005 11000 10999 10996 ] final  143.01 input  -57.11 | X-H torsion

> <Gold.Protein.ActiveResidues>
 VAL166  LYS551  ARG553  GLY616  TRP617  ASP618  TYR619  PRO620  LYS621  CYS622 
 ASP623  PHE694  ASN695  SER759  ASP760  ASP761  ALA762  ILE779  LEU786  VAL792 
 PHE793  MET794  SER795  GLU796  ALA797  LYS798  CYS799  TRP800  GLU811  SER814 

> <Gold.Protein.RotatedAtoms>
  150.6875  134.3322  159.4831 H   0  0  0  0  0  0  0  0  0  0  0  0  # atno 6907 bound_to 6896
  152.1185  134.9220  160.0573 H   0  0  0  0  0  0  0  0  0  0  0  0  # atno 6908 bound_to 6896
  152.0435  133.3953  159.4384 H   0  0  0  0  0  0  0  0  0  0  0  0  # atno 6909 bound_to 6896
  145.1031  140.8564  143.3914 H   0  0  0  0  0  0  0  0  0  0  0  0  # atno 7974 bound_to 7965
  155.2503  140.0432  157.2986 H   0  0  0  0  0  0  0  0  0  0  0  0  # atno 8008 bound_to 7997
  154.5773  140.2391  155.8073 H   0  0  0  0  0  0  0  0  0  0  0  0  # atno 8009 bound_to 7997
  156.2167  140.2982  155.9865 H   0  0  0  0  0  0  0  0  0  0  0  0  # atno 8010 bound_to 7997
  139.7587  143.8410  152.2602 H   0  0  0  0  0  0  0  0  0  0  0  0  # atno 10167 bound_to 10162
  156.7868  130.5348  149.5742 H   0  0  0  0  0  0  0  0  0  0  0  0  # atno 10718 bound_to 10713
  154.8756  135.3929  154.3755 H   0  0  0  0  0  0  0  0  0  0  0  0  # atno 10763 bound_to 10752
  153.4509  135.7028  153.6114 H   0  0  0  0  0  0  0  0  0  0  0  0  # atno 10764 bound_to 10752
  153.4655  135.3802  155.2330 H   0  0  0  0  0  0  0  0  0  0  0  0  # atno 10765 bound_to 10752
  140.0520  134.9250  157.1034 H   0  0  0  0  0  0  0  0  0  0  0  0  # atno 11005 bound_to 11000
  145.0933  139.2874  143.5724 LP  0  0  0  0  0  0  0  0  0  0  0  0  # atno 17320 bound_to 7965
  146.3529  140.0477  142.8638 LP  0  0  0  0  0  0  0  0  0  0  0  0  # atno 17321 bound_to 7965
  139.8409  144.7210  150.9332 LP  0  0  0  0  0  0  0  0  0  0  0  0  # atno 17342 bound_to 10162
  140.7805  143.3984  151.1191 LP  0  0  0  0  0  0  0  0  0  0  0  0  # atno 17343 bound_to 10162
  156.1184  130.6091  151.0155 LP  0  0  0  0  0  0  0  0  0  0  0  0  # atno 17370 bound_to 10713
  157.6620  131.0879  150.7817 LP  0  0  0  0  0  0  0  0  0  0  0  0  # atno 17371 bound_to 10713
  140.3902  134.2193  155.7166 LP  0  0  0  0  0  0  0  0  0  0  0  0  # atno 17394 bound_to 11000
  141.1935  133.8150  157.0797 LP  0  0  0  0  0  0  0  0  0  0  0  0  # atno 17395 bound_to 11000

$$$$
