AV-unprocessed.smi:2622|AV-procd|sdf|10227|dock3
  -GOLD-   2272014233D 1   1.00000     0.00000
 Structure written by MMmdl.
 26 27  0  0  0  0  0  0  0  0  2 V2000
  154.2334  140.1867  159.1886 O   0  0  0  0  0  0  0  0  0  0  0  0
  153.9377  141.2191  159.8312 C   0  0  0  0  0  0  0  0  0  0  0  0
  154.4151  141.4291  160.9682 O   0  5  0  0  0  0  0  0  0  0  0  0
  152.9840  142.2121  159.1967 C   0  0  0  0  0  0  0  0  0  0  0  0
  152.9713  143.5448  159.6772 C   0  0  0  0  0  0  0  0  0  0  0  0
  152.0990  144.4913  159.1113 C   0  0  0  0  0  0  0  0  0  0  0  0
  151.2548  144.0761  158.0699 C   0  0  0  0  0  0  0  0  0  0  0  0
  151.2441  142.8176  157.5914 N   0  0  0  0  0  0  0  0  0  0  0  0
  152.0825  141.8972  158.1315 C   0  0  0  0  0  0  0  0  0  0  0  0
  151.9991  140.6110  157.5711 N   0  0  0  0  0  0  0  0  0  0  0  0
  151.5441  139.5817  158.4957 C   0  0  0  0  0  0  0  0  0  0  0  0
  151.6764  138.1972  157.8385 C   0  0  0  0  0  0  0  0  0  0  0  0
  150.9629  138.1822  156.6045 O   0  0  0  0  0  0  0  0  0  0  0  0
  151.4690  139.1443  155.6822 C   0  0  0  0  0  0  0  0  0  0  0  0
  151.3291  140.5551  156.2789 C   0  0  0  0  0  0  0  0  0  0  0  0
  153.6239  143.8575  160.4792 H   0  0  0  0  0  0  0  0  0  0  0  0
  152.0790  145.5101  159.4685 H   0  0  0  0  0  0  0  0  0  0  0  0
  150.5697  144.7716  157.6082 H   0  0  0  0  0  0  0  0  0  0  0  0
  152.1339  139.6207  159.4122 H   0  0  0  0  0  0  0  0  0  0  0  0
  150.5041  139.7653  158.7691 H   0  0  0  0  0  0  0  0  0  0  0  0
  152.7251  137.9480  157.6675 H   0  0  0  0  0  0  0  0  0  0  0  0
  151.2688  137.4286  158.4951 H   0  0  0  0  0  0  0  0  0  0  0  0
  152.5117  138.9244  155.4466 H   0  0  0  0  0  0  0  0  0  0  0  0
  150.9094  139.0727  154.7498 H   0  0  0  0  0  0  0  0  0  0  0  0
  150.2740  140.8044  156.3985 H   0  0  0  0  0  0  0  0  0  0  0  0
  151.7645  141.2936  155.6047 H   0  0  0  0  0  0  0  0  0  0  0  0
  1  2  2  0  0  0  0
  2  3  1  0  0  0  0
  2  4  1  0  0  0  0
  4  9  1  0  0  0  0
  4  5  2  0  0  0  0
  5  6  1  0  0  0  0
  5 16  1  0  0  0  0
  6  7  2  0  0  0  0
  6 17  1  0  0  0  0
  7  8  1  0  0  0  0
  7 18  1  0  0  0  0
  8  9  2  0  0  0  0
  9 10  1  0  0  0  0
 10 15  1  0  0  0  0
 10 11  1  0  0  0  0
 11 12  1  0  0  0  0
 11 19  1  0  0  0  0
 11 20  1  0  0  0  0
 12 13  1  0  0  0  0
 12 21  1  0  0  0  0
 12 22  1  0  0  0  0
 13 14  1  0  0  0  0
 14 15  1  0  0  0  0
 14 23  1  0  0  0  0
 14 24  1  0  0  0  0
 15 25  1  0  0  0  0
 15 26  1  0  0  0  0
M  CHG  1   3  -1
M  END
> <s_m_source_file>
AV-unprocessed.smi

> <i_m_source_file_index>
2622

> <i_lp_mmshare_version>
43012

> <i_f3d_flags>
0

> <s_epik_input>
Tz1DKFtPSF0pYzFbY0hdW2NIXVtjSF1uYzFOMltDSDJdW0NIMl1PW0NIMl1bQ0gyXTI=

> <s_epik_cmdline>
J2VwaWtfcHl0aG9uJywgJy1waCcsICc3LjAnLCAnLXRuJywgJzgnLCAnLW1hJywgJzIwMCcsICctbWV0YWxfYmluZGluZycsICctaW1hZScsICc8aW5maWxlLm1hZT4nLCAnLW9tYWUnLCAnPG91dGZpbGUubWFlPic=

> <r_epik_Ionization_Penalty>
0.0087984

> <r_epik_Ionization_Penalty_Charging>
0.000175699

> <r_epik_Ionization_Penalty_Neutral>
0.0086227

> <r_epik_State_Penalty>
0.00645777

> <r_epik_Charging_Adjusted_Penalty>
0.00663347

> <i_epik_Tot_Q>
-1

> <i_epik_Tot_abs_Q>
1

> <r_epik_Metal_State_Penalty>
6.49305e-06

> <b_epik_Metal_Only>
0

> <s_lp_Force_Field>
OPLS_2005

> <r_lp_Energy>
24.8518

> <b_lp_Chiralities_Consistent>
1

> <s_lp_Variant>
AV-unprocessed.smi:2622-1

> <Gold.Version>
5.8.1

> <Gold.Id.Protein>
6NUR|6NUR_protein|mol2

> <Gold.PLP.Fitness>
37.5586

> <Gold.PLP.PLP>
-29.5459

> <Gold.PLP.part.hbond>
-1.7875

> <Gold.PLP.part.metal>
0.0000

> <Gold.PLP.part.buried>
-3.7326

> <Gold.PLP.part.nonpolar>
-23.9960

> <Gold.PLP.part.repulsive>
0.0940

> <Gold.PLP.ligand.clash>
0.0000

> <Gold.PLP.ligand.torsion>
0.4126

> <Gold.PLP.Chemscore.Hbond>
1.8880

> <Gold.PLP.Chemscore.CHOScore>
1.0025

> <Gold.PLP.Chemscore.Metal>
0.0000

> <Gold.Chemscore.Hbonds>
donor molecule, donor type, donor heavy atom, donor atom, acceptor molecule, acceptor atom, score
      P1  H  7997  8008       L1     1  1.87
      L1  C     7    18       P1  8028  0.99
      L1  C     7    18       P1  8029  0.01

> <Gold.PLP.Chemscore.Internal.Correction>
0.1665

> <Gold.Rescore>
     Score         DG    S(hbond)    S(metal)    S(lipo)     H(rot)  DE(clash)    DE(int)     intcor
     12.51     -14.55       0.99        0.00      71.24       1.00       0.01       2.03       ----

> <Gold.Chemscore.Fitness>
12.5108

> <Gold.Chemscore.DG>
-14.5450

> <Gold.Chemscore.ZeroCoef>
-5.4800

> <Gold.Chemscore.Hbond>
0.9850

> <Gold.Chemscore.Metal>
0.0000

> <Gold.Chemscore.Lipo>
71.2392

> <Gold.Chemscore.Internal_Hbond>
0.0000

> <Gold.Chemscore.DEClash>
0.0089

> <Gold.Chemscore.DEInternal>
2.0254

> <Gold.Chemscore.Rot>
1.0000

> <Gold.Chemscore.Internal.Correction>
   9.000000E+99

> <Gold.Chemscore.Hbonds>
donor molecule, donor type, donor heavy atom, donor atom, acceptor molecule, acceptor atom, score
      P1  H  7997  8008       L1     1  0.84

> <Gold.Chemscore.Hbond.Weighted>
-3.2901

> <Gold.Chemscore.Metal.Weighted>
-0.0000

> <Gold.Chemscore.Lipo.Weighted>
-8.3350

> <Gold.Chemscore.Internal_Hbond.Weighted>
0.0000

> <Gold.Chemscore.DEClash.Weighted>
0.0089

> <Gold.Chemscore.DEInternal.Weighted>
2.0254

> <Gold.Chemscore.Rot.Weighted>
2.5600

> <Gold.Chemscore.Internal.Correction.Weighted>
   9.000000E+99

> <Gold.Protein.RotatedTorsions>
[ 6907 6896 6895 6894 ] final   30.24 input  -60.11 | X-H torsion
[ 7974 7965 7964 7962 ] final  116.40 input  175.53 | X-H torsion
[ 8008 7997 7996 7995 ] final -112.52 input   59.86 | X-H torsion
[ 10167 10162 10161 10158 ] final -107.92 input  -65.29 | X-H torsion
[ 10718 10713 10712 10709 ] final  -61.57 input   66.30 | X-H torsion
[ 10763 10752 10751 10750 ] final -111.33 input  -60.55 | X-H torsion
[ 11005 11000 10999 10996 ] final -135.43 input  -57.11 | X-H torsion

> <Gold.Protein.ActiveResidues>
 VAL166  LYS551  ARG553  GLY616  TRP617  ASP618  TYR619  PRO620  LYS621  CYS622 
 ASP623  PHE694  ASN695  SER759  ASP760  ASP761  ALA762  ILE779  LEU786  VAL792 
 PHE793  MET794  SER795  GLU796  ALA797  LYS798  CYS799  TRP800  GLU811  SER814 

> <Gold.Protein.RotatedAtoms>
  152.0432  134.9699  160.0573 H   0  0  0  0  0  0  0  0  0  0  0  0  # atno 6907 bound_to 6896
  152.1129  133.4306  159.4648 H   0  0  0  0  0  0  0  0  0  0  0  0  # atno 6908 bound_to 6896
  150.6844  134.2545  159.4567 H   0  0  0  0  0  0  0  0  0  0  0  0  # atno 6909 bound_to 6896
  145.1801  139.3054  143.4422 H   0  0  0  0  0  0  0  0  0  0  0  0  # atno 7974 bound_to 7965
  155.0064  140.0394  157.2381 H   0  0  0  0  0  0  0  0  0  0  0  0  # atno 8008 bound_to 7997
  154.7498  140.2765  155.6279 H   0  0  0  0  0  0  0  0  0  0  0  0  # atno 8009 bound_to 7997
  156.2882  140.2649  156.2249 H   0  0  0  0  0  0  0  0  0  0  0  0  # atno 8010 bound_to 7997
  140.1717  143.4037  152.1349 H   0  0  0  0  0  0  0  0  0  0  0  0  # atno 10167 bound_to 10162
  156.0913  130.4200  150.1012 H   0  0  0  0  0  0  0  0  0  0  0  0  # atno 10718 bound_to 10713
  154.8294  135.4531  154.1023 H   0  0  0  0  0  0  0  0  0  0  0  0  # atno 10763 bound_to 10752
  153.2308  135.6905  153.7898 H   0  0  0  0  0  0  0  0  0  0  0  0  # atno 10764 bound_to 10752
  153.7281  135.3331  155.3257 H   0  0  0  0  0  0  0  0  0  0  0  0  # atno 10765 bound_to 10752
  140.8899  134.1825  157.4535 H   0  0  0  0  0  0  0  0  0  0  0  0  # atno 11005 bound_to 11000
  146.3454  140.1978  142.8589 LP  0  0  0  0  0  0  0  0  0  0  0  0  # atno 17320 bound_to 7965
  145.0145  140.8742  143.5204 LP  0  0  0  0  0  0  0  0  0  0  0  0  # atno 17321 bound_to 7965
  139.5335  144.7185  151.4974 LP  0  0  0  0  0  0  0  0  0  0  0  0  # atno 17342 bound_to 10162
  140.6578  143.8563  150.6854 LP  0  0  0  0  0  0  0  0  0  0  0  0  # atno 17343 bound_to 10162
  156.9022  130.9624  151.3575 LP  0  0  0  0  0  0  0  0  0  0  0  0  # atno 17370 bound_to 10713
  157.6063  130.8549  149.8880 LP  0  0  0  0  0  0  0  0  0  0  0  0  # atno 17371 bound_to 10713
  139.8728  134.9854  156.5280 LP  0  0  0  0  0  0  0  0  0  0  0  0  # atno 17394 bound_to 11000
  140.8359  133.8242  155.9029 LP  0  0  0  0  0  0  0  0  0  0  0  0  # atno 17395 bound_to 11000

$$$$
