AV-unprocessed.smi:2919|AV-procd|sdf|11194|dock8
  -GOLD-   2272016 83D 1   1.00000     0.00000
 Structure written by MMmdl.
 34 36  0  0  0  0  0  0  0  0  1 V2000
  152.4990  143.6069  161.8802 C   0  0  0  0  0  0  0  0  0  0  0  0
  151.8962  143.1969  160.5482 C   0  0  0  0  0  0  0  0  0  0  0  0
  150.8294  143.9275  160.1563 N   0  0  0  0  0  0  0  0  0  0  0  0
  150.2133  143.6604  159.0040 N   0  0  0  0  0  0  0  0  0  0  0  0
  150.6417  142.6565  158.2012 C   0  0  0  0  0  0  0  0  0  0  0  0
  149.9394  142.4353  157.0024 N   0  0  0  0  0  0  0  0  0  0  0  0
  149.4055  141.1152  156.6799 C   0  0  2  0  0  0  0  0  0  0  0  0
  150.1067  140.4642  155.4855 C   0  0  0  0  0  0  0  0  0  0  0  0
  148.9223  140.1269  154.5690 C   0  0  2  0  0  0  0  0  0  0  0  0
  148.3647  141.3814  153.8840 C   0  0  0  0  0  0  0  0  0  0  0  0
  147.6570  142.0791  155.0438 C   0  0  0  0  0  0  0  0  0  0  0  0
  147.9359  141.1174  156.2119 C   0  0  1  0  0  0  0  0  0  0  0  0
  147.9034  139.8787  155.5233 O   0  0  0  0  0  0  0  0  0  0  0  0
  151.7540  141.8477  158.5512 C   0  0  0  0  0  0  0  0  0  0  0  0
  152.2115  140.7666  157.6805 C   0  0  0  0  0  0  0  0  0  0  0  0
  152.5734  139.9106  156.9910 N   0  0  0  0  0  0  0  0  0  0  0  0
  152.4123  142.1287  159.7749 C   0  0  0  0  0  0  0  0  0  0  0  0
  153.6197  141.3132  160.2309 C   0  0  0  0  0  0  0  0  0  0  0  0
  152.4696  142.7750  162.5843 H   0  0  0  0  0  0  0  0  0  0  0  0
  151.9548  144.4403  162.3265 H   0  0  0  0  0  0  0  0  0  0  0  0
  153.5356  143.9186  161.7496 H   0  0  0  0  0  0  0  0  0  0  0  0
  149.5158  143.2307  156.5465 H   0  0  0  0  0  0  0  0  0  0  0  0
  149.5139  140.4577  157.5438 H   0  0  0  0  0  0  0  0  0  0  0  0
  150.8320  141.1128  154.9921 H   0  0  0  0  0  0  0  0  0  0  0  0
  150.6252  139.5580  155.8010 H   0  0  0  0  0  0  0  0  0  0  0  0
  149.1125  139.2982  153.8864 H   0  0  0  0  0  0  0  0  0  0  0  0
  149.1481  141.9931  153.4353 H   0  0  0  0  0  0  0  0  0  0  0  0
  147.6500  141.1148  153.1047 H   0  0  0  0  0  0  0  0  0  0  0  0
  148.0244  143.0898  155.2218 H   0  0  0  0  0  0  0  0  0  0  0  0
  146.5858  142.1422  154.8490 H   0  0  0  0  0  0  0  0  0  0  0  0
  147.2123  141.1917  157.0243 H   0  0  0  0  0  0  0  0  0  0  0  0
  154.4100  141.3574  159.4808 H   0  0  0  0  0  0  0  0  0  0  0  0
  153.3373  140.2689  160.3682 H   0  0  0  0  0  0  0  0  0  0  0  0
  154.0471  141.6612  161.1694 H   0  0  0  0  0  0  0  0  0  0  0  0
  1  2  1  0  0  0  0
  1 19  1  0  0  0  0
  1 20  1  0  0  0  0
  1 21  1  0  0  0  0
  2 17  1  0  0  0  0
  2  3  2  0  0  0  0
  3  4  1  0  0  0  0
  4  5  2  0  0  0  0
  5  6  1  0  0  0  0
  5 14  1  0  0  0  0
  6  7  1  0  0  0  0
  6 22  1  0  0  0  0
  7 12  1  0  0  0  0
  7  8  1  0  0  0  0
  7 23  1  0  0  0  0
  8  9  1  0  0  0  0
  8 24  1  0  0  0  0
  8 25  1  0  0  0  0
  9 13  1  0  0  0  0
  9 10  1  0  0  0  0
  9 26  1  0  0  0  0
 10 11  1  0  0  0  0
 10 27  1  0  0  0  0
 10 28  1  0  0  0  0
 11 12  1  0  0  0  0
 11 29  1  0  0  0  0
 11 30  1  0  0  0  0
 12 13  1  0  0  0  0
 12 31  1  0  0  0  0
 14 15  1  0  0  0  0
 14 17  2  0  0  0  0
 15 16  3  0  0  0  0
 17 18  1  0  0  0  0
 18 32  1  0  0  0  0
 18 33  1  0  0  0  0
 18 34  1  0  0  0  0
M  END
> <s_m_source_file>
AV-unprocessed.smi

> <i_m_source_file_index>
2919

> <i_lp_mmshare_version>
43012

> <i_f3d_flags>
0

> <s_epik_input>
W0NIM11jMW5uYyhjKEMjTiljMVtDSDNdKVtOSF1bQ0BIXShbQ0gyXVtDQEBIXTIzKVtDQEBIXShPMylbQ0gyXVtDSDJdMg==

> <s_epik_cmdline>
J2VwaWtfcHl0aG9uJywgJy1waCcsICc3LjAnLCAnLXRuJywgJzgnLCAnLW1hJywgJzIwMCcsICctbWV0YWxfYmluZGluZycsICctaW1hZScsICc8aW5maWxlLm1hZT4nLCAnLW9tYWUnLCAnPG91dGZpbGUubWFlPic=

> <r_lp_tautomer_probability>
1

> <r_epik_Ionization_Penalty>
0.00143865

> <r_epik_Ionization_Penalty_Charging>
0

> <r_epik_Ionization_Penalty_Neutral>
0.00143865

> <r_epik_State_Penalty>
-0

> <r_epik_Charging_Adjusted_Penalty>
0

> <i_epik_Tot_Q>
0

> <i_epik_Tot_abs_Q>
0

> <r_epik_Metal_State_Penalty>
-0

> <b_epik_Metal_Only>
0

> <s_lp_Force_Field>
OPLS_2005

> <r_lp_Energy>
49.1594

> <b_lp_Chiralities_Consistent>
1

> <s_lp_Variant>
AV-unprocessed.smi:2919-3

> <Gold.Version>
5.8.1

> <Gold.Id.Protein>
6NUR|6NUR_protein|mol2

> <Gold.PLP.Fitness>
37.9620

> <Gold.PLP.PLP>
-33.1294

> <Gold.PLP.part.hbond>
-2.2155

> <Gold.PLP.part.metal>
0.0000

> <Gold.PLP.part.buried>
-2.5071

> <Gold.PLP.part.nonpolar>
-27.8354

> <Gold.PLP.part.repulsive>
0.2662

> <Gold.PLP.ligand.clash>
0.0205

> <Gold.PLP.ligand.torsion>
0.5785

> <Gold.PLP.Chemscore.Hbond>
2.0000

> <Gold.PLP.Chemscore.CHOScore>
0.0000

> <Gold.PLP.Chemscore.Metal>
0.0000

> <Gold.Chemscore.Hbonds>
donor molecule, donor type, donor heavy atom, donor atom, acceptor molecule, acceptor atom, score
      L1  H     6    22       P1  8028  1.00
      P1  H  7997  8010       L1    16  1.00

> <Gold.PLP.Chemscore.Internal.Correction>
0.0102

> <Gold.Rescore>
     Score         DG    S(hbond)    S(metal)    S(lipo)     H(rot)  DE(clash)    DE(int)     intcor
     17.72     -19.30       1.96        0.00      84.08       1.00       0.00       1.58       ----

> <Gold.Chemscore.Fitness>
17.7171

> <Gold.Chemscore.DG>
-19.3037

> <Gold.Chemscore.ZeroCoef>
-5.4800

> <Gold.Chemscore.Hbond>
1.9599

> <Gold.Chemscore.Metal>
0.0000

> <Gold.Chemscore.Lipo>
84.0819

> <Gold.Chemscore.Internal_Hbond>
0.0000

> <Gold.Chemscore.DEClash>
0.0042

> <Gold.Chemscore.DEInternal>
1.5823

> <Gold.Chemscore.Rot>
1.0000

> <Gold.Chemscore.Internal.Correction>
   9.000000E+99

> <Gold.Chemscore.Hbonds>
donor molecule, donor type, donor heavy atom, donor atom, acceptor molecule, acceptor atom, score
      L1  H     6    22       P1  8028  1.00
      P1  H  7997  8010       L1    16  0.78

> <Gold.Chemscore.Hbond.Weighted>
-6.5461

> <Gold.Chemscore.Metal.Weighted>
-0.0000

> <Gold.Chemscore.Lipo.Weighted>
-9.8376

> <Gold.Chemscore.Internal_Hbond.Weighted>
0.0000

> <Gold.Chemscore.DEClash.Weighted>
0.0042

> <Gold.Chemscore.DEInternal.Weighted>
1.5823

> <Gold.Chemscore.Rot.Weighted>
2.5600

> <Gold.Chemscore.Internal.Correction.Weighted>
   9.000000E+99

> <Gold.Protein.RotatedTorsions>
[ 6907 6896 6895 6894 ] final   30.82 input  -60.11 | X-H torsion
[ 7974 7965 7964 7962 ] final   -2.10 input  175.53 | X-H torsion
[ 8008 7997 7996 7995 ] final   64.81 input   59.86 | X-H torsion
[ 10167 10162 10161 10158 ] final   54.18 input  -65.29 | X-H torsion
[ 10718 10713 10712 10709 ] final  -45.94 input   66.30 | X-H torsion
[ 10763 10752 10751 10750 ] final  -59.56 input  -60.55 | X-H torsion
[ 11005 11000 10999 10996 ] final -100.24 input  -57.11 | X-H torsion

> <Gold.Protein.ActiveResidues>
 VAL166  LYS551  ARG553  GLY616  TRP617  ASP618  TYR619  PRO620  LYS621  CYS622 
 ASP623  PHE694  ASN695  SER759  ASP760  ASP761  ALA762  ILE779  LEU786  VAL792 
 PHE793  MET794  SER795  GLU796  ALA797  LYS798  CYS799  TRP800  GLU811  SER814 

> <Gold.Protein.RotatedAtoms>
  152.0514  134.9651  160.0574 H   0  0  0  0  0  0  0  0  0  0  0  0  # atno 6907 bound_to 6896
  152.1050  133.4265  159.4613 H   0  0  0  0  0  0  0  0  0  0  0  0  # atno 6908 bound_to 6896
  150.6841  134.2634  159.4602 H   0  0  0  0  0  0  0  0  0  0  0  0  # atno 6909 bound_to 6896
  146.2409  140.1520  142.8334 H   0  0  0  0  0  0  0  0  0  0  0  0  # atno 7974 bound_to 7965
  155.6518  140.3497  155.4751 H   0  0  0  0  0  0  0  0  0  0  0  0  # atno 8008 bound_to 7997
  155.9841  140.1180  157.0722 H   0  0  0  0  0  0  0  0  0  0  0  0  # atno 8009 bound_to 7997
  154.4200  140.1132  156.5462 H   0  0  0  0  0  0  0  0  0  0  0  0  # atno 8010 bound_to 7997
  140.2329  144.3668  150.6408 H   0  0  0  0  0  0  0  0  0  0  0  0  # atno 10167 bound_to 10162
  156.2232  130.4167  149.8966 H   0  0  0  0  0  0  0  0  0  0  0  0  # atno 10718 bound_to 10713
  154.2556  135.6318  153.5256 H   0  0  0  0  0  0  0  0  0  0  0  0  # atno 10763 bound_to 10752
  152.9904  135.5575  154.5760 H   0  0  0  0  0  0  0  0  0  0  0  0  # atno 10764 bound_to 10752
  154.5297  135.2887  155.1166 H   0  0  0  0  0  0  0  0  0  0  0  0  # atno 10765 bound_to 10752
  141.1278  133.8383  157.1076 H   0  0  0  0  0  0  0  0  0  0  0  0  # atno 11005 bound_to 11000
  145.0160  140.8754  143.5196 LP  0  0  0  0  0  0  0  0  0  0  0  0  # atno 17320 bound_to 7965
  145.1561  139.2486  143.5416 LP  0  0  0  0  0  0  0  0  0  0  0  0  # atno 17321 bound_to 7965
  140.6172  143.2173  151.6768 LP  0  0  0  0  0  0  0  0  0  0  0  0  # atno 17342 bound_to 10162
  139.5104  144.3545  152.0621 LP  0  0  0  0  0  0  0  0  0  0  0  0  # atno 17343 bound_to 10162
  156.6605  130.8780  151.3546 LP  0  0  0  0  0  0  0  0  0  0  0  0  # atno 17370 bound_to 10713
  157.7098  130.9427  150.1050 LP  0  0  0  0  0  0  0  0  0  0  0  0  # atno 17371 bound_to 10713
  140.0295  134.9908  157.0751 LP  0  0  0  0  0  0  0  0  0  0  0  0  # atno 17394 bound_to 11000
  140.4309  134.1782  155.7168 LP  0  0  0  0  0  0  0  0  0  0  0  0  # atno 17395 bound_to 11000

$$$$
