#       Name:                AV-unprocessed.smi:677
#       Creating user name   scv26
#       Creation time:       Fri Mar 27 00:27:28 2020


#       File generated by GOLD software.
#

@<TRIPOS>MOLECULE
AV-unprocessed.smi:677
    48    49     1
SMALL
NO_CHARGES


@<TRIPOS>ATOM
      1 ****        -4.0314  -0.2026   2.8241 C.3            1 S1                 0.0000
      2 ****        -3.6323   0.2371   1.4309 C.ar           1 S1                 0.0000
      3 ****        -3.4305   1.6026   1.1419 C.ar           1 S1                 0.0000
      4 ****        -3.0600   1.9638  -0.1677 C.ar           1 S1                 0.0000
      5 ****        -2.9070   0.9492  -1.1353 C.ar           1 S1                 0.0000
      6 ****        -2.4818   1.2838  -2.5539 C.3            1 S1                 0.0000
      7 ****        -0.9564   1.3184  -2.6366 C.2            1 S1                 0.0000
      8 ****        -0.3632   2.3962  -2.6098 O.2            1 S1                 0.0000
      9 ****        -0.3387   0.1283  -2.6994 N.am           1 S1                 0.0000
     10 ****         1.1032  -0.0846  -2.6322 C.3            1 S1                 0.0000
     11 ****         1.5287  -0.6549  -1.2636 C.3            1 S1                 0.0000
     12 ****         1.1945   0.2766  -0.0820 C.3            1 S1                 0.0000
     13 ****         1.7053  -0.3027   1.2487 C.3            1 S1                 0.0000
     14 ****         3.1534  -0.5171   1.1918 N.3            1 S1                 0.0000
     15 ****         3.6356  -1.0282   2.4705 C.3            1 S1                 0.0000
     16 ****         3.5225  -0.0387   3.5553 C.1            1 S1                 0.0000
     17 ****         3.4334   0.7382   4.4082 N.1            1 S1                 0.0000
     18 ****         3.4663  -1.4932   0.1478 C.3            1 S1                 0.0000
     19 ****         3.0351  -0.9609  -1.2301 C.3            1 S1                 0.0000
     20 ****        -3.1385  -0.3867  -0.7436 C.ar           1 S1                 0.0000
     21 ****        -3.4924  -0.7421   0.5099 N.ar           1 S1                 0.0000
     22 ****        -3.5129   0.3925   3.5764 H              1 S1                 0.0000
     23 ****        -3.7856  -1.2515   2.9950 H              1 S1                 0.0000
     24 ****        -5.1047  -0.0742   2.9649 H              1 S1                 0.0000
     25 ****        -3.5532   2.3565   1.9056 H              1 S1                 0.0000
     26 ****        -2.8891   2.9997  -0.4217 H              1 S1                 0.0000
     27 ****        -2.8787   0.5447  -3.2513 H              1 S1                 0.0000
     28 ****        -2.8926   2.2512  -2.8463 H              1 S1                 0.0000
     29 ****        -0.9167  -0.6994  -2.7224 H              1 S1                 0.0000
     30 ****         1.3693  -0.7878  -3.4219 H              1 S1                 0.0000
     31 ****         1.6512   0.8341  -2.8478 H              1 S1                 0.0000
     32 ****         0.9939  -1.5940  -1.1113 H              1 S1                 0.0000
     33 ****         1.6344   1.2612  -0.2474 H              1 S1                 0.0000
     34 ****         0.1175   0.4284  -0.0077 H              1 S1                 0.0000
     35 ****         1.4644   0.3921   2.0535 H              1 S1                 0.0000
     36 ****         1.1951  -1.2406   1.4739 H              1 S1                 0.0000
     37 ****         3.0963  -1.9310   2.7609 H              1 S1                 0.0000
     38 ****         4.6919  -1.2881   2.3913 H              1 S1                 0.0000
     39 ****         4.5398  -1.6848   0.1406 H              1 S1                 0.0000
     40 ****         2.9731  -2.4429   0.3609 H              1 S1                 0.0000
     41 ****         3.2834  -1.6941  -1.9982 H              1 S1                 0.0000
     42 ****         3.6042  -0.0608  -1.4675 H              1 S1                 0.0000
     43 ****        -3.0261  -1.1938  -1.4525 H              1 S1                 0.0000
     44 ****        -0.8794   3.2493  -2.5340 LP             1 S1                 0.0000
     45 ****         0.6351   2.4190  -2.6640 LP             1 S1                 0.0000
     46 ****         3.5982   0.3554   0.9898 LP             1 S1                 0.0000
     47 ****         3.3564   1.4096   5.1452 LP             1 S1                 0.0000
     48 ****        -3.6463  -1.7007   0.7495 LP             1 S1                 0.0000
@<TRIPOS>BOND
    1    1    2 1     
    2    1   22 1     
    3    1   23 1     
    4    1   24 1     
    5    2   21 ar    
    6    2    3 ar    
    7    3    4 ar    
    8    3   25 1     
    9    4    5 ar    
   10    4   26 1     
   11    5    6 1     
   12    5   20 ar    
   13    6    7 1     
   14    6   27 1     
   15    6   28 1     
   16    7    8 2     
   17    7    9 am    
   18    9   10 1     
   19    9   29 1     
   20   10   11 1     
   21   10   30 1     
   22   10   31 1     
   23   11   19 1     
   24   11   12 1     
   25   11   32 1     
   26   12   13 1     
   27   12   33 1     
   28   12   34 1     
   29   13   14 1     
   30   13   35 1     
   31   13   36 1     
   32   14   15 1     
   33   14   18 1     
   34   15   16 1     
   35   15   37 1     
   36   15   38 1     
   37   16   17 3     
   38   18   19 1     
   39   18   39 1     
   40   18   40 1     
   41   19   41 1     
   42   19   42 1     
   43   20   21 ar    
   44   20   43 1     
   45    8   44 1     
   46    8   45 1     
   47   14   46 1     
   48   17   47 1     
   49   21   48 1     
@<TRIPOS>SUBSTRUCTURE
      1 S1             1
@<TRIPOS>SET
LONE_PAIRS      STATIC     ATOMS    <user>   **** ""
5 44 45 46 47 48
DONOR_HYDROGENS      STATIC     ATOMS    <user>   **** ""
1 29
ATOM$BLUE        STATIC     ATOMS    COLORGROUP SYSTEM
5 44 45 46 47 48
ATOM$RED        STATIC     ATOMS    COLORGROUP SYSTEM
1 29
