AV-unprocessed.smi:995|AV-procd|sdf|4346|dock8
  -GOLD-   22720 2243D 1   1.00000     0.00000
 Structure written by MMmdl.
 37 38  0  0  0  0  0  0  0  0  1 V2000
  153.0893  139.6726  157.8958 O   0  0  0  0  0  0  0  0  0  0  0  0
  152.6120  140.1639  158.9188 C   0  0  0  0  0  0  0  0  0  0  0  0
  152.5387  139.5258  160.1024 N   0  0  0  0  0  0  0  0  0  0  0  0
  152.9167  138.1935  160.4215 C   0  0  0  0  0  0  0  0  0  0  0  0
  153.3265  137.9218  161.7424 C   0  0  0  0  0  0  0  0  0  0  0  0
  153.6888  136.6077  162.0930 C   0  0  0  0  0  0  0  0  0  0  0  0
  153.6211  135.6000  161.1107 C   0  0  0  0  0  0  0  0  0  0  0  0
  153.9801  134.3143  161.4591 O   0  0  0  0  0  0  0  0  0  0  0  0
  153.9574  133.9504  162.8371 C   0  0  0  0  0  0  0  0  0  0  0  0
  153.7869  132.4286  162.9558 C   0  0  0  0  0  0  0  0  0  0  0  0
  152.9220  132.0079  162.0318 F   0  0  0  0  0  0  0  0  0  0  0  0
  154.9746  131.8591  162.7461 F   0  0  0  0  0  0  0  0  0  0  0  0
  153.2880  132.0011  164.3454 C   0  0  0  0  0  0  0  0  0  0  0  0
  154.1468  132.3637  165.2986 F   0  0  0  0  0  0  0  0  0  0  0  0
  152.0918  132.5312  164.6011 F   0  0  0  0  0  0  0  0  0  0  0  0
  153.2132  135.8470  159.8416 N   0  0  0  0  0  0  0  0  0  0  0  0
  152.8680  137.1096  159.5110 C   0  0  0  0  0  0  0  0  0  0  0  0
  152.1035  141.6138  158.9069 C   0  0  1  0  0  0  0  0  0  0  0  0
  153.0204  142.5786  159.6946 C   0  0  0  0  0  0  0  0  0  0  0  0
  152.5036  143.9000  159.6030 O   0  0  0  0  0  0  0  0  0  0  0  0
  152.4339  144.3367  158.2530 C   0  0  0  0  0  0  0  0  0  0  0  0
  151.5116  143.3887  157.4704 C   0  0  0  0  0  0  0  0  0  0  0  0
  152.0266  142.0668  157.5567 O   0  0  0  0  0  0  0  0  0  0  0  0
  152.2096  140.0816  160.8787 H   0  0  0  0  0  0  0  0  0  0  0  0
  153.3677  138.7098  162.4802 H   0  0  0  0  0  0  0  0  0  0  0  0
  154.0123  136.3766  163.0972 H   0  0  0  0  0  0  0  0  0  0  0  0
  154.8867  134.2537  163.3223 H   0  0  0  0  0  0  0  0  0  0  0  0
  153.1339  134.4563  163.3443 H   0  0  0  0  0  0  0  0  0  0  0  0
  153.1800  130.9181  164.4100 H   0  0  0  0  0  0  0  0  0  0  0  0
  152.5272  137.2300  158.4947 H   0  0  0  0  0  0  0  0  0  0  0  0
  151.1034  141.6159  159.3442 H   0  0  0  0  0  0  0  0  0  0  0  0
  153.0615  142.3010  160.7483 H   0  0  0  0  0  0  0  0  0  0  0  0
  154.0432  142.5512  159.3145 H   0  0  0  0  0  0  0  0  0  0  0  0
  152.0432  145.3540  158.2265 H   0  0  0  0  0  0  0  0  0  0  0  0
  153.4315  144.3623  157.8117 H   0  0  0  0  0  0  0  0  0  0  0  0
  150.4931  143.4236  157.8606 H   0  0  0  0  0  0  0  0  0  0  0  0
  151.4654  143.6848  156.4224 H   0  0  0  0  0  0  0  0  0  0  0  0
  1  2  2  0  0  0  0
  2  3  1  0  0  0  0
  2 18  1  0  0  0  0
  3  4  1  0  0  0  0
  3 24  1  0  0  0  0
  4 17  1  0  0  0  0
  4  5  2  0  0  0  0
  5  6  1  0  0  0  0
  5 25  1  0  0  0  0
  6  7  2  0  0  0  0
  6 26  1  0  0  0  0
  7  8  1  0  0  0  0
  7 16  1  0  0  0  0
  8  9  1  0  0  0  0
  9 10  1  0  0  0  0
  9 27  1  0  0  0  0
  9 28  1  0  0  0  0
 10 11  1  0  0  0  0
 10 12  1  0  0  0  0
 10 13  1  0  0  0  0
 13 14  1  0  0  0  0
 13 15  1  0  0  0  0
 13 29  1  0  0  0  0
 16 17  2  0  0  0  0
 17 30  1  0  0  0  0
 18 23  1  0  0  0  0
 18 19  1  0  0  0  0
 18 31  1  0  0  0  0
 19 20  1  0  0  0  0
 19 32  1  0  0  0  0
 19 33  1  0  0  0  0
 20 21  1  0  0  0  0
 21 22  1  0  0  0  0
 21 34  1  0  0  0  0
 21 35  1  0  0  0  0
 22 23  1  0  0  0  0
 22 36  1  0  0  0  0
 22 37  1  0  0  0  0
M  END
> <s_m_source_file>
AV-unprocessed.smi

> <i_m_source_file_index>
995

> <i_lp_mmshare_version>
43012

> <i_f3d_flags>
0

> <s_epik_input>
TzFbQ0gyXVtDSDJdT1tDSDJdW0NASF0xQyg9TylbTkhdYzJbY0hdW2NIXWMobltjSF0yKU9bQ0gyXUMoRikoRilbQ0hdKEYpRg==

> <s_epik_cmdline>
J2VwaWtfcHl0aG9uJywgJy1waCcsICc3LjAnLCAnLXRuJywgJzgnLCAnLW1hJywgJzIwMCcsICctbWV0YWxfYmluZGluZycsICctaW1hZScsICc8aW5maWxlLm1hZT4nLCAnLW9tYWUnLCAnPG91dGZpbGUubWFlPic=

> <r_lp_tautomer_probability>
1

> <r_epik_Ionization_Penalty>
2.54436e-06

> <r_epik_Ionization_Penalty_Charging>
0

> <r_epik_Ionization_Penalty_Neutral>
2.54436e-06

> <r_epik_State_Penalty>
-0

> <r_epik_Charging_Adjusted_Penalty>
0

> <i_epik_Tot_Q>
0

> <i_epik_Tot_abs_Q>
0

> <r_epik_Metal_State_Penalty>
-0

> <b_epik_Metal_Only>
0

> <s_lp_Force_Field>
OPLS_2005

> <r_lp_Energy>
9.88959

> <b_lp_Chiralities_Consistent>
1

> <s_lp_Variant>
AV-unprocessed.smi:995-2

> <Gold.Version>
5.8.1

> <Gold.Id.Protein>
6NUR|6NUR_protein|mol2

> <Gold.PLP.Fitness>
39.4349

> <Gold.PLP.PLP>
-35.5374

> <Gold.PLP.part.hbond>
-2.0000

> <Gold.PLP.part.metal>
0.0000

> <Gold.PLP.part.buried>
-2.0849

> <Gold.PLP.part.nonpolar>
-31.9620

> <Gold.PLP.part.repulsive>
0.1262

> <Gold.PLP.ligand.clash>
0.0000

> <Gold.PLP.ligand.torsion>
1.1146

> <Gold.PLP.Chemscore.Hbond>
2.0000

> <Gold.PLP.Chemscore.CHOScore>
0.0000

> <Gold.PLP.Chemscore.Metal>
0.0000

> <Gold.Chemscore.Hbonds>
donor molecule, donor type, donor heavy atom, donor atom, acceptor molecule, acceptor atom, score
      P1  H  6896  6909       L1    16  0.20
      P1  H  7997  8010       L1     1  1.00

> <Gold.PLP.Chemscore.Internal.Correction>
0.1266

> <Gold.Rescore>
     Score         DG    S(hbond)    S(metal)    S(lipo)     H(rot)  DE(clash)    DE(int)     intcor
     13.97     -15.63       1.69        0.00      84.84       2.12       0.11       1.55       ----

> <Gold.Chemscore.Fitness>
13.9654

> <Gold.Chemscore.DG>
-15.6252

> <Gold.Chemscore.ZeroCoef>
-5.4800

> <Gold.Chemscore.Hbond>
1.6885

> <Gold.Chemscore.Metal>
0.0000

> <Gold.Chemscore.Lipo>
84.8353

> <Gold.Chemscore.Internal_Hbond>
0.0000

> <Gold.Chemscore.DEClash>
0.1124

> <Gold.Chemscore.DEInternal>
1.5474

> <Gold.Chemscore.Rot>
2.1172

> <Gold.Chemscore.Internal.Correction>
   9.000000E+99

> <Gold.Chemscore.Hbonds>
donor molecule, donor type, donor heavy atom, donor atom, acceptor molecule, acceptor atom, score
      P1  H  7997  8010       L1     1  1.00

> <Gold.Chemscore.Hbond.Weighted>
-5.6395

> <Gold.Chemscore.Metal.Weighted>
-0.0000

> <Gold.Chemscore.Lipo.Weighted>
-9.9257

> <Gold.Chemscore.Internal_Hbond.Weighted>
0.0000

> <Gold.Chemscore.DEClash.Weighted>
0.1124

> <Gold.Chemscore.DEInternal.Weighted>
1.5474

> <Gold.Chemscore.Rot.Weighted>
5.4200

> <Gold.Chemscore.Internal.Correction.Weighted>
   9.000000E+99

> <Gold.Protein.RotatedTorsions>
[ 6907 6896 6895 6894 ] final  161.46 input  -60.11 | X-H torsion
[ 7974 7965 7964 7962 ] final   49.25 input  175.53 | X-H torsion
[ 8008 7997 7996 7995 ] final   41.35 input   59.86 | X-H torsion
[ 10167 10162 10161 10158 ] final  -65.68 input  -65.29 | X-H torsion
[ 10718 10713 10712 10709 ] final  -13.50 input   66.30 | X-H torsion
[ 10763 10752 10751 10750 ] final -126.61 input  -60.55 | X-H torsion
[ 11005 11000 10999 10996 ] final   13.12 input  -57.11 | X-H torsion

> <Gold.Protein.ActiveResidues>
 VAL166  LYS551  ARG553  GLY616  TRP617  ASP618  TYR619  PRO620  LYS621  CYS622 
 ASP623  PHE694  ASN695  SER759  ASP760  ASP761  ALA762  ILE779  LEU786  VAL792 
 PHE793  MET794  SER795  GLU796  ALA797  LYS798  CYS799  TRP800  GLU811  SER814 

> <Gold.Protein.RotatedAtoms>
  151.9553  133.3678  159.4014 H   0  0  0  0  0  0  0  0  0  0  0  0  # atno 6907 bound_to 6896
  150.6973  134.4298  159.5252 H   0  0  0  0  0  0  0  0  0  0  0  0  # atno 6908 bound_to 6896
  152.1977  134.8615  160.0562 H   0  0  0  0  0  0  0  0  0  0  0  0  # atno 6909 bound_to 6896
  146.0127  139.4561  142.9946 H   0  0  0  0  0  0  0  0  0  0  0  0  # atno 7974 bound_to 7965
  155.2681  140.3364  155.4267 H   0  0  0  0  0  0  0  0  0  0  0  0  # atno 8008 bound_to 7997
  156.2145  140.1783  156.7663 H   0  0  0  0  0  0  0  0  0  0  0  0  # atno 8009 bound_to 7997
  154.5733  140.0666  156.8981 H   0  0  0  0  0  0  0  0  0  0  0  0  # atno 8010 bound_to 7997
  140.5712  143.2318  151.6535 H   0  0  0  0  0  0  0  0  0  0  0  0  # atno 10167 bound_to 10162
  156.6293  130.4897  149.6135 H   0  0  0  0  0  0  0  0  0  0  0  0  # atno 10718 bound_to 10713
  154.8747  135.3990  154.3458 H   0  0  0  0  0  0  0  0  0  0  0  0  # atno 10763 bound_to 10752
  153.4251  135.7024  153.6273 H   0  0  0  0  0  0  0  0  0  0  0  0  # atno 10764 bound_to 10752
  153.4919  135.3746  155.2466 H   0  0  0  0  0  0  0  0  0  0  0  0  # atno 10765 bound_to 10752
  140.4843  134.0903  155.7757 H   0  0  0  0  0  0  0  0  0  0  0  0  # atno 11005 bound_to 11000
  145.7317  141.0040  143.1348 LP  0  0  0  0  0  0  0  0  0  0  0  0  # atno 17320 bound_to 7965
  144.6959  139.8992  143.7457 LP  0  0  0  0  0  0  0  0  0  0  0  0  # atno 17321 bound_to 7965
  139.5118  144.3496  152.0665 LP  0  0  0  0  0  0  0  0  0  0  0  0  # atno 17342 bound_to 10162
  140.2634  144.4043  150.6177 LP  0  0  0  0  0  0  0  0  0  0  0  0  # atno 17343 bound_to 10162
  156.2248  130.6759  151.1404 LP  0  0  0  0  0  0  0  0  0  0  0  0  # atno 17370 bound_to 10713
  157.7205  131.0684  150.6156 LP  0  0  0  0  0  0  0  0  0  0  0  0  # atno 17371 bound_to 10713
  141.1515  133.8959  157.2084 LP  0  0  0  0  0  0  0  0  0  0  0  0  # atno 17394 bound_to 11000
  139.9807  135.0099  156.9743 LP  0  0  0  0  0  0  0  0  0  0  0  0  # atno 17395 bound_to 11000

$$$$
