AV-unprocessed.smi:247|AV-procd|sdf|1891|dock2
  -GOLD-   2262020553D 1   1.00000     0.00000
 Structure written by MMmdl.
 61 65  0  0  0  0  0  0  0  0  1 V2000
  147.6034  132.2993  152.2431 O   0  0  0  0  0  0  0  0  0  0  0  0
  147.0085  133.5633  152.0231 C   0  0  0  0  0  0  0  0  0  0  0  0
  145.6916  133.4923  151.2009 C   0  0  0  0  0  0  0  0  0  0  0  0
  145.1855  134.9474  150.9458 C   0  0  0  0  0  0  0  0  0  0  0  0
  145.3523  135.8665  152.0632 N   0  0  0  0  0  0  0  0  0  0  0  0
  146.2847  136.8730  152.1708 C   0  0  0  0  0  0  0  0  0  0  0  0
  146.2300  137.5668  153.2739 N   0  0  0  0  0  0  0  0  0  0  0  0
  145.1617  137.0169  153.9741 C   0  0  0  0  0  0  0  0  0  0  0  0
  144.5540  137.2839  155.2362 C   0  0  0  0  0  0  0  0  0  0  0  0
  144.9825  138.2605  156.0810 N   0  0  0  0  0  0  0  0  0  0  0  0
  144.5422  138.2400  157.4709 C   0  0  0  0  0  0  0  0  0  0  0  0
  145.6682  138.8860  158.2772 C   0  0  0  0  0  0  0  0  0  0  0  0
  146.8752  138.7742  157.3493 C   0  0  0  0  0  0  0  0  0  0  0  0
  146.2751  138.9382  155.9409 C   0  0  2  0  0  0  0  0  0  0  0  0
  146.1203  140.4298  155.4870 C   0  0  1  0  0  0  0  0  0  0  0  0
  146.6698  141.4129  156.5505 C   0  0  0  0  0  0  0  0  0  0  0  0
  148.0800  141.2541  156.6873 O   0  0  0  0  0  0  0  0  0  0  0  0
  148.8018  141.6111  155.5123 C   0  0  0  0  0  0  0  0  0  0  0  0
  148.3592  140.7435  154.3229 C   0  0  0  0  0  0  0  0  0  0  0  0
  146.8346  140.8170  154.1635 C   0  0  1  0  0  0  0  0  0  0  0  0
  146.4060  140.0811  153.0362 O   0  0  0  0  0  0  0  0  0  0  0  0
  143.5052  136.4980  155.5953 N   0  0  0  0  0  0  0  0  0  0  0  0
  143.0705  135.5294  154.7853 C   0  0  0  0  0  0  0  0  0  0  0  0
  143.5358  135.1736  153.5876 N   0  0  0  0  0  0  0  0  0  0  0  0
  144.5966  135.9479  153.2209 C   0  0  0  0  0  0  0  0  0  0  0  0
  145.9399  132.7224  149.8776 C   0  0  0  0  0  0  0  0  0  0  0  0
  144.6334  132.4123  149.1260 C   0  0  0  0  0  0  0  0  0  0  0  0
  143.7579  131.6705  149.9665 O   0  0  0  0  0  0  0  0  0  0  0  0
  143.3704  132.3821  151.1359 C   0  0  0  0  0  0  0  0  0  0  0  0
  144.6079  132.7145  151.9918 C   0  0  0  0  0  0  0  0  0  0  0  0
  148.0583  132.0402  151.4564 H   0  0  0  0  0  0  0  0  0  0  0  0
  146.8242  134.0223  152.9948 H   0  0  0  0  0  0  0  0  0  0  0  0
  147.7487  134.1820  151.5159 H   0  0  0  0  0  0  0  0  0  0  0  0
  145.6799  135.3964  150.0858 H   0  0  0  0  0  0  0  0  0  0  0  0
  144.1257  134.9272  150.6878 H   0  0  0  0  0  0  0  0  0  0  0  0
  147.0186  137.0735  151.4041 H   0  0  0  0  0  0  0  0  0  0  0  0
  143.6024  138.7784  157.5958 H   0  0  0  0  0  0  0  0  0  0  0  0
  144.3934  137.2102  157.7986 H   0  0  0  0  0  0  0  0  0  0  0  0
  145.4385  139.9357  158.4626 H   0  0  0  0  0  0  0  0  0  0  0  0
  145.8277  138.4020  159.2411 H   0  0  0  0  0  0  0  0  0  0  0  0
  147.6677  139.4720  157.6086 H   0  0  0  0  0  0  0  0  0  0  0  0
  147.2990  137.7730  157.4394 H   0  0  0  0  0  0  0  0  0  0  0  0
  146.9357  138.4298  155.2396 H   0  0  0  0  0  0  0  0  0  0  0  0
  145.0567  140.6346  155.3591 H   0  0  0  0  0  0  0  0  0  0  0  0
  146.4460  142.4438  156.2708 H   0  0  0  0  0  0  0  0  0  0  0  0
  146.2040  141.2745  157.5231 H   0  0  0  0  0  0  0  0  0  0  0  0
  148.6484  142.6691  155.2945 H   0  0  0  0  0  0  0  0  0  0  0  0
  149.8676  141.4777  155.6976 H   0  0  0  0  0  0  0  0  0  0  0  0
  148.8539  141.0842  153.4129 H   0  0  0  0  0  0  0  0  0  0  0  0
  148.6779  139.7140  154.4807 H   0  0  0  0  0  0  0  0  0  0  0  0
  146.5766  141.8524  153.9360 H   0  0  0  0  0  0  0  0  0  0  0  0
  145.6038  140.4632  152.7148 H   0  0  0  0  0  0  0  0  0  0  0  0
  142.2299  134.9579  155.1506 H   0  0  0  0  0  0  0  0  0  0  0  0
  146.6317  133.2605  149.2306 H   0  0  0  0  0  0  0  0  0  0  0  0
  146.4255  131.7696  150.0900 H   0  0  0  0  0  0  0  0  0  0  0  0
  144.1431  133.3211  148.7766 H   0  0  0  0  0  0  0  0  0  0  0  0
  144.8505  131.8156  148.2400 H   0  0  0  0  0  0  0  0  0  0  0  0
  142.8131  133.2785  150.8634 H   0  0  0  0  0  0  0  0  0  0  0  0
  142.6850  131.7571  151.7084 H   0  0  0  0  0  0  0  0  0  0  0  0
  145.0120  131.7699  152.3565 H   0  0  0  0  0  0  0  0  0  0  0  0
  144.3085  133.2732  152.8793 H   0  0  0  0  0  0  0  0  0  0  0  0
  1  2  1  0  0  0  0
  1 31  1  0  0  0  0
  2  3  1  0  0  0  0
  2 32  1  0  0  0  0
  2 33  1  0  0  0  0
  3 30  1  0  0  0  0
  3  4  1  0  0  0  0
  3 26  1  0  0  0  0
  4  5  1  0  0  0  0
  4 34  1  0  0  0  0
  4 35  1  0  0  0  0
  5 25  1  0  0  0  0
  5  6  1  0  0  0  0
  6  7  2  0  0  0  0
  6 36  1  0  0  0  0
  7  8  1  0  0  0  0
  8 25  2  0  0  0  0
  8  9  1  0  0  0  0
  9 10  1  0  0  0  0
  9 22  2  0  0  0  0
 10 14  1  0  0  0  0
 10 11  1  0  0  0  0
 11 12  1  0  0  0  0
 11 37  1  0  0  0  0
 11 38  1  0  0  0  0
 12 13  1  0  0  0  0
 12 39  1  0  0  0  0
 12 40  1  0  0  0  0
 13 14  1  0  0  0  0
 13 41  1  0  0  0  0
 13 42  1  0  0  0  0
 14 15  1  0  0  0  0
 14 43  1  0  0  0  0
 15 20  1  0  0  0  0
 15 16  1  0  0  0  0
 15 44  1  0  0  0  0
 16 17  1  0  0  0  0
 16 45  1  0  0  0  0
 16 46  1  0  0  0  0
 17 18  1  0  0  0  0
 18 19  1  0  0  0  0
 18 47  1  0  0  0  0
 18 48  1  0  0  0  0
 19 20  1  0  0  0  0
 19 49  1  0  0  0  0
 19 50  1  0  0  0  0
 20 21  1  0  0  0  0
 20 51  1  0  0  0  0
 21 52  1  0  0  0  0
 22 23  1  0  0  0  0
 23 24  2  0  0  0  0
 23 53  1  0  0  0  0
 24 25  1  0  0  0  0
 26 27  1  0  0  0  0
 26 54  1  0  0  0  0
 26 55  1  0  0  0  0
 27 28  1  0  0  0  0
 27 56  1  0  0  0  0
 27 57  1  0  0  0  0
 28 29  1  0  0  0  0
 29 30  1  0  0  0  0
 29 58  1  0  0  0  0
 29 59  1  0  0  0  0
 30 60  1  0  0  0  0
 30 61  1  0  0  0  0
M  END
> <s_m_source_file>
AV-unprocessed.smi

> <i_m_source_file_index>
247

> <i_lp_mmshare_version>
43012

> <i_f3d_flags>
0

> <s_epik_input>
W0NIMl0xW0NIMl1PW0NIMl1bQ0gyXUMxKFtDSDJdW09IXSlbQ0gyXW4oW2NIXW4yKWMoYzIzKW5bY0hdbmMzTjRbQ0gyXVtDSDJdW0NIMl1bQ0BIXTRbQ0BASF01W0NIMl1PW0NIMl1bQ0gyXVtDQEhdNVtPSF0=

> <s_epik_cmdline>
J2VwaWtfcHl0aG9uJywgJy1waCcsICc3LjAnLCAnLXRuJywgJzgnLCAnLW1hJywgJzIwMCcsICctbWV0YWxfYmluZGluZycsICctaW1hZScsICc8aW5maWxlLm1hZT4nLCAnLW9tYWUnLCAnPG91dGZpbGUubWFlPic=

> <r_lp_tautomer_probability>
1

> <r_epik_Ionization_Penalty>
0.00362597

> <r_epik_Ionization_Penalty_Charging>
0

> <r_epik_Ionization_Penalty_Neutral>
0.00362597

> <r_epik_State_Penalty>
0.00241433

> <r_epik_Charging_Adjusted_Penalty>
0.00241433

> <i_epik_Tot_Q>
0

> <i_epik_Tot_abs_Q>
0

> <r_epik_Metal_State_Penalty>
-0

> <b_epik_Metal_Only>
0

> <s_lp_Force_Field>
OPLS_2005

> <r_lp_Energy>
63.0173

> <b_lp_Chiralities_Consistent>
1

> <s_lp_Variant>
AV-unprocessed.smi:247-4

> <Gold.Version>
5.8.1

> <Gold.Id.Protein>
6NUR|6NUR_protein|mol2

> <Gold.PLP.Fitness>
41.5523

> <Gold.PLP.PLP>
-31.6353

> <Gold.PLP.part.hbond>
-3.0000

> <Gold.PLP.part.metal>
0.0000

> <Gold.PLP.part.buried>
-3.2716

> <Gold.PLP.part.nonpolar>
-27.6043

> <Gold.PLP.part.repulsive>
0.5506

> <Gold.PLP.ligand.clash>
0.0000

> <Gold.PLP.ligand.torsion>
2.1089

> <Gold.PLP.Chemscore.Hbond>
2.8880

> <Gold.PLP.Chemscore.CHOScore>
1.6897

> <Gold.PLP.Chemscore.Metal>
0.0000

> <Gold.Chemscore.Hbonds>
donor molecule, donor type, donor heavy atom, donor atom, acceptor molecule, acceptor atom, score
      L1  H     1    31       P1 10747  1.00
      L1  H    21    52       P1 10175  1.00
      P1  H 10785 10796       L1    28  0.84
      L1  C     6    36       P1  7948  0.68
      L1  C    23    53       P1 11000  0.97

> <Gold.PLP.Chemscore.Internal.Correction>
0.4017

> <Gold.Rescore>
     Score         DG    S(hbond)    S(metal)    S(lipo)     H(rot)  DE(clash)    DE(int)     intcor
     10.48     -15.99       2.56        0.00      81.25       2.94       1.55       3.96       ----

> <Gold.Chemscore.Fitness>
10.4810

> <Gold.Chemscore.DG>
-15.9923

> <Gold.Chemscore.ZeroCoef>
-5.4800

> <Gold.Chemscore.Hbond>
2.5565

> <Gold.Chemscore.Metal>
0.0000

> <Gold.Chemscore.Lipo>
81.2483

> <Gold.Chemscore.Internal_Hbond>
0.0000

> <Gold.Chemscore.DEClash>
1.5508

> <Gold.Chemscore.DEInternal>
3.9606

> <Gold.Chemscore.Rot>
2.9423

> <Gold.Chemscore.Internal.Correction>
   9.000000E+99

> <Gold.Chemscore.Hbonds>
donor molecule, donor type, donor heavy atom, donor atom, acceptor molecule, acceptor atom, score
      L1  H     1    31       P1 10747  0.99
      L1  H    21    52       P1 10175  0.68
      P1  H 10785 10796       L1    28  0.27

> <Gold.Chemscore.Hbond.Weighted>
-8.5386

> <Gold.Chemscore.Metal.Weighted>
-0.0000

> <Gold.Chemscore.Lipo.Weighted>
-9.5061

> <Gold.Chemscore.Internal_Hbond.Weighted>
0.0000

> <Gold.Chemscore.DEClash.Weighted>
1.5508

> <Gold.Chemscore.DEInternal.Weighted>
3.9606

> <Gold.Chemscore.Rot.Weighted>
7.5323

> <Gold.Chemscore.Internal.Correction.Weighted>
   9.000000E+99

> <Gold.Protein.RotatedTorsions>
[ 6907 6896 6895 6894 ] final -165.50 input  -60.11 | X-H torsion
[ 7974 7965 7964 7962 ] final -130.58 input  175.53 | X-H torsion
[ 8008 7997 7996 7995 ] final   -2.62 input   59.86 | X-H torsion
[ 10167 10162 10161 10158 ] final  116.40 input  -65.29 | X-H torsion
[ 10718 10713 10712 10709 ] final    7.98 input   66.30 | X-H torsion
[ 10763 10752 10751 10750 ] final -160.71 input  -60.55 | X-H torsion
[ 11005 11000 10999 10996 ] final  160.68 input  -57.11 | X-H torsion

> <Gold.Protein.ActiveResidues>
 VAL166  LYS551  ARG553  GLY616  TRP617  ASP618  TYR619  PRO620  LYS621  CYS622 
 ASP623  PHE694  ASN695  SER759  ASP760  ASP761  ALA762  ILE779  LEU786  VAL792 
 PHE793  MET794  SER795  GLU796  ALA797  LYS798  CYS799  TRP800  GLU811  SER814 

> <Gold.Protein.RotatedAtoms>
  151.4287  133.3676  159.2765 H   0  0  0  0  0  0  0  0  0  0  0  0  # atno 6907 bound_to 6896
  150.9241  134.8659  159.7519 H   0  0  0  0  0  0  0  0  0  0  0  0  # atno 6908 bound_to 6896
  152.4996  134.4227  159.9538 H   0  0  0  0  0  0  0  0  0  0  0  0  # atno 6909 bound_to 6896
  144.9461  140.7293  143.4816 H   0  0  0  0  0  0  0  0  0  0  0  0  # atno 7974 bound_to 7965
  154.6337  140.2530  155.7403 H   0  0  0  0  0  0  0  0  0  0  0  0  # atno 8008 bound_to 7997
  156.2493  140.2901  156.0621 H   0  0  0  0  0  0  0  0  0  0  0  0  # atno 8009 bound_to 7997
  155.1704  140.0386  157.2852 H   0  0  0  0  0  0  0  0  0  0  0  0  # atno 8010 bound_to 7997
  139.6250  144.7107  151.2553 H   0  0  0  0  0  0  0  0  0  0  0  0  # atno 10167 bound_to 10162
  156.9449  130.5875  149.5654 H   0  0  0  0  0  0  0  0  0  0  0  0  # atno 10718 bound_to 10713
  154.7367  135.3059  154.8799 H   0  0  0  0  0  0  0  0  0  0  0  0  # atno 10763 bound_to 10752
  153.9626  135.6751  153.4749 H   0  0  0  0  0  0  0  0  0  0  0  0  # atno 10764 bound_to 10752
  153.0969  135.4931  154.8718 H   0  0  0  0  0  0  0  0  0  0  0  0  # atno 10765 bound_to 10752
  140.2083  134.8286  157.3093 H   0  0  0  0  0  0  0  0  0  0  0  0  # atno 11005 bound_to 11000
  145.2915  139.1882  143.4738 LP  0  0  0  0  0  0  0  0  0  0  0  0  # atno 17320 bound_to 7965
  146.3304  140.2892  142.8614 LP  0  0  0  0  0  0  0  0  0  0  0  0  # atno 17321 bound_to 7965
  140.7405  143.6585  150.8185 LP  0  0  0  0  0  0  0  0  0  0  0  0  # atno 17342 bound_to 10162
  140.0202  143.5551  152.2804 LP  0  0  0  0  0  0  0  0  0  0  0  0  # atno 17343 bound_to 10162
  156.0388  130.5473  150.8720 LP  0  0  0  0  0  0  0  0  0  0  0  0  # atno 17370 bound_to 10713
  157.5761  131.0946  150.9344 LP  0  0  0  0  0  0  0  0  0  0  0  0  # atno 17371 bound_to 10713
  140.1978  134.4292  155.7679 LP  0  0  0  0  0  0  0  0  0  0  0  0  # atno 17394 bound_to 11000
  141.2226  133.7057  156.8134 LP  0  0  0  0  0  0  0  0  0  0  0  0  # atno 17395 bound_to 11000

$$$$
