AV-unprocessed.smi:2594|AV-procd|sdf|10167|dock3
  -GOLD-   2272014183D 1   1.00000     0.00000
 Structure written by MMmdl.
 29 30  0  0  0  0  0  0  0  0  1 V2000
  150.1699  141.6573  158.3515 O   0  0  0  0  0  0  0  0  0  0  0  0
  151.1792  141.5802  157.6487 C   0  0  0  0  0  0  0  0  0  0  0  0
  151.0710  141.4153  156.1268 C   0  0  0  0  0  0  0  0  0  0  0  0
  151.3068  140.0433  155.6749 N   0  0  0  0  0  0  0  0  0  0  0  0
  150.8246  139.6751  154.4576 N   0  0  0  0  0  0  0  0  0  0  0  0
  151.0941  138.4497  154.1971 C   0  0  0  0  0  0  0  0  0  0  0  0
  151.9985  137.5693  155.4355 S   0  0  0  0  0  0  0  0  0  0  0  0
  151.9907  139.0715  156.4001 C   0  0  0  0  0  0  0  0  0  0  0  0
  152.5155  139.1699  157.5078 O   0  0  0  0  0  0  0  0  0  0  0  0
  152.4242  141.6542  158.1425 N   0  0  0  0  0  0  0  0  0  0  0  0
  152.7591  141.8301  159.5509 C   0  0  0  0  0  0  0  0  0  0  0  0
  152.6464  143.3022  159.9800 C   0  0  1  0  0  0  0  0  0  0  0  0
  153.1089  144.2912  158.9129 C   0  0  0  0  0  0  0  0  0  0  0  0
  152.3838  145.5486  159.3351 C   0  0  0  0  0  0  0  0  0  0  0  0
  151.0422  144.9973  159.8130 C   0  0  0  0  0  0  0  0  0  0  0  0
  151.2871  143.6540  160.2249 O   0  0  0  0  0  0  0  0  0  0  0  0
  150.0811  141.7498  155.8117 H   0  0  0  0  0  0  0  0  0  0  0  0
  151.7884  142.0771  155.6385 H   0  0  0  0  0  0  0  0  0  0  0  0
  150.8193  137.9090  153.2917 H   0  0  0  0  0  0  0  0  0  0  0  0
  153.1967  141.5930  157.4952 H   0  0  0  0  0  0  0  0  0  0  0  0
  152.1088  141.2061  160.1664 H   0  0  0  0  0  0  0  0  0  0  0  0
  153.7757  141.4693  159.7109 H   0  0  0  0  0  0  0  0  0  0  0  0
  153.2140  143.4807  160.8950 H   0  0  0  0  0  0  0  0  0  0  0  0
  154.1922  144.4106  158.8846 H   0  0  0  0  0  0  0  0  0  0  0  0
  152.7710  143.9795  157.9233 H   0  0  0  0  0  0  0  0  0  0  0  0
  152.9119  146.0216  160.1638 H   0  0  0  0  0  0  0  0  0  0  0  0
  152.2844  146.2792  158.5319 H   0  0  0  0  0  0  0  0  0  0  0  0
  150.6203  145.5899  160.6251 H   0  0  0  0  0  0  0  0  0  0  0  0
  150.3202  144.9811  158.9957 H   0  0  0  0  0  0  0  0  0  0  0  0
  1  2  2  0  0  0  0
  2  3  1  0  0  0  0
  2 10  1  0  0  0  0
  3  4  1  0  0  0  0
  3 17  1  0  0  0  0
  3 18  1  0  0  0  0
  4  8  1  0  0  0  0
  4  5  1  0  0  0  0
  5  6  2  0  0  0  0
  6  7  1  0  0  0  0
  6 19  1  0  0  0  0
  7  8  1  0  0  0  0
  8  9  2  0  0  0  0
 10 11  1  0  0  0  0
 10 20  1  0  0  0  0
 11 12  1  0  0  0  0
 11 21  1  0  0  0  0
 11 22  1  0  0  0  0
 12 16  1  0  0  0  0
 12 13  1  0  0  0  0
 12 23  1  0  0  0  0
 13 14  1  0  0  0  0
 13 24  1  0  0  0  0
 13 25  1  0  0  0  0
 14 15  1  0  0  0  0
 14 26  1  0  0  0  0
 14 27  1  0  0  0  0
 15 16  1  0  0  0  0
 15 28  1  0  0  0  0
 15 29  1  0  0  0  0
M  END
> <s_m_source_file>
AV-unprocessed.smi

> <i_m_source_file_index>
2594

> <i_lp_mmshare_version>
43012

> <i_f3d_flags>
0

> <s_epik_input>
TzFbQ0gyXVtDSDJdW0NIMl1bQ0BIXTFbQ0gyXVtOSF1DKD1PKVtDSDJdbjJuW2NIXXNjMj1P

> <s_epik_cmdline>
J2VwaWtfcHl0aG9uJywgJy1waCcsICc3LjAnLCAnLXRuJywgJzgnLCAnLW1hJywgJzIwMCcsICctbWV0YWxfYmluZGluZycsICctaW1hZScsICc8aW5maWxlLm1hZT4nLCAnLW9tYWUnLCAnPG91dGZpbGUubWFlPic=

> <r_lp_tautomer_probability>
1

> <r_epik_Ionization_Penalty>
2.49222e-07

> <r_epik_Ionization_Penalty_Charging>
1.4085e-08

> <r_epik_Ionization_Penalty_Neutral>
2.35137e-07

> <r_epik_State_Penalty>
-0

> <r_epik_Charging_Adjusted_Penalty>
1.4085e-08

> <i_epik_Tot_Q>
0

> <i_epik_Tot_abs_Q>
0

> <r_epik_Metal_State_Penalty>
-0

> <b_epik_Metal_Only>
0

> <s_lp_Force_Field>
OPLS_2005

> <r_lp_Energy>
18.288

> <b_lp_Chiralities_Consistent>
1

> <s_lp_Variant>
AV-unprocessed.smi:2594-2

> <Gold.Version>
5.8.1

> <Gold.Id.Protein>
6NUR|6NUR_protein|mol2

> <Gold.PLP.Fitness>
41.6800

> <Gold.PLP.PLP>
-35.2218

> <Gold.PLP.part.hbond>
-2.9921

> <Gold.PLP.part.metal>
0.0000

> <Gold.PLP.part.buried>
-1.9079

> <Gold.PLP.part.nonpolar>
-29.9661

> <Gold.PLP.part.repulsive>
0.3018

> <Gold.PLP.ligand.clash>
0.0000

> <Gold.PLP.ligand.torsion>
0.9082

> <Gold.PLP.Chemscore.Hbond>
1.8500

> <Gold.PLP.Chemscore.CHOScore>
0.8983

> <Gold.PLP.Chemscore.Metal>
0.0000

> <Gold.Chemscore.Hbonds>
donor molecule, donor type, donor heavy atom, donor atom, acceptor molecule, acceptor atom, score
      P1  H  7989  7998       L1     5  0.95
      P1  H  7997  8008       L1     9  0.43
      L1  C     6    19       P1  7948  0.12
      L1  C     6    19       P1  7949  0.62

> <Gold.PLP.Chemscore.Internal.Correction>
0.0299

> <Gold.Rescore>
     Score         DG    S(hbond)    S(metal)    S(lipo)     H(rot)  DE(clash)    DE(int)     intcor
     10.84     -13.33       0.95        0.00      83.60       2.00       0.22       2.26       ----

> <Gold.Chemscore.Fitness>
10.8427

> <Gold.Chemscore.DG>
-13.3269

> <Gold.Chemscore.ZeroCoef>
-5.4800

> <Gold.Chemscore.Hbond>
0.9501

> <Gold.Chemscore.Metal>
0.0000

> <Gold.Chemscore.Lipo>
83.6015

> <Gold.Chemscore.Internal_Hbond>
0.0000

> <Gold.Chemscore.DEClash>
0.2233

> <Gold.Chemscore.DEInternal>
2.2609

> <Gold.Chemscore.Rot>
1.9952

> <Gold.Chemscore.Internal.Correction>
   9.000000E+99

> <Gold.Chemscore.Hbonds>
donor molecule, donor type, donor heavy atom, donor atom, acceptor molecule, acceptor atom, score
      P1  H  7989  7998       L1     5  0.20
      P1  H  7997  8008       L1     9  0.10

> <Gold.Chemscore.Hbond.Weighted>
-3.1732

> <Gold.Chemscore.Metal.Weighted>
-0.0000

> <Gold.Chemscore.Lipo.Weighted>
-9.7814

> <Gold.Chemscore.Internal_Hbond.Weighted>
0.0000

> <Gold.Chemscore.DEClash.Weighted>
0.2233

> <Gold.Chemscore.DEInternal.Weighted>
2.2609

> <Gold.Chemscore.Rot.Weighted>
5.1077

> <Gold.Chemscore.Internal.Correction.Weighted>
   9.000000E+99

> <Gold.Protein.RotatedTorsions>
[ 6907 6896 6895 6894 ] final  -12.93 input  -60.11 | X-H torsion
[ 7974 7965 7964 7962 ] final   43.74 input  175.53 | X-H torsion
[ 8008 7997 7996 7995 ] final  -76.06 input   59.86 | X-H torsion
[ 10167 10162 10161 10158 ] final   13.38 input  -65.29 | X-H torsion
[ 10718 10713 10712 10709 ] final  130.05 input   66.30 | X-H torsion
[ 10763 10752 10751 10750 ] final  -34.59 input  -60.55 | X-H torsion
[ 11005 11000 10999 10996 ] final   25.61 input  -57.11 | X-H torsion

> <Gold.Protein.ActiveResidues>
 VAL166  LYS551  ARG553  GLY616  TRP617  ASP618  TYR619  PRO620  LYS621  CYS622 
 ASP623  PHE694  ASN695  SER759  ASP760  ASP761  ALA762  ILE779  LEU786  VAL792 
 PHE793  MET794  SER795  GLU796  ALA797  LYS798  CYS799  TRP800  GLU811  SER814 

> <Gold.Protein.RotatedAtoms>
  151.3628  135.0907  159.9439 H   0  0  0  0  0  0  0  0  0  0  0  0  # atno 6907 bound_to 6896
  152.5157  133.9242  159.7559 H   0  0  0  0  0  0  0  0  0  0  0  0  # atno 6908 bound_to 6896
  150.9639  133.6361  159.2779 H   0  0  0  0  0  0  0  0  0  0  0  0  # atno 6909 bound_to 6896
  146.0629  139.5152  142.9647 H   0  0  0  0  0  0  0  0  0  0  0  0  # atno 7974 bound_to 7965
  154.5472  140.0733  156.8608 H   0  0  0  0  0  0  0  0  0  0  0  0  # atno 8008 bound_to 7997
  155.3065  140.3387  155.4227 H   0  0  0  0  0  0  0  0  0  0  0  0  # atno 8009 bound_to 7997
  156.1928  140.1692  156.8043 H   0  0  0  0  0  0  0  0  0  0  0  0  # atno 8010 bound_to 7997
  140.6006  143.8612  150.6962 H   0  0  0  0  0  0  0  0  0  0  0  0  # atno 10167 bound_to 10162
  157.5097  131.1096  150.9310 H   0  0  0  0  0  0  0  0  0  0  0  0  # atno 10718 bound_to 10713
  153.8492  135.6850  153.4794 H   0  0  0  0  0  0  0  0  0  0  0  0  # atno 10763 bound_to 10752
  153.1407  135.4658  154.9489 H   0  0  0  0  0  0  0  0  0  0  0  0  # atno 10764 bound_to 10752
  154.7810  135.3269  154.7938 H   0  0  0  0  0  0  0  0  0  0  0  0  # atno 10765 bound_to 10752
  140.3460  134.2281  155.7685 H   0  0  0  0  0  0  0  0  0  0  0  0  # atno 11005 bound_to 11000
  145.6528  141.0259  143.1751 LP  0  0  0  0  0  0  0  0  0  0  0  0  # atno 17320 bound_to 7965
  144.7185  139.8111  143.7390 LP  0  0  0  0  0  0  0  0  0  0  0  0  # atno 17321 bound_to 7965
  140.2157  143.3848  152.1683 LP  0  0  0  0  0  0  0  0  0  0  0  0  # atno 17342 bound_to 10162
  139.5289  144.7135  151.5129 LP  0  0  0  0  0  0  0  0  0  0  0  0  # atno 17343 bound_to 10162
  156.9954  130.5579  149.5307 LP  0  0  0  0  0  0  0  0  0  0  0  0  # atno 17370 bound_to 10713
  156.0281  130.5374  150.8462 LP  0  0  0  0  0  0  0  0  0  0  0  0  # atno 17371 bound_to 10713
  141.2025  133.7935  157.0385 LP  0  0  0  0  0  0  0  0  0  0  0  0  # atno 17394 bound_to 11000
  140.0742  134.9685  157.1518 LP  0  0  0  0  0  0  0  0  0  0  0  0  # atno 17395 bound_to 11000

$$$$
