AV-unprocessed.smi:137|AV-procd|sdf|1175|dock2
  -GOLD-   2262018323D 1   1.00000     0.00000
 Structure written by MMmdl.
 51 54  0  0  0  0  0  0  0  0  1 V2000
  152.7614  143.8191  159.3804 C   0  0  0  0  0  0  0  0  0  0  0  0
  152.4659  142.4482  158.7516 C   0  0  2  0  0  0  0  0  0  0  0  0
  151.3366  142.5985  157.7112 C   0  0  0  0  0  0  0  0  0  0  0  0
  150.8445  141.3467  157.1274 N   0  0  0  0  0  0  0  0  0  0  0  0
  149.6710  141.3814  156.4299 C   0  0  0  0  0  0  0  0  0  0  0  0
  149.6584  140.9237  155.1478 N   0  0  0  0  0  0  0  0  0  0  0  0
  148.5321  140.9177  154.4308 C   0  0  0  0  0  0  0  0  0  0  0  0
  147.3152  141.3241  154.7895 N   0  0  0  0  0  0  0  0  0  0  0  0
  147.3120  141.8014  156.0661 C   0  0  0  0  0  0  0  0  0  0  0  0
  148.4298  141.8643  156.9497 C   0  0  0  0  0  0  0  0  0  0  0  0
  148.0244  142.4091  158.1643 N   0  0  0  0  0  0  0  0  0  0  0  0
  146.7485  142.6343  158.0144 C   0  0  0  0  0  0  0  0  0  0  0  0
  146.2429  142.3226  156.7743 N   0  0  0  0  0  0  0  0  0  0  0  0
  144.8751  142.4228  156.3568 C   0  0  0  0  0  0  0  0  0  0  0  0
  144.4977  143.0169  154.9977 C   0  0  0  0  0  0  0  0  0  0  0  0
  143.1819  143.5497  155.6070 C   0  0  0  0  0  0  0  0  0  0  0  0
  142.7733  144.9608  155.1538 C   0  0  0  0  0  0  0  0  0  0  0  0
  142.5169  144.9980  153.7644 O   0  0  0  0  0  0  0  0  0  0  0  0
  141.9686  142.6064  155.4760 C   0  0  0  0  0  0  0  0  0  0  0  0
  141.2801  142.8190  154.2605 O   0  0  0  0  0  0  0  0  0  0  0  0
  143.9358  143.4728  156.9546 C   0  0  0  0  0  0  0  0  0  0  0  0
  151.7607  140.2342  156.8808 C   0  0  0  0  0  0  0  0  0  0  0  0
  151.7522  139.2158  158.0342 C   0  0  0  0  0  0  0  0  0  0  0  0
  152.8864  139.7518  159.4039 S   0  0  1  0  0  0  0  0  0  0  0  0
  154.2747  139.9767  158.8008 O   0  0  0  0  0  0  0  0  0  0  0  0
  152.1514  141.4033  159.8469 C   0  0  0  0  0  0  0  0  0  0  0  0
  151.9055  144.1905  159.9450 H   0  0  0  0  0  0  0  0  0  0  0  0
  153.0030  144.5586  158.6164 H   0  0  0  0  0  0  0  0  0  0  0  0
  153.6120  143.7653  160.0608 H   0  0  0  0  0  0  0  0  0  0  0  0
  153.3790  142.1672  158.2285 H   0  0  0  0  0  0  0  0  0  0  0  0
  150.4976  143.1009  158.1958 H   0  0  0  0  0  0  0  0  0  0  0  0
  151.6712  143.2545  156.9061 H   0  0  0  0  0  0  0  0  0  0  0  0
  148.6188  140.5304  153.4264 H   0  0  0  0  0  0  0  0  0  0  0  0
  146.1401  143.0408  158.8094 H   0  0  0  0  0  0  0  0  0  0  0  0
  144.4555  141.4219  156.4698 H   0  0  0  0  0  0  0  0  0  0  0  0
  145.1781  143.8126  154.6881 H   0  0  0  0  0  0  0  0  0  0  0  0
  144.3705  142.2816  154.2024 H   0  0  0  0  0  0  0  0  0  0  0  0
  141.8902  145.3145  155.6865 H   0  0  0  0  0  0  0  0  0  0  0  0
  143.5647  145.6805  155.3647 H   0  0  0  0  0  0  0  0  0  0  0  0
  142.4908  144.1106  153.4409 H   0  0  0  0  0  0  0  0  0  0  0  0
  142.2674  141.5595  155.5309 H   0  0  0  0  0  0  0  0  0  0  0  0
  141.2592  142.7591  156.2894 H   0  0  0  0  0  0  0  0  0  0  0  0
  141.7903  142.4463  153.5576 H   0  0  0  0  0  0  0  0  0  0  0  0
  143.3438  143.1171  157.7985 H   0  0  0  0  0  0  0  0  0  0  0  0
  144.4530  144.4005  157.2065 H   0  0  0  0  0  0  0  0  0  0  0  0
  151.4911  139.7327  155.9513 H   0  0  0  0  0  0  0  0  0  0  0  0
  152.7698  140.6065  156.7054 H   0  0  0  0  0  0  0  0  0  0  0  0
  150.7480  139.0615  158.4288 H   0  0  0  0  0  0  0  0  0  0  0  0
  152.1070  138.2502  157.6742 H   0  0  0  0  0  0  0  0  0  0  0  0
  152.6118  141.6980  160.7903 H   0  0  0  0  0  0  0  0  0  0  0  0
  151.0810  141.3122  160.0350 H   0  0  0  0  0  0  0  0  0  0  0  0
  1  2  1  0  0  0  0
  1 27  1  0  0  0  0
  1 28  1  0  0  0  0
  1 29  1  0  0  0  0
  2 26  1  0  0  0  0
  2  3  1  0  0  0  0
  2 30  1  0  0  0  0
  3  4  1  0  0  0  0
  3 31  1  0  0  0  0
  3 32  1  0  0  0  0
  4  5  1  0  0  0  0
  4 22  1  0  0  0  0
  5 10  1  0  0  0  0
  5  6  2  0  0  0  0
  6  7  1  0  0  0  0
  7  8  2  0  0  0  0
  7 33  1  0  0  0  0
  8  9  1  0  0  0  0
  9 13  1  0  0  0  0
  9 10  2  0  0  0  0
 10 11  1  0  0  0  0
 11 12  2  0  0  0  0
 12 13  1  0  0  0  0
 12 34  1  0  0  0  0
 13 14  1  0  0  0  0
 14 21  1  0  0  0  0
 14 15  1  0  0  0  0
 14 35  1  0  0  0  0
 15 16  1  0  0  0  0
 15 36  1  0  0  0  0
 15 37  1  0  0  0  0
 16 17  1  0  0  0  0
 16 19  1  0  0  0  0
 16 21  1  0  0  0  0
 17 18  1  0  0  0  0
 17 38  1  0  0  0  0
 17 39  1  0  0  0  0
 18 40  1  0  0  0  0
 19 20  1  0  0  0  0
 19 41  1  0  0  0  0
 19 42  1  0  0  0  0
 20 43  1  0  0  0  0
 21 44  1  0  0  0  0
 21 45  1  0  0  0  0
 22 23  1  0  0  0  0
 22 46  1  0  0  0  0
 22 47  1  0  0  0  0
 23 24  1  0  0  0  0
 23 48  1  0  0  0  0
 23 49  1  0  0  0  0
 24 25  2  0  0  0  0
 24 26  1  0  0  0  0
 26 50  1  0  0  0  0
 26 51  1  0  0  0  0
M  END
> <s_m_source_file>
AV-unprocessed.smi

> <i_m_source_file_index>
137

> <i_lp_mmshare_version>
43012

> <i_f3d_flags>
0

> <s_epik_input>
Tz1bU0BAXShbQ0gyXTEpW0NIMl1bQ0gyXU4oW0NIMl1bQ0BIXTFbQ0gzXSljKG5bY0hdbjIpYyhjMjMpbltjSF1uM1tDSF0oW0NIMl00KVtDSDJdQzQoW0NIMl1bT0hdKVtDSDJdW09IXQ==

> <s_epik_cmdline>
J2VwaWtfcHl0aG9uJywgJy1waCcsICc3LjAnLCAnLXRuJywgJzgnLCAnLW1hJywgJzIwMCcsICctbWV0YWxfYmluZGluZycsICctaW1hZScsICc8aW5maWxlLm1hZT4nLCAnLW9tYWUnLCAnPG91dGZpbGUubWFlPic=

> <r_lp_tautomer_probability>
1

> <r_epik_Ionization_Penalty>
0.000811024

> <r_epik_Ionization_Penalty_Charging>
0

> <r_epik_Ionization_Penalty_Neutral>
0.000811024

> <r_epik_State_Penalty>
0.000429598

> <r_epik_Charging_Adjusted_Penalty>
0.000429598

> <i_epik_Tot_Q>
0

> <i_epik_Tot_abs_Q>
0

> <r_epik_Metal_State_Penalty>
-0

> <b_epik_Metal_Only>
0

> <s_lp_Force_Field>
OPLS_2005

> <r_lp_Energy>
41.7942

> <b_lp_Chiralities_Consistent>
1

> <s_lp_Variant>
AV-unprocessed.smi:137-1

> <Gold.Version>
5.8.1

> <Gold.Id.Protein>
6NUR|6NUR_protein|mol2

> <Gold.PLP.Fitness>
46.6428

> <Gold.PLP.PLP>
-37.3233

> <Gold.PLP.part.hbond>
-3.9758

> <Gold.PLP.part.metal>
0.0000

> <Gold.PLP.part.buried>
-4.3966

> <Gold.PLP.part.nonpolar>
-29.2586

> <Gold.PLP.part.repulsive>
0.3907

> <Gold.PLP.ligand.clash>
0.0000

> <Gold.PLP.ligand.torsion>
1.6255

> <Gold.PLP.Chemscore.Hbond>
2.9913

> <Gold.PLP.Chemscore.CHOScore>
1.0000

> <Gold.PLP.Chemscore.Metal>
0.0000

> <Gold.Chemscore.Hbonds>
donor molecule, donor type, donor heavy atom, donor atom, acceptor molecule, acceptor atom, score
      L1  H    18    40       P1 10174  0.89
      L1  H    20    43       P1 10174  1.00
      P1  H  7997  8010       L1    25  1.00
      L1  C     7    33       P1  7957  1.00

> <Gold.PLP.Chemscore.Internal.Correction>
0.5967

> <Gold.Rescore>
     Score         DG    S(hbond)    S(metal)    S(lipo)     H(rot)  DE(clash)    DE(int)     intcor
     13.40     -16.29       2.91        0.00      72.22       2.87       1.30       1.60       ----

> <Gold.Chemscore.Fitness>
13.3976

> <Gold.Chemscore.DG>
-16.2922

> <Gold.Chemscore.ZeroCoef>
-5.4800

> <Gold.Chemscore.Hbond>
2.9091

> <Gold.Chemscore.Metal>
0.0000

> <Gold.Chemscore.Lipo>
72.2179

> <Gold.Chemscore.Internal_Hbond>
0.0000

> <Gold.Chemscore.DEClash>
1.2994

> <Gold.Chemscore.DEInternal>
1.5951

> <Gold.Chemscore.Rot>
2.8725

> <Gold.Chemscore.Internal.Correction>
   9.000000E+99

> <Gold.Chemscore.Hbonds>
donor molecule, donor type, donor heavy atom, donor atom, acceptor molecule, acceptor atom, score
      L1  H    18    40       P1 10174  0.85
      L1  H    20    43       P1 10174  0.96
      P1  H  7997  8010       L1    25  0.95

> <Gold.Chemscore.Hbond.Weighted>
-9.7163

> <Gold.Chemscore.Metal.Weighted>
-0.0000

> <Gold.Chemscore.Lipo.Weighted>
-8.4495

> <Gold.Chemscore.Internal_Hbond.Weighted>
0.0000

> <Gold.Chemscore.DEClash.Weighted>
1.2994

> <Gold.Chemscore.DEInternal.Weighted>
1.5951

> <Gold.Chemscore.Rot.Weighted>
7.3535

> <Gold.Chemscore.Internal.Correction.Weighted>
   9.000000E+99

> <Gold.Protein.RotatedTorsions>
[ 6907 6896 6895 6894 ] final   26.63 input  -60.11 | X-H torsion
[ 7974 7965 7964 7962 ] final -116.73 input  175.53 | X-H torsion
[ 8008 7997 7996 7995 ] final    2.36 input   59.86 | X-H torsion
[ 10167 10162 10161 10158 ] final -176.64 input  -65.29 | X-H torsion
[ 10718 10713 10712 10709 ] final   81.29 input   66.30 | X-H torsion
[ 10763 10752 10751 10750 ] final  172.72 input  -60.55 | X-H torsion
[ 11005 11000 10999 10996 ] final   39.97 input  -57.11 | X-H torsion

> <Gold.Protein.ActiveResidues>
 VAL166  LYS551  ARG553  GLY616  TRP617  ASP618  TYR619  PRO620  LYS621  CYS622 
 ASP623  PHE694  ASN695  SER759  ASP760  ASP761  ALA762  ILE779  LEU786  VAL792 
 PHE793  MET794  SER795  GLU796  ALA797  LYS798  CYS799  TRP800  GLU811  SER814 

> <Gold.Protein.RotatedAtoms>
  151.9904  134.9982  160.0561 H   0  0  0  0  0  0  0  0  0  0  0  0  # atno 6907 bound_to 6896
  152.1614  133.4579  159.4871 H   0  0  0  0  0  0  0  0  0  0  0  0  # atno 6908 bound_to 6896
  150.6888  134.1985  159.4356 H   0  0  0  0  0  0  0  0  0  0  0  0  # atno 6909 bound_to 6896
  145.0934  140.8505  143.3969 H   0  0  0  0  0  0  0  0  0  0  0  0  # atno 7974 bound_to 7965
  154.6907  140.2652  155.6815 H   0  0  0  0  0  0  0  0  0  0  0  0  # atno 8008 bound_to 7997
  156.2731  140.2791  156.1408 H   0  0  0  0  0  0  0  0  0  0  0  0  # atno 8009 bound_to 7997
  155.0900  140.0373  157.2656 H   0  0  0  0  0  0  0  0  0  0  0  0  # atno 8010 bound_to 7997
  139.5519  144.2086  152.1093 H   0  0  0  0  0  0  0  0  0  0  0  0  # atno 10167 bound_to 10162
  157.6829  130.9997  150.2205 H   0  0  0  0  0  0  0  0  0  0  0  0  # atno 10718 bound_to 10713
  154.4300  135.2759  155.1919 H   0  0  0  0  0  0  0  0  0  0  0  0  # atno 10763 bound_to 10752
  154.3829  135.6083  153.5804 H   0  0  0  0  0  0  0  0  0  0  0  0  # atno 10764 bound_to 10752
  152.9836  135.5884  154.4610 H   0  0  0  0  0  0  0  0  0  0  0  0  # atno 10765 bound_to 10752
  140.1976  134.3910  155.8113 H   0  0  0  0  0  0  0  0  0  0  0  0  # atno 11005 bound_to 11000
  145.1039  139.2803  143.5672 LP  0  0  0  0  0  0  0  0  0  0  0  0  # atno 17320 bound_to 7965
  146.3531  140.0615  142.8629 LP  0  0  0  0  0  0  0  0  0  0  0  0  # atno 17321 bound_to 7965
  140.1583  144.5049  150.6647 LP  0  0  0  0  0  0  0  0  0  0  0  0  # atno 17342 bound_to 10162
  140.6784  143.2315  151.5448 LP  0  0  0  0  0  0  0  0  0  0  0  0  # atno 17343 bound_to 10162
  156.2858  130.3739  149.7890 LP  0  0  0  0  0  0  0  0  0  0  0  0  # atno 17370 bound_to 10713
  156.5565  130.8365  151.3316 LP  0  0  0  0  0  0  0  0  0  0  0  0  # atno 17371 bound_to 10713
  141.2227  133.7077  156.8202 LP  0  0  0  0  0  0  0  0  0  0  0  0  # atno 17394 bound_to 11000
  140.2090  134.8841  157.3254 LP  0  0  0  0  0  0  0  0  0  0  0  0  # atno 17395 bound_to 11000

$$$$
