AV-unprocessed.smi:2138|AV-procd|sdf|8710|dock1
  -GOLD-   2272011473D 1   1.00000     0.00000
 Structure written by MMmdl.
 46 47  0  0  0  0  0  0  0  0  1 V2000
  141.3847  145.9800  161.2516 C   0  0  0  0  0  0  0  0  0  0  0  0
  141.0052  144.6167  161.3174 O   0  0  0  0  0  0  0  0  0  0  0  0
  142.0268  143.7453  160.8623 C   0  0  0  0  0  0  0  0  0  0  0  0
  142.1176  143.8350  159.3361 C   0  0  0  0  0  0  0  0  0  0  0  0
  142.5298  142.5729  158.8301 O   0  0  0  0  0  0  0  0  0  0  0  0
  143.8363  142.4351  158.4163 C   0  0  0  0  0  0  0  0  0  0  0  0
  144.4200  141.2176  157.9856 C   0  0  0  0  0  0  0  0  0  0  0  0
  145.7711  141.2197  157.5899 C   0  0  0  0  0  0  0  0  0  0  0  0
  146.5042  142.4214  157.6436 C   0  0  0  0  0  0  0  0  0  0  0  0
  147.8609  142.3987  157.2222 N   0  0  0  0  0  0  0  0  0  0  0  0
  148.7761  141.4296  157.4074 C   0  0  0  0  0  0  0  0  0  0  0  0
  148.5535  140.3590  157.9730 O   0  0  0  0  0  0  0  0  0  0  0  0
  150.1756  141.7108  156.8367 C   0  0  2  0  0  0  0  0  0  0  0  0
  151.0992  140.4862  156.9757 C   0  0  0  0  0  0  0  0  0  0  0  0
  152.1757  140.9407  157.9457 C   0  0  0  0  0  0  0  0  0  0  0  0
  153.0646  140.1889  158.3438 O   0  0  0  0  0  0  0  0  0  0  0  0
  152.0214  142.2281  158.2822 N   0  0  0  0  0  0  0  0  0  0  0  0
  152.9207  142.9850  159.1654 C   0  0  0  0  0  0  0  0  0  0  0  0
  153.0681  142.3479  160.5585 C   0  0  0  0  0  0  0  0  0  0  0  0
  152.4760  144.4536  159.2513 C   0  0  0  0  0  0  0  0  0  0  0  0
  150.8989  142.8496  157.5883 C   0  0  0  0  0  0  0  0  0  0  0  0
  145.8260  143.5863  158.0755 C   0  0  0  0  0  0  0  0  0  0  0  0
  144.5307  143.5926  158.4542 N   0  0  0  0  0  0  0  0  0  0  0  0
  140.5678  146.6052  161.6119 H   0  0  0  0  0  0  0  0  0  0  0  0
  141.6088  146.2773  160.2265 H   0  0  0  0  0  0  0  0  0  0  0  0
  142.2592  146.1772  161.8731 H   0  0  0  0  0  0  0  0  0  0  0  0
  142.9868  143.9942  161.3174 H   0  0  0  0  0  0  0  0  0  0  0  0
  141.7810  142.7229  161.1532 H   0  0  0  0  0  0  0  0  0  0  0  0
  141.1347  144.0820  158.9320 H   0  0  0  0  0  0  0  0  0  0  0  0
  142.8120  144.6256  159.0475 H   0  0  0  0  0  0  0  0  0  0  0  0
  143.8650  140.2926  157.9504 H   0  0  0  0  0  0  0  0  0  0  0  0
  146.2377  140.3046  157.2549 H   0  0  0  0  0  0  0  0  0  0  0  0
  148.1547  143.1850  156.6610 H   0  0  0  0  0  0  0  0  0  0  0  0
  150.0840  141.9787  155.7825 H   0  0  0  0  0  0  0  0  0  0  0  0
  150.5965  139.5964  157.3587 H   0  0  0  0  0  0  0  0  0  0  0  0
  151.5560  140.2280  156.0199 H   0  0  0  0  0  0  0  0  0  0  0  0
  153.9153  142.9700  158.7161 H   0  0  0  0  0  0  0  0  0  0  0  0
  153.8174  142.8767  161.1481 H   0  0  0  0  0  0  0  0  0  0  0  0
  153.3868  141.3077  160.4847 H   0  0  0  0  0  0  0  0  0  0  0  0
  152.1334  142.3780  161.1192 H   0  0  0  0  0  0  0  0  0  0  0  0
  153.1677  145.0369  159.8597 H   0  0  0  0  0  0  0  0  0  0  0  0
  151.4851  144.5415  159.6978 H   0  0  0  0  0  0  0  0  0  0  0  0
  152.4387  144.9156  158.2643 H   0  0  0  0  0  0  0  0  0  0  0  0
  151.2768  143.5948  156.8871 H   0  0  0  0  0  0  0  0  0  0  0  0
  150.2378  143.3649  158.2865 H   0  0  0  0  0  0  0  0  0  0  0  0
  146.3092  144.5505  158.1050 H   0  0  0  0  0  0  0  0  0  0  0  0
  1  2  1  0  0  0  0
  1 24  1  0  0  0  0
  1 25  1  0  0  0  0
  1 26  1  0  0  0  0
  2  3  1  0  0  0  0
  3  4  1  0  0  0  0
  3 27  1  0  0  0  0
  3 28  1  0  0  0  0
  4  5  1  0  0  0  0
  4 29  1  0  0  0  0
  4 30  1  0  0  0  0
  5  6  1  0  0  0  0
  6 23  1  0  0  0  0
  6  7  2  0  0  0  0
  7  8  1  0  0  0  0
  7 31  1  0  0  0  0
  8  9  2  0  0  0  0
  8 32  1  0  0  0  0
  9 10  1  0  0  0  0
  9 22  1  0  0  0  0
 10 11  1  0  0  0  0
 10 33  1  0  0  0  0
 11 12  2  0  0  0  0
 11 13  1  0  0  0  0
 13 21  1  0  0  0  0
 13 14  1  0  0  0  0
 13 34  1  0  0  0  0
 14 15  1  0  0  0  0
 14 35  1  0  0  0  0
 14 36  1  0  0  0  0
 15 16  2  0  0  0  0
 15 17  1  0  0  0  0
 17 18  1  0  0  0  0
 17 21  1  0  0  0  0
 18 19  1  0  0  0  0
 18 20  1  0  0  0  0
 18 37  1  0  0  0  0
 19 38  1  0  0  0  0
 19 39  1  0  0  0  0
 19 40  1  0  0  0  0
 20 41  1  0  0  0  0
 20 42  1  0  0  0  0
 20 43  1  0  0  0  0
 21 44  1  0  0  0  0
 21 45  1  0  0  0  0
 22 23  2  0  0  0  0
 22 46  1  0  0  0  0
M  END
> <s_m_source_file>
AV-unprocessed.smi

> <i_m_source_file_index>
2138

> <i_lp_mmshare_version>
43012

> <i_f3d_flags>
0

> <s_epik_input>
W0NIM11PW0NIMl1bQ0gyXU9jMVtjSF1bY0hdYyhbY0hdbjEpW05IXUMoPU8pW0NAQEhdMltDSDJdQyg9TylOKFtDSDJdMilbQ0hdKFtDSDNdKVtDSDNd

> <s_epik_cmdline>
J2VwaWtfcHl0aG9uJywgJy1waCcsICc3LjAnLCAnLXRuJywgJzgnLCAnLW1hJywgJzIwMCcsICctbWV0YWxfYmluZGluZycsICctaW1hZScsICc8aW5maWxlLm1hZT4nLCAnLW9tYWUnLCAnPG91dGZpbGUubWFlPic=

> <r_lp_tautomer_probability>
1

> <r_epik_Ionization_Penalty>
1.72652e-05

> <r_epik_Ionization_Penalty_Charging>
0

> <r_epik_Ionization_Penalty_Neutral>
1.72652e-05

> <r_epik_State_Penalty>
-0

> <r_epik_Charging_Adjusted_Penalty>
0

> <i_epik_Tot_Q>
0

> <i_epik_Tot_abs_Q>
0

> <r_epik_Metal_State_Penalty>
-0

> <b_epik_Metal_Only>
0

> <s_lp_Force_Field>
OPLS_2005

> <r_lp_Energy>
27.6576

> <b_lp_Chiralities_Consistent>
1

> <s_lp_Variant>
AV-unprocessed.smi:2138-1

> <Gold.Version>
5.8.1

> <Gold.Id.Protein>
6NUR|6NUR_protein|mol2

> <Gold.PLP.Fitness>
41.3221

> <Gold.PLP.PLP>
-34.0971

> <Gold.PLP.part.hbond>
-3.4167

> <Gold.PLP.part.metal>
0.0000

> <Gold.PLP.part.buried>
-4.0059

> <Gold.PLP.part.nonpolar>
-25.8512

> <Gold.PLP.part.repulsive>
0.1137

> <Gold.PLP.ligand.clash>
0.0000

> <Gold.PLP.ligand.torsion>
0.9677

> <Gold.PLP.Chemscore.Hbond>
1.9920

> <Gold.PLP.Chemscore.CHOScore>
1.0000

> <Gold.PLP.Chemscore.Metal>
0.0000

> <Gold.Chemscore.Hbonds>
donor molecule, donor type, donor heavy atom, donor atom, acceptor molecule, acceptor atom, score
      L1  H    10    33       P1  8028  1.00
      P1  H  7997  8008       L1    16  0.98
      L1  C    22    46       P1  8029  1.00

> <Gold.PLP.Chemscore.Internal.Correction>
0.1844

> <Gold.Rescore>
     Score         DG    S(hbond)    S(metal)    S(lipo)     H(rot)  DE(clash)    DE(int)     intcor
     11.90     -14.11       1.49        0.00      74.92       2.00       0.12       2.09       ----

> <Gold.Chemscore.Fitness>
11.8972

> <Gold.Chemscore.DG>
-14.1057

> <Gold.Chemscore.ZeroCoef>
-5.4800

> <Gold.Chemscore.Hbond>
1.4938

> <Gold.Chemscore.Metal>
0.0000

> <Gold.Chemscore.Lipo>
74.9189

> <Gold.Chemscore.Internal_Hbond>
0.0000

> <Gold.Chemscore.DEClash>
0.1195

> <Gold.Chemscore.DEInternal>
2.0889

> <Gold.Chemscore.Rot>
2.0035

> <Gold.Chemscore.Internal.Correction>
   9.000000E+99

> <Gold.Chemscore.Hbonds>
donor molecule, donor type, donor heavy atom, donor atom, acceptor molecule, acceptor atom, score
      L1  H    10    33       P1  8028  0.25
      P1  H  7997  8008       L1    16  0.72

> <Gold.Chemscore.Hbond.Weighted>
-4.9892

> <Gold.Chemscore.Metal.Weighted>
-0.0000

> <Gold.Chemscore.Lipo.Weighted>
-8.7655

> <Gold.Chemscore.Internal_Hbond.Weighted>
0.0000

> <Gold.Chemscore.DEClash.Weighted>
0.1195

> <Gold.Chemscore.DEInternal.Weighted>
2.0889

> <Gold.Chemscore.Rot.Weighted>
5.1290

> <Gold.Chemscore.Internal.Correction.Weighted>
   9.000000E+99

> <Gold.Protein.RotatedTorsions>
[ 6907 6896 6895 6894 ] final  144.58 input  -60.11 | X-H torsion
[ 7974 7965 7964 7962 ] final   48.91 input  175.53 | X-H torsion
[ 8008 7997 7996 7995 ] final  -84.56 input   59.86 | X-H torsion
[ 10167 10162 10161 10158 ] final  -76.48 input  -65.29 | X-H torsion
[ 10718 10713 10712 10709 ] final -160.55 input   66.30 | X-H torsion
[ 10763 10752 10751 10750 ] final  -32.90 input  -60.55 | X-H torsion
[ 11005 11000 10999 10996 ] final   42.06 input  -57.11 | X-H torsion

> <Gold.Protein.ActiveResidues>
 VAL166  LYS551  ARG553  GLY616  TRP617  ASP618  TYR619  PRO620  LYS621  CYS622 
 ASP623  PHE694  ASN695  SER759  ASP760  ASP761  ALA762  ILE779  LEU786  VAL792 
 PHE793  MET794  SER795  GLU796  ALA797  LYS798  CYS799  TRP800  GLU811  SER814 

> <Gold.Protein.RotatedAtoms>
  152.1918  133.4778  159.5011 H   0  0  0  0  0  0  0  0  0  0  0  0  # atno 6907 bound_to 6896
  150.6952  134.1703  159.4219 H   0  0  0  0  0  0  0  0  0  0  0  0  # atno 6908 bound_to 6896
  151.9618  135.0120  160.0598 H   0  0  0  0  0  0  0  0  0  0  0  0  # atno 6909 bound_to 6896
  146.0159  139.4596  142.9927 H   0  0  0  0  0  0  0  0  0  0  0  0  # atno 7974 bound_to 7965
  154.6311  140.0603  156.9733 H   0  0  0  0  0  0  0  0  0  0  0  0  # atno 8008 bound_to 7997
  155.1664  140.3287  155.4382 H   0  0  0  0  0  0  0  0  0  0  0  0  # atno 8009 bound_to 7997
  156.2483  140.1922  156.6769 H   0  0  0  0  0  0  0  0  0  0  0  0  # atno 8010 bound_to 7997
  140.4853  143.2392  151.7994 H   0  0  0  0  0  0  0  0  0  0  0  0  # atno 10167 bound_to 10162
  156.5838  130.8741  151.2871 H   0  0  0  0  0  0  0  0  0  0  0  0  # atno 10718 bound_to 10713
  153.8214  135.6874  153.4826 H   0  0  0  0  0  0  0  0  0  0  0  0  # atno 10763 bound_to 10752
  153.1567  135.4596  154.9712 H   0  0  0  0  0  0  0  0  0  0  0  0  # atno 10764 bound_to 10752
  154.7926  135.3307  154.7686 H   0  0  0  0  0  0  0  0  0  0  0  0  # atno 10765 bound_to 10752
  140.1775  134.4145  155.8220 H   0  0  0  0  0  0  0  0  0  0  0  0  # atno 11005 bound_to 11000
  145.7269  141.0056  143.1372 LP  0  0  0  0  0  0  0  0  0  0  0  0  # atno 17320 bound_to 7965
  144.6971  139.8938  143.7454 LP  0  0  0  0  0  0  0  0  0  0  0  0  # atno 17321 bound_to 7965
  139.4841  144.4720  151.9413 LP  0  0  0  0  0  0  0  0  0  0  0  0  # atno 17342 bound_to 10162
  140.3806  144.2741  150.5909 LP  0  0  0  0  0  0  0  0  0  0  0  0  # atno 17343 bound_to 10162
  157.7320  130.9709  150.1908 LP  0  0  0  0  0  0  0  0  0  0  0  0  # atno 17370 bound_to 10713
  156.2609  130.3710  149.8132 LP  0  0  0  0  0  0  0  0  0  0  0  0  # atno 17371 bound_to 10713
  141.2221  133.6985  156.7872 LP  0  0  0  0  0  0  0  0  0  0  0  0  # atno 17394 bound_to 11000
  140.2306  134.8689  157.3472 LP  0  0  0  0  0  0  0  0  0  0  0  0  # atno 17395 bound_to 11000

$$$$
