#       Name:                AV-unprocessed.smi:1487
#       Creating user name   scv26
#       Creation time:       Fri Mar 27 06:11:35 2020


#       File generated by GOLD software.
#

@<TRIPOS>MOLECULE
AV-unprocessed.smi:1487
    53    55     1
SMALL
NO_CHARGES


@<TRIPOS>ATOM
      1 ****        -4.5897   4.2208   2.7991 C.3            1 S1                 0.0000
      2 ****        -3.8530   3.3040   1.8385 C.ar           1 S1                 0.0000
      3 ****        -3.4796   3.7975   0.5680 C.ar           1 S1                 0.0000
      4 ****        -2.7946   2.9771  -0.3547 C.ar           1 S1                 0.0000
      5 ****        -2.3375   3.2484  -1.6331 N.2            1 S1                 0.0000
      6 ****        -1.7859   2.0874  -1.9730 C.2            1 S1                 0.0000
      7 ****        -1.8262   1.0955  -1.0629 N.pl3          1 S1                 0.0000
      8 ****        -1.2908  -0.2467  -1.2079 C.3            1 S1                 0.0000
      9 ****         0.2179  -0.3183  -0.9034 C.3            1 S1                 0.0000
     10 ****         0.4529   0.1249   0.4196 O.3            1 S1                 0.0000
     11 ****         0.7566  -1.7560  -1.0408 C.3            1 S1                 0.0000
     12 ****         2.2311  -1.8312  -0.8762 N.4            1 S1                 1.0000
     13 ****         2.9794  -1.4181  -2.0941 C.3            1 S1                 0.0000
     14 ****         4.4950  -1.3881  -1.8332 C.3            1 S1                 0.0000
     15 ****         4.9917  -2.7485  -1.3274 C.3            1 S1                 0.0000
     16 ****         4.1875  -3.1672  -0.0882 C.3            1 S1                 0.0000
     17 ****         4.5804  -4.4621   0.3130 O.3            1 S1                 0.0000
     18 ****         2.6765  -3.1611  -0.3851 C.3            1 S1                 0.0000
     19 ****        -2.4907   1.6388   0.0316 C.ar           1 S1                 0.0000
     20 ****        -2.8555   1.1368   1.2933 C.ar           1 S1                 0.0000
     21 ****        -3.5404   1.9696   2.2026 C.ar           1 S1                 0.0000
     22 ****        -3.9300   1.4180   3.5627 C.3            1 S1                 0.0000
     23 ****        -4.6953   5.2255   2.3885 H              1 S1                 0.0000
     24 ****        -4.0500   4.3019   3.7428 H              1 S1                 0.0000
     25 ****        -5.5889   3.8351   3.0025 H              1 S1                 0.0000
     26 ****        -3.7173   4.8140   0.2909 H              1 S1                 0.0000
     27 ****        -1.3224   1.9504  -2.9391 H              1 S1                 0.0000
     28 ****        -1.8472  -0.9167  -0.5514 H              1 S1                 0.0000
     29 ****        -1.4841  -0.5813  -2.2279 H              1 S1                 0.0000
     30 ****         0.7399   0.3534  -1.5846 H              1 S1                 0.0000
     31 ****         0.0962   0.9960   0.5127 H              1 S1                 0.0000
     32 ****         0.2667  -2.3780  -0.2896 H              1 S1                 0.0000
     33 ****         0.4807  -2.1790  -2.0079 H              1 S1                 0.0000
     34 ****         2.7559  -2.1072  -2.9099 H              1 S1                 0.0000
     35 ****         2.6580  -0.4299  -2.4211 H              1 S1                 0.0000
     36 ****         5.0254  -1.1156  -2.7463 H              1 S1                 0.0000
     37 ****         4.7260  -0.6156  -1.0987 H              1 S1                 0.0000
     38 ****         4.8798  -3.4941  -2.1163 H              1 S1                 0.0000
     39 ****         6.0556  -2.6963  -1.0930 H              1 S1                 0.0000
     40 ****         4.3992  -2.4805   0.7327 H              1 S1                 0.0000
     41 ****         5.5013  -4.4472   0.5265 H              1 S1                 0.0000
     42 ****         2.1315  -3.4165   0.5248 H              1 S1                 0.0000
     43 ****         2.4295  -3.9214  -1.1284 H              1 S1                 0.0000
     44 ****        -2.6095   0.1195   1.5599 H              1 S1                 0.0000
     45 ****        -3.6493   0.3690   3.6624 H              1 S1                 0.0000
     46 ****        -5.0075   1.4913   3.7122 H              1 S1                 0.0000
     47 ****        -3.4310   1.9747   4.3563 H              1 S1                 0.0000
     48 ****         2.4638  -1.1729  -0.1459 H              1 S1                 0.0000
     49 ****        -2.4046   4.0947  -2.1616 LP             1 S1                 0.0000
     50 ****         1.4364   0.1422   0.5997 LP             1 S1                 0.0000
     51 ****         0.0064  -0.4932   1.0666 LP             1 S1                 0.0000
     52 ****         4.4182  -5.1089  -0.4322 LP             1 S1                 0.0000
     53 ****         4.0533  -4.7399   1.1161 LP             1 S1                 0.0000
@<TRIPOS>BOND
    1    1    2 1     
    2    1   23 1     
    3    1   24 1     
    4    1   25 1     
    5    2   21 ar    
    6    2    3 ar    
    7    3    4 ar    
    8    3   26 1     
    9    4   19 ar    
   10    4    5 1     
   11    5    6 2     
   12    6    7 1     
   13    6   27 1     
   14    7    8 1     
   15    7   19 1     
   16    8    9 1     
   17    8   28 1     
   18    8   29 1     
   19    9   10 1     
   20    9   11 1     
   21    9   30 1     
   22   10   31 1     
   23   11   12 1     
   24   11   32 1     
   25   11   33 1     
   26   12   18 1     
   27   12   13 1     
   28   12   48 1     
   29   13   14 1     
   30   13   34 1     
   31   13   35 1     
   32   14   15 1     
   33   14   36 1     
   34   14   37 1     
   35   15   16 1     
   36   15   38 1     
   37   15   39 1     
   38   16   17 1     
   39   16   18 1     
   40   16   40 1     
   41   17   41 1     
   42   18   42 1     
   43   18   43 1     
   44   19   20 ar    
   45   20   21 ar    
   46   20   44 1     
   47   21   22 1     
   48   22   45 1     
   49   22   46 1     
   50   22   47 1     
   51    5   49 1     
   52   10   50 1     
   53   10   51 1     
   54   17   52 1     
   55   17   53 1     
@<TRIPOS>SUBSTRUCTURE
      1 S1             1
@<TRIPOS>SET
LONE_PAIRS      STATIC     ATOMS    <user>   **** ""
5 49 50 51 52 53
DONOR_HYDROGENS      STATIC     ATOMS    <user>   **** ""
3 31 48 41
ATOM$BLUE        STATIC     ATOMS    COLORGROUP SYSTEM
5 49 50 51 52 53
ATOM$RED        STATIC     ATOMS    COLORGROUP SYSTEM
3 31 48 41
