AV-unprocessed.smi:243|AV-procd|sdf|1857|dock7
  -GOLD-   2262020483D 1   1.00000     0.00000
 Structure written by MMmdl.
 58 61  0  0  0  0  0  0  0  0  2 V2000
  153.0986  142.6643  162.8180 C   0  0  0  0  0  0  0  0  0  0  0  0
  152.5655  143.2542  161.5049 C   0  0  0  0  0  0  0  0  0  0  0  0
  153.3916  142.8720  160.3280 N   0  3  1  0  0  0  0  0  0  0  0  0
  153.4652  141.4051  160.1106 C   0  0  0  0  0  0  0  0  0  0  0  0
  152.1481  140.8476  159.5467 C   0  0  0  0  0  0  0  0  0  0  0  0
  151.7482  141.5745  158.2428 C   0  0  1  0  0  0  0  0  0  0  0  0
  150.5259  141.0244  157.6363 N   0  0  0  0  0  0  0  0  0  0  0  0
  149.3241  141.8520  157.6435 C   0  0  0  0  0  0  0  0  0  0  0  0
  150.5547  140.0936  156.6450 C   0  0  0  0  0  0  0  0  0  0  0  0
  150.5017  140.4761  155.3421 N   0  0  0  0  0  0  0  0  0  0  0  0
  150.5174  139.5643  154.3659 C   0  0  0  0  0  0  0  0  0  0  0  0
  150.5826  138.2362  154.4674 N   0  0  0  0  0  0  0  0  0  0  0  0
  150.6385  137.8421  155.7717 C   0  0  0  0  0  0  0  0  0  0  0  0
  150.6232  138.6962  156.9108 C   0  0  0  0  0  0  0  0  0  0  0  0
  150.6953  137.9349  158.0714 N   0  0  0  0  0  0  0  0  0  0  0  0
  150.7445  136.7033  157.6434 C   0  0  0  0  0  0  0  0  0  0  0  0
  150.7271  136.5558  156.2748 N   0  0  0  0  0  0  0  0  0  0  0  0
  150.7784  135.3044  155.5337 C   0  0  0  0  0  0  0  0  0  0  0  0
  149.3983  134.8380  155.0123 C   0  0  1  0  0  0  0  0  0  0  0  0
  148.7633  135.9239  154.3587 O   0  0  0  0  0  0  0  0  0  0  0  0
  149.4943  133.6790  154.0288 C   0  0  0  0  0  0  0  0  0  0  0  0
  148.1595  132.9700  154.2159 C   0  0  0  0  0  0  0  0  0  0  0  0
  147.9533  133.0430  155.6167 O   0  0  0  0  0  0  0  0  0  0  0  0
  148.4441  134.2924  156.0953 C   0  0  0  0  0  0  0  0  0  0  0  0
  151.7340  143.1171  158.4334 C   0  0  2  0  0  0  0  0  0  0  0  0
  151.4910  143.8593  157.1073 C   0  0  0  0  0  0  0  0  0  0  0  0
  153.0630  143.5896  159.0665 C   0  0  0  0  0  0  0  0  0  0  0  0
  152.4084  142.8698  163.6367 H   0  0  0  0  0  0  0  0  0  0  0  0
  154.0622  143.0897  163.0969 H   0  0  0  0  0  0  0  0  0  0  0  0
  153.2128  141.5821  162.7478 H   0  0  0  0  0  0  0  0  0  0  0  0
  151.5536  142.8739  161.3602 H   0  0  0  0  0  0  0  0  0  0  0  0
  152.4724  144.3370  161.5858 H   0  0  0  0  0  0  0  0  0  0  0  0
  154.2770  141.1986  159.4117 H   0  0  0  0  0  0  0  0  0  0  0  0
  153.7290  140.8978  161.0392 H   0  0  0  0  0  0  0  0  0  0  0  0
  152.2638  139.7797  159.3603 H   0  0  0  0  0  0  0  0  0  0  0  0
  151.3703  140.9363  160.3034 H   0  0  0  0  0  0  0  0  0  0  0  0
  152.5412  141.3688  157.5219 H   0  0  0  0  0  0  0  0  0  0  0  0
  148.9721  142.0479  156.6297 H   0  0  0  0  0  0  0  0  0  0  0  0
  149.5082  142.8138  158.1225 H   0  0  0  0  0  0  0  0  0  0  0  0
  148.5256  141.3569  158.1962 H   0  0  0  0  0  0  0  0  0  0  0  0
  150.4704  139.9544  153.3600 H   0  0  0  0  0  0  0  0  0  0  0  0
  150.8033  135.8621  158.3192 H   0  0  0  0  0  0  0  0  0  0  0  0
  151.4740  135.4276  154.7024 H   0  0  0  0  0  0  0  0  0  0  0  0
  151.2116  134.5417  156.1821 H   0  0  0  0  0  0  0  0  0  0  0  0
  149.1358  136.0113  153.4944 H   0  0  0  0  0  0  0  0  0  0  0  0
  149.6762  133.9888  152.9989 H   0  0  0  0  0  0  0  0  0  0  0  0
  150.2987  133.0016  154.3190 H   0  0  0  0  0  0  0  0  0  0  0  0
  147.3576  133.4999  153.6996 H   0  0  0  0  0  0  0  0  0  0  0  0
  148.1749  131.9383  153.8640 H   0  0  0  0  0  0  0  0  0  0  0  0
  148.9546  134.1076  157.0395 H   0  0  0  0  0  0  0  0  0  0  0  0
  147.6161  134.9727  156.3003 H   0  0  0  0  0  0  0  0  0  0  0  0
  150.9312  143.4036  159.1100 H   0  0  0  0  0  0  0  0  0  0  0  0
  152.2527  143.6114  156.3677 H   0  0  0  0  0  0  0  0  0  0  0  0
  151.5087  144.9397  157.2535 H   0  0  0  0  0  0  0  0  0  0  0  0
  150.5199  143.6096  156.6792 H   0  0  0  0  0  0  0  0  0  0  0  0
  153.0444  144.6659  159.2344 H   0  0  0  0  0  0  0  0  0  0  0  0
  153.8788  143.4166  158.3627 H   0  0  0  0  0  0  0  0  0  0  0  0
  154.3314  143.1525  160.5702 H   0  0  0  0  0  0  0  0  0  0  0  0
  1  2  1  0  0  0  0
  1 28  1  0  0  0  0
  1 29  1  0  0  0  0
  1 30  1  0  0  0  0
  2  3  1  0  0  0  0
  2 31  1  0  0  0  0
  2 32  1  0  0  0  0
  3 27  1  0  0  0  0
  3  4  1  0  0  0  0
  3 58  1  0  0  0  0
  4  5  1  0  0  0  0
  4 33  1  0  0  0  0
  4 34  1  0  0  0  0
  5  6  1  0  0  0  0
  5 35  1  0  0  0  0
  5 36  1  0  0  0  0
  6  7  1  0  0  0  0
  6 25  1  0  0  0  0
  6 37  1  0  0  0  0
  7  8  1  0  0  0  0
  7  9  1  0  0  0  0
  8 38  1  0  0  0  0
  8 39  1  0  0  0  0
  8 40  1  0  0  0  0
  9 14  1  0  0  0  0
  9 10  2  0  0  0  0
 10 11  1  0  0  0  0
 11 12  2  0  0  0  0
 11 41  1  0  0  0  0
 12 13  1  0  0  0  0
 13 17  1  0  0  0  0
 13 14  2  0  0  0  0
 14 15  1  0  0  0  0
 15 16  2  0  0  0  0
 16 17  1  0  0  0  0
 16 42  1  0  0  0  0
 17 18  1  0  0  0  0
 18 19  1  0  0  0  0
 18 43  1  0  0  0  0
 18 44  1  0  0  0  0
 19 24  1  0  0  0  0
 19 20  1  0  0  0  0
 19 21  1  0  0  0  0
 20 45  1  0  0  0  0
 21 22  1  0  0  0  0
 21 46  1  0  0  0  0
 21 47  1  0  0  0  0
 22 23  1  0  0  0  0
 22 48  1  0  0  0  0
 22 49  1  0  0  0  0
 23 24  1  0  0  0  0
 24 50  1  0  0  0  0
 24 51  1  0  0  0  0
 25 26  1  0  0  0  0
 25 27  1  0  0  0  0
 25 52  1  0  0  0  0
 26 53  1  0  0  0  0
 26 54  1  0  0  0  0
 26 55  1  0  0  0  0
 27 56  1  0  0  0  0
 27 57  1  0  0  0  0
M  CHG  1   3   1
M  END
> <s_m_source_file>
AV-unprocessed.smi

> <i_m_source_file_index>
243

> <i_lp_mmshare_version>
43012

> <i_f3d_flags>
0

> <s_epik_input>
W0NIM11bQ0gyXU4xW0NIMl1bQ0gyXVtDQEhdKFtDQEBIXShbQ0gzXSlbQ0gyXTEpTihbQ0gzXSljKG5bY0hdbjIpYyhjMjMpbltjSF1uM1tDSDJdW0NAQF00KFtPSF0pW0NIMl1bQ0gyXU9bQ0gyXTQ=

> <s_epik_cmdline>
J2VwaWtfcHl0aG9uJywgJy1waCcsICc3LjAnLCAnLXRuJywgJzgnLCAnLW1hJywgJzIwMCcsICctbWV0YWxfYmluZGluZycsICctaW1hZScsICc8aW5maWxlLm1hZT4nLCAnLW9tYWUnLCAnPG91dGZpbGUubWFlPic=

> <r_lp_tautomer_probability>
1

> <r_epik_Ionization_Penalty>
0.00253099

> <r_epik_Ionization_Penalty_Charging>
0.00137877

> <r_epik_Ionization_Penalty_Neutral>
0.00115221

> <r_epik_State_Penalty>
-0

> <r_epik_Charging_Adjusted_Penalty>
0.00137877

> <i_epik_Tot_Q>
1

> <i_epik_Tot_abs_Q>
1

> <r_epik_Metal_State_Penalty>
-0

> <b_epik_Metal_Only>
0

> <s_lp_Force_Field>
OPLS_2005

> <r_lp_Energy>
46.501

> <b_lp_Chiralities_Consistent>
1

> <s_lp_Variant>
AV-unprocessed.smi:243-10

> <Gold.Version>
5.8.1

> <Gold.Id.Protein>
6NUR|6NUR_protein|mol2

> <Gold.PLP.Fitness>
47.1579

> <Gold.PLP.PLP>
-44.5190

> <Gold.PLP.part.hbond>
-1.7017

> <Gold.PLP.part.metal>
0.0000

> <Gold.PLP.part.buried>
-4.4424

> <Gold.PLP.part.nonpolar>
-39.4478

> <Gold.PLP.part.repulsive>
0.2658

> <Gold.PLP.ligand.clash>
0.0000

> <Gold.PLP.ligand.torsion>
2.1222

> <Gold.PLP.Chemscore.Hbond>
1.0000

> <Gold.PLP.Chemscore.CHOScore>
1.0000

> <Gold.PLP.Chemscore.Metal>
0.0000

> <Gold.Chemscore.Hbonds>
donor molecule, donor type, donor heavy atom, donor atom, acceptor molecule, acceptor atom, score
      L1  H    20    45       P1  7948  1.00
      L1  C    11    41       P1  7957  1.00

> <Gold.PLP.Chemscore.Internal.Correction>
0.8833

> <Gold.Rescore>
     Score         DG    S(hbond)    S(metal)    S(lipo)     H(rot)  DE(clash)    DE(int)     intcor
     12.97     -16.61       0.99        0.00     115.71       2.24       1.40       2.24       ----

> <Gold.Chemscore.Fitness>
12.9670

> <Gold.Chemscore.DG>
-16.6053

> <Gold.Chemscore.ZeroCoef>
-5.4800

> <Gold.Chemscore.Hbond>
0.9930

> <Gold.Chemscore.Metal>
0.0000

> <Gold.Chemscore.Lipo>
115.7086

> <Gold.Chemscore.Internal_Hbond>
0.0000

> <Gold.Chemscore.DEClash>
1.4025

> <Gold.Chemscore.DEInternal>
2.2358

> <Gold.Chemscore.Rot>
2.2379

> <Gold.Chemscore.Internal.Correction>
   9.000000E+99

> <Gold.Chemscore.Hbonds>
donor molecule, donor type, donor heavy atom, donor atom, acceptor molecule, acceptor atom, score
      L1  H    20    45       P1  7948  0.84

> <Gold.Chemscore.Hbond.Weighted>
-3.3165

> <Gold.Chemscore.Metal.Weighted>
-0.0000

> <Gold.Chemscore.Lipo.Weighted>
-13.5379

> <Gold.Chemscore.Internal_Hbond.Weighted>
0.0000

> <Gold.Chemscore.DEClash.Weighted>
1.4025

> <Gold.Chemscore.DEInternal.Weighted>
2.2358

> <Gold.Chemscore.Rot.Weighted>
5.7291

> <Gold.Chemscore.Internal.Correction.Weighted>
   9.000000E+99

> <Gold.Protein.RotatedTorsions>
[ 6907 6896 6895 6894 ] final  130.13 input  -60.11 | X-H torsion
[ 7974 7965 7964 7962 ] final   45.89 input  175.53 | X-H torsion
[ 8008 7997 7996 7995 ] final   41.55 input   59.86 | X-H torsion
[ 10167 10162 10161 10158 ] final  -59.45 input  -65.29 | X-H torsion
[ 10718 10713 10712 10709 ] final  -76.88 input   66.30 | X-H torsion
[ 10763 10752 10751 10750 ] final -150.02 input  -60.55 | X-H torsion
[ 11005 11000 10999 10996 ] final  151.15 input  -57.11 | X-H torsion

> <Gold.Protein.ActiveResidues>
 VAL166  LYS551  ARG553  GLY616  TRP617  ASP618  TYR619  PRO620  LYS621  CYS622 
 ASP623  PHE694  ASN695  SER759  ASP760  ASP761  ALA762  ILE779  LEU786  VAL792 
 PHE793  MET794  SER795  GLU796  ALA797  LYS798  CYS799  TRP800  GLU811  SER814 

> <Gold.Protein.RotatedAtoms>
  152.3556  133.6233  159.5976 H   0  0  0  0  0  0  0  0  0  0  0  0  # atno 6907 bound_to 6896
  150.7566  133.9505  159.3493 H   0  0  0  0  0  0  0  0  0  0  0  0  # atno 6908 bound_to 6896
  151.7350  135.0867  160.0357 H   0  0  0  0  0  0  0  0  0  0  0  0  # atno 6909 bound_to 6896
  146.0439  139.4915  142.9761 H   0  0  0  0  0  0  0  0  0  0  0  0  # atno 7974 bound_to 7965
  155.2716  140.3366  155.4265 H   0  0  0  0  0  0  0  0  0  0  0  0  # atno 8008 bound_to 7997
  156.2130  140.1777  156.7694 H   0  0  0  0  0  0  0  0  0  0  0  0  # atno 8009 bound_to 7997
  154.5713  140.0669  156.8953 H   0  0  0  0  0  0  0  0  0  0  0  0  # atno 8010 bound_to 7997
  140.6134  143.2394  151.5654 H   0  0  0  0  0  0  0  0  0  0  0  0  # atno 10167 bound_to 10162
  156.0161  130.4477  150.3261 H   0  0  0  0  0  0  0  0  0  0  0  0  # atno 10718 bound_to 10713
  154.8143  135.3295  154.7218 H   0  0  0  0  0  0  0  0  0  0  0  0  # atno 10763 bound_to 10752
  153.7862  135.6914  153.4884 H   0  0  0  0  0  0  0  0  0  0  0  0  # atno 10764 bound_to 10752
  153.1947  135.4538  155.0140 H   0  0  0  0  0  0  0  0  0  0  0  0  # atno 10765 bound_to 10752
  140.1194  134.8874  157.2050 H   0  0  0  0  0  0  0  0  0  0  0  0  # atno 11005 bound_to 11000
  145.6838  141.0183  143.1592 LP  0  0  0  0  0  0  0  0  0  0  0  0  # atno 17320 bound_to 7965
  144.7088  139.8453  143.7421 LP  0  0  0  0  0  0  0  0  0  0  0  0  # atno 17321 bound_to 7965
  139.5379  144.2728  152.1291 LP  0  0  0  0  0  0  0  0  0  0  0  0  # atno 17342 bound_to 10162
  140.1932  144.4731  150.6468 LP  0  0  0  0  0  0  0  0  0  0  0  0  # atno 17343 bound_to 10162
  157.1360  131.0284  151.2948 LP  0  0  0  0  0  0  0  0  0  0  0  0  # atno 17370 bound_to 10713
  157.4511  130.7599  149.7152 LP  0  0  0  0  0  0  0  0  0  0  0  0  # atno 17371 bound_to 10713
  140.2986  134.3158  155.7296 LP  0  0  0  0  0  0  0  0  0  0  0  0  # atno 17394 bound_to 11000
  141.2148  133.7578  156.9607 LP  0  0  0  0  0  0  0  0  0  0  0  0  # atno 17395 bound_to 11000

$$$$
