AV-unprocessed.smi:3353|AV-procd|sdf|12953|dock5
  -GOLD-   2272019393D 1   1.00000     0.00000
 Structure written by MMmdl.
 43 44  0  0  0  0  0  0  0  0  2 V2000
  150.1519  141.8595  157.8141 C   0  0  0  0  0  0  0  0  0  0  0  0
  151.0153  141.8666  156.5472 C   0  0  0  0  0  0  0  0  0  0  0  0
  150.7214  140.7320  155.6941 N   0  0  0  0  0  0  0  0  0  0  0  0
  149.5301  140.4208  155.0691 C   0  0  0  0  0  0  0  0  0  0  0  0
  149.7607  139.2555  154.3941 C   0  0  0  0  0  0  0  0  0  0  0  0
  148.8778  138.4922  153.5892 N   0  0  0  0  0  0  0  0  0  0  0  0
  147.5367  138.4613  153.6549 C   0  0  0  0  0  0  0  0  0  0  0  0
  146.8490  139.1176  154.4375 O   0  0  0  0  0  0  0  0  0  0  0  0
  147.0217  137.6129  152.7538 N   0  0  0  0  0  0  0  0  0  0  0  0
  145.5959  137.3557  152.5737 C   0  0  0  0  0  0  0  0  0  0  0  0
  145.3094  136.2025  151.5765 C   0  0  2  0  0  0  0  0  0  0  0  0
  143.8576  135.6952  151.7278 C   0  0  0  0  0  0  0  0  0  0  0  0
  146.2946  135.0971  151.7558 N   0  3  0  0  0  0  0  0  0  0  0  0
  146.3639  134.5088  153.1114 C   0  0  0  0  0  0  0  0  0  0  0  0
  147.0201  133.1469  152.9182 C   0  0  0  0  0  0  0  0  0  0  0  0
  146.4409  132.6734  151.5905 C   0  0  0  0  0  0  0  0  0  0  0  0
  146.1462  133.9614  150.8094 C   0  0  0  0  0  0  0  0  0  0  0  0
  151.1146  138.9187  154.6547 C   0  0  0  0  0  0  0  0  0  0  0  0
  151.6885  139.8154  155.4424 N   0  0  0  0  0  0  0  0  0  0  0  0
  150.3766  142.7223  158.4411 H   0  0  0  0  0  0  0  0  0  0  0  0
  150.3285  140.9618  158.4075 H   0  0  0  0  0  0  0  0  0  0  0  0
  149.0906  141.8947  157.5665 H   0  0  0  0  0  0  0  0  0  0  0  0
  150.8447  142.7822  155.9797 H   0  0  0  0  0  0  0  0  0  0  0  0
  152.0744  141.8479  156.8084 H   0  0  0  0  0  0  0  0  0  0  0  0
  148.6531  141.0434  155.1656 H   0  0  0  0  0  0  0  0  0  0  0  0
  149.3151  137.9046  152.8943 H   0  0  0  0  0  0  0  0  0  0  0  0
  147.6577  137.1150  152.1477 H   0  0  0  0  0  0  0  0  0  0  0  0
  145.1600  137.1562  153.5532 H   0  0  0  0  0  0  0  0  0  0  0  0
  145.1318  138.2762  152.2183 H   0  0  0  0  0  0  0  0  0  0  0  0
  145.4250  136.5787  150.5588 H   0  0  0  0  0  0  0  0  0  0  0  0
  143.1347  136.5017  151.6054 H   0  0  0  0  0  0  0  0  0  0  0  0
  143.6936  135.2522  152.7106 H   0  0  0  0  0  0  0  0  0  0  0  0
  143.6048  134.9472  150.9767 H   0  0  0  0  0  0  0  0  0  0  0  0
  146.9268  135.1376  153.8022 H   0  0  0  0  0  0  0  0  0  0  0  0
  145.3562  134.3778  153.5098 H   0  0  0  0  0  0  0  0  0  0  0  0
  148.1013  133.2647  152.8313 H   0  0  0  0  0  0  0  0  0  0  0  0
  146.8198  132.4581  153.7397 H   0  0  0  0  0  0  0  0  0  0  0  0
  147.1166  132.0036  151.0572 H   0  0  0  0  0  0  0  0  0  0  0  0
  145.5108  132.1316  151.7682 H   0  0  0  0  0  0  0  0  0  0  0  0
  145.1394  133.9131  150.3910 H   0  0  0  0  0  0  0  0  0  0  0  0
  146.8438  134.0914  149.9813 H   0  0  0  0  0  0  0  0  0  0  0  0
  151.6881  138.0715  154.3083 H   0  0  0  0  0  0  0  0  0  0  0  0
  147.2106  135.4856  151.5816 H   0  0  0  0  0  0  0  0  0  0  0  0
  1  2  1  0  0  0  0
  1 20  1  0  0  0  0
  1 21  1  0  0  0  0
  1 22  1  0  0  0  0
  2  3  1  0  0  0  0
  2 23  1  0  0  0  0
  2 24  1  0  0  0  0
  3 19  1  0  0  0  0
  3  4  1  0  0  0  0
  4  5  2  0  0  0  0
  4 25  1  0  0  0  0
  5  6  1  0  0  0  0
  5 18  1  0  0  0  0
  6  7  1  0  0  0  0
  6 26  1  0  0  0  0
  7  8  2  0  0  0  0
  7  9  1  0  0  0  0
  9 10  1  0  0  0  0
  9 27  1  0  0  0  0
 10 11  1  0  0  0  0
 10 28  1  0  0  0  0
 10 29  1  0  0  0  0
 11 12  1  0  0  0  0
 11 13  1  0  0  0  0
 11 30  1  0  0  0  0
 12 31  1  0  0  0  0
 12 32  1  0  0  0  0
 12 33  1  0  0  0  0
 13 17  1  0  0  0  0
 13 14  1  0  0  0  0
 13 43  1  0  0  0  0
 14 15  1  0  0  0  0
 14 34  1  0  0  0  0
 14 35  1  0  0  0  0
 15 16  1  0  0  0  0
 15 36  1  0  0  0  0
 15 37  1  0  0  0  0
 16 17  1  0  0  0  0
 16 38  1  0  0  0  0
 16 39  1  0  0  0  0
 17 40  1  0  0  0  0
 17 41  1  0  0  0  0
 18 19  2  0  0  0  0
 18 42  1  0  0  0  0
M  CHG  1  13   1
M  END
> <s_m_source_file>
AV-unprocessed.smi

> <i_m_source_file_index>
3353

> <i_lp_mmshare_version>
43012

> <i_f3d_flags>
0

> <s_epik_input>
W0NIM11bQ0gyXW4xW2NIXWMoW2NIXW4xKVtOSF1DKD1PKVtOSF1bQ0gyXVtDQEhdKFtDSDNdKU4yW0NIMl1bQ0gyXVtDSDJdW0NIMl0y

> <s_epik_cmdline>
J2VwaWtfcHl0aG9uJywgJy1waCcsICc3LjAnLCAnLXRuJywgJzgnLCAnLW1hJywgJzIwMCcsICctbWV0YWxfYmluZGluZycsICctaW1hZScsICc8aW5maWxlLm1hZT4nLCAnLW9tYWUnLCAnPG91dGZpbGUubWFlPic=

> <r_lp_tautomer_probability>
1

> <r_epik_Ionization_Penalty>
0.000914091

> <r_epik_Ionization_Penalty_Charging>
0.000761583

> <r_epik_Ionization_Penalty_Neutral>
0.000152508

> <r_epik_State_Penalty>
0.000487427

> <r_epik_Charging_Adjusted_Penalty>
0.00124901

> <i_epik_Tot_Q>
1

> <i_epik_Tot_abs_Q>
1

> <r_epik_Metal_State_Penalty>
-0

> <b_epik_Metal_Only>
0

> <s_lp_Force_Field>
OPLS_2005

> <r_lp_Energy>
33.6396

> <b_lp_Chiralities_Consistent>
1

> <s_lp_Variant>
AV-unprocessed.smi:3353-1

> <Gold.Version>
5.8.1

> <Gold.Id.Protein>
6NUR|6NUR_protein|mol2

> <Gold.PLP.Fitness>
46.3311

> <Gold.PLP.PLP>
-35.5641

> <Gold.PLP.part.hbond>
-4.9137

> <Gold.PLP.part.metal>
0.0000

> <Gold.PLP.part.buried>
-3.1386

> <Gold.PLP.part.nonpolar>
-27.3393

> <Gold.PLP.part.repulsive>
0.3043

> <Gold.PLP.ligand.clash>
0.0000

> <Gold.PLP.ligand.torsion>
0.3438

> <Gold.PLP.Chemscore.Hbond>
3.8000

> <Gold.PLP.Chemscore.CHOScore>
0.0000

> <Gold.PLP.Chemscore.Metal>
0.0000

> <Gold.Chemscore.Hbonds>
donor molecule, donor type, donor heavy atom, donor atom, acceptor molecule, acceptor atom, score
      L1  H     6    26       P1  7948  0.83
      L1  H     9    27       P1  7948  1.00
      L1  H    13    43       P1  7948  2.00

> <Gold.PLP.Chemscore.Internal.Correction>
0.0547

> <Gold.Rescore>
     Score         DG    S(hbond)    S(metal)    S(lipo)     H(rot)  DE(clash)    DE(int)     intcor
     17.61     -18.83       2.79        0.00      69.80       1.61       0.04       1.18       ----

> <Gold.Chemscore.Fitness>
17.6065

> <Gold.Chemscore.DG>
-18.8278

> <Gold.Chemscore.ZeroCoef>
-5.4800

> <Gold.Chemscore.Hbond>
2.7867

> <Gold.Chemscore.Metal>
0.0000

> <Gold.Chemscore.Lipo>
69.7975

> <Gold.Chemscore.Internal_Hbond>
0.0000

> <Gold.Chemscore.DEClash>
0.0436

> <Gold.Chemscore.DEInternal>
1.1777

> <Gold.Chemscore.Rot>
1.6117

> <Gold.Chemscore.Internal.Correction>
   9.000000E+99

> <Gold.Chemscore.Hbonds>
donor molecule, donor type, donor heavy atom, donor atom, acceptor molecule, acceptor atom, score
      L1  H     6    26       P1  7948  0.77
      L1  H     9    27       P1  7948  0.95
      L1  H    13    43       P1  7948  0.98

> <Gold.Chemscore.Hbond.Weighted>
-9.3075

> <Gold.Chemscore.Metal.Weighted>
-0.0000

> <Gold.Chemscore.Lipo.Weighted>
-8.1663

> <Gold.Chemscore.Internal_Hbond.Weighted>
0.0000

> <Gold.Chemscore.DEClash.Weighted>
0.0436

> <Gold.Chemscore.DEInternal.Weighted>
1.1777

> <Gold.Chemscore.Rot.Weighted>
4.1260

> <Gold.Chemscore.Internal.Correction.Weighted>
   9.000000E+99

> <Gold.Protein.RotatedTorsions>
[ 6907 6896 6895 6894 ] final  121.57 input  -60.11 | X-H torsion
[ 7974 7965 7964 7962 ] final  126.68 input  175.53 | X-H torsion
[ 8008 7997 7996 7995 ] final   29.68 input   59.86 | X-H torsion
[ 10167 10162 10161 10158 ] final   60.94 input  -65.29 | X-H torsion
[ 10718 10713 10712 10709 ] final  -31.10 input   66.30 | X-H torsion
[ 10763 10752 10751 10750 ] final  -66.72 input  -60.55 | X-H torsion
[ 11005 11000 10999 10996 ] final   62.36 input  -57.11 | X-H torsion

> <Gold.Protein.ActiveResidues>
 VAL166  LYS551  ARG553  GLY616  TRP617  ASP618  TYR619  PRO620  LYS621  CYS622 
 ASP623  PHE694  ASN695  SER759  ASP760  ASP761  ALA762  ILE779  LEU786  VAL792 
 PHE793  MET794  SER795  GLU796  ALA797  LYS798  CYS799  TRP800  GLU811  SER814 

> <Gold.Protein.RotatedAtoms>
  152.4312  133.7280  159.6570 H   0  0  0  0  0  0  0  0  0  0  0  0  # atno 6907 bound_to 6896
  150.8191  133.8274  159.3153 H   0  0  0  0  0  0  0  0  0  0  0  0  # atno 6908 bound_to 6896
  151.5961  135.1052  160.0101 H   0  0  0  0  0  0  0  0  0  0  0  0  # atno 6909 bound_to 6896
  145.0590  139.3821  143.5015 H   0  0  0  0  0  0  0  0  0  0  0  0  # atno 7974 bound_to 7965
  155.0783  140.3207  155.4609 H   0  0  0  0  0  0  0  0  0  0  0  0  # atno 8008 bound_to 7997
  156.2773  140.2099  156.5857 H   0  0  0  0  0  0  0  0  0  0  0  0  # atno 8009 bound_to 7997
  154.6999  140.0508  157.0435 H   0  0  0  0  0  0  0  0  0  0  0  0  # atno 8010 bound_to 7997
  140.1602  144.4378  150.6713 H   0  0  0  0  0  0  0  0  0  0  0  0  # atno 10167 bound_to 10162
  156.3915  130.4374  149.7391 H   0  0  0  0  0  0  0  0  0  0  0  0  # atno 10718 bound_to 10713
  154.3639  135.6110  153.5705 H   0  0  0  0  0  0  0  0  0  0  0  0  # atno 10763 bound_to 10752
  152.9792  135.5822  154.4601 H   0  0  0  0  0  0  0  0  0  0  0  0  # atno 10764 bound_to 10752
  154.4343  135.2848  155.1868 H   0  0  0  0  0  0  0  0  0  0  0  0  # atno 10765 bound_to 10752
  140.0097  134.6315  155.9799 H   0  0  0  0  0  0  0  0  0  0  0  0  # atno 11005 bound_to 11000
  146.3523  140.0278  142.8653 LP  0  0  0  0  0  0  0  0  0  0  0  0  # atno 17320 bound_to 7965
  145.1433  140.9583  143.4476 LP  0  0  0  0  0  0  0  0  0  0  0  0  # atno 17321 bound_to 7965
  140.6648  143.2264  151.5770 LP  0  0  0  0  0  0  0  0  0  0  0  0  # atno 17342 bound_to 10162
  139.5385  144.2714  152.1301 LP  0  0  0  0  0  0  0  0  0  0  0  0  # atno 17343 bound_to 10162
  156.4442  130.7876  151.2897 LP  0  0  0  0  0  0  0  0  0  0  0  0  # atno 17370 bound_to 10713
  157.7499  131.0115  150.3349 LP  0  0  0  0  0  0  0  0  0  0  0  0  # atno 17371 bound_to 10713
  141.1702  133.6537  156.4625 LP  0  0  0  0  0  0  0  0  0  0  0  0  # atno 17394 bound_to 11000
  140.4577  134.6871  157.5070 LP  0  0  0  0  0  0  0  0  0  0  0  0  # atno 17395 bound_to 11000

$$$$
