AV-unprocessed.smi:817|AV-procd|sdf|3831|dock4
  -GOLD-   22720 1273D 1   1.00000     0.00000
 Structure written by MMmdl.
 48 49  0  0  0  0  0  0  0  0  2 V2000
  151.0876  139.0193  154.3426 C   0  0  0  0  0  0  0  0  0  0  0  0
  149.6160  139.4262  154.5027 C   0  0  1  0  0  0  0  0  0  0  0  0
  149.4729  140.9505  154.6665 C   0  0  0  0  0  0  0  0  0  0  0  0
  148.0007  141.3763  154.7640 C   0  0  0  0  0  0  0  0  0  0  0  0
  147.1897  140.8414  153.5699 C   0  0  0  0  0  0  0  0  0  0  0  0
  147.2508  139.2884  153.4467 C   0  0  2  0  0  0  0  0  0  0  0  0
  146.4846  138.8289  152.1682 C   0  0  0  0  0  0  0  0  0  0  0  0
  146.7043  137.4189  151.8398 N   0  0  0  0  0  0  0  0  0  0  0  0
  145.7865  136.4399  151.7666 C   0  0  0  0  0  0  0  0  0  0  0  0
  144.6022  136.6633  152.0048 O   0  0  0  0  0  0  0  0  0  0  0  0
  146.2934  135.2345  151.4397 N   0  0  0  0  0  0  0  0  0  0  0  0
  145.6135  133.9972  151.2758 C   0  0  0  0  0  0  0  0  0  0  0  0
  144.2083  133.8394  151.3541 C   0  0  0  0  0  0  0  0  0  0  0  0
  143.6565  132.5588  151.1572 C   0  0  0  0  0  0  0  0  0  0  0  0
  144.5260  131.4860  150.8809 C   0  0  0  0  0  0  0  0  0  0  0  0
  145.8654  131.6244  150.7894 N   0  0  0  0  0  0  0  0  0  0  0  0
  146.3871  132.8547  150.9801 C   0  0  0  0  0  0  0  0  0  0  0  0
  146.6599  138.6381  154.6765 N   0  3  0  0  0  0  0  0  0  0  0  0
  145.2316  138.9463  154.9535 C   0  0  0  0  0  0  0  0  0  0  0  0
  146.9090  137.1793  154.8237 C   0  0  0  0  0  0  0  0  0  0  0  0
  148.7642  138.9329  153.3117 C   0  0  0  0  0  0  0  0  0  0  0  0
  151.5242  139.4554  153.4435 H   0  0  0  0  0  0  0  0  0  0  0  0
  151.1902  137.9362  154.2707 H   0  0  0  0  0  0  0  0  0  0  0  0
  151.6822  139.3497  155.1948 H   0  0  0  0  0  0  0  0  0  0  0  0
  149.2507  138.9526  155.4142 H   0  0  0  0  0  0  0  0  0  0  0  0
  150.0115  141.2848  155.5539 H   0  0  0  0  0  0  0  0  0  0  0  0
  149.9365  141.4557  153.8178 H   0  0  0  0  0  0  0  0  0  0  0  0
  147.5729  141.0218  155.7023 H   0  0  0  0  0  0  0  0  0  0  0  0
  147.9372  142.4643  154.7949 H   0  0  0  0  0  0  0  0  0  0  0  0
  146.1641  141.2050  153.6142 H   0  0  0  0  0  0  0  0  0  0  0  0
  147.6003  141.2996  152.6694 H   0  0  0  0  0  0  0  0  0  0  0  0
  145.4121  138.9786  152.2923 H   0  0  0  0  0  0  0  0  0  0  0  0
  146.7927  139.4194  151.3053 H   0  0  0  0  0  0  0  0  0  0  0  0
  147.6611  137.1514  151.6570 H   0  0  0  0  0  0  0  0  0  0  0  0
  147.2976  135.1883  151.3496 H   0  0  0  0  0  0  0  0  0  0  0  0
  143.5448  134.6680  151.5461 H   0  0  0  0  0  0  0  0  0  0  0  0
  142.5892  132.4036  151.2121 H   0  0  0  0  0  0  0  0  0  0  0  0
  144.1345  130.4917  150.7239 H   0  0  0  0  0  0  0  0  0  0  0  0
  147.4617  132.9276  150.8973 H   0  0  0  0  0  0  0  0  0  0  0  0
  144.5708  138.5394  154.1886 H   0  0  0  0  0  0  0  0  0  0  0  0
  145.0420  140.0136  155.0477 H   0  0  0  0  0  0  0  0  0  0  0  0
  144.9312  138.5068  155.9053 H   0  0  0  0  0  0  0  0  0  0  0  0
  146.4447  136.6029  154.0242 H   0  0  0  0  0  0  0  0  0  0  0  0
  146.4929  136.8188  155.7650 H   0  0  0  0  0  0  0  0  0  0  0  0
  147.9697  136.9382  154.8582 H   0  0  0  0  0  0  0  0  0  0  0  0
  149.1694  139.3929  152.4095 H   0  0  0  0  0  0  0  0  0  0  0  0
  148.9078  137.8644  153.1552 H   0  0  0  0  0  0  0  0  0  0  0  0
  147.1628  139.0587  155.4453 H   0  0  0  0  0  0  0  0  0  0  0  0
  1  2  1  0  0  0  0
  1 22  1  0  0  0  0
  1 23  1  0  0  0  0
  1 24  1  0  0  0  0
  2 21  1  0  0  0  0
  2  3  1  0  0  0  0
  2 25  1  0  0  0  0
  3  4  1  0  0  0  0
  3 26  1  0  0  0  0
  3 27  1  0  0  0  0
  4  5  1  0  0  0  0
  4 28  1  0  0  0  0
  4 29  1  0  0  0  0
  5  6  1  0  0  0  0
  5 30  1  0  0  0  0
  5 31  1  0  0  0  0
  6  7  1  0  0  0  0
  6 18  1  0  0  0  0
  6 21  1  0  0  0  0
  7  8  1  0  0  0  0
  7 32  1  0  0  0  0
  7 33  1  0  0  0  0
  8  9  1  0  0  0  0
  8 34  1  0  0  0  0
  9 10  2  0  0  0  0
  9 11  1  0  0  0  0
 11 12  1  0  0  0  0
 11 35  1  0  0  0  0
 12 17  1  0  0  0  0
 12 13  2  0  0  0  0
 13 14  1  0  0  0  0
 13 36  1  0  0  0  0
 14 15  2  0  0  0  0
 14 37  1  0  0  0  0
 15 16  1  0  0  0  0
 15 38  1  0  0  0  0
 16 17  2  0  0  0  0
 17 39  1  0  0  0  0
 18 19  1  0  0  0  0
 18 20  1  0  0  0  0
 18 48  1  0  0  0  0
 19 40  1  0  0  0  0
 19 41  1  0  0  0  0
 19 42  1  0  0  0  0
 20 43  1  0  0  0  0
 20 44  1  0  0  0  0
 20 45  1  0  0  0  0
 21 46  1  0  0  0  0
 21 47  1  0  0  0  0
M  CHG  1  18   1
M  END
> <s_m_source_file>
AV-unprocessed.smi

> <i_m_source_file_index>
817

> <i_lp_mmshare_version>
43012

> <i_f3d_flags>
0

> <s_epik_input>
W0NIM11bQ0BASF0oW0NIMl0xKVtDSDJdW0NIMl1bQ0gyXVtDQF0xKE4oW0NIM10pW0NIM10pW0NIMl1bTkhdQyg9TylbTkhdYzJbY0hdW2NIXVtjSF1uW2NIXTI=

> <s_epik_cmdline>
J2VwaWtfcHl0aG9uJywgJy1waCcsICc3LjAnLCAnLXRuJywgJzgnLCAnLW1hJywgJzIwMCcsICctbWV0YWxfYmluZGluZycsICctaW1hZScsICc8aW5maWxlLm1hZT4nLCAnLW9tYWUnLCAnPG91dGZpbGUubWFlPic=

> <r_lp_tautomer_probability>
1

> <r_epik_Ionization_Penalty>
0.00584939

> <r_epik_Ionization_Penalty_Charging>
0.00160539

> <r_epik_Ionization_Penalty_Neutral>
0.004244

> <r_epik_State_Penalty>
-0

> <r_epik_Charging_Adjusted_Penalty>
0.00160539

> <i_epik_Tot_Q>
1

> <i_epik_Tot_abs_Q>
1

> <r_epik_Metal_State_Penalty>
-0

> <b_epik_Metal_Only>
0

> <s_lp_Force_Field>
OPLS_2005

> <r_lp_Energy>
44.0482

> <b_lp_Chiralities_Consistent>
1

> <s_lp_Variant>
AV-unprocessed.smi:817-4

> <Gold.Version>
5.8.1

> <Gold.Id.Protein>
6NUR|6NUR_protein|mol2

> <Gold.PLP.Fitness>
41.8122

> <Gold.PLP.PLP>
-34.5181

> <Gold.PLP.part.hbond>
-1.9114

> <Gold.PLP.part.metal>
0.0000

> <Gold.PLP.part.buried>
1.1906

> <Gold.PLP.part.nonpolar>
-34.8385

> <Gold.PLP.part.repulsive>
1.5519

> <Gold.PLP.ligand.clash>
0.0000

> <Gold.PLP.ligand.torsion>
0.1537

> <Gold.PLP.Chemscore.Hbond>
1.8320

> <Gold.PLP.Chemscore.CHOScore>
0.6596

> <Gold.PLP.Chemscore.Metal>
0.0000

> <Gold.Chemscore.Hbonds>
donor molecule, donor type, donor heavy atom, donor atom, acceptor molecule, acceptor atom, score
      L1  H     8    34       P1  7948  1.00
      L1  H    11    35       P1  7948  0.83
      L1  C    17    39       P1 10747  0.64

> <Gold.PLP.Chemscore.Internal.Correction>
0.1266

> <Gold.Rescore>
     Score         DG    S(hbond)    S(metal)    S(lipo)     H(rot)  DE(clash)    DE(int)     intcor
     15.40     -18.70       1.81        0.00      92.87       1.44       1.66       1.64       ----

> <Gold.Chemscore.Fitness>
15.3977

> <Gold.Chemscore.DG>
-18.6957

> <Gold.Chemscore.ZeroCoef>
-5.4800

> <Gold.Chemscore.Hbond>
1.8076

> <Gold.Chemscore.Metal>
0.0000

> <Gold.Chemscore.Lipo>
92.8738

> <Gold.Chemscore.Internal_Hbond>
0.0000

> <Gold.Chemscore.DEClash>
1.6621

> <Gold.Chemscore.DEInternal>
1.6360

> <Gold.Chemscore.Rot>
1.4405

> <Gold.Chemscore.Internal.Correction>
   9.000000E+99

> <Gold.Chemscore.Hbonds>
donor molecule, donor type, donor heavy atom, donor atom, acceptor molecule, acceptor atom, score
      L1  H     8    34       P1  7948  0.95
      L1  H    11    35       P1  7948  0.61

> <Gold.Chemscore.Hbond.Weighted>
-6.0373

> <Gold.Chemscore.Metal.Weighted>
-0.0000

> <Gold.Chemscore.Lipo.Weighted>
-10.8662

> <Gold.Chemscore.Internal_Hbond.Weighted>
0.0000

> <Gold.Chemscore.DEClash.Weighted>
1.6621

> <Gold.Chemscore.DEInternal.Weighted>
1.6360

> <Gold.Chemscore.Rot.Weighted>
3.6878

> <Gold.Chemscore.Internal.Correction.Weighted>
   9.000000E+99

> <Gold.Protein.RotatedTorsions>
[ 6907 6896 6895 6894 ] final -131.70 input  -60.11 | X-H torsion
[ 7974 7965 7964 7962 ] final -103.79 input  175.53 | X-H torsion
[ 8008 7997 7996 7995 ] final  -78.43 input   59.86 | X-H torsion
[ 10167 10162 10161 10158 ] final  169.97 input  -65.29 | X-H torsion
[ 10718 10713 10712 10709 ] final -130.53 input   66.30 | X-H torsion
[ 10763 10752 10751 10750 ] final -143.73 input  -60.55 | X-H torsion
[ 11005 11000 10999 10996 ] final -120.42 input  -57.11 | X-H torsion

> <Gold.Protein.ActiveResidues>
 VAL166  LYS551  ARG553  GLY616  TRP617  ASP618  TYR619  PRO620  LYS621  CYS622 
 ASP623  PHE694  ASN695  SER759  ASP760  ASP761  ALA762  ILE779  LEU786  VAL792 
 PHE793  MET794  SER795  GLU796  ALA797  LYS798  CYS799  TRP800  GLU811  SER814 

> <Gold.Protein.RotatedAtoms>
  150.9540  133.6518  159.2766 H   0  0  0  0  0  0  0  0  0  0  0  0  # atno 6907 bound_to 6896
  151.3864  135.0947  159.9522 H   0  0  0  0  0  0  0  0  0  0  0  0  # atno 6908 bound_to 6896
  152.5121  133.9063  159.7521 H   0  0  0  0  0  0  0  0  0  0  0  0  # atno 6909 bound_to 6896
  145.2514  140.9239  143.3093 H   0  0  0  0  0  0  0  0  0  0  0  0  # atno 7974 bound_to 7965
  154.5688  140.0694  156.8933 H   0  0  0  0  0  0  0  0  0  0  0  0  # atno 8008 bound_to 7997
  155.2672  140.3362  155.4250 H   0  0  0  0  0  0  0  0  0  0  0  0  # atno 8009 bound_to 7997
  156.2102  140.1756  156.7697 H   0  0  0  0  0  0  0  0  0  0  0  0  # atno 8010 bound_to 7997
  139.5006  144.3648  151.9787 H   0  0  0  0  0  0  0  0  0  0  0  0  # atno 10167 bound_to 10162
  156.2154  130.6945  151.0697 H   0  0  0  0  0  0  0  0  0  0  0  0  # atno 10718 bound_to 10713
  154.8458  135.3460  154.6234 H   0  0  0  0  0  0  0  0  0  0  0  0  # atno 10763 bound_to 10752
  153.6843  135.6978  153.5113 H   0  0  0  0  0  0  0  0  0  0  0  0  # atno 10764 bound_to 10752
  153.2644  135.4312  155.0882 H   0  0  0  0  0  0  0  0  0  0  0  0  # atno 10765 bound_to 10752
  141.0144  134.0216  157.3369 H   0  0  0  0  0  0  0  0  0  0  0  0  # atno 11005 bound_to 11000
  144.9499  139.4094  143.6407 LP  0  0  0  0  0  0  0  0  0  0  0  0  # atno 17320 bound_to 7965
  146.3301  139.8501  142.8874 LP  0  0  0  0  0  0  0  0  0  0  0  0  # atno 17321 bound_to 7965
  140.3084  144.3566  150.6040 LP  0  0  0  0  0  0  0  0  0  0  0  0  # atno 17342 bound_to 10162
  140.5818  143.2172  151.7414 LP  0  0  0  0  0  0  0  0  0  0  0  0  # atno 17343 bound_to 10162
  157.7060  131.0756  150.6664 LP  0  0  0  0  0  0  0  0  0  0  0  0  # atno 17370 bound_to 10713
  156.6725  130.4543  149.5653 LP  0  0  0  0  0  0  0  0  0  0  0  0  # atno 17371 bound_to 10713
  139.9109  135.0189  156.7685 LP  0  0  0  0  0  0  0  0  0  0  0  0  # atno 17394 bound_to 11000
  140.6679  133.9586  155.7840 LP  0  0  0  0  0  0  0  0  0  0  0  0  # atno 17395 bound_to 11000

$$$$
