AV-unprocessed.smi:767|AV-procd|sdf|3659|dock4
  -GOLD-   22720 1 63D 1   1.00000     0.00000
 Structure written by MMmdl.
 47 49  0  0  0  0  0  0  0  0  1 V2000
  143.4694  132.2263  151.0892 C   0  0  0  0  0  0  0  0  0  0  0  0
  144.8159  132.4824  151.7331 C   0  0  0  0  0  0  0  0  0  0  0  0
  145.3549  131.5709  152.6651 C   0  0  0  0  0  0  0  0  0  0  0  0
  146.6085  131.8602  153.2367 C   0  0  0  0  0  0  0  0  0  0  0  0
  147.2751  133.0421  152.8537 C   0  0  0  0  0  0  0  0  0  0  0  0
  148.6382  133.3891  153.4273 C   0  0  0  0  0  0  0  0  0  0  0  0
  148.5697  134.0507  154.8185 C   0  0  0  0  0  0  0  0  0  0  0  0
  149.0406  135.4321  154.8129 N   0  0  0  0  0  0  0  0  0  0  0  0
  149.4911  136.0980  155.8845 C   0  0  0  0  0  0  0  0  0  0  0  0
  149.5345  135.6304  157.0225 O   0  0  0  0  0  0  0  0  0  0  0  0
  149.9076  137.3281  155.5597 N   0  0  0  0  0  0  0  0  0  0  0  0
  150.4920  138.2900  156.4951 C   0  0  2  0  0  0  0  0  0  0  0  0
  149.8834  139.7039  156.3550 C   0  0  2  0  0  0  0  0  0  0  0  0
  148.6475  139.9870  155.5359 C   0  0  0  0  0  0  0  0  0  0  0  0
  149.2260  140.4608  154.1991 C   0  0  0  0  0  0  0  0  0  0  0  0
  150.5637  139.9667  154.1815 O   0  0  0  0  0  0  0  0  0  0  0  0
  151.0876  140.0713  155.5036 C   0  0  2  0  0  0  0  0  0  0  0  0
  151.8655  138.8473  156.0300 C   0  0  0  0  0  0  0  0  0  0  0  0
  152.8313  139.1652  157.1752 C   0  0  0  0  0  0  0  0  0  0  0  0
  152.6765  138.0622  154.9906 C   0  0  0  0  0  0  0  0  0  0  0  0
  146.6473  133.8885  151.9162 C   0  0  0  0  0  0  0  0  0  0  0  0
  145.4441  133.6208  151.3642 N   0  0  0  0  0  0  0  0  0  0  0  0
  143.1671  131.1861  151.2122 H   0  0  0  0  0  0  0  0  0  0  0  0
  143.5047  132.4435  150.0211 H   0  0  0  0  0  0  0  0  0  0  0  0
  142.7082  132.8601  151.5446 H   0  0  0  0  0  0  0  0  0  0  0  0
  144.8238  130.6704  152.9364 H   0  0  0  0  0  0  0  0  0  0  0  0
  147.0519  131.1820  153.9506 H   0  0  0  0  0  0  0  0  0  0  0  0
  149.2403  132.4816  153.4804 H   0  0  0  0  0  0  0  0  0  0  0  0
  149.1554  134.0518  152.7323 H   0  0  0  0  0  0  0  0  0  0  0  0
  147.5347  134.0661  155.1605 H   0  0  0  0  0  0  0  0  0  0  0  0
  149.1268  133.4627  155.5494 H   0  0  0  0  0  0  0  0  0  0  0  0
  149.0522  135.9043  153.9208 H   0  0  0  0  0  0  0  0  0  0  0  0
  149.8414  137.6166  154.5946 H   0  0  0  0  0  0  0  0  0  0  0  0
  150.4955  137.9470  157.5315 H   0  0  0  0  0  0  0  0  0  0  0  0
  149.9051  140.2305  157.3105 H   0  0  0  0  0  0  0  0  0  0  0  0
  148.0259  139.1011  155.4085 H   0  0  0  0  0  0  0  0  0  0  0  0
  148.0227  140.7584  155.9868 H   0  0  0  0  0  0  0  0  0  0  0  0
  148.6560  140.0995  153.3431 H   0  0  0  0  0  0  0  0  0  0  0  0
  149.2504  141.5507  154.1584 H   0  0  0  0  0  0  0  0  0  0  0  0
  151.5141  141.0496  155.7301 H   0  0  0  0  0  0  0  0  0  0  0  0
  153.6779  139.7609  156.8328 H   0  0  0  0  0  0  0  0  0  0  0  0
  153.2286  138.2554  157.6266 H   0  0  0  0  0  0  0  0  0  0  0  0
  152.3424  139.7302  157.9695 H   0  0  0  0  0  0  0  0  0  0  0  0
  153.5535  138.6207  154.6621 H   0  0  0  0  0  0  0  0  0  0  0  0
  152.0955  137.8397  154.0956 H   0  0  0  0  0  0  0  0  0  0  0  0
  153.0253  137.1118  155.3948 H   0  0  0  0  0  0  0  0  0  0  0  0
  147.1252  134.8027  151.5961 H   0  0  0  0  0  0  0  0  0  0  0  0
  1  2  1  0  0  0  0
  1 23  1  0  0  0  0
  1 24  1  0  0  0  0
  1 25  1  0  0  0  0
  2 22  1  0  0  0  0
  2  3  2  0  0  0  0
  3  4  1  0  0  0  0
  3 26  1  0  0  0  0
  4  5  2  0  0  0  0
  4 27  1  0  0  0  0
  5  6  1  0  0  0  0
  5 21  1  0  0  0  0
  6  7  1  0  0  0  0
  6 28  1  0  0  0  0
  6 29  1  0  0  0  0
  7  8  1  0  0  0  0
  7 30  1  0  0  0  0
  7 31  1  0  0  0  0
  8  9  1  0  0  0  0
  8 32  1  0  0  0  0
  9 10  2  0  0  0  0
  9 11  1  0  0  0  0
 11 12  1  0  0  0  0
 11 33  1  0  0  0  0
 12 18  1  0  0  0  0
 12 13  1  0  0  0  0
 12 34  1  0  0  0  0
 13 17  1  0  0  0  0
 13 14  1  0  0  0  0
 13 35  1  0  0  0  0
 14 15  1  0  0  0  0
 14 36  1  0  0  0  0
 14 37  1  0  0  0  0
 15 16  1  0  0  0  0
 15 38  1  0  0  0  0
 15 39  1  0  0  0  0
 16 17  1  0  0  0  0
 17 18  1  0  0  0  0
 17 40  1  0  0  0  0
 18 19  1  0  0  0  0
 18 20  1  0  0  0  0
 19 41  1  0  0  0  0
 19 42  1  0  0  0  0
 19 43  1  0  0  0  0
 20 44  1  0  0  0  0
 20 45  1  0  0  0  0
 20 46  1  0  0  0  0
 21 22  2  0  0  0  0
 21 47  1  0  0  0  0
M  END
> <s_m_source_file>
AV-unprocessed.smi

> <i_m_source_file_index>
767

> <i_lp_mmshare_version>
43012

> <i_f3d_flags>
0

> <s_epik_input>
W0NIM11jMVtjSF1bY0hdYyhbY0hdbjEpW0NIMl1bQ0gyXVtOSF1DKD1PKVtOSF1bQ0BIXTJDKFtDSDNdKShbQ0gzXSlbQ0BIXShbQ0BASF0yMylPW0NIMl1bQ0gyXTM=

> <s_epik_cmdline>
J2VwaWtfcHl0aG9uJywgJy1waCcsICc3LjAnLCAnLXRuJywgJzgnLCAnLW1hJywgJzIwMCcsICctbWV0YWxfYmluZGluZycsICctaW1hZScsICc8aW5maWxlLm1hZT4nLCAnLW9tYWUnLCAnPG91dGZpbGUubWFlPic=

> <r_epik_Ionization_Penalty>
0.0567523

> <r_epik_Ionization_Penalty_Charging>
0

> <r_epik_Ionization_Penalty_Neutral>
0.0567523

> <r_epik_State_Penalty>
0.0489186

> <r_epik_Charging_Adjusted_Penalty>
0.0489186

> <i_epik_Tot_Q>
0

> <i_epik_Tot_abs_Q>
0

> <r_epik_Metal_State_Penalty>
0.044622

> <b_epik_Metal_Only>
0

> <s_lp_Force_Field>
OPLS_2005

> <r_lp_Energy>
34.1608

> <b_lp_Chiralities_Consistent>
1

> <s_lp_Variant>
AV-unprocessed.smi:767-3

> <Gold.Version>
5.8.1

> <Gold.Id.Protein>
6NUR|6NUR_protein|mol2

> <Gold.PLP.Fitness>
40.3412

> <Gold.PLP.PLP>
-33.0118

> <Gold.PLP.part.hbond>
-2.0000

> <Gold.PLP.part.metal>
0.0000

> <Gold.PLP.part.buried>
-2.5667

> <Gold.PLP.part.nonpolar>
-28.3596

> <Gold.PLP.part.repulsive>
0.3099

> <Gold.PLP.ligand.clash>
0.0000

> <Gold.PLP.ligand.torsion>
0.9334

> <Gold.PLP.Chemscore.Hbond>
2.0000

> <Gold.PLP.Chemscore.CHOScore>
1.0000

> <Gold.PLP.Chemscore.Metal>
0.0000

> <Gold.Chemscore.Hbonds>
donor molecule, donor type, donor heavy atom, donor atom, acceptor molecule, acceptor atom, score
      L1  H     8    32       P1  7948  0.91
      P1  H  7989  7998       L1    16  0.85
      L1  C    21    47       P1  7948  1.00

> <Gold.PLP.Chemscore.Internal.Correction>
0.1961

> <Gold.Rescore>
     Score         DG    S(hbond)    S(metal)    S(lipo)     H(rot)  DE(clash)    DE(int)     intcor
     16.37     -17.58       1.58        0.00      90.16       1.45       0.26       0.95       ----

> <Gold.Chemscore.Fitness>
16.3709

> <Gold.Chemscore.DG>
-17.5813

> <Gold.Chemscore.ZeroCoef>
-5.4800

> <Gold.Chemscore.Hbond>
1.5760

> <Gold.Chemscore.Metal>
0.0000

> <Gold.Chemscore.Lipo>
90.1604

> <Gold.Chemscore.Internal_Hbond>
0.0000

> <Gold.Chemscore.DEClash>
0.2588

> <Gold.Chemscore.DEInternal>
0.9515

> <Gold.Chemscore.Rot>
1.4497

> <Gold.Chemscore.Internal.Correction>
   9.000000E+99

> <Gold.Chemscore.Hbonds>
donor molecule, donor type, donor heavy atom, donor atom, acceptor molecule, acceptor atom, score
      L1  H     8    32       P1  7948  0.80
      P1  H  7989  7998       L1    16  0.13

> <Gold.Chemscore.Hbond.Weighted>
-5.2638

> <Gold.Chemscore.Metal.Weighted>
-0.0000

> <Gold.Chemscore.Lipo.Weighted>
-10.5488

> <Gold.Chemscore.Internal_Hbond.Weighted>
0.0000

> <Gold.Chemscore.DEClash.Weighted>
0.2588

> <Gold.Chemscore.DEInternal.Weighted>
0.9515

> <Gold.Chemscore.Rot.Weighted>
3.7112

> <Gold.Chemscore.Internal.Correction.Weighted>
   9.000000E+99

> <Gold.Protein.RotatedTorsions>
[ 6907 6896 6895 6894 ] final -126.06 input  -60.11 | X-H torsion
[ 7974 7965 7964 7962 ] final   66.23 input  175.53 | X-H torsion
[ 8008 7997 7996 7995 ] final  102.53 input   59.86 | X-H torsion
[ 10167 10162 10161 10158 ] final -163.70 input  -65.29 | X-H torsion
[ 10718 10713 10712 10709 ] final -172.69 input   66.30 | X-H torsion
[ 10763 10752 10751 10750 ] final  -77.00 input  -60.55 | X-H torsion
[ 11005 11000 10999 10996 ] final -132.78 input  -57.11 | X-H torsion

> <Gold.Protein.ActiveResidues>
 VAL166  LYS551  ARG553  GLY616  TRP617  ASP618  TYR619  PRO620  LYS621  CYS622 
 ASP623  PHE694  ASN695  SER759  ASP760  ASP761  ALA762  ILE779  LEU786  VAL792 
 PHE793  MET794  SER795  GLU796  ALA797  LYS798  CYS799  TRP800  GLU811  SER814 

> <Gold.Protein.RotatedAtoms>
  150.8931  133.7217  159.2899 H   0  0  0  0  0  0  0  0  0  0  0  0  # atno 6907 bound_to 6896
  151.4761  135.1048  159.9774 H   0  0  0  0  0  0  0  0  0  0  0  0  # atno 6908 bound_to 6896
  152.4832  133.8259  159.7133 H   0  0  0  0  0  0  0  0  0  0  0  0  # atno 6909 bound_to 6896
  145.8291  139.3128  143.0998 H   0  0  0  0  0  0  0  0  0  0  0  0  # atno 7974 bound_to 7965
  156.1401  140.3180  155.8482 H   0  0  0  0  0  0  0  0  0  0  0  0  # atno 8008 bound_to 7997
  155.4170  140.0509  157.3045 H   0  0  0  0  0  0  0  0  0  0  0  0  # atno 8009 bound_to 7997
  154.4969  140.2114  155.9440 H   0  0  0  0  0  0  0  0  0  0  0  0  # atno 8010 bound_to 7997
  139.6302  144.0454  152.2009 H   0  0  0  0  0  0  0  0  0  0  0  0  # atno 10167 bound_to 10162
  156.7593  130.9407  151.3117 H   0  0  0  0  0  0  0  0  0  0  0  0  # atno 10718 bound_to 10713
  154.5072  135.5779  153.6576 H   0  0  0  0  0  0  0  0  0  0  0  0  # atno 10763 bound_to 10752
  152.9890  135.6150  154.2926 H   0  0  0  0  0  0  0  0  0  0  0  0  # atno 10764 bound_to 10752
  154.2838  135.2850  155.2665 H   0  0  0  0  0  0  0  0  0  0  0  0  # atno 10765 bound_to 10752
  140.9140  134.1531  157.4367 H   0  0  0  0  0  0  0  0  0  0  0  0  # atno 11005 bound_to 11000
  145.9591  140.8850  143.0220 LP  0  0  0  0  0  0  0  0  0  0  0  0  # atno 17320 bound_to 7965
  144.6741  140.1787  143.7408 LP  0  0  0  0  0  0  0  0  0  0  0  0  # atno 17321 bound_to 7965
  140.0118  144.6218  150.7641 LP  0  0  0  0  0  0  0  0  0  0  0  0  # atno 17342 bound_to 10162
  140.7434  143.2846  151.3499 LP  0  0  0  0  0  0  0  0  0  0  0  0  # atno 17343 bound_to 10162
  157.6742  130.9079  150.0111 LP  0  0  0  0  0  0  0  0  0  0  0  0  # atno 17370 bound_to 10713
  156.1350  130.3643  149.9672 LP  0  0  0  0  0  0  0  0  0  0  0  0  # atno 17371 bound_to 10713
  139.8762  134.9946  156.5704 LP  0  0  0  0  0  0  0  0  0  0  0  0  # atno 17394 bound_to 11000
  140.8074  133.8456  155.8779 LP  0  0  0  0  0  0  0  0  0  0  0  0  # atno 17395 bound_to 11000

$$$$
