#       Name:                AV-unprocessed.smi:3055
#       Creating user name   scv26
#       Creation time:       Fri Mar 27 17:03:39 2020


#       File generated by GOLD software.
#

@<TRIPOS>MOLECULE
AV-unprocessed.smi:3055
    50    52     1
SMALL
NO_CHARGES


@<TRIPOS>ATOM
      1 ****         1.4480   0.9690   1.3829 O.2            1 S1                 0.0000
      2 ****         1.2484   0.1136   0.5196 C.2            1 S1                 0.0000
      3 ****         2.0217  -0.9778   0.4069 N.am           1 S1                 0.0000
      4 ****         3.1528  -1.2846   1.2733 C.3            1 S1                 0.0000
      5 ****         3.8345  -2.5972   0.8570 C.3            1 S1                 0.0000
      6 ****         4.4744  -2.5033  -0.4588 N.pl3          1 S1                 0.0000
      7 ****         5.6681  -1.8989  -0.7586 C.2            1 S1                 0.0000
      8 ****         5.8616  -2.0626  -2.1061 C.2            1 S1                 0.0000
      9 ****         4.7793  -2.7607  -2.5713 N.pl3          1 S1                 1.0000
     10 ****         3.9373  -3.0288  -1.5678 C.2            1 S1                 0.0000
     11 ****         0.2555   0.2048  -0.4013 N.am           1 S1                 0.0000
     12 ****        -0.1842  -0.8627  -1.3136 C.3            1 S1                 0.0000
     13 ****        -1.4938  -1.4550  -0.7667 C.3            1 S1                 0.0000
     14 ****        -2.5619  -0.3595  -0.5784 C.3            1 S1                 0.0000
     15 ****        -2.0286   0.8560   0.2259 C.3            1 S1                 0.0000
     16 ****        -3.0213   1.9656   0.2799 N.4            1 S1                 1.0000
     17 ****        -4.3746   1.5872   0.7424 C.3            1 S1                 0.0000
     18 ****        -5.0113   2.8882   1.2167 C.3            1 S1                 0.0000
     19 ****        -3.8420   3.6218   1.8615 C.3            1 S1                 0.0000
     20 ****        -2.6067   3.1413   1.0880 C.3            1 S1                 0.0000
     21 ****        -0.6930   1.3255  -0.4035 C.3            1 S1                 0.0000
     22 ****         1.8058  -1.6399  -0.3235 H              1 S1                 0.0000
     23 ****         3.8698  -0.4621   1.2530 H              1 S1                 0.0000
     24 ****         2.7965  -1.3701   2.3008 H              1 S1                 0.0000
     25 ****         4.6102  -2.8600   1.5773 H              1 S1                 0.0000
     26 ****         3.1206  -3.4223   0.8447 H              1 S1                 0.0000
     27 ****         6.2746  -1.4093  -0.0103 H              1 S1                 0.0000
     28 ****         6.6674  -1.7437  -2.7511 H              1 S1                 0.0000
     29 ****         3.0069  -3.5634  -1.6410 H              1 S1                 0.0000
     30 ****        -0.3515  -0.4421  -2.3064 H              1 S1                 0.0000
     31 ****         0.5512  -1.6540  -1.4585 H              1 S1                 0.0000
     32 ****        -1.8669  -2.2272  -1.4400 H              1 S1                 0.0000
     33 ****        -1.3005  -1.9446   0.1889 H              1 S1                 0.0000
     34 ****        -2.8960  -0.0228  -1.5610 H              1 S1                 0.0000
     35 ****        -3.4320  -0.7994  -0.0910 H              1 S1                 0.0000
     36 ****        -1.8373   0.5308   1.2504 H              1 S1                 0.0000
     37 ****        -4.9569   1.1087  -0.0456 H              1 S1                 0.0000
     38 ****        -4.2973   0.8918   1.5800 H              1 S1                 0.0000
     39 ****        -5.3817   3.4552   0.3615 H              1 S1                 0.0000
     40 ****        -5.8433   2.7284   1.9032 H              1 S1                 0.0000
     41 ****        -3.9611   4.7052   1.8339 H              1 S1                 0.0000
     42 ****        -3.7568   3.3247   2.9078 H              1 S1                 0.0000
     43 ****        -1.8070   2.8949   1.7880 H              1 S1                 0.0000
     44 ****        -2.2336   3.9173   0.4189 H              1 S1                 0.0000
     45 ****        -0.2870   2.1931   0.1174 H              1 S1                 0.0000
     46 ****        -0.8579   1.6594  -1.4291 H              1 S1                 0.0000
     47 ****        -3.1390   2.3053  -0.6641 H              1 S1                 0.0000
     48 ****         4.6363  -3.0379  -3.5344 H              1 S1                 0.0000
     49 ****         2.2053   0.8620   2.0273 LP             1 S1                 0.0000
     50 ****         0.8529   1.7707   1.4396 LP             1 S1                 0.0000
@<TRIPOS>BOND
    1    1    2 2     
    2    2    3 am    
    3    2   11 am    
    4    3    4 1     
    5    3   22 1     
    6    4    5 1     
    7    4   23 1     
    8    4   24 1     
    9    5    6 1     
   10    5   25 1     
   11    5   26 1     
   12    6   10 1     
   13    6    7 1     
   14    7    8 2     
   15    7   27 1     
   16    8    9 1     
   17    8   28 1     
   18    9   10 2     
   19    9   48 1     
   20   10   29 1     
   21   11   21 1     
   22   11   12 1     
   23   12   13 1     
   24   12   30 1     
   25   12   31 1     
   26   13   14 1     
   27   13   32 1     
   28   13   33 1     
   29   14   15 1     
   30   14   34 1     
   31   14   35 1     
   32   15   16 1     
   33   15   21 1     
   34   15   36 1     
   35   16   20 1     
   36   16   17 1     
   37   16   47 1     
   38   17   18 1     
   39   17   37 1     
   40   17   38 1     
   41   18   19 1     
   42   18   39 1     
   43   18   40 1     
   44   19   20 1     
   45   19   41 1     
   46   19   42 1     
   47   20   43 1     
   48   20   44 1     
   49   21   45 1     
   50   21   46 1     
   51    1   49 1     
   52    1   50 1     
@<TRIPOS>SUBSTRUCTURE
      1 S1             1
@<TRIPOS>SET
LONE_PAIRS      STATIC     ATOMS    <user>   **** ""
2 49 50
DONOR_HYDROGENS      STATIC     ATOMS    <user>   **** ""
3 22 48 47
ATOM$BLUE        STATIC     ATOMS    COLORGROUP SYSTEM
2 49 50
ATOM$RED        STATIC     ATOMS    COLORGROUP SYSTEM
3 22 48 47
