AV-unprocessed.smi:72|AV-procd|sdf|726|dock7
  -GOLD-   2262017 53D 1   1.00000     0.00000
 Structure written by MMmdl.
 28 29  0  0  0  0  0  0  0  0  2 V2000
  152.3785  134.9658  157.3709 N   0  0  0  0  0  0  0  0  0  0  0  0
  152.2304  136.2048  157.1921 C   0  0  0  0  0  0  0  0  0  0  0  0
  151.4374  136.9830  158.1189 N   0  0  0  0  0  0  0  0  0  0  0  0
  151.3013  138.2512  157.8809 C   0  0  0  0  0  0  0  0  0  0  0  0
  151.9070  138.8840  156.7171 N   0  0  0  0  0  0  0  0  0  0  0  0
  151.7583  140.3682  156.4596 C   0  0  1  0  0  0  0  0  0  0  0  0
  151.1019  140.5651  155.2395 O   0  0  0  0  0  0  0  0  0  0  0  0
  150.0563  141.5199  155.3944 C   0  0  1  0  0  0  0  0  0  0  0  0
  148.9594  141.2652  154.3488 C   0  0  0  0  0  0  0  0  0  0  0  0
  148.8684  139.8857  154.0627 O   0  0  0  0  0  0  0  0  0  0  0  0
  149.5986  141.2772  156.8328 C   0  0  2  0  0  0  0  0  0  0  0  0
  148.8587  142.3548  157.3753 O   0  0  0  0  0  0  0  0  0  0  0  0
  150.9103  141.0180  157.5645 C   0  0  2  0  0  0  0  0  0  0  0  0
  151.5210  142.2049  158.0363 O   0  0  0  0  0  0  0  0  0  0  0  0
  152.7093  138.1030  155.8437 C   0  0  0  0  0  0  0  0  0  0  0  0
  153.2558  138.6673  154.8955 O   0  0  0  0  0  0  0  0  0  0  0  0
  152.8480  136.7717  156.0991 N   0  5  0  0  0  0  0  0  0  0  0  0
  152.7707  140.7682  156.3791 H   0  0  0  0  0  0  0  0  0  0  0  0
  150.4688  142.5270  155.3047 H   0  0  0  0  0  0  0  0  0  0  0  0
  148.9872  140.3742  156.8728 H   0  0  0  0  0  0  0  0  0  0  0  0
  150.7734  140.3421  158.4102 H   0  0  0  0  0  0  0  0  0  0  0  0
  151.8930  134.6367  158.1928 H   0  0  0  0  0  0  0  0  0  0  0  0
  150.7353  138.9161  158.5341 H   0  0  0  0  0  0  0  0  0  0  0  0
  147.9953  141.6485  154.6842 H   0  0  0  0  0  0  0  0  0  0  0  0
  149.2039  141.7754  153.4168 H   0  0  0  0  0  0  0  0  0  0  0  0
  148.9694  139.7649  153.1310 H   0  0  0  0  0  0  0  0  0  0  0  0
  148.7619  143.0158  156.7071 H   0  0  0  0  0  0  0  0  0  0  0  0
  150.9299  142.9257  157.8787 H   0  0  0  0  0  0  0  0  0  0  0  0
  1  2  2  0  0  0  0
  1 22  1  0  0  0  0
  2 17  1  0  0  0  0
  2  3  1  0  0  0  0
  3  4  2  0  0  0  0
  4  5  1  0  0  0  0
  4 23  1  0  0  0  0
  5  6  1  0  0  0  0
  5 15  1  0  0  0  0
  6 18  1  0  0  0  0
  6 13  1  0  0  0  0
  6  7  1  0  0  0  0
  7  8  1  0  0  0  0
  8 19  1  0  0  0  0
  8  9  1  0  0  0  0
  8 11  1  0  0  0  0
  9 10  1  0  0  0  0
  9 24  1  0  0  0  0
  9 25  1  0  0  0  0
 10 26  1  0  0  0  0
 11 20  1  0  0  0  0
 11 12  1  0  0  0  0
 11 13  1  0  0  0  0
 12 27  1  0  0  0  0
 13 21  1  0  0  0  0
 13 14  1  0  0  0  0
 14 28  1  0  0  0  0
 15 16  2  0  0  0  0
 15 17  1  0  0  0  0
M  CHG  1  17  -1
M  END
> <s_m_source_file>
AV-unprocessed.smi

> <i_m_source_file_index>
72

> <i_lp_mmshare_version>
43012

> <i_f3d_flags>
0

> <s_epik_input>
W05IMl1jMW5bY0hdbihjKD1PKW4xKVtDQEBIXTJPW0NASF0oW0NIMl1bT0hdKVtDQEBIXShbT0hdKVtDQEhdMltPSF0=

> <s_epik_cmdline>
J2VwaWtfcHl0aG9uJywgJy1waCcsICc3LjAnLCAnLXRuJywgJzgnLCAnLW1hJywgJzIwMCcsICctbWV0YWxfYmluZGluZycsICctaW1hZScsICc8aW5maWxlLm1hZT4nLCAnLW9tYWUnLCAnPG91dGZpbGUubWFlPic=

> <r_lp_tautomer_probability>
7.17554e-07

> <r_epik_Ionization_Penalty>
12.8705

> <r_epik_Ionization_Penalty_Charging>
5.64144

> <r_epik_Ionization_Penalty_Neutral>
7.22905

> <r_epik_State_Penalty>
3.30104

> <r_epik_Charging_Adjusted_Penalty>
8.94249

> <i_epik_Tot_Q>
-1

> <i_epik_Tot_abs_Q>
1

> <r_epik_Metal_State_Penalty>
0.529074

> <b_epik_Metal_Only>
1

> <s_epik_Chemistry_Notes>
This compound contains an acetal/aminal-like group ( X-CH(R)-Y where X, Y are N, S, or O) that may be acid/base labile, releasing an aldehyde.

> <s_lp_Force_Field>
OPLS_2005

> <r_lp_Energy>
36.315

> <b_lp_Chiralities_Consistent>
1

> <s_lp_Variant>
AV-unprocessed.smi:72-64

> <Gold.Version>
5.8.1

> <Gold.Id.Protein>
6NUR|6NUR_protein|mol2

> <Gold.PLP.Fitness>
39.9481

> <Gold.PLP.PLP>
-24.1141

> <Gold.PLP.part.hbond>
-6.1505

> <Gold.PLP.part.metal>
0.0000

> <Gold.PLP.part.buried>
-3.8990

> <Gold.PLP.part.nonpolar>
-13.9336

> <Gold.PLP.part.repulsive>
0.0389

> <Gold.PLP.ligand.clash>
0.0000

> <Gold.PLP.ligand.torsion>
0.2899

> <Gold.PLP.Chemscore.Hbond>
5.4640

> <Gold.PLP.Chemscore.CHOScore>
0.0000

> <Gold.PLP.Chemscore.Metal>
0.0000

> <Gold.Chemscore.Hbonds>
donor molecule, donor type, donor heavy atom, donor atom, acceptor molecule, acceptor atom, score
      L1  H    10    26       P1  7957  0.84
      L1  H    12    27       P1  8028  1.00
      P1  H  7989  7998       L1     7  0.93
      P1  H  7997  8010       L1    16  0.65
      P1  H 10752 10763       L1    17  1.60

> <Gold.PLP.Chemscore.Internal.Correction>
0.0219

> <Gold.Rescore>
     Score         DG    S(hbond)    S(metal)    S(lipo)     H(rot)  DE(clash)    DE(int)     intcor
      8.53     -10.04       3.54        0.00      26.26       4.04       0.19       1.32       ----

> <Gold.Chemscore.Fitness>
8.5304

> <Gold.Chemscore.DG>
-10.0385

> <Gold.Chemscore.ZeroCoef>
-5.4800

> <Gold.Chemscore.Hbond>
3.5418

> <Gold.Chemscore.Metal>
0.0000

> <Gold.Chemscore.Lipo>
26.2555

> <Gold.Chemscore.Internal_Hbond>
0.0000

> <Gold.Chemscore.DEClash>
0.1882

> <Gold.Chemscore.DEInternal>
1.3199

> <Gold.Chemscore.Rot>
4.0403

> <Gold.Chemscore.Internal.Correction>
   9.000000E+99

> <Gold.Chemscore.Hbonds>
donor molecule, donor type, donor heavy atom, donor atom, acceptor molecule, acceptor atom, score
      L1  H    10    26       P1  7957  0.84
      L1  H    12    27       P1  8028  0.85
      P1  H  7989  7998       L1     7  0.27
      P1  H  7997  8010       L1    16  0.25
      P1  H 10752 10763       L1    17  0.32

> <Gold.Chemscore.Hbond.Weighted>
-11.8297

> <Gold.Chemscore.Metal.Weighted>
-0.0000

> <Gold.Chemscore.Lipo.Weighted>
-3.0719

> <Gold.Chemscore.Internal_Hbond.Weighted>
0.0000

> <Gold.Chemscore.DEClash.Weighted>
0.1882

> <Gold.Chemscore.DEInternal.Weighted>
1.3199

> <Gold.Chemscore.Rot.Weighted>
10.3431

> <Gold.Chemscore.Internal.Correction.Weighted>
   9.000000E+99

> <Gold.Protein.RotatedTorsions>
[ 6907 6896 6895 6894 ] final  -75.67 input  -60.11 | X-H torsion
[ 7974 7965 7964 7962 ] final -143.87 input  175.53 | X-H torsion
[ 8008 7997 7996 7995 ] final  105.48 input   59.86 | X-H torsion
[ 10167 10162 10161 10158 ] final   38.75 input  -65.29 | X-H torsion
[ 10718 10713 10712 10709 ] final  -58.59 input   66.30 | X-H torsion
[ 10763 10752 10751 10750 ] final  106.27 input  -60.55 | X-H torsion
[ 11005 11000 10999 10996 ] final  177.44 input  -57.11 | X-H torsion

> <Gold.Protein.ActiveResidues>
 VAL166  LYS551  ARG553  GLY616  TRP617  ASP618  TYR619  PRO620  LYS621  CYS622 
 ASP623  PHE694  ASN695  SER759  ASP760  ASP761  ALA762  ILE779  LEU786  VAL792 
 PHE793  MET794  SER795  GLU796  ALA797  LYS798  CYS799  TRP800  GLU811  SER814 

> <Gold.Protein.RotatedAtoms>
  150.7051  134.4686  159.5414 H   0  0  0  0  0  0  0  0  0  0  0  0  # atno 6907 bound_to 6896
  152.2347  134.8285  160.0478 H   0  0  0  0  0  0  0  0  0  0  0  0  # atno 6908 bound_to 6896
  151.9088  133.3521  159.3893 H   0  0  0  0  0  0  0  0  0  0  0  0  # atno 6909 bound_to 6896
  144.8338  140.5780  143.5497 H   0  0  0  0  0  0  0  0  0  0  0  0  # atno 7974 bound_to 7965
  156.1663  140.3129  155.8894 H   0  0  0  0  0  0  0  0  0  0  0  0  # atno 8008 bound_to 7997
  155.3680  140.0480  157.3063 H   0  0  0  0  0  0  0  0  0  0  0  0  # atno 8009 bound_to 7997
  154.5195  140.2193  155.9013 H   0  0  0  0  0  0  0  0  0  0  0  0  # atno 8010 bound_to 7997
  140.3907  144.1857  150.6131 H   0  0  0  0  0  0  0  0  0  0  0  0  # atno 10167 bound_to 10162
  156.1123  130.4174  150.0599 H   0  0  0  0  0  0  0  0  0  0  0  0  # atno 10718 bound_to 10713
  153.3907  135.3882  155.1921 H   0  0  0  0  0  0  0  0  0  0  0  0  # atno 10763 bound_to 10752
  154.8719  135.3748  154.4741 H   0  0  0  0  0  0  0  0  0  0  0  0  # atno 10764 bound_to 10752
  153.5227  135.7086  153.5784 H   0  0  0  0  0  0  0  0  0  0  0  0  # atno 10765 bound_to 10752
  140.3841  134.6920  157.4468 H   0  0  0  0  0  0  0  0  0  0  0  0  # atno 11005 bound_to 11000
  145.4839  139.1493  143.3747 LP  0  0  0  0  0  0  0  0  0  0  0  0  # atno 17320 bound_to 7965
  146.2638  140.4975  142.8842 LP  0  0  0  0  0  0  0  0  0  0  0  0  # atno 17321 bound_to 7965
  140.4843  143.2368  151.8910 LP  0  0  0  0  0  0  0  0  0  0  0  0  # atno 17342 bound_to 10162
  139.4789  144.5235  151.8767 LP  0  0  0  0  0  0  0  0  0  0  0  0  # atno 17343 bound_to 10162
  156.8559  130.9475  151.3622 LP  0  0  0  0  0  0  0  0  0  0  0  0  # atno 17370 bound_to 10713
  157.6305  130.8725  149.9266 LP  0  0  0  0  0  0  0  0  0  0  0  0  # atno 17371 bound_to 10713
  140.0456  134.6204  155.8925 LP  0  0  0  0  0  0  0  0  0  0  0  0  # atno 17394 bound_to 11000
  141.1913  133.6571  156.5452 LP  0  0  0  0  0  0  0  0  0  0  0  0  # atno 17395 bound_to 11000

$$$$
