#       Name:                AV-unprocessed.smi:446
#       Creating user name   scv26
#       Creation time:       Thu Mar 26 22:59:04 2020


#       File generated by GOLD software.
#

@<TRIPOS>MOLECULE
AV-unprocessed.smi:446
    38    40     1
SMALL
NO_CHARGES


@<TRIPOS>ATOM
      1 ****        -1.1404   1.1042  -2.8086 C.3            1 S1                 0.0000
      2 ****        -1.3320   1.6782  -1.4407 C.2            1 S1                 0.0000
      3 ****        -1.8018   2.9105  -1.2462 N.2            1 S1                 0.0000
      4 ****        -1.8144   3.0156   0.1314 C.ar           1 S1                 0.0000
      5 ****        -2.2093   4.0847   0.9675 C.ar           1 S1                 0.0000
      6 ****        -2.1307   3.9602   2.3702 C.ar           1 S1                 0.0000
      7 ****        -1.6565   2.7685   2.9558 C.ar           1 S1                 0.0000
      8 ****        -1.2597   1.6906   2.1412 C.ar           1 S1                 0.0000
      9 ****        -1.3412   1.8191   0.7417 C.ar           1 S1                 0.0000
     10 ****        -1.0389   0.9728  -0.3208 N.pl3          1 S1                 0.0000
     11 ****        -0.5196  -0.3847  -0.2272 C.3            1 S1                 0.0000
     12 ****         1.0183  -0.4481  -0.3208 C.3            1 S1                 0.0000
     13 ****         1.6005   0.3261   0.7103 O.3            1 S1                 0.0000
     14 ****         1.5091  -1.8874  -0.3065 C.ar           1 S1                 0.0000
     15 ****         1.5943  -2.6072   0.9061 C.ar           1 S1                 0.0000
     16 ****         2.0399  -3.9432   0.9089 C.ar           1 S1                 0.0000
     17 ****         2.4009  -4.5682  -0.3000 C.ar           1 S1                 0.0000
     18 ****         2.8291  -5.8527  -0.2970 F              1 S1                 0.0000
     19 ****         2.3142  -3.8571  -1.5122 C.ar           1 S1                 0.0000
     20 ****         1.8681  -2.5210  -1.5157 C.ar           1 S1                 0.0000
     21 ****        -1.4358   1.8266  -3.5702 H              1 S1                 0.0000
     22 ****        -1.7495   0.2089  -2.9326 H              1 S1                 0.0000
     23 ****        -0.0938   0.8470  -2.9695 H              1 S1                 0.0000
     24 ****        -2.5727   5.0020   0.5285 H              1 S1                 0.0000
     25 ****        -2.4349   4.7835   2.9998 H              1 S1                 0.0000
     26 ****        -1.5968   2.6822   4.0308 H              1 S1                 0.0000
     27 ****        -0.8931   0.7774   2.5862 H              1 S1                 0.0000
     28 ****        -0.8606  -0.8216   0.7122 H              1 S1                 0.0000
     29 ****        -0.9700  -0.9860  -1.0172 H              1 S1                 0.0000
     30 ****         1.3339   0.0069  -1.2599 H              1 S1                 0.0000
     31 ****         2.5342   0.3603   0.5685 H              1 S1                 0.0000
     32 ****         1.3152  -2.1377   1.8381 H              1 S1                 0.0000
     33 ****         2.1037  -4.4888   1.8388 H              1 S1                 0.0000
     34 ****         2.5885  -4.3369  -2.4401 H              1 S1                 0.0000
     35 ****         1.8012  -1.9854  -2.4513 H              1 S1                 0.0000
     36 ****        -2.0765   3.5893  -1.9272 LP             1 S1                 0.0000
     37 ****         1.4091  -0.0945   1.5971 LP             1 S1                 0.0000
     38 ****         1.2223   1.2517   0.6918 LP             1 S1                 0.0000
@<TRIPOS>BOND
    1    1    2 1     
    2    1   21 1     
    3    1   22 1     
    4    1   23 1     
    5    2   10 1     
    6    2    3 2     
    7    3    4 1     
    8    4    9 ar    
    9    4    5 ar    
   10    5    6 ar    
   11    5   24 1     
   12    6    7 ar    
   13    6   25 1     
   14    7    8 ar    
   15    7   26 1     
   16    8    9 ar    
   17    8   27 1     
   18    9   10 1     
   19   10   11 1     
   20   11   12 1     
   21   11   28 1     
   22   11   29 1     
   23   12   13 1     
   24   12   14 1     
   25   12   30 1     
   26   13   31 1     
   27   14   20 ar    
   28   14   15 ar    
   29   15   16 ar    
   30   15   32 1     
   31   16   17 ar    
   32   16   33 1     
   33   17   18 1     
   34   17   19 ar    
   35   19   20 ar    
   36   19   34 1     
   37   20   35 1     
   38    3   36 1     
   39   13   37 1     
   40   13   38 1     
@<TRIPOS>SUBSTRUCTURE
      1 S1             1
@<TRIPOS>SET
LONE_PAIRS      STATIC     ATOMS    <user>   **** ""
3 36 37 38
DONOR_HYDROGENS      STATIC     ATOMS    <user>   **** ""
1 31
ATOM$BLUE        STATIC     ATOMS    COLORGROUP SYSTEM
3 36 37 38
ATOM$RED        STATIC     ATOMS    COLORGROUP SYSTEM
1 31
