AV-unprocessed.smi:183|AV-procd|sdf|1458|dock9
  -GOLD-   2262019263D 1   1.00000     0.00000
 Structure written by MMmdl.
 55 57  0  0  0  0  0  0  0  0  1 V2000
  151.4505  145.3640  158.8543 C   0  0  0  0  0  0  0  0  0  0  0  0
  151.6349  143.9574  158.2957 C   0  0  0  0  0  0  0  0  0  0  0  0
  152.4386  143.1862  158.8205 O   0  0  0  0  0  0  0  0  0  0  0  0
  150.8803  143.6364  157.2324 N   0  0  0  0  0  0  0  0  0  0  0  0
  150.9002  142.3400  156.5658 C   0  0  0  0  0  0  0  0  0  0  0  0
  150.5915  141.1930  157.5530 C   0  0  0  0  0  0  0  0  0  0  0  0
  150.2214  139.9334  156.8984 N   0  0  0  0  0  0  0  0  0  0  0  0
  150.0289  138.9542  157.8183 C   0  0  0  0  0  0  0  0  0  0  0  0
  151.1088  138.5760  158.5486 N   0  0  0  0  0  0  0  0  0  0  0  0
  151.0103  137.5734  159.4257 C   0  0  0  0  0  0  0  0  0  0  0  0
  149.9496  136.8169  159.7119 N   0  0  0  0  0  0  0  0  0  0  0  0
  148.8627  137.1898  158.9773 C   0  0  0  0  0  0  0  0  0  0  0  0
  148.8078  138.2492  158.0283 C   0  0  0  0  0  0  0  0  0  0  0  0
  147.5285  138.3308  157.4897 N   0  0  0  0  0  0  0  0  0  0  0  0
  146.8714  137.3689  158.0757 C   0  0  0  0  0  0  0  0  0  0  0  0
  147.6048  136.6139  158.9621 N   0  0  0  0  0  0  0  0  0  0  0  0
  147.1379  135.4663  159.7225 C   0  0  0  0  0  0  0  0  0  0  0  0
  146.9628  135.7239  161.2426 C   0  0  2  0  0  0  0  0  0  0  0  0
  145.7219  136.3933  161.3888 O   0  0  0  0  0  0  0  0  0  0  0  0
  148.0527  136.5682  161.8891 C   0  0  0  0  0  0  0  0  0  0  0  0
  147.8877  136.2560  163.3731 C   0  0  0  0  0  0  0  0  0  0  0  0
  147.4087  134.9165  163.4353 O   0  0  0  0  0  0  0  0  0  0  0  0
  146.9998  134.4706  162.1440 C   0  0  1  0  0  0  0  0  0  0  0  0
  145.7071  133.6441  162.2220 C   0  0  0  0  0  0  0  0  0  0  0  0
  150.8248  139.5698  155.6054 C   0  0  0  0  0  0  0  0  0  0  0  0
  150.1870  138.2971  155.0175 C   0  0  0  0  0  0  0  0  0  0  0  0
  152.3510  139.3556  155.7068 C   0  0  0  0  0  0  0  0  0  0  0  0
  150.4237  145.5078  159.1918 H   0  0  0  0  0  0  0  0  0  0  0  0
  151.6722  146.1098  158.0907 H   0  0  0  0  0  0  0  0  0  0  0  0
  152.1152  145.5342  159.7019 H   0  0  0  0  0  0  0  0  0  0  0  0
  150.2469  144.3327  156.8667 H   0  0  0  0  0  0  0  0  0  0  0  0
  150.1670  142.3430  155.7593 H   0  0  0  0  0  0  0  0  0  0  0  0
  151.8683  142.2129  156.0827 H   0  0  0  0  0  0  0  0  0  0  0  0
  151.4564  141.0169  158.1950 H   0  0  0  0  0  0  0  0  0  0  0  0
  149.8028  141.4968  158.2409 H   0  0  0  0  0  0  0  0  0  0  0  0
  151.9143  137.3346  159.9659 H   0  0  0  0  0  0  0  0  0  0  0  0
  145.8324  137.1675  157.8590 H   0  0  0  0  0  0  0  0  0  0  0  0
  146.1923  135.1370  159.2895 H   0  0  0  0  0  0  0  0  0  0  0  0
  147.8435  134.6498  159.5622 H   0  0  0  0  0  0  0  0  0  0  0  0
  145.0283  135.7635  161.2642 H   0  0  0  0  0  0  0  0  0  0  0  0
  149.0414  136.2320  161.5794 H   0  0  0  0  0  0  0  0  0  0  0  0
  147.9771  137.6322  161.6622 H   0  0  0  0  0  0  0  0  0  0  0  0
  148.8186  136.3723  163.9286 H   0  0  0  0  0  0  0  0  0  0  0  0
  147.1421  136.9134  163.8216 H   0  0  0  0  0  0  0  0  0  0  0  0
  147.8039  133.8143  161.8148 H   0  0  0  0  0  0  0  0  0  0  0  0
  145.3963  133.3096  161.2321 H   0  0  0  0  0  0  0  0  0  0  0  0
  144.8875  134.2152  162.6585 H   0  0  0  0  0  0  0  0  0  0  0  0
  145.8532  132.7583  162.8401 H   0  0  0  0  0  0  0  0  0  0  0  0
  150.6402  140.3808  154.9013 H   0  0  0  0  0  0  0  0  0  0  0  0
  150.6712  138.0129  154.0828 H   0  0  0  0  0  0  0  0  0  0  0  0
  149.1304  138.4381  154.7911 H   0  0  0  0  0  0  0  0  0  0  0  0
  150.2755  137.4552  155.7050 H   0  0  0  0  0  0  0  0  0  0  0  0
  152.7666  139.0545  154.7449 H   0  0  0  0  0  0  0  0  0  0  0  0
  152.5923  138.5745  156.4284 H   0  0  0  0  0  0  0  0  0  0  0  0
  152.8825  140.2583  156.0058 H   0  0  0  0  0  0  0  0  0  0  0  0
  1  2  1  0  0  0  0
  1 28  1  0  0  0  0
  1 29  1  0  0  0  0
  1 30  1  0  0  0  0
  2  3  2  0  0  0  0
  2  4  1  0  0  0  0
  4  5  1  0  0  0  0
  4 31  1  0  0  0  0
  5  6  1  0  0  0  0
  5 32  1  0  0  0  0
  5 33  1  0  0  0  0
  6  7  1  0  0  0  0
  6 34  1  0  0  0  0
  6 35  1  0  0  0  0
  7  8  1  0  0  0  0
  7 25  1  0  0  0  0
  8 13  1  0  0  0  0
  8  9  2  0  0  0  0
  9 10  1  0  0  0  0
 10 11  2  0  0  0  0
 10 36  1  0  0  0  0
 11 12  1  0  0  0  0
 12 16  1  0  0  0  0
 12 13  2  0  0  0  0
 13 14  1  0  0  0  0
 14 15  2  0  0  0  0
 15 16  1  0  0  0  0
 15 37  1  0  0  0  0
 16 17  1  0  0  0  0
 17 18  1  0  0  0  0
 17 38  1  0  0  0  0
 17 39  1  0  0  0  0
 18 23  1  0  0  0  0
 18 19  1  0  0  0  0
 18 20  1  0  0  0  0
 19 40  1  0  0  0  0
 20 21  1  0  0  0  0
 20 41  1  0  0  0  0
 20 42  1  0  0  0  0
 21 22  1  0  0  0  0
 21 43  1  0  0  0  0
 21 44  1  0  0  0  0
 22 23  1  0  0  0  0
 23 24  1  0  0  0  0
 23 45  1  0  0  0  0
 24 46  1  0  0  0  0
 24 47  1  0  0  0  0
 24 48  1  0  0  0  0
 25 26  1  0  0  0  0
 25 27  1  0  0  0  0
 25 49  1  0  0  0  0
 26 50  1  0  0  0  0
 26 51  1  0  0  0  0
 26 52  1  0  0  0  0
 27 53  1  0  0  0  0
 27 54  1  0  0  0  0
 27 55  1  0  0  0  0
M  END
> <s_m_source_file>
AV-unprocessed.smi

> <i_m_source_file_index>
183

> <i_lp_mmshare_version>
43012

> <i_f3d_flags>
0

> <s_epik_input>
W0NIM11DKD1PKVtOSF1bQ0gyXVtDSDJdTihbQ0hdKFtDSDNdKVtDSDNdKWMobltjSF1uMSljKGMxMiluW2NIXW4yW0NIMl1bQ0BAXTMoW09IXSlbQ0gyXVtDSDJdT1tDQEhdM1tDSDNd

> <s_epik_cmdline>
J2VwaWtfcHl0aG9uJywgJy1waCcsICc3LjAnLCAnLXRuJywgJzgnLCAnLW1hJywgJzIwMCcsICctbWV0YWxfYmluZGluZycsICctaW1hZScsICc8aW5maWxlLm1hZT4nLCAnLW9tYWUnLCAnPG91dGZpbGUubWFlPic=

> <r_lp_tautomer_probability>
1

> <r_epik_Ionization_Penalty>
0.00156158

> <r_epik_Ionization_Penalty_Charging>
0

> <r_epik_Ionization_Penalty_Neutral>
0.00156158

> <r_epik_State_Penalty>
0.000865808

> <r_epik_Charging_Adjusted_Penalty>
0.000865808

> <i_epik_Tot_Q>
0

> <i_epik_Tot_abs_Q>
0

> <r_epik_Metal_State_Penalty>
-0

> <b_epik_Metal_Only>
0

> <s_lp_Force_Field>
OPLS_2005

> <r_lp_Energy>
32.608

> <b_lp_Chiralities_Consistent>
1

> <s_lp_Variant>
AV-unprocessed.smi:183-2

> <Gold.Version>
5.8.1

> <Gold.Id.Protein>
6NUR|6NUR_protein|mol2

> <Gold.PLP.Fitness>
50.3157

> <Gold.PLP.PLP>
-46.3367

> <Gold.PLP.part.hbond>
-3.0154

> <Gold.PLP.part.metal>
0.0000

> <Gold.PLP.part.buried>
-7.1192

> <Gold.PLP.part.nonpolar>
-36.5709

> <Gold.PLP.part.repulsive>
0.0237

> <Gold.PLP.ligand.clash>
0.0000

> <Gold.PLP.ligand.torsion>
1.0853

> <Gold.PLP.Chemscore.Hbond>
1.6690

> <Gold.PLP.Chemscore.CHOScore>
0.0000

> <Gold.PLP.Chemscore.Metal>
0.0000

> <Gold.Chemscore.Hbonds>
donor molecule, donor type, donor heavy atom, donor atom, acceptor molecule, acceptor atom, score
      L1  H     4    31       P1  8028  0.98
      P1  H  6896  6907       L1    11  0.70

> <Gold.PLP.Chemscore.Internal.Correction>
1.1426

> <Gold.Rescore>
     Score         DG    S(hbond)    S(metal)    S(lipo)     H(rot)  DE(clash)    DE(int)     intcor
      9.40     -11.80       1.27        0.00      93.19       3.45       0.42       1.98       ----

> <Gold.Chemscore.Fitness>
9.4042

> <Gold.Chemscore.DG>
-11.8038

> <Gold.Chemscore.ZeroCoef>
-5.4800

> <Gold.Chemscore.Hbond>
1.2693

> <Gold.Chemscore.Metal>
0.0000

> <Gold.Chemscore.Lipo>
93.1934

> <Gold.Chemscore.Internal_Hbond>
0.0000

> <Gold.Chemscore.DEClash>
0.4208

> <Gold.Chemscore.DEInternal>
1.9788

> <Gold.Chemscore.Rot>
3.4451

> <Gold.Chemscore.Internal.Correction>
   9.000000E+99

> <Gold.Chemscore.Hbonds>
donor molecule, donor type, donor heavy atom, donor atom, acceptor molecule, acceptor atom, score
      L1  H     4    31       P1  8028  0.87
      P1  H  6896  6907       L1    11  0.20

> <Gold.Chemscore.Hbond.Weighted>
-4.2396

> <Gold.Chemscore.Metal.Weighted>
-0.0000

> <Gold.Chemscore.Lipo.Weighted>
-10.9036

> <Gold.Chemscore.Internal_Hbond.Weighted>
0.0000

> <Gold.Chemscore.DEClash.Weighted>
0.4208

> <Gold.Chemscore.DEInternal.Weighted>
1.9788

> <Gold.Chemscore.Rot.Weighted>
8.8194

> <Gold.Chemscore.Internal.Correction.Weighted>
   9.000000E+99

> <Gold.Protein.RotatedTorsions>
[ 6907 6896 6895 6894 ] final  -52.40 input  -60.11 | X-H torsion
[ 7974 7965 7964 7962 ] final  -21.77 input  175.53 | X-H torsion
[ 8008 7997 7996 7995 ] final  152.89 input   59.86 | X-H torsion
[ 10167 10162 10161 10158 ] final  -96.01 input  -65.29 | X-H torsion
[ 10718 10713 10712 10709 ] final   59.33 input   66.30 | X-H torsion
[ 10763 10752 10751 10750 ] final  165.32 input  -60.55 | X-H torsion
[ 11005 11000 10999 10996 ] final   -2.36 input  -57.11 | X-H torsion

> <Gold.Protein.ActiveResidues>
 VAL166  LYS551  ARG553  GLY616  TRP617  ASP618  TYR619  PRO620  LYS621  CYS622 
 ASP623  PHE694  ASN695  SER759  ASP760  ASP761  ALA762  ILE779  LEU786  VAL792 
 PHE793  MET794  SER795  GLU796  ALA797  LYS798  CYS799  TRP800  GLU811  SER814 

> <Gold.Protein.RotatedAtoms>
  150.8522  134.7850  159.7016 H   0  0  0  0  0  0  0  0  0  0  0  0  # atno 6907 bound_to 6896
  152.4583  134.5238  159.9800 H   0  0  0  0  0  0  0  0  0  0  0  0  # atno 6908 bound_to 6896
  151.5357  133.3403  159.2962 H   0  0  0  0  0  0  0  0  0  0  0  0  # atno 6909 bound_to 6896
  146.1714  140.4387  142.8531 H   0  0  0  0  0  0  0  0  0  0  0  0  # atno 7974 bound_to 7965
  156.2608  140.2008  156.6404 H   0  0  0  0  0  0  0  0  0  0  0  0  # atno 8008 bound_to 7997
  154.6614  140.0560  157.0091 H   0  0  0  0  0  0  0  0  0  0  0  0  # atno 8009 bound_to 7997
  155.1271  140.3230  155.4486 H   0  0  0  0  0  0  0  0  0  0  0  0  # atno 8010 bound_to 7997
  140.2982  143.3178  152.0275 H   0  0  0  0  0  0  0  0  0  0  0  0  # atno 10167 bound_to 10162
  157.5667  130.8876  149.9199 H   0  0  0  0  0  0  0  0  0  0  0  0  # atno 10718 bound_to 10713
  154.3222  135.2756  155.2514 H   0  0  0  0  0  0  0  0  0  0  0  0  # atno 10763 bound_to 10752
  154.4862  135.5845  153.6429 H   0  0  0  0  0  0  0  0  0  0  0  0  # atno 10764 bound_to 10752
  152.9875  135.6123  154.3408 H   0  0  0  0  0  0  0  0  0  0  0  0  # atno 10765 bound_to 10752
  140.6575  133.9349  155.8416 H   0  0  0  0  0  0  0  0  0  0  0  0  # atno 11005 bound_to 11000
  144.8169  140.6483  143.6378 LP  0  0  0  0  0  0  0  0  0  0  0  0  # atno 17320 bound_to 7965
  145.4330  139.1546  143.4012 LP  0  0  0  0  0  0  0  0  0  0  0  0  # atno 17321 bound_to 7965
  139.4921  144.6475  151.6747 LP  0  0  0  0  0  0  0  0  0  0  0  0  # atno 17342 bound_to 10162
  140.5673  144.0167  150.6199 LP  0  0  0  0  0  0  0  0  0  0  0  0  # atno 17343 bound_to 10162
  156.0715  130.3684  150.0766 LP  0  0  0  0  0  0  0  0  0  0  0  0  # atno 17370 bound_to 10713
  156.8924  130.9593  151.3587 LP  0  0  0  0  0  0  0  0  0  0  0  0  # atno 17371 bound_to 10713
  141.0490  134.0512  157.3807 LP  0  0  0  0  0  0  0  0  0  0  0  0  # atno 17394 bound_to 11000
  139.9024  135.0169  156.7331 LP  0  0  0  0  0  0  0  0  0  0  0  0  # atno 17395 bound_to 11000

$$$$
