#       Name:                AV-unprocessed.smi:3047
#       Creating user name   scv26
#       Creation time:       Fri Mar 27 17:00:45 2020


#       File generated by GOLD software.
#

@<TRIPOS>MOLECULE
AV-unprocessed.smi:3047
    41    42     1
SMALL
NO_CHARGES


@<TRIPOS>ATOM
      1 ****        -2.6951   3.0265   2.6033 C.3            1 S1                 0.0000
      2 ****        -2.6794   1.2133   2.2981 S.o2           1 S1                 0.0000
      3 ****        -1.4530   0.6568   2.8899 O.2            1 S1                 0.0000
      4 ****        -3.9891   0.6504   2.6602 O.2            1 S1                 0.0000
      5 ****        -2.5184   1.1139   0.5781 N.3            1 S1                 0.0000
      6 ****        -3.5701   1.6967  -0.2664 C.3            1 S1                 0.0000
      7 ****        -3.4873   0.9552  -1.5982 C.3            1 S1                 0.0000
      8 ****        -2.9852  -0.4237  -1.1927 C.3            1 S1                 0.0000
      9 ****        -2.0375  -0.1458  -0.0125 C.3            1 S1                 0.0000
     10 ****        -0.5586  -0.0787  -0.4195 C.2            1 S1                 0.0000
     11 ****        -0.2262   0.3839  -1.5115 O.2            1 S1                 0.0000
     12 ****         0.3255  -0.5340   0.4815 N.am           1 S1                 0.0000
     13 ****         1.7731  -0.5264   0.3119 C.3            1 S1                 0.0000
     14 ****         2.2452  -1.6645  -0.6083 C.3            1 S1                 0.0000
     15 ****         3.6974  -1.6436  -0.7900 N.pl3          1 S1                 0.0000
     16 ****         4.4086  -0.8894  -1.6876 C.2            1 S1                 0.0000
     17 ****         5.7311  -1.1954  -1.4933 C.2            1 S1                 0.0000
     18 ****         5.7707  -2.1226  -0.4861 N.pl3          1 S1                 1.0000
     19 ****         4.5327  -2.3934  -0.0593 C.2            1 S1                 0.0000
     20 ****        -2.7503   3.2116   3.6757 H              1 S1                 0.0000
     21 ****        -3.5609   3.4740   2.1162 H              1 S1                 0.0000
     22 ****        -1.7831   3.4711   2.2057 H              1 S1                 0.0000
     23 ****        -4.5432   1.5271   0.1958 H              1 S1                 0.0000
     24 ****        -3.4271   2.7717  -0.3788 H              1 S1                 0.0000
     25 ****        -4.4422   0.9209  -2.1232 H              1 S1                 0.0000
     26 ****        -2.7608   1.4409  -2.2509 H              1 S1                 0.0000
     27 ****        -3.8224  -1.0351  -0.8528 H              1 S1                 0.0000
     28 ****        -2.5149  -0.9536  -2.0224 H              1 S1                 0.0000
     29 ****        -2.1550  -0.9519   0.7141 H              1 S1                 0.0000
     30 ****        -0.0318  -0.8825   1.3599 H              1 S1                 0.0000
     31 ****         2.0940   0.4414  -0.0776 H              1 S1                 0.0000
     32 ****         2.2290  -0.6305   1.2970 H              1 S1                 0.0000
     33 ****         1.9604  -2.6368  -0.2030 H              1 S1                 0.0000
     34 ****         1.7903  -1.5830  -1.5966 H              1 S1                 0.0000
     35 ****         3.9328  -0.2080  -2.3787 H              1 S1                 0.0000
     36 ****         6.6230  -0.8323  -1.9831 H              1 S1                 0.0000
     37 ****         4.2628  -3.0817   0.7221 H              1 S1                 0.0000
     38 ****         6.6138  -2.5432  -0.1154 H              1 S1                 0.0000
     39 ****        -1.7504   1.7537   0.5493 LP             1 S1                 0.0000
     40 ****        -0.9229   0.7212  -2.1447 LP             1 S1                 0.0000
     41 ****         0.7404   0.4222  -1.7651 LP             1 S1                 0.0000
@<TRIPOS>BOND
    1    1    2 1     
    2    1   20 1     
    3    1   21 1     
    4    1   22 1     
    5    2    3 2     
    6    2    4 2     
    7    2    5 1     
    8    5    9 1     
    9    5    6 1     
   10    6    7 1     
   11    6   23 1     
   12    6   24 1     
   13    7    8 1     
   14    7   25 1     
   15    7   26 1     
   16    8    9 1     
   17    8   27 1     
   18    8   28 1     
   19    9   10 1     
   20    9   29 1     
   21   10   11 2     
   22   10   12 am    
   23   12   13 1     
   24   12   30 1     
   25   13   14 1     
   26   13   31 1     
   27   13   32 1     
   28   14   15 1     
   29   14   33 1     
   30   14   34 1     
   31   15   19 1     
   32   15   16 1     
   33   16   17 2     
   34   16   35 1     
   35   17   18 1     
   36   17   36 1     
   37   18   19 2     
   38   18   38 1     
   39   19   37 1     
   40    5   39 1     
   41   11   40 1     
   42   11   41 1     
@<TRIPOS>SUBSTRUCTURE
      1 S1             1
@<TRIPOS>SET
LONE_PAIRS      STATIC     ATOMS    <user>   **** ""
5 3 4 39 40 41
DONOR_HYDROGENS      STATIC     ATOMS    <user>   **** ""
2 30 38
ATOM$BLUE        STATIC     ATOMS    COLORGROUP SYSTEM
5 3 4 39 40 41
ATOM$RED        STATIC     ATOMS    COLORGROUP SYSTEM
2 30 38
