AV-unprocessed.smi:1807|AV-procd|sdf|7304|dock10
  -GOLD-   22720 8563D 1   1.00000     0.00000
 Structure written by MMmdl.
 44 45  0  0  0  0  0  0  0  0  1 V2000
  151.0996  140.1013  158.0513 C   0  0  0  0  0  0  0  0  0  0  0  0
  151.2261  141.5764  158.4721 C   0  0  1  0  0  0  0  0  0  0  0  0
  152.3216  141.7392  159.5455 C   0  0  0  0  0  0  0  0  0  0  0  0
  152.4735  143.2004  159.9934 C   0  0  0  0  0  0  0  0  0  0  0  0
  152.7569  144.1169  158.7954 C   0  0  0  0  0  0  0  0  0  0  0  0
  151.6645  143.9787  157.7253 C   0  0  0  0  0  0  0  0  0  0  0  0
  151.4968  142.5142  157.2690 C   0  0  2  0  0  0  0  0  0  0  0  0
  150.4096  142.4188  156.2978 N   0  0  0  0  0  0  0  0  0  0  0  0
  150.2360  141.4212  155.4183 C   0  0  0  0  0  0  0  0  0  0  0  0
  151.0195  140.4783  155.2992 O   0  0  0  0  0  0  0  0  0  0  0  0
  148.9932  141.5188  154.5262 C   0  0  0  0  0  0  0  0  0  0  0  0
  147.7562  141.5262  155.2994 N   0  0  0  0  0  0  0  0  0  0  0  0
  146.7177  142.3948  154.9380 C   0  0  0  0  0  0  0  0  0  0  0  0
  145.4931  142.4465  155.6576 C   0  0  0  0  0  0  0  0  0  0  0  0
  144.7842  143.4111  154.9989 C   0  0  0  0  0  0  0  0  0  0  0  0
  145.5719  143.8713  153.9614 N   0  0  0  0  0  0  0  0  0  0  0  0
  145.2651  144.9002  152.9837 C   0  0  0  0  0  0  0  0  0  0  0  0
  144.0440  145.7193  153.4083 C   0  0  0  0  0  0  0  0  0  0  0  0
  142.8595  145.1025  153.3956 N   0  0  0  0  0  0  0  0  0  0  0  0
  144.1672  146.8947  153.7451 O   0  0  0  0  0  0  0  0  0  0  0  0
  146.7654  143.2392  153.9183 N   0  0  0  0  0  0  0  0  0  0  0  0
  152.0144  139.7506  157.5734 H   0  0  0  0  0  0  0  0  0  0  0  0
  150.2788  139.9468  157.3505 H   0  0  0  0  0  0  0  0  0  0  0  0
  150.9108  139.4623  158.9141 H   0  0  0  0  0  0  0  0  0  0  0  0
  150.2771  141.8706  158.9230 H   0  0  0  0  0  0  0  0  0  0  0  0
  152.0909  141.1172  160.4110 H   0  0  0  0  0  0  0  0  0  0  0  0
  153.2749  141.3798  159.1550 H   0  0  0  0  0  0  0  0  0  0  0  0
  151.5632  143.5262  160.4980 H   0  0  0  0  0  0  0  0  0  0  0  0
  153.2793  143.2831  160.7234 H   0  0  0  0  0  0  0  0  0  0  0  0
  152.8239  145.1535  159.1267 H   0  0  0  0  0  0  0  0  0  0  0  0
  153.7265  143.8665  158.3632 H   0  0  0  0  0  0  0  0  0  0  0  0
  150.7199  144.3521  158.1235 H   0  0  0  0  0  0  0  0  0  0  0  0
  151.9109  144.6123  156.8724 H   0  0  0  0  0  0  0  0  0  0  0  0
  152.4255  142.1902  156.7945 H   0  0  0  0  0  0  0  0  0  0  0  0
  149.7175  143.1536  156.3186 H   0  0  0  0  0  0  0  0  0  0  0  0
  149.0433  142.3996  153.8836 H   0  0  0  0  0  0  0  0  0  0  0  0
  148.9772  140.6529  153.8643 H   0  0  0  0  0  0  0  0  0  0  0  0
  147.7754  141.1496  156.2360 H   0  0  0  0  0  0  0  0  0  0  0  0
  145.1857  141.8754  156.5210 H   0  0  0  0  0  0  0  0  0  0  0  0
  143.7961  143.8068  155.1814 H   0  0  0  0  0  0  0  0  0  0  0  0
  146.1257  145.5612  152.8685 H   0  0  0  0  0  0  0  0  0  0  0  0
  145.0946  144.4244  152.0167 H   0  0  0  0  0  0  0  0  0  0  0  0
  142.0260  145.6002  153.6723 H   0  0  0  0  0  0  0  0  0  0  0  0
  142.8039  144.1346  153.1127 H   0  0  0  0  0  0  0  0  0  0  0  0
  1  2  1  0  0  0  0
  1 22  1  0  0  0  0
  1 23  1  0  0  0  0
  1 24  1  0  0  0  0
  2  7  1  0  0  0  0
  2  3  1  0  0  0  0
  2 25  1  0  0  0  0
  3  4  1  0  0  0  0
  3 26  1  0  0  0  0
  3 27  1  0  0  0  0
  4  5  1  0  0  0  0
  4 28  1  0  0  0  0
  4 29  1  0  0  0  0
  5  6  1  0  0  0  0
  5 30  1  0  0  0  0
  5 31  1  0  0  0  0
  6  7  1  0  0  0  0
  6 32  1  0  0  0  0
  6 33  1  0  0  0  0
  7  8  1  0  0  0  0
  7 34  1  0  0  0  0
  8  9  1  0  0  0  0
  8 35  1  0  0  0  0
  9 10  2  0  0  0  0
  9 11  1  0  0  0  0
 11 12  1  0  0  0  0
 11 36  1  0  0  0  0
 11 37  1  0  0  0  0
 12 13  1  0  0  0  0
 12 38  1  0  0  0  0
 13 21  2  0  0  0  0
 13 14  1  0  0  0  0
 14 15  2  0  0  0  0
 14 39  1  0  0  0  0
 15 16  1  0  0  0  0
 15 40  1  0  0  0  0
 16 17  1  0  0  0  0
 16 21  1  0  0  0  0
 17 18  1  0  0  0  0
 17 41  1  0  0  0  0
 17 42  1  0  0  0  0
 18 19  1  0  0  0  0
 18 20  2  0  0  0  0
 19 43  1  0  0  0  0
 19 44  1  0  0  0  0
M  END
> <s_m_source_file>
AV-unprocessed.smi

> <i_m_source_file_index>
1807

> <i_lp_mmshare_version>
43012

> <i_f3d_flags>
0

> <s_epik_input>
W0NIM11bQ0BASF0xW0NIMl1bQ0gyXVtDSDJdW0NIMl1bQ0BIXTFbTkhdQyg9TylbQ0gyXVtOSF1jMltjSF1bY0hdbihuMilbQ0gyXUMoPU8pW05IMl0=

> <s_epik_cmdline>
J2VwaWtfcHl0aG9uJywgJy1waCcsICc3LjAnLCAnLXRuJywgJzgnLCAnLW1hJywgJzIwMCcsICctbWV0YWxfYmluZGluZycsICctaW1hZScsICc8aW5maWxlLm1hZT4nLCAnLW9tYWUnLCAnPG91dGZpbGUubWFlPic=

> <r_lp_tautomer_probability>
1

> <r_epik_Ionization_Penalty>
0.000167642

> <r_epik_Ionization_Penalty_Charging>
0

> <r_epik_Ionization_Penalty_Neutral>
0.000167642

> <r_epik_State_Penalty>
-0

> <r_epik_Charging_Adjusted_Penalty>
0

> <i_epik_Tot_Q>
0

> <i_epik_Tot_abs_Q>
0

> <r_epik_Metal_State_Penalty>
-0

> <b_epik_Metal_Only>
0

> <s_lp_Force_Field>
OPLS_2005

> <r_lp_Energy>
6.04908

> <b_lp_Chiralities_Consistent>
1

> <s_lp_Variant>
AV-unprocessed.smi:1807-4

> <Gold.Version>
5.8.1

> <Gold.Id.Protein>
6NUR|6NUR_protein|mol2

> <Gold.PLP.Fitness>
54.7683

> <Gold.PLP.PLP>
-47.2098

> <Gold.PLP.part.hbond>
-4.2656

> <Gold.PLP.part.metal>
0.0000

> <Gold.PLP.part.buried>
-7.7124

> <Gold.PLP.part.nonpolar>
-36.5331

> <Gold.PLP.part.repulsive>
0.9073

> <Gold.PLP.ligand.clash>
0.0000

> <Gold.PLP.ligand.torsion>
0.6341

> <Gold.PLP.Chemscore.Hbond>
2.9360

> <Gold.PLP.Chemscore.CHOScore>
0.0000

> <Gold.PLP.Chemscore.Metal>
0.0000

> <Gold.Chemscore.Hbonds>
donor molecule, donor type, donor heavy atom, donor atom, acceptor molecule, acceptor atom, score
      L1  H     8    35       P1  8028  1.00
      L1  H    19    44       P1 10174  1.00
      P1  H  7989  7998       L1    10  0.88
      P1  H  8022  8030       L1    21  0.05

> <Gold.PLP.Chemscore.Internal.Correction>
0.0188

> <Gold.Rescore>
     Score         DG    S(hbond)    S(metal)    S(lipo)     H(rot)  DE(clash)    DE(int)     intcor
     15.01     -16.64       2.10        0.00      93.01       2.64       0.73       0.89       ----

> <Gold.Chemscore.Fitness>
15.0121

> <Gold.Chemscore.DG>
-16.6384

> <Gold.Chemscore.ZeroCoef>
-5.4800

> <Gold.Chemscore.Hbond>
2.1039

> <Gold.Chemscore.Metal>
0.0000

> <Gold.Chemscore.Lipo>
93.0061

> <Gold.Chemscore.Internal_Hbond>
0.0000

> <Gold.Chemscore.DEClash>
0.7336

> <Gold.Chemscore.DEInternal>
0.8927

> <Gold.Chemscore.Rot>
2.6369

> <Gold.Chemscore.Internal.Correction>
   9.000000E+99

> <Gold.Chemscore.Hbonds>
donor molecule, donor type, donor heavy atom, donor atom, acceptor molecule, acceptor atom, score
      L1  H     8    35       P1  8028  0.97
      L1  H    19    44       P1 10174  1.00
      P1  H  7989  7998       L1    10  0.17
      P1  H  8022  8030       L1    21  0.05

> <Gold.Chemscore.Hbond.Weighted>
-7.0270

> <Gold.Chemscore.Metal.Weighted>
-0.0000

> <Gold.Chemscore.Lipo.Weighted>
-10.8817

> <Gold.Chemscore.Internal_Hbond.Weighted>
0.0000

> <Gold.Chemscore.DEClash.Weighted>
0.7336

> <Gold.Chemscore.DEInternal.Weighted>
0.8927

> <Gold.Chemscore.Rot.Weighted>
6.7504

> <Gold.Chemscore.Internal.Correction.Weighted>
   9.000000E+99

> <Gold.Protein.RotatedTorsions>
[ 6907 6896 6895 6894 ] final   50.79 input  -60.11 | X-H torsion
[ 7974 7965 7964 7962 ] final -100.95 input  175.53 | X-H torsion
[ 8008 7997 7996 7995 ] final  153.67 input   59.86 | X-H torsion
[ 10167 10162 10161 10158 ] final   94.62 input  -65.29 | X-H torsion
[ 10718 10713 10712 10709 ] final  110.96 input   66.30 | X-H torsion
[ 10763 10752 10751 10750 ] final -122.77 input  -60.55 | X-H torsion
[ 11005 11000 10999 10996 ] final  128.84 input  -57.11 | X-H torsion

> <Gold.Protein.ActiveResidues>
 VAL166  LYS551  ARG553  GLY616  TRP617  ASP618  TYR619  PRO620  LYS621  CYS622 
 ASP623  PHE694  ASN695  SER759  ASP760  ASP761  ALA762  ILE779  LEU786  VAL792 
 PHE793  MET794  SER795  GLU796  ALA797  LYS798  CYS799  TRP800  GLU811  SER814 

> <Gold.Protein.RotatedAtoms>
  152.3056  134.7559  160.0347 H   0  0  0  0  0  0  0  0  0  0  0  0  # atno 6907 bound_to 6896
  151.8057  133.3370  159.3548 H   0  0  0  0  0  0  0  0  0  0  0  0  # atno 6908 bound_to 6896
  150.7295  134.5642  159.5902 H   0  0  0  0  0  0  0  0  0  0  0  0  # atno 6909 bound_to 6896
  145.2879  140.9345  143.2894 H   0  0  0  0  0  0  0  0  0  0  0  0  # atno 7974 bound_to 7965
  156.2570  140.1987  156.6526 H   0  0  0  0  0  0  0  0  0  0  0  0  # atno 8008 bound_to 7997
  154.6525  140.0570  156.9996 H   0  0  0  0  0  0  0  0  0  0  0  0  # atno 8009 bound_to 7997
  155.1397  140.3241  155.4458 H   0  0  0  0  0  0  0  0  0  0  0  0  # atno 8010 bound_to 7997
  139.8066  144.6791  150.9694 H   0  0  0  0  0  0  0  0  0  0  0  0  # atno 10167 bound_to 10162
  157.6468  131.0942  150.6679 H   0  0  0  0  0  0  0  0  0  0  0  0  # atno 10718 bound_to 10713
  154.8696  135.4121  154.2835 H   0  0  0  0  0  0  0  0  0  0  0  0  # atno 10763 bound_to 10752
  153.3724  135.7008  153.6633 H   0  0  0  0  0  0  0  0  0  0  0  0  # atno 10764 bound_to 10752
  153.5490  135.3633  155.2723 H   0  0  0  0  0  0  0  0  0  0  0  0  # atno 10765 bound_to 10752
  139.9582  134.9608  156.9061 H   0  0  0  0  0  0  0  0  0  0  0  0  # atno 11005 bound_to 11000
  144.9197  139.4426  143.6547 LP  0  0  0  0  0  0  0  0  0  0  0  0  # atno 17320 bound_to 7965
  146.3194  139.8051  142.8957 LP  0  0  0  0  0  0  0  0  0  0  0  0  # atno 17321 bound_to 7965
  140.7819  143.4227  151.0817 LP  0  0  0  0  0  0  0  0  0  0  0  0  # atno 17342 bound_to 10162
  139.7896  143.8238  152.3150 LP  0  0  0  0  0  0  0  0  0  0  0  0  # atno 17343 bound_to 10162
  156.6995  130.4619  149.5577 LP  0  0  0  0  0  0  0  0  0  0  0  0  # atno 17370 bound_to 10713
  156.1805  130.6496  151.0945 LP  0  0  0  0  0  0  0  0  0  0  0  0  # atno 17371 bound_to 10713
  140.5559  134.0581  155.7383 LP  0  0  0  0  0  0  0  0  0  0  0  0  # atno 17394 bound_to 11000
  141.1257  133.9387  157.2640 LP  0  0  0  0  0  0  0  0  0  0  0  0  # atno 17395 bound_to 11000

$$$$
