#       Name:                AV-unprocessed.smi:1451
#       Creating user name   scv26
#       Creation time:       Fri Mar 27 05:58:34 2020


#       File generated by GOLD software.
#

@<TRIPOS>MOLECULE
AV-unprocessed.smi:1451
    51    52     1
SMALL
NO_CHARGES


@<TRIPOS>ATOM
      1 ****         0.2611   1.2323   2.7460 C.3            1 S1                 0.0000
      2 ****        -1.1072   1.8836   2.4785 C.3            1 S1                 0.0000
      3 ****        -0.9975   3.1838   1.6608 C.3            1 S1                 0.0000
      4 ****        -0.6785   2.8887   0.1886 C.3            1 S1                 0.0000
      5 ****        -1.6897   1.8965  -0.4064 C.3            1 S1                 0.0000
      6 ****        -1.7417   0.6452   0.3914 N.4            1 S1                 1.0000
      7 ****        -2.5888  -0.3991  -0.2415 C.3            1 S1                 0.0000
      8 ****        -2.2304  -1.8271   0.2141 C.3            1 S1                 0.0000
      9 ****        -0.7977  -2.0789   0.0880 N.am           1 S1                 0.0000
     10 ****         0.0746  -2.1973   1.1040 C.2            1 S1                 0.0000
     11 ****        -0.2695  -2.1697   2.2844 O.2            1 S1                 0.0000
     12 ****         1.5698  -2.3253   0.7673 C.3            1 S1                 0.0000
     13 ****         1.9008  -2.1006  -0.6512 N.am           1 S1                 0.0000
     14 ****         2.1078  -0.7646  -1.0477 C.2            1 S1                 0.0000
     15 ****         2.4094  -0.4132  -2.3116 C.2            1 S1                 0.0000
     16 ****         2.5698   1.0458  -2.7077 C.3            1 S1                 0.0000
     17 ****         2.5447   1.1979  -4.0318 F              1 S1                 0.0000
     18 ****         1.5904   1.7834  -2.1830 F              1 S1                 0.0000
     19 ****         3.7302   1.5166  -2.2529 F              1 S1                 0.0000
     20 ****         2.5024  -1.4916  -3.2767 C.2            1 S1                 0.0000
     21 ****         2.2922  -2.7731  -2.9171 C.2            1 S1                 0.0000
     22 ****         1.9615  -3.1388  -1.5379 C.2            1 S1                 0.0000
     23 ****         1.7420  -4.3024  -1.2028 O.2            1 S1                 0.0000
     24 ****        -2.0995   0.9086   1.8111 C.3            1 S1                 0.0000
     25 ****         0.7372   0.8889   1.8276 H              1 S1                 0.0000
     26 ****         0.1604   0.3704   3.4058 H              1 S1                 0.0000
     27 ****         0.9413   1.9337   3.2296 H              1 S1                 0.0000
     28 ****        -1.5159   2.1485   3.4546 H              1 S1                 0.0000
     29 ****        -1.9427   3.7252   1.7181 H              1 S1                 0.0000
     30 ****        -0.2417   3.8440   2.0877 H              1 S1                 0.0000
     31 ****        -0.6864   3.8155  -0.3856 H              1 S1                 0.0000
     32 ****         0.3302   2.4843   0.1011 H              1 S1                 0.0000
     33 ****        -2.6831   2.3462  -0.4467 H              1 S1                 0.0000
     34 ****        -1.4006   1.6694  -1.4333 H              1 S1                 0.0000
     35 ****        -3.6440  -0.1891  -0.0622 H              1 S1                 0.0000
     36 ****        -2.4498  -0.3568  -1.3227 H              1 S1                 0.0000
     37 ****        -2.5768  -1.9999   1.2339 H              1 S1                 0.0000
     38 ****        -2.7599  -2.5511  -0.4056 H              1 S1                 0.0000
     39 ****        -0.4306  -2.1334  -0.8514 H              1 S1                 0.0000
     40 ****         2.1181  -1.6104   1.3832 H              1 S1                 0.0000
     41 ****         1.9152  -3.3047   1.1026 H              1 S1                 0.0000
     42 ****         1.9911  -0.0380  -0.2562 H              1 S1                 0.0000
     43 ****         2.7482  -1.2723  -4.3055 H              1 S1                 0.0000
     44 ****         2.3715  -3.5512  -3.6624 H              1 S1                 0.0000
     45 ****        -2.1273  -0.0230   2.3761 H              1 S1                 0.0000
     46 ****        -3.1078   1.3238   1.8512 H              1 S1                 0.0000
     47 ****        -0.8011   0.2774   0.3944 H              1 S1                 0.0000
     48 ****        -1.2343  -2.0552   2.5214 LP             1 S1                 0.0000
     49 ****         0.4154  -2.2617   3.0072 LP             1 S1                 0.0000
     50 ****         1.5098  -4.5140  -0.2534 LP             1 S1                 0.0000
     51 ****         1.7957  -5.0363  -1.8799 LP             1 S1                 0.0000
@<TRIPOS>BOND
    1    1    2 1     
    2    1   25 1     
    3    1   26 1     
    4    1   27 1     
    5    2   24 1     
    6    2    3 1     
    7    2   28 1     
    8    3    4 1     
    9    3   29 1     
   10    3   30 1     
   11    4    5 1     
   12    4   31 1     
   13    4   32 1     
   14    5    6 1     
   15    5   33 1     
   16    5   34 1     
   17    6    7 1     
   18    6   24 1     
   19    6   47 1     
   20    7    8 1     
   21    7   35 1     
   22    7   36 1     
   23    8    9 1     
   24    8   37 1     
   25    8   38 1     
   26    9   10 am    
   27    9   39 1     
   28   10   11 2     
   29   10   12 1     
   30   12   13 1     
   31   12   40 1     
   32   12   41 1     
   33   13   22 am    
   34   13   14 1     
   35   14   15 2     
   36   14   42 1     
   37   15   16 1     
   38   15   20 1     
   39   16   17 1     
   40   16   18 1     
   41   16   19 1     
   42   20   21 2     
   43   20   43 1     
   44   21   22 1     
   45   21   44 1     
   46   22   23 2     
   47   24   45 1     
   48   24   46 1     
   49   11   48 1     
   50   11   49 1     
   51   23   50 1     
   52   23   51 1     
@<TRIPOS>SUBSTRUCTURE
      1 S1             1
@<TRIPOS>SET
LONE_PAIRS      STATIC     ATOMS    <user>   **** ""
4 48 49 50 51
DONOR_HYDROGENS      STATIC     ATOMS    <user>   **** ""
2 47 39
ATOM$BLUE        STATIC     ATOMS    COLORGROUP SYSTEM
4 48 49 50 51
ATOM$RED        STATIC     ATOMS    COLORGROUP SYSTEM
2 47 39
