AV-unprocessed.smi:759|AV-procd|sdf|3624|dock8
  -GOLD-   22720 1 13D 1   1.00000     0.00000
 Structure written by MMmdl.
 24 25  0  0  0  0  0  0  0  0  2 V2000
  147.0036  134.5137  154.5029 C   0  0  0  0  0  0  0  0  0  0  0  0
  146.0110  133.7333  154.9324 N   0  0  0  0  0  0  0  0  0  0  0  0
  145.3633  133.3175  153.7803 N   0  0  0  0  0  0  0  0  0  0  0  0
  146.0259  133.8894  152.7663 C   0  0  0  0  0  0  0  0  0  0  0  0
  145.6815  133.7269  151.3174 C   0  0  1  0  0  0  0  0  0  0  0  0
  145.8017  132.2619  150.8546 C   0  0  0  0  0  0  0  0  0  0  0  0
  145.4216  132.1318  149.3714 C   0  0  0  0  0  0  0  0  0  0  0  0
  144.0269  132.7230  149.1071 C   0  0  0  0  0  0  0  0  0  0  0  0
  143.9620  134.1301  149.5581 N   0  3  0  0  0  0  0  0  0  0  0  0
  144.2833  134.2932  150.9933 C   0  0  0  0  0  0  0  0  0  0  0  0
  147.0590  134.6439  153.1723 N   0  0  0  0  0  0  0  0  0  0  0  0
  147.7144  135.1753  152.6175 H   0  0  0  0  0  0  0  0  0  0  0  0
  147.7008  134.9979  155.1709 H   0  0  0  0  0  0  0  0  0  0  0  0
  146.4084  134.3088  150.7475 H   0  0  0  0  0  0  0  0  0  0  0  0
  146.8177  131.8976  151.0119 H   0  0  0  0  0  0  0  0  0  0  0  0
  145.1472  131.6264  151.4528 H   0  0  0  0  0  0  0  0  0  0  0  0
  146.1608  132.6467  148.7564 H   0  0  0  0  0  0  0  0  0  0  0  0
  145.4455  131.0838  149.0710 H   0  0  0  0  0  0  0  0  0  0  0  0
  143.7924  132.6791  148.0432 H   0  0  0  0  0  0  0  0  0  0  0  0
  143.2631  132.1428  149.6268 H   0  0  0  0  0  0  0  0  0  0  0  0
  144.6212  134.6712  149.0169 H   0  0  0  0  0  0  0  0  0  0  0  0
  143.5177  133.7890  151.5852 H   0  0  0  0  0  0  0  0  0  0  0  0
  144.2342  135.3529  151.2460 H   0  0  0  0  0  0  0  0  0  0  0  0
  143.0319  134.4858  149.3888 H   0  0  0  0  0  0  0  0  0  0  0  0
  1 11  1  0  0  0  0
  1  2  2  0  0  0  0
  1 13  1  0  0  0  0
  2  3  1  0  0  0  0
  3  4  2  0  0  0  0
  4  5  1  0  0  0  0
  4 11  1  0  0  0  0
  5 10  1  0  0  0  0
  5  6  1  0  0  0  0
  5 14  1  0  0  0  0
  6  7  1  0  0  0  0
  6 15  1  0  0  0  0
  6 16  1  0  0  0  0
  7  8  1  0  0  0  0
  7 17  1  0  0  0  0
  7 18  1  0  0  0  0
  8  9  1  0  0  0  0
  8 19  1  0  0  0  0
  8 20  1  0  0  0  0
  9 10  1  0  0  0  0
  9 21  1  0  0  0  0
  9 24  1  0  0  0  0
 10 22  1  0  0  0  0
 10 23  1  0  0  0  0
 11 12  1  0  0  0  0
M  CHG  1   9   1
M  END
> <s_m_source_file>
AV-unprocessed.smi

> <i_m_source_file_index>
759

> <i_lp_mmshare_version>
43012

> <i_f3d_flags>
0

> <s_epik_input>
W25IXTFbY0hdbm5jMVtDQEBIXTJbQ0gyXVtDSDJdW0NIMl1bTkhdW0NIMl0y

> <s_epik_cmdline>
J2VwaWtfcHl0aG9uJywgJy1waCcsICc3LjAnLCAnLXRuJywgJzgnLCAnLW1hJywgJzIwMCcsICctbWV0YWxfYmluZGluZycsICctaW1hZScsICc8aW5maWxlLm1hZT4nLCAnLW9tYWUnLCAnPG91dGZpbGUubWFlPic=

> <r_lp_tautomer_probability>
0.0517155

> <r_epik_Ionization_Penalty>
0.0333069

> <r_epik_Ionization_Penalty_Charging>
0.000426856

> <r_epik_Ionization_Penalty_Neutral>
0.03288

> <r_epik_State_Penalty>
2.11054

> <r_epik_Charging_Adjusted_Penalty>
2.11097

> <i_epik_Tot_Q>
1

> <i_epik_Tot_abs_Q>
1

> <r_epik_Metal_State_Penalty>
2.37626

> <b_epik_Metal_Only>
0

> <s_lp_Force_Field>
OPLS_2005

> <r_lp_Energy>
13.742

> <b_lp_Chiralities_Consistent>
1

> <s_lp_Variant>
AV-unprocessed.smi:759-6

> <Gold.Version>
5.8.1

> <Gold.Id.Protein>
6NUR|6NUR_protein|mol2

> <Gold.PLP.Fitness>
31.3323

> <Gold.PLP.PLP>
-19.5094

> <Gold.PLP.part.hbond>
-3.0000

> <Gold.PLP.part.metal>
0.0000

> <Gold.PLP.part.buried>
-3.9351

> <Gold.PLP.part.nonpolar>
-13.9771

> <Gold.PLP.part.repulsive>
0.2633

> <Gold.PLP.ligand.clash>
0.0000

> <Gold.PLP.ligand.torsion>
0.0143

> <Gold.PLP.Chemscore.Hbond>
3.9413

> <Gold.PLP.Chemscore.CHOScore>
0.0000

> <Gold.PLP.Chemscore.Metal>
0.0000

> <Gold.Chemscore.Hbonds>
donor molecule, donor type, donor heavy atom, donor atom, acceptor molecule, acceptor atom, score
      L1  H     9    21       P1  7921  0.94
      L1  H     9    24       P1 10186  2.00
      L1  H    11    12       P1  7948  1.00

> <Gold.PLP.Chemscore.Internal.Correction>
0.0278

> <Gold.Rescore>
     Score         DG    S(hbond)    S(metal)    S(lipo)     H(rot)  DE(clash)    DE(int)     intcor
     18.39     -18.48       2.92        0.00      49.77       1.00       0.06       0.04       ----

> <Gold.Chemscore.Fitness>
18.3859

> <Gold.Chemscore.DG>
-18.4807

> <Gold.Chemscore.ZeroCoef>
-5.4800

> <Gold.Chemscore.Hbond>
2.9153

> <Gold.Chemscore.Metal>
0.0000

> <Gold.Chemscore.Lipo>
49.7732

> <Gold.Chemscore.Internal_Hbond>
0.0000

> <Gold.Chemscore.DEClash>
0.0561

> <Gold.Chemscore.DEInternal>
0.0386

> <Gold.Chemscore.Rot>
1.0000

> <Gold.Chemscore.Internal.Correction>
   9.000000E+99

> <Gold.Chemscore.Hbonds>
donor molecule, donor type, donor heavy atom, donor atom, acceptor molecule, acceptor atom, score
      L1  H     9    21       P1  7921  0.87
      L1  H     9    24       P1 10186  0.91
      L1  H    11    12       P1  7948  1.00

> <Gold.Chemscore.Hbond.Weighted>
-9.7372

> <Gold.Chemscore.Metal.Weighted>
-0.0000

> <Gold.Chemscore.Lipo.Weighted>
-5.8235

> <Gold.Chemscore.Internal_Hbond.Weighted>
0.0000

> <Gold.Chemscore.DEClash.Weighted>
0.0561

> <Gold.Chemscore.DEInternal.Weighted>
0.0386

> <Gold.Chemscore.Rot.Weighted>
2.5600

> <Gold.Chemscore.Internal.Correction.Weighted>
   9.000000E+99

> <Gold.Protein.RotatedTorsions>
[ 6907 6896 6895 6894 ] final   62.27 input  -60.11 | X-H torsion
[ 7974 7965 7964 7962 ] final  111.45 input  175.53 | X-H torsion
[ 8008 7997 7996 7995 ] final  153.58 input   59.86 | X-H torsion
[ 10167 10162 10161 10158 ] final  104.27 input  -65.29 | X-H torsion
[ 10718 10713 10712 10709 ] final  -51.16 input   66.30 | X-H torsion
[ 10763 10752 10751 10750 ] final  -87.36 input  -60.55 | X-H torsion
[ 11005 11000 10999 10996 ] final -137.96 input  -57.11 | X-H torsion

> <Gold.Protein.ActiveResidues>
 VAL166  LYS551  ARG553  GLY616  TRP617  ASP618  TYR619  PRO620  LYS621  CYS622 
 ASP623  PHE694  ASN695  SER759  ASP760  ASP761  ALA762  ILE779  LEU786  VAL792 
 PHE793  MET794  SER795  GLU796  ALA797  LYS798  CYS799  TRP800  GLU811  SER814 

> <Gold.Protein.RotatedAtoms>
  152.4158  134.6044  160.0008 H   0  0  0  0  0  0  0  0  0  0  0  0  # atno 6907 bound_to 6896
  151.6208  133.3333  159.3095 H   0  0  0  0  0  0  0  0  0  0  0  0  # atno 6908 bound_to 6896
  150.8047  134.7203  159.6699 H   0  0  0  0  0  0  0  0  0  0  0  0  # atno 6909 bound_to 6896
  145.2420  139.2775  143.4112 H   0  0  0  0  0  0  0  0  0  0  0  0  # atno 7974 bound_to 7965
  156.2574  140.1989  156.6513 H   0  0  0  0  0  0  0  0  0  0  0  0  # atno 8008 bound_to 7997
  154.6534  140.0569  157.0007 H   0  0  0  0  0  0  0  0  0  0  0  0  # atno 8009 bound_to 7997
  155.1383  140.3240  155.4460 H   0  0  0  0  0  0  0  0  0  0  0  0  # atno 8010 bound_to 7997
  139.7191  144.7062  151.0901 H   0  0  0  0  0  0  0  0  0  0  0  0  # atno 10167 bound_to 10162
  156.1735  130.4149  149.9612 H   0  0  0  0  0  0  0  0  0  0  0  0  # atno 10718 bound_to 10713
  154.6327  135.5416  153.7699 H   0  0  0  0  0  0  0  0  0  0  0  0  # atno 10763 bound_to 10752
  153.0293  135.6440  154.1277 H   0  0  0  0  0  0  0  0  0  0  0  0  # atno 10764 bound_to 10752
  154.1206  135.2920  155.3189 H   0  0  0  0  0  0  0  0  0  0  0  0  # atno 10765 bound_to 10752
  140.8662  134.2108  157.4678 H   0  0  0  0  0  0  0  0  0  0  0  0  # atno 11005 bound_to 11000
  146.3326  140.2787  142.8609 LP  0  0  0  0  0  0  0  0  0  0  0  0  # atno 17320 bound_to 7965
  144.9580  140.8246  143.5531 LP  0  0  0  0  0  0  0  0  0  0  0  0  # atno 17321 bound_to 7965
  140.7750  143.5189  150.9560 LP  0  0  0  0  0  0  0  0  0  0  0  0  # atno 17342 bound_to 10162
  139.8876  143.6993  152.3149 LP  0  0  0  0  0  0  0  0  0  0  0  0  # atno 17343 bound_to 10162
  156.7404  130.9077  151.3632 LP  0  0  0  0  0  0  0  0  0  0  0  0  # atno 17370 bound_to 10713
  157.6819  130.9148  150.0289 LP  0  0  0  0  0  0  0  0  0  0  0  0  # atno 17371 bound_to 10713
  139.8709  134.9753  156.4877 LP  0  0  0  0  0  0  0  0  0  0  0  0  # atno 17394 bound_to 11000
  140.8626  133.8048  155.9281 LP  0  0  0  0  0  0  0  0  0  0  0  0  # atno 17395 bound_to 11000

$$$$
