#       Name:                AV-unprocessed.smi:197
#       Creating user name   scv26
#       Creation time:       Thu Mar 26 19:40:29 2020


#       File generated by GOLD software.
#

@<TRIPOS>MOLECULE
AV-unprocessed.smi:197
    66    69     1
SMALL
NO_CHARGES


@<TRIPOS>ATOM
      1 ****        -3.3415  -3.1863   2.8052 C.3            1 S1                 0.0000
      2 ****        -2.8797  -2.5206   1.6437 O.3            1 S1                 0.0000
      3 ****        -3.4242  -3.0625   0.4516 C.3            1 S1                 0.0000
      4 ****        -2.8810  -2.2783  -0.7521 C.3            1 S1                 0.0000
      5 ****        -3.2809  -0.7789  -0.7702 C.3            1 S1                 0.0000
      6 ****        -4.8037  -0.6082  -0.9847 C.3            1 S1                 0.0000
      7 ****        -5.1509   0.7712  -1.0260 O.3            1 S1                 0.0000
      8 ****        -4.5166   1.4454  -2.1041 C.3            1 S1                 0.0000
      9 ****        -2.9960   1.3689  -1.9153 C.3            1 S1                 0.0000
     10 ****        -2.5681  -0.0211  -1.8076 N.3            1 S1                 0.0000
     11 ****        -1.2174  -0.1017  -1.8190 C.ar           1 S1                 0.0000
     12 ****        -0.6300  -0.3634  -3.0125 N.ar           1 S1                 0.0000
     13 ****         0.6999  -0.4646  -3.0955 C.ar           1 S1                 0.0000
     14 ****         1.6093  -0.3368  -2.1269 N.ar           1 S1                 0.0000
     15 ****         1.0226  -0.0566  -0.9278 C.ar           1 S1                 0.0000
     16 ****        -0.3737   0.0781  -0.6849 C.ar           1 S1                 0.0000
     17 ****        -0.5935   0.3644   0.6573 N.2            1 S1                 0.0000
     18 ****         0.6016   0.3828   1.1800 C.2            1 S1                 0.0000
     19 ****         1.6322   0.1519   0.2974 N.pl3          1 S1                 0.0000
     20 ****         3.0525   0.1138   0.6099 C.3            1 S1                 0.0000
     21 ****         3.7921   1.4613   0.3815 C.3            1 S1                 0.0000
     22 ****         3.7633   1.7953  -0.9932 O.3            1 S1                 0.0000
     23 ****         3.2231   2.6242   1.1858 C.3            1 S1                 0.0000
     24 ****         3.8938   2.4496   2.5453 C.3            1 S1                 0.0000
     25 ****         5.1445   1.8189   2.2823 O.3            1 S1                 0.0000
     26 ****         5.2415   1.4746   0.9027 C.3            1 S1                 0.0000
     27 ****         6.0560   0.1858   0.7163 C.3            1 S1                 0.0000
     28 ****        -2.8812  -2.7425   3.6879 H              1 S1                 0.0000
     29 ****        -3.0800  -4.2450   2.7849 H              1 S1                 0.0000
     30 ****        -4.4235  -3.0941   2.9072 H              1 S1                 0.0000
     31 ****        -3.1312  -4.1095   0.3626 H              1 S1                 0.0000
     32 ****        -4.5136  -3.0405   0.4788 H              1 S1                 0.0000
     33 ****        -1.7971  -2.3902  -0.7383 H              1 S1                 0.0000
     34 ****        -3.2154  -2.7534  -1.6750 H              1 S1                 0.0000
     35 ****        -3.0372  -0.3379   0.1959 H              1 S1                 0.0000
     36 ****        -5.1276  -1.0998  -1.9037 H              1 S1                 0.0000
     37 ****        -5.3637  -1.0616  -0.1680 H              1 S1                 0.0000
     38 ****        -4.8159   1.0032  -3.0558 H              1 S1                 0.0000
     39 ****        -4.8433   2.4852  -2.1166 H              1 S1                 0.0000
     40 ****        -2.4968   1.8528  -2.7562 H              1 S1                 0.0000
     41 ****        -2.7058   1.9102  -1.0134 H              1 S1                 0.0000
     42 ****         1.0920  -0.6791  -4.0787 H              1 S1                 0.0000
     43 ****         0.7662   0.5748   2.2304 H              1 S1                 0.0000
     44 ****         3.1570  -0.2034   1.6482 H              1 S1                 0.0000
     45 ****         3.5051  -0.6742   0.0068 H              1 S1                 0.0000
     46 ****         4.2363   2.6039  -1.1166 H              1 S1                 0.0000
     47 ****         3.5463   3.5738   0.7555 H              1 S1                 0.0000
     48 ****         2.1360   2.6540   1.2439 H              1 S1                 0.0000
     49 ****         4.0288   3.3990   3.0641 H              1 S1                 0.0000
     50 ****         3.3004   1.7960   3.1856 H              1 S1                 0.0000
     51 ****         5.7797   2.2949   0.4234 H              1 S1                 0.0000
     52 ****         6.1018  -0.0994  -0.3350 H              1 S1                 0.0000
     53 ****         5.6304  -0.6476   1.2750 H              1 S1                 0.0000
     54 ****         7.0790   0.3237   1.0665 H              1 S1                 0.0000
     55 ****        -1.8835  -2.5981   1.6049 LP             1 S1                 0.0000
     56 ****        -3.1369  -1.5561   1.7038 LP             1 S1                 0.0000
     57 ****        -4.8718   1.2007  -0.1671 LP             1 S1                 0.0000
     58 ****        -6.1420   0.8520  -1.1324 LP             1 S1                 0.0000
     59 ****        -2.8565  -0.5171  -2.6266 LP             1 S1                 0.0000
     60 ****        -1.1922  -0.4808  -3.8311 LP             1 S1                 0.0000
     61 ****         2.5952  -0.4341  -2.2629 LP             1 S1                 0.0000
     62 ****        -1.4677   0.5205   1.1171 LP             1 S1                 0.0000
     63 ****         2.8160   1.9100  -1.2923 LP             1 S1                 0.0000
     64 ****         4.1952   1.0675  -1.5259 LP             1 S1                 0.0000
     65 ****         5.2190   0.9894   2.8358 LP             1 S1                 0.0000
     66 ****         5.8868   2.4456   2.5194 LP             1 S1                 0.0000
@<TRIPOS>BOND
    1    1    2 1     
    2    1   28 1     
    3    1   29 1     
    4    1   30 1     
    5    2    3 1     
    6    3    4 1     
    7    3   31 1     
    8    3   32 1     
    9    4    5 1     
   10    4   33 1     
   11    4   34 1     
   12    5   10 1     
   13    5    6 1     
   14    5   35 1     
   15    6    7 1     
   16    6   36 1     
   17    6   37 1     
   18    7    8 1     
   19    8    9 1     
   20    8   38 1     
   21    8   39 1     
   22    9   10 1     
   23    9   40 1     
   24    9   41 1     
   25   10   11 1     
   26   11   16 ar    
   27   11   12 ar    
   28   12   13 ar    
   29   13   14 ar    
   30   13   42 1     
   31   14   15 ar    
   32   15   19 1     
   33   15   16 ar    
   34   16   17 1     
   35   17   18 2     
   36   18   19 1     
   37   18   43 1     
   38   19   20 1     
   39   20   21 1     
   40   20   44 1     
   41   20   45 1     
   42   21   26 1     
   43   21   22 1     
   44   21   23 1     
   45   22   46 1     
   46   23   24 1     
   47   23   47 1     
   48   23   48 1     
   49   24   25 1     
   50   24   49 1     
   51   24   50 1     
   52   25   26 1     
   53   26   27 1     
   54   26   51 1     
   55   27   52 1     
   56   27   53 1     
   57   27   54 1     
   58    2   55 1     
   59    2   56 1     
   60    7   57 1     
   61    7   58 1     
   62   10   59 1     
   63   12   60 1     
   64   14   61 1     
   65   17   62 1     
   66   22   63 1     
   67   22   64 1     
   68   25   65 1     
   69   25   66 1     
@<TRIPOS>SUBSTRUCTURE
      1 S1             1
@<TRIPOS>SET
LONE_PAIRS      STATIC     ATOMS    <user>   **** ""
12 55 56 57 58 59 60 61 62 63 64 65 66
DONOR_HYDROGENS      STATIC     ATOMS    <user>   **** ""
1 46
ATOM$BLUE        STATIC     ATOMS    COLORGROUP SYSTEM
12 55 56 57 58 59 60 61 62 63 64 65 66
ATOM$RED        STATIC     ATOMS    COLORGROUP SYSTEM
1 46
