#       Name:                AV-unprocessed.smi:2116
#       Creating user name   scv26
#       Creation time:       Fri Mar 27 11:37:08 2020


#       File generated by GOLD software.
#

@<TRIPOS>MOLECULE
AV-unprocessed.smi:2116
    51    52     1
SMALL
NO_CHARGES


@<TRIPOS>ATOM
      1 ****        -3.2718   7.9859  -0.1990 C.3            1 S1                 0.0000
      2 ****        -2.9972   6.6064  -0.3684 O.3            1 S1                 0.0000
      3 ****        -3.2035   5.8609   0.8201 C.3            1 S1                 0.0000
      4 ****        -2.8769   4.3889   0.5513 C.3            1 S1                 0.0000
      5 ****        -1.4626   4.2409   0.4656 O.3            1 S1                 0.0000
      6 ****        -0.9454   2.9882   0.2070 C.ar           1 S1                 0.0000
      7 ****         0.4529   2.8427   0.1157 C.ar           1 S1                 0.0000
      8 ****         0.9858   1.5670  -0.1479 C.ar           1 S1                 0.0000
      9 ****         0.1100   0.4738  -0.3020 C.ar           1 S1                 0.0000
     10 ****         0.6770  -0.7974  -0.5881 N.am           1 S1                 0.0000
     11 ****         0.1613  -2.0233  -0.3642 C.2            1 S1                 0.0000
     12 ****        -0.9617  -2.2044   0.1085 O.2            1 S1                 0.0000
     13 ****         0.9677  -3.0506  -0.7472 N.am           1 S1                 0.0000
     14 ****         2.3900  -2.8999  -1.1270 C.3            1 S1                 0.0000
     15 ****         3.3141  -4.0501  -0.6716 C.3            1 S1                 0.0000
     16 ****         3.0815  -4.5322   0.7724 C.3            1 S1                 0.0000
     17 ****         1.9897  -5.6106   0.8791 C.3            1 S1                 0.0000
     18 ****         0.5659  -5.1181   0.5745 C.3            1 S1                 0.0000
     19 ****         0.4319  -4.4203  -0.7913 C.3            1 S1                 0.0000
     20 ****        -1.2804   0.7246  -0.2055 C.ar           1 S1                 0.0000
     21 ****        -1.7978   1.9461   0.0458 N.ar           1 S1                 0.0000
     22 ****        -3.0999   8.5112  -1.1384 H              1 S1                 0.0000
     23 ****        -2.6211   8.4268   0.5574 H              1 S1                 0.0000
     24 ****        -4.3101   8.1490   0.0929 H              1 S1                 0.0000
     25 ****        -2.5900   6.2453   1.6364 H              1 S1                 0.0000
     26 ****        -4.2475   5.9523   1.1231 H              1 S1                 0.0000
     27 ****        -3.2541   3.7821   1.3762 H              1 S1                 0.0000
     28 ****        -3.3698   4.0562  -0.3639 H              1 S1                 0.0000
     29 ****         1.1045   3.6945   0.2436 H              1 S1                 0.0000
     30 ****         2.0548   1.4316  -0.2263 H              1 S1                 0.0000
     31 ****         1.6266  -0.7798  -0.9301 H              1 S1                 0.0000
     32 ****         2.4551  -2.7798  -2.2090 H              1 S1                 0.0000
     33 ****         2.8177  -1.9940  -0.6961 H              1 S1                 0.0000
     34 ****         3.2396  -4.8932  -1.3594 H              1 S1                 0.0000
     35 ****         4.3441  -3.7035  -0.7625 H              1 S1                 0.0000
     36 ****         4.0120  -4.9656   1.1405 H              1 S1                 0.0000
     37 ****         2.8631  -3.6903   1.4306 H              1 S1                 0.0000
     38 ****         2.2355  -6.4380   0.2123 H              1 S1                 0.0000
     39 ****         2.0034  -6.0290   1.8861 H              1 S1                 0.0000
     40 ****        -0.1039  -5.9781   0.5967 H              1 S1                 0.0000
     41 ****         0.2234  -4.4567   1.3712 H              1 S1                 0.0000
     42 ****        -0.6193  -4.4027  -1.0850 H              1 S1                 0.0000
     43 ****         0.9200  -5.0037  -1.5726 H              1 S1                 0.0000
     44 ****        -2.0142  -0.0522  -0.3526 H              1 S1                 0.0000
     45 ****        -2.0437   6.5017  -0.6510 LP             1 S1                 0.0000
     46 ****        -3.5979   6.2452  -1.0817 LP             1 S1                 0.0000
     47 ****        -1.0809   4.5431   1.3391 LP             1 S1                 0.0000
     48 ****        -1.1462   4.8471  -0.2640 LP             1 S1                 0.0000
     49 ****        -1.5368  -1.4213   0.3453 LP             1 S1                 0.0000
     50 ****        -1.2983  -3.1345   0.2554 LP             1 S1                 0.0000
     51 ****        -2.7867   2.0792   0.1115 LP             1 S1                 0.0000
@<TRIPOS>BOND
    1    1    2 1     
    2    1   22 1     
    3    1   23 1     
    4    1   24 1     
    5    2    3 1     
    6    3    4 1     
    7    3   25 1     
    8    3   26 1     
    9    4    5 1     
   10    4   27 1     
   11    4   28 1     
   12    5    6 1     
   13    6   21 ar    
   14    6    7 ar    
   15    7    8 ar    
   16    7   29 1     
   17    8    9 ar    
   18    8   30 1     
   19    9   10 1     
   20    9   20 ar    
   21   10   11 am    
   22   10   31 1     
   23   11   12 2     
   24   11   13 am    
   25   13   19 1     
   26   13   14 1     
   27   14   15 1     
   28   14   32 1     
   29   14   33 1     
   30   15   16 1     
   31   15   34 1     
   32   15   35 1     
   33   16   17 1     
   34   16   36 1     
   35   16   37 1     
   36   17   18 1     
   37   17   38 1     
   38   17   39 1     
   39   18   19 1     
   40   18   40 1     
   41   18   41 1     
   42   19   42 1     
   43   19   43 1     
   44   20   21 ar    
   45   20   44 1     
   46    2   45 1     
   47    2   46 1     
   48    5   47 1     
   49    5   48 1     
   50   12   49 1     
   51   12   50 1     
   52   21   51 1     
@<TRIPOS>SUBSTRUCTURE
      1 S1             1
@<TRIPOS>SET
LONE_PAIRS      STATIC     ATOMS    <user>   **** ""
7 45 46 47 48 49 50 51
DONOR_HYDROGENS      STATIC     ATOMS    <user>   **** ""
1 31
ATOM$BLUE        STATIC     ATOMS    COLORGROUP SYSTEM
7 45 46 47 48 49 50 51
ATOM$RED        STATIC     ATOMS    COLORGROUP SYSTEM
1 31
