AV-unprocessed.smi:2226|AV-procd|sdf|9005|dock1
  -GOLD-   2272012213D 1   1.00000     0.00000
 Structure written by MMmdl.
 41 43  0  0  0  0  0  0  0  0  3 V2000
  143.3601  132.4201  151.3295 C   0  0  0  0  0  0  0  0  0  0  0  0
  144.1167  133.2306  152.3137 N   0  3  2  0  0  0  0  0  0  0  0  0
  143.7640  134.6704  152.3367 C   0  0  2  0  0  0  0  0  0  0  0  0
  144.2567  135.3950  151.0589 C   0  0  0  0  0  0  0  0  0  0  0  0
  145.7433  135.1604  150.7346 C   0  0  0  0  0  0  0  0  0  0  0  0
  146.1767  133.7026  150.9682 C   0  0  0  0  0  0  0  0  0  0  0  0
  145.5891  133.0686  152.2532 C   0  0  1  0  0  0  0  0  0  0  0  0
  146.2099  133.5751  153.5763 C   0  0  0  0  0  0  0  0  0  0  0  0
  145.7059  134.9582  154.0769 C   0  0  1  0  0  0  0  0  0  0  0  0
  146.6141  136.0580  153.7551 N   0  0  0  0  0  0  0  0  0  0  0  0
  146.4243  137.3484  154.0724 C   0  0  0  0  0  0  0  0  0  0  0  0
  145.4488  137.7595  154.7010 O   0  0  0  0  0  0  0  0  0  0  0  0
  147.4231  138.1224  153.6210 N   0  0  0  0  0  0  0  0  0  0  0  0
  147.5343  139.5188  153.8123 C   0  0  0  0  0  0  0  0  0  0  0  0
  146.5677  140.3894  153.5264 N   0  3  0  0  0  0  0  0  0  0  0  0
  147.0102  141.6535  153.8282 C   0  0  0  0  0  0  0  0  0  0  0  0
  148.2887  141.4973  154.3075 C   0  0  0  0  0  0  0  0  0  0  0  0
  148.6325  140.1603  154.3038 O   0  0  0  0  0  0  0  0  0  0  0  0
  144.2462  135.2873  153.6706 C   0  0  0  0  0  0  0  0  0  0  0  0
  143.5672  132.7159  150.3014 H   0  0  0  0  0  0  0  0  0  0  0  0
  142.2879  132.5208  151.4996 H   0  0  0  0  0  0  0  0  0  0  0  0
  143.6114  131.3643  151.4337 H   0  0  0  0  0  0  0  0  0  0  0  0
  142.6754  134.7448  152.3437 H   0  0  0  0  0  0  0  0  0  0  0  0
  143.6635  135.0503  150.2115 H   0  0  0  0  0  0  0  0  0  0  0  0
  144.0581  136.4647  151.1327 H   0  0  0  0  0  0  0  0  0  0  0  0
  145.9357  135.4342  149.6968 H   0  0  0  0  0  0  0  0  0  0  0  0
  146.3676  135.8342  151.3110 H   0  0  0  0  0  0  0  0  0  0  0  0
  145.8625  133.1093  150.1091 H   0  0  0  0  0  0  0  0  0  0  0  0
  147.2651  133.6375  150.9808 H   0  0  0  0  0  0  0  0  0  0  0  0
  145.8027  131.9995  152.2060 H   0  0  0  0  0  0  0  0  0  0  0  0
  145.9492  132.8461  154.3452 H   0  0  0  0  0  0  0  0  0  0  0  0
  147.2984  133.5422  153.5200 H   0  0  0  0  0  0  0  0  0  0  0  0
  145.7063  134.9148  155.1681 H   0  0  0  0  0  0  0  0  0  0  0  0
  147.4459  135.8162  153.2361 H   0  0  0  0  0  0  0  0  0  0  0  0
  145.6481  140.1948  153.1502 H   0  0  0  0  0  0  0  0  0  0  0  0
  146.3844  142.5212  153.6747 H   0  0  0  0  0  0  0  0  0  0  0  0
  149.0396  142.1850  154.6687 H   0  0  0  0  0  0  0  0  0  0  0  0
  144.0707  136.3641  153.6802 H   0  0  0  0  0  0  0  0  0  0  0  0
  143.5987  134.8906  154.4541 H   0  0  0  0  0  0  0  0  0  0  0  0
  143.8373  132.8647  153.2129 H   0  0  0  0  0  0  0  0  0  0  0  0
  148.1671  137.6775  153.1043 H   0  0  0  0  0  0  0  0  0  0  0  0
  1  2  1  0  0  0  0
  1 20  1  0  0  0  0
  1 21  1  0  0  0  0
  1 22  1  0  0  0  0
  2  7  1  0  0  0  0
  2  3  1  0  0  0  0
  2 40  1  0  0  0  0
  3 19  1  0  0  0  0
  3  4  1  0  0  0  0
  3 23  1  0  0  0  0
  4  5  1  0  0  0  0
  4 24  1  0  0  0  0
  4 25  1  0  0  0  0
  5  6  1  0  0  0  0
  5 26  1  0  0  0  0
  5 27  1  0  0  0  0
  6  7  1  0  0  0  0
  6 28  1  0  0  0  0
  6 29  1  0  0  0  0
  7  8  1  0  0  0  0
  7 30  1  0  0  0  0
  8  9  1  0  0  0  0
  8 31  1  0  0  0  0
  8 32  1  0  0  0  0
  9 10  1  0  0  0  0
  9 19  1  0  0  0  0
  9 33  1  0  0  0  0
 10 34  1  0  0  0  0
 10 11  1  0  0  0  0
 11 13  1  0  0  0  0
 11 12  2  0  0  0  0
 13 14  1  0  0  0  0
 13 41  1  0  0  0  0
 14 18  1  0  0  0  0
 14 15  2  0  0  0  0
 15 35  1  0  0  0  0
 15 16  1  0  0  0  0
 16 36  1  0  0  0  0
 16 17  2  0  0  0  0
 17 37  1  0  0  0  0
 17 18  1  0  0  0  0
 19 38  1  0  0  0  0
 19 39  1  0  0  0  0
M  CHG  1   2   1
M  CHG  1  15   1
M  END
> <s_m_source_file>
AV-unprocessed.smi

> <i_m_source_file_index>
2226

> <i_lp_mmshare_version>
43012

> <i_f3d_flags>
0

> <s_epik_input>
W0NIMl0xW0NIMl1bQ0gyXVtDQEhdKE4oW0NIM10pW0NIXTEyKVtDSDJdW0NASF0oW0NIMl0yKVtOSF1DKD1PKVtOSF1jM25bY0hdW2NIXW8z

> <s_epik_cmdline>
J2VwaWtfcHl0aG9uJywgJy1waCcsICc3LjAnLCAnLXRuJywgJzgnLCAnLW1hJywgJzIwMCcsICctbWV0YWxfYmluZGluZycsICctaW1hZScsICc8aW5maWxlLm1hZT4nLCAnLW9tYWUnLCAnPG91dGZpbGUubWFlPic=

> <r_epik_Ionization_Penalty>
6.92532

> <r_epik_Ionization_Penalty_Charging>
6.82059

> <r_epik_Ionization_Penalty_Neutral>
0.104727

> <r_epik_State_Penalty>
2.17671

> <r_epik_Charging_Adjusted_Penalty>
8.99731

> <i_epik_Tot_Q>
2

> <i_epik_Tot_abs_Q>
2

> <r_epik_Metal_State_Penalty>
2.20618

> <b_epik_Metal_Only>
0

> <s_lp_Force_Field>
OPLS_2005

> <r_lp_Energy>
47.9723

> <b_lp_Chiralities_Consistent>
1

> <s_lp_Variant>
AV-unprocessed.smi:2226-5

> <Gold.Version>
5.8.1

> <Gold.Id.Protein>
6NUR|6NUR_protein|mol2

> <Gold.PLP.Fitness>
42.0456

> <Gold.PLP.PLP>
-26.5738

> <Gold.PLP.part.hbond>
-3.4082

> <Gold.PLP.part.metal>
0.0000

> <Gold.PLP.part.buried>
-5.2247

> <Gold.PLP.part.nonpolar>
-19.6358

> <Gold.PLP.part.repulsive>
0.2259

> <Gold.PLP.ligand.clash>
0.0000

> <Gold.PLP.ligand.torsion>
0.5123

> <Gold.PLP.Chemscore.Hbond>
4.9425

> <Gold.PLP.Chemscore.CHOScore>
0.5370

> <Gold.PLP.Chemscore.Metal>
0.0000

> <Gold.Chemscore.Hbonds>
donor molecule, donor type, donor heavy atom, donor atom, acceptor molecule, acceptor atom, score
      L1  H     2    40       P1 10957  0.98
      L1  H    10    34       P1  7948  0.89
      L1  H    13    41       P1  7948  0.94
      L1  H    15    35       P1 10175  1.69
      L1  C    17    37       P1  8028  0.55

> <Gold.PLP.Chemscore.Internal.Correction>
0.0578

> <Gold.Rescore>
     Score         DG    S(hbond)    S(metal)    S(lipo)     H(rot)  DE(clash)    DE(int)     intcor
     17.46     -19.63       2.91        0.00      59.74       1.00       0.50       1.67       ----

> <Gold.Chemscore.Fitness>
17.4650

> <Gold.Chemscore.DG>
-19.6298

> <Gold.Chemscore.ZeroCoef>
-5.4800

> <Gold.Chemscore.Hbond>
2.9101

> <Gold.Chemscore.Metal>
0.0000

> <Gold.Chemscore.Lipo>
59.7435

> <Gold.Chemscore.Internal_Hbond>
0.0000

> <Gold.Chemscore.DEClash>
0.4960

> <Gold.Chemscore.DEInternal>
1.6688

> <Gold.Chemscore.Rot>
1.0000

> <Gold.Chemscore.Internal.Correction>
   9.000000E+99

> <Gold.Chemscore.Hbonds>
donor molecule, donor type, donor heavy atom, donor atom, acceptor molecule, acceptor atom, score
      L1  H     2    40       P1 10957  0.24
      L1  H    10    34       P1  7948  0.83
      L1  H    13    41       P1  7948  0.88
      L1  H    15    35       P1 10175  0.81

> <Gold.Chemscore.Hbond.Weighted>
-9.7198

> <Gold.Chemscore.Metal.Weighted>
-0.0000

> <Gold.Chemscore.Lipo.Weighted>
-6.9900

> <Gold.Chemscore.Internal_Hbond.Weighted>
0.0000

> <Gold.Chemscore.DEClash.Weighted>
0.4960

> <Gold.Chemscore.DEInternal.Weighted>
1.6688

> <Gold.Chemscore.Rot.Weighted>
2.5600

> <Gold.Chemscore.Internal.Correction.Weighted>
   9.000000E+99

> <Gold.Protein.RotatedTorsions>
[ 6907 6896 6895 6894 ] final  101.29 input  -60.11 | X-H torsion
[ 7974 7965 7964 7962 ] final  145.35 input  175.53 | X-H torsion
[ 8008 7997 7996 7995 ] final  -21.34 input   59.86 | X-H torsion
[ 10167 10162 10161 10158 ] final -139.30 input  -65.29 | X-H torsion
[ 10718 10713 10712 10709 ] final   81.04 input   66.30 | X-H torsion
[ 10763 10752 10751 10750 ] final   72.16 input  -60.55 | X-H torsion
[ 11005 11000 10999 10996 ] final   -8.26 input  -57.11 | X-H torsion

> <Gold.Protein.ActiveResidues>
 VAL166  LYS551  ARG553  GLY616  TRP617  ASP618  TYR619  PRO620  LYS621  CYS622 
 ASP623  PHE694  ASN695  SER759  ASP760  ASP761  ALA762  ILE779  LEU786  VAL792 
 PHE793  MET794  SER795  GLU796  ALA797  LYS798  CYS799  TRP800  GLU811  SER814 

> <Gold.Protein.RotatedAtoms>
  152.5353  134.0148  159.7954 H   0  0  0  0  0  0  0  0  0  0  0  0  # atno 6907 bound_to 6896
  151.0344  133.5753  159.2664 H   0  0  0  0  0  0  0  0  0  0  0  0  # atno 6908 bound_to 6896
  151.2746  135.0702  159.9200 H   0  0  0  0  0  0  0  0  0  0  0  0  # atno 6909 bound_to 6896
  144.8760  139.5773  143.5865 H   0  0  0  0  0  0  0  0  0  0  0  0  # atno 7974 bound_to 7965
  154.4712  140.2037  155.9991 H   0  0  0  0  0  0  0  0  0  0  0  0  # atno 8008 bound_to 7997
  156.1013  140.3243  155.7916 H   0  0  0  0  0  0  0  0  0  0  0  0  # atno 8009 bound_to 7997
  155.4793  140.0537  157.2960 H   0  0  0  0  0  0  0  0  0  0  0  0  # atno 8010 bound_to 7997
  139.8393  143.7343  152.2664 H   0  0  0  0  0  0  0  0  0  0  0  0  # atno 10167 bound_to 10162
  157.6822  130.9986  150.2167 H   0  0  0  0  0  0  0  0  0  0  0  0  # atno 10718 bound_to 10713
  153.0442  135.5110  154.7702 H   0  0  0  0  0  0  0  0  0  0  0  0  # atno 10763 bound_to 10752
  154.6615  135.2939  154.9862 H   0  0  0  0  0  0  0  0  0  0  0  0  # atno 10764 bound_to 10752
  154.0712  135.6677  153.4877 H   0  0  0  0  0  0  0  0  0  0  0  0  # atno 10765 bound_to 10752
  140.7216  133.8823  155.8825 H   0  0  0  0  0  0  0  0  0  0  0  0  # atno 11005 bound_to 11000
  146.2962  139.7287  142.9124 LP  0  0  0  0  0  0  0  0  0  0  0  0  # atno 17320 bound_to 7965
  145.4043  141.0389  143.3053 LP  0  0  0  0  0  0  0  0  0  0  0  0  # atno 17321 bound_to 7965
  139.7575  144.7516  151.0414 LP  0  0  0  0  0  0  0  0  0  0  0  0  # atno 17342 bound_to 10162
  140.7799  143.4789  151.0045 LP  0  0  0  0  0  0  0  0  0  0  0  0  # atno 17343 bound_to 10162
  156.2827  130.3735  149.7919 LP  0  0  0  0  0  0  0  0  0  0  0  0  # atno 17370 bound_to 10713
  156.5603  130.8380  151.3326 LP  0  0  0  0  0  0  0  0  0  0  0  0  # atno 17371 bound_to 10713
  140.9998  134.1165  157.4328 LP  0  0  0  0  0  0  0  0  0  0  0  0  # atno 17394 bound_to 11000
  139.8847  135.0065  156.6384 LP  0  0  0  0  0  0  0  0  0  0  0  0  # atno 17395 bound_to 11000

$$$$
