AV-unprocessed.smi:1881|AV-procd|sdf|7640|dock10
  -GOLD-   22720 9373D 1   1.00000     0.00000
 Structure written by MMmdl.
 51 52  0  0  0  0  0  0  0  0  2 V2000
  149.6370  140.5483  157.9491 C   0  0  0  0  0  0  0  0  0  0  0  0
  151.0393  141.0728  157.5490 C   0  0  0  0  0  0  0  0  0  0  0  0
  150.7840  142.2571  156.5777 C   0  0  0  0  0  0  0  0  0  0  0  0
  151.8151  141.6680  158.7468 C   0  0  0  0  0  0  0  0  0  0  0  0
  151.8905  139.9851  156.8150 C   0  0  0  0  0  0  0  0  0  0  0  0
  152.9988  139.7184  157.2858 O   0  0  0  0  0  0  0  0  0  0  0  0
  151.4601  139.3393  155.6938 N   0  0  0  0  0  0  0  0  0  0  0  0
  152.1445  138.2968  154.9169 C   0  0  0  0  0  0  0  0  0  0  0  0
  151.4290  136.9517  155.1392 C   0  0  0  0  0  0  0  0  0  0  0  0
  149.9375  137.0451  154.7420 C   0  0  0  0  0  0  0  0  0  0  0  0
  149.1948  135.7541  155.1074 C   0  0  0  0  0  0  0  0  0  0  0  0
  148.9857  135.4710  156.2876 O   0  0  0  0  0  0  0  0  0  0  0  0
  148.8234  134.9665  154.0852 N   0  0  0  0  0  0  0  0  0  0  0  0
  148.1314  133.6857  154.2081 C   0  0  0  0  0  0  0  0  0  0  0  0
  147.9967  132.9427  152.8631 C   0  0  0  0  0  0  0  0  0  0  0  0
  146.8096  133.3895  152.0265 C   0  0  0  0  0  0  0  0  0  0  0  0
  145.8216  132.4816  151.5884 C   0  0  0  0  0  0  0  0  0  0  0  0
  144.7629  132.9504  150.7832 C   0  0  0  0  0  0  0  0  0  0  0  0
  144.7141  134.3154  150.4325 C   0  0  0  0  0  0  0  0  0  0  0  0
  145.7266  135.1788  150.8976 C   0  0  0  0  0  0  0  0  0  0  0  0
  146.7235  134.6918  151.6684 N   0  3  0  0  0  0  0  0  0  0  0  0
  149.2717  138.2790  155.3937 C   0  0  0  0  0  0  0  0  0  0  0  0
  150.1067  139.5494  155.1516 C   0  0  0  0  0  0  0  0  0  0  0  0
  148.9242  141.3665  158.0571 H   0  0  0  0  0  0  0  0  0  0  0  0
  149.6222  140.0301  158.9047 H   0  0  0  0  0  0  0  0  0  0  0  0
  149.2296  139.8742  157.1945 H   0  0  0  0  0  0  0  0  0  0  0  0
  150.2329  141.9418  155.6901 H   0  0  0  0  0  0  0  0  0  0  0  0
  151.7135  142.7217  156.2443 H   0  0  0  0  0  0  0  0  0  0  0  0
  150.1976  143.0449  157.0527 H   0  0  0  0  0  0  0  0  0  0  0  0
  151.2777  142.5145  159.1757 H   0  0  0  0  0  0  0  0  0  0  0  0
  152.7952  142.0339  158.4375 H   0  0  0  0  0  0  0  0  0  0  0  0
  151.9810  140.9655  159.5591 H   0  0  0  0  0  0  0  0  0  0  0  0
  152.1079  138.5593  153.8586 H   0  0  0  0  0  0  0  0  0  0  0  0
  153.2003  138.1959  155.1292 H   0  0  0  0  0  0  0  0  0  0  0  0
  151.9225  136.1739  154.5550 H   0  0  0  0  0  0  0  0  0  0  0  0
  151.5268  136.6584  156.1855 H   0  0  0  0  0  0  0  0  0  0  0  0
  149.8902  137.1782  153.6596 H   0  0  0  0  0  0  0  0  0  0  0  0
  149.0313  135.2822  153.1485 H   0  0  0  0  0  0  0  0  0  0  0  0
  148.6309  133.0489  154.9404 H   0  0  0  0  0  0  0  0  0  0  0  0
  147.1378  133.8832  154.6107 H   0  0  0  0  0  0  0  0  0  0  0  0
  148.9061  133.0850  152.2784 H   0  0  0  0  0  0  0  0  0  0  0  0
  147.9209  131.8692  153.0425 H   0  0  0  0  0  0  0  0  0  0  0  0
  145.8782  131.4367  151.8568 H   0  0  0  0  0  0  0  0  0  0  0  0
  143.9996  132.2701  150.4349 H   0  0  0  0  0  0  0  0  0  0  0  0
  143.9132  134.6931  149.8139 H   0  0  0  0  0  0  0  0  0  0  0  0
  145.7709  136.2349  150.6751 H   0  0  0  0  0  0  0  0  0  0  0  0
  148.2672  138.4176  154.9919 H   0  0  0  0  0  0  0  0  0  0  0  0
  149.1565  138.1293  156.4688 H   0  0  0  0  0  0  0  0  0  0  0  0
  149.5919  140.4096  155.5805 H   0  0  0  0  0  0  0  0  0  0  0  0
  150.1677  139.7598  154.0827 H   0  0  0  0  0  0  0  0  0  0  0  0
  147.4500  135.3330  151.9874 H   0  0  0  0  0  0  0  0  0  0  0  0
  1  2  1  0  0  0  0
  1 24  1  0  0  0  0
  1 25  1  0  0  0  0
  1 26  1  0  0  0  0
  2  3  1  0  0  0  0
  2  4  1  0  0  0  0
  2  5  1  0  0  0  0
  3 27  1  0  0  0  0
  3 28  1  0  0  0  0
  3 29  1  0  0  0  0
  4 30  1  0  0  0  0
  4 31  1  0  0  0  0
  4 32  1  0  0  0  0
  5  6  2  0  0  0  0
  5  7  1  0  0  0  0
  7 23  1  0  0  0  0
  7  8  1  0  0  0  0
  8  9  1  0  0  0  0
  8 33  1  0  0  0  0
  8 34  1  0  0  0  0
  9 10  1  0  0  0  0
  9 35  1  0  0  0  0
  9 36  1  0  0  0  0
 10 11  1  0  0  0  0
 10 22  1  0  0  0  0
 10 37  1  0  0  0  0
 11 12  2  0  0  0  0
 11 13  1  0  0  0  0
 13 14  1  0  0  0  0
 13 38  1  0  0  0  0
 14 15  1  0  0  0  0
 14 39  1  0  0  0  0
 14 40  1  0  0  0  0
 15 16  1  0  0  0  0
 15 41  1  0  0  0  0
 15 42  1  0  0  0  0
 16 21  1  0  0  0  0
 16 17  2  0  0  0  0
 17 18  1  0  0  0  0
 17 43  1  0  0  0  0
 18 19  2  0  0  0  0
 18 44  1  0  0  0  0
 19 20  1  0  0  0  0
 19 45  1  0  0  0  0
 20 21  2  0  0  0  0
 20 46  1  0  0  0  0
 21 51  1  0  0  0  0
 22 23  1  0  0  0  0
 22 47  1  0  0  0  0
 22 48  1  0  0  0  0
 23 49  1  0  0  0  0
 23 50  1  0  0  0  0
M  CHG  1  21   1
M  END
> <s_m_source_file>
AV-unprocessed.smi

> <i_m_source_file_index>
1881

> <i_lp_mmshare_version>
43012

> <i_f3d_flags>
0

> <s_epik_input>
W0NIM11DKFtDSDNdKShbQ0gzXSlDKD1PKU4xW0NIMl1bQ0gyXVtDSF0oW0NIMl1bQ0gyXTEpQyg9TylbTkhdW0NIMl1bQ0gyXWMyW2NIXVtjSF1bY0hdW2NIXW4y

> <s_epik_cmdline>
J2VwaWtfcHl0aG9uJywgJy1waCcsICc3LjAnLCAnLXRuJywgJzgnLCAnLW1hJywgJzIwMCcsICctbWV0YWxfYmluZGluZycsICctaW1hZScsICc8aW5maWxlLm1hZT4nLCAnLW9tYWUnLCAnPG91dGZpbGUubWFlPic=

> <r_epik_Ionization_Penalty>
1.84673

> <r_epik_Ionization_Penalty_Charging>
1.84673

> <r_epik_Ionization_Penalty_Neutral>
1.24553e-07

> <r_epik_State_Penalty>
1.9639

> <r_epik_Charging_Adjusted_Penalty>
3.81063

> <i_epik_Tot_Q>
1

> <i_epik_Tot_abs_Q>
1

> <r_epik_Metal_State_Penalty>
1.98977

> <b_epik_Metal_Only>
0

> <s_lp_Force_Field>
OPLS_2005

> <r_lp_Energy>
43.8057

> <b_lp_Chiralities_Consistent>
1

> <s_lp_Variant>
AV-unprocessed.smi:1881-2

> <Gold.Version>
5.8.1

> <Gold.Id.Protein>
6NUR|6NUR_protein|mol2

> <Gold.PLP.Fitness>
50.1319

> <Gold.PLP.PLP>
-38.7156

> <Gold.PLP.part.hbond>
-2.9268

> <Gold.PLP.part.metal>
0.0000

> <Gold.PLP.part.buried>
-2.0004

> <Gold.PLP.part.nonpolar>
-34.1933

> <Gold.PLP.part.repulsive>
0.0848

> <Gold.PLP.ligand.clash>
0.0000

> <Gold.PLP.ligand.torsion>
0.3418

> <Gold.PLP.Chemscore.Hbond>
4.0000

> <Gold.PLP.Chemscore.CHOScore>
0.0000

> <Gold.PLP.Chemscore.Metal>
0.0000

> <Gold.Chemscore.Hbonds>
donor molecule, donor type, donor heavy atom, donor atom, acceptor molecule, acceptor atom, score
      L1  H    13    38       P1  7948  1.00
      L1  H    21    51       P1  7948  2.00
      P1  H  7997  8010       L1     6  1.00

> <Gold.PLP.Chemscore.Internal.Correction>
0.0999

> <Gold.Rescore>
     Score         DG    S(hbond)    S(metal)    S(lipo)     H(rot)  DE(clash)    DE(int)     intcor
     20.33     -21.63       2.80        0.00      94.13       1.65       0.02       1.27       ----

> <Gold.Chemscore.Fitness>
20.3343

> <Gold.Chemscore.DG>
-21.6278

> <Gold.Chemscore.ZeroCoef>
-5.4800

> <Gold.Chemscore.Hbond>
2.8050

> <Gold.Chemscore.Metal>
0.0000

> <Gold.Chemscore.Lipo>
94.1313

> <Gold.Chemscore.Internal_Hbond>
0.0000

> <Gold.Chemscore.DEClash>
0.0223

> <Gold.Chemscore.DEInternal>
1.2712

> <Gold.Chemscore.Rot>
1.6540

> <Gold.Chemscore.Internal.Correction>
   9.000000E+99

> <Gold.Chemscore.Hbonds>
donor molecule, donor type, donor heavy atom, donor atom, acceptor molecule, acceptor atom, score
      L1  H    13    38       P1  7948  0.33
      L1  H    21    51       P1  7948  0.96
      P1  H  7997  8010       L1     6  0.95

> <Gold.Chemscore.Hbond.Weighted>
-9.3687

> <Gold.Chemscore.Metal.Weighted>
-0.0000

> <Gold.Chemscore.Lipo.Weighted>
-11.0134

> <Gold.Chemscore.Internal_Hbond.Weighted>
0.0000

> <Gold.Chemscore.DEClash.Weighted>
0.0223

> <Gold.Chemscore.DEInternal.Weighted>
1.2712

> <Gold.Chemscore.Rot.Weighted>
4.2342

> <Gold.Chemscore.Internal.Correction.Weighted>
   9.000000E+99

> <Gold.Protein.RotatedTorsions>
[ 6907 6896 6895 6894 ] final   49.68 input  -60.11 | X-H torsion
[ 7974 7965 7964 7962 ] final   63.81 input  175.53 | X-H torsion
[ 8008 7997 7996 7995 ] final   69.05 input   59.86 | X-H torsion
[ 10167 10162 10161 10158 ] final  101.09 input  -65.29 | X-H torsion
[ 10718 10713 10712 10709 ] final  152.52 input   66.30 | X-H torsion
[ 10763 10752 10751 10750 ] final -158.27 input  -60.55 | X-H torsion
[ 11005 11000 10999 10996 ] final  178.84 input  -57.11 | X-H torsion

> <Gold.Protein.ActiveResidues>
 VAL166  LYS551  ARG553  GLY616  TRP617  ASP618  TYR619  PRO620  LYS621  CYS622 
 ASP623  PHE694  ASN695  SER759  ASP760  ASP761  ALA762  ILE779  LEU786  VAL792 
 PHE793  MET794  SER795  GLU796  ALA797  LYS798  CYS799  TRP800  GLU811  SER814 

> <Gold.Protein.RotatedAtoms>
  152.2934  134.7695  160.0372 H   0  0  0  0  0  0  0  0  0  0  0  0  # atno 6907 bound_to 6896
  151.8233  133.3392  159.3599 H   0  0  0  0  0  0  0  0  0  0  0  0  # atno 6908 bound_to 6896
  150.7240  134.5482  159.5826 H   0  0  0  0  0  0  0  0  0  0  0  0  # atno 6909 bound_to 6896
  145.8576  139.3294  143.0838 H   0  0  0  0  0  0  0  0  0  0  0  0  # atno 7974 bound_to 7965
  155.7177  140.3493  155.5002 H   0  0  0  0  0  0  0  0  0  0  0  0  # atno 8008 bound_to 7997
  155.9298  140.1082  157.1163 H   0  0  0  0  0  0  0  0  0  0  0  0  # atno 8009 bound_to 7997
  154.4083  140.1233  156.4775 H   0  0  0  0  0  0  0  0  0  0  0  0  # atno 8010 bound_to 7997
  139.7469  144.6995  151.0491 H   0  0  0  0  0  0  0  0  0  0  0  0  # atno 10167 bound_to 10162
  157.2567  131.0790  151.1694 H   0  0  0  0  0  0  0  0  0  0  0  0  # atno 10718 bound_to 10713
  154.7570  135.3107  154.8450 H   0  0  0  0  0  0  0  0  0  0  0  0  # atno 10763 bound_to 10752
  153.9222  135.6794  153.4751 H   0  0  0  0  0  0  0  0  0  0  0  0  # atno 10764 bound_to 10752
  153.1168  135.4841  154.9059 H   0  0  0  0  0  0  0  0  0  0  0  0  # atno 10765 bound_to 10752
  140.3995  134.6790  157.4554 H   0  0  0  0  0  0  0  0  0  0  0  0  # atno 11005 bound_to 11000
  145.9286  140.9065  143.0368 LP  0  0  0  0  0  0  0  0  0  0  0  0  # atno 17320 bound_to 7965
  144.6727  140.1387  143.7438 LP  0  0  0  0  0  0  0  0  0  0  0  0  # atno 17321 bound_to 7965
  140.7793  143.4856  150.9960 LP  0  0  0  0  0  0  0  0  0  0  0  0  # atno 17342 bound_to 10162
  139.8544  143.7396  152.3176 LP  0  0  0  0  0  0  0  0  0  0  0  0  # atno 17343 bound_to 10162
  157.3220  130.6942  149.6274 LP  0  0  0  0  0  0  0  0  0  0  0  0  # atno 17370 bound_to 10713
  155.9665  130.4332  150.4998 LP  0  0  0  0  0  0  0  0  0  0  0  0  # atno 17371 bound_to 10713
  140.0347  134.6355  155.9060 LP  0  0  0  0  0  0  0  0  0  0  0  0  # atno 17394 bound_to 11000
  141.1862  133.6556  156.5229 LP  0  0  0  0  0  0  0  0  0  0  0  0  # atno 17395 bound_to 11000

$$$$
