AV-unprocessed.smi:1761|AV-procd|sdf|7095|dock8
  -GOLD-   22720 8313D 1   1.00000     0.00000
 Structure written by MMmdl.
 34 35  0  0  0  0  0  0  0  0  1 V2000
  149.8744  140.7070  157.1109 O   0  0  0  0  0  0  0  0  0  0  0  0
  149.8415  141.8592  156.6775 C   0  0  0  0  0  0  0  0  0  0  0  0
  150.4715  142.9135  157.2245 N   0  0  0  0  0  0  0  0  0  0  0  0
  151.3095  142.9383  158.3712 C   0  0  0  0  0  0  0  0  0  0  0  0
  151.4449  144.2042  158.9849 C   0  0  0  0  0  0  0  0  0  0  0  0
  152.2568  144.3368  160.1279 C   0  0  0  0  0  0  0  0  0  0  0  0
  152.9141  143.1987  160.6279 C   0  0  0  0  0  0  0  0  0  0  0  0
  152.7261  141.9760  159.9576 C   0  0  0  0  0  0  0  0  0  0  0  0
  151.9482  141.8466  158.8622 N   0  0  0  0  0  0  0  0  0  0  0  0
  149.1554  142.2214  155.5837 N   0  0  0  0  0  0  0  0  0  0  0  0
  148.3490  141.3295  154.7526 C   0  0  2  0  0  0  0  0  0  0  0  0
  146.9755  141.1591  155.4344 C   0  0  0  0  0  0  0  0  0  0  0  0
  146.0976  140.1217  154.7201 C   0  0  0  0  0  0  0  0  0  0  0  0
  146.8170  138.7701  154.6215 C   0  0  0  0  0  0  0  0  0  0  0  0
  148.1624  138.9239  153.8996 C   0  0  0  0  0  0  0  0  0  0  0  0
  149.0645  139.9666  154.5878 C   0  0  1  0  0  0  0  0  0  0  0  0
  150.2184  140.1221  153.7859 O   0  0  0  0  0  0  0  0  0  0  0  0
  150.3395  143.8021  156.7646 H   0  0  0  0  0  0  0  0  0  0  0  0
  150.9329  145.0685  158.5870 H   0  0  0  0  0  0  0  0  0  0  0  0
  152.3720  145.2956  160.6114 H   0  0  0  0  0  0  0  0  0  0  0  0
  153.5456  143.2608  161.5018 H   0  0  0  0  0  0  0  0  0  0  0  0
  153.2127  141.0783  160.3090 H   0  0  0  0  0  0  0  0  0  0  0  0
  149.1839  143.1916  155.3068 H   0  0  0  0  0  0  0  0  0  0  0  0
  148.1785  141.7648  153.7658 H   0  0  0  0  0  0  0  0  0  0  0  0
  147.1142  140.8498  156.4717 H   0  0  0  0  0  0  0  0  0  0  0  0
  146.4557  142.1174  155.4681 H   0  0  0  0  0  0  0  0  0  0  0  0
  145.1541  140.0028  155.2536 H   0  0  0  0  0  0  0  0  0  0  0  0
  145.8455  140.4797  153.7211 H   0  0  0  0  0  0  0  0  0  0  0  0
  146.9795  138.3643  155.6208 H   0  0  0  0  0  0  0  0  0  0  0  0
  146.1904  138.0519  154.0920 H   0  0  0  0  0  0  0  0  0  0  0  0
  148.6699  137.9595  153.8586 H   0  0  0  0  0  0  0  0  0  0  0  0
  147.9779  139.2192  152.8654 H   0  0  0  0  0  0  0  0  0  0  0  0
  149.3689  139.5865  155.5644 H   0  0  0  0  0  0  0  0  0  0  0  0
  150.0336  139.7820  152.9237 H   0  0  0  0  0  0  0  0  0  0  0  0
  1  2  2  0  0  0  0
  2  3  1  0  0  0  0
  2 10  1  0  0  0  0
  3  4  1  0  0  0  0
  3 18  1  0  0  0  0
  4  9  1  0  0  0  0
  4  5  2  0  0  0  0
  5  6  1  0  0  0  0
  5 19  1  0  0  0  0
  6  7  2  0  0  0  0
  6 20  1  0  0  0  0
  7  8  1  0  0  0  0
  7 21  1  0  0  0  0
  8  9  2  0  0  0  0
  8 22  1  0  0  0  0
 10 11  1  0  0  0  0
 10 23  1  0  0  0  0
 11 16  1  0  0  0  0
 11 12  1  0  0  0  0
 11 24  1  0  0  0  0
 12 13  1  0  0  0  0
 12 25  1  0  0  0  0
 12 26  1  0  0  0  0
 13 14  1  0  0  0  0
 13 27  1  0  0  0  0
 13 28  1  0  0  0  0
 14 15  1  0  0  0  0
 14 29  1  0  0  0  0
 14 30  1  0  0  0  0
 15 16  1  0  0  0  0
 15 31  1  0  0  0  0
 15 32  1  0  0  0  0
 16 17  1  0  0  0  0
 16 33  1  0  0  0  0
 17 34  1  0  0  0  0
M  END
> <s_m_source_file>
AV-unprocessed.smi

> <i_m_source_file_index>
1761

> <i_lp_mmshare_version>
43012

> <i_f3d_flags>
0

> <s_epik_input>
bjFbY0hdW2NIXVtjSF1bY0hdYzFbTkhdQyg9TylbTkhdW0NAQEhdMltDSDJdW0NIMl1bQ0gyXVtDSDJdW0NASF0yW09IXQ==

> <s_epik_cmdline>
J2VwaWtfcHl0aG9uJywgJy1waCcsICc3LjAnLCAnLXRuJywgJzgnLCAnLW1hJywgJzIwMCcsICctbWV0YWxfYmluZGluZycsICctaW1hZScsICc8aW5maWxlLm1hZT4nLCAnLW9tYWUnLCAnPG91dGZpbGUubWFlPic=

> <r_lp_tautomer_probability>
1

> <r_epik_Ionization_Penalty>
4.92589e-05

> <r_epik_Ionization_Penalty_Charging>
0

> <r_epik_Ionization_Penalty_Neutral>
4.92589e-05

> <r_epik_State_Penalty>
-0

> <r_epik_Charging_Adjusted_Penalty>
0

> <i_epik_Tot_Q>
0

> <i_epik_Tot_abs_Q>
0

> <r_epik_Metal_State_Penalty>
-0

> <b_epik_Metal_Only>
0

> <s_lp_Force_Field>
OPLS_2005

> <r_lp_Energy>
12.6575

> <b_lp_Chiralities_Consistent>
1

> <s_lp_Variant>
AV-unprocessed.smi:1761-1

> <Gold.Version>
5.8.1

> <Gold.Id.Protein>
6NUR|6NUR_protein|mol2

> <Gold.PLP.Fitness>
41.1372

> <Gold.PLP.PLP>
-31.2330

> <Gold.PLP.part.hbond>
-3.7701

> <Gold.PLP.part.metal>
0.0000

> <Gold.PLP.part.buried>
-4.2093

> <Gold.PLP.part.nonpolar>
-24.2991

> <Gold.PLP.part.repulsive>
0.1919

> <Gold.PLP.ligand.clash>
0.0000

> <Gold.PLP.ligand.torsion>
0.3969

> <Gold.PLP.Chemscore.Hbond>
3.5656

> <Gold.PLP.Chemscore.CHOScore>
0.0000

> <Gold.PLP.Chemscore.Metal>
0.0000

> <Gold.Chemscore.Hbonds>
donor molecule, donor type, donor heavy atom, donor atom, acceptor molecule, acceptor atom, score
      L1  H     3    18       P1  8028  0.77
      L1  H    10    23       P1  8028  0.99
      L1  H    17    34       P1  7957  1.00
      P1  H  7989  7998       L1    17  0.79

> <Gold.PLP.Chemscore.Internal.Correction>
0.0011

> <Gold.Rescore>
     Score         DG    S(hbond)    S(metal)    S(lipo)     H(rot)  DE(clash)    DE(int)     intcor
     18.27     -21.39       3.27        0.00      74.71       1.47       0.01       3.11       ----

> <Gold.Chemscore.Fitness>
18.2726

> <Gold.Chemscore.DG>
-21.3933

> <Gold.Chemscore.ZeroCoef>
-5.4800

> <Gold.Chemscore.Hbond>
3.2705

> <Gold.Chemscore.Metal>
0.0000

> <Gold.Chemscore.Lipo>
74.7074

> <Gold.Chemscore.Internal_Hbond>
0.0000

> <Gold.Chemscore.DEClash>
0.0082

> <Gold.Chemscore.DEInternal>
3.1125

> <Gold.Chemscore.Rot>
1.4653

> <Gold.Chemscore.Internal.Correction>
   9.000000E+99

> <Gold.Chemscore.Hbonds>
donor molecule, donor type, donor heavy atom, donor atom, acceptor molecule, acceptor atom, score
      L1  H     3    18       P1  8028  0.71
      L1  H    10    23       P1  8028  0.92
      L1  H    17    34       P1  7957  0.95
      P1  H  7989  7998       L1    17  0.18

> <Gold.Chemscore.Hbond.Weighted>
-10.9236

> <Gold.Chemscore.Metal.Weighted>
-0.0000

> <Gold.Chemscore.Lipo.Weighted>
-8.7408

> <Gold.Chemscore.Internal_Hbond.Weighted>
0.0000

> <Gold.Chemscore.DEClash.Weighted>
0.0082

> <Gold.Chemscore.DEInternal.Weighted>
3.1125

> <Gold.Chemscore.Rot.Weighted>
3.7511

> <Gold.Chemscore.Internal.Correction.Weighted>
   9.000000E+99

> <Gold.Protein.RotatedTorsions>
[ 6907 6896 6895 6894 ] final  -27.84 input  -60.11 | X-H torsion
[ 7974 7965 7964 7962 ] final  -87.02 input  175.53 | X-H torsion
[ 8008 7997 7996 7995 ] final -117.82 input   59.86 | X-H torsion
[ 10167 10162 10161 10158 ] final   61.75 input  -65.29 | X-H torsion
[ 10718 10713 10712 10709 ] final  118.93 input   66.30 | X-H torsion
[ 10763 10752 10751 10750 ] final  -88.12 input  -60.55 | X-H torsion
[ 11005 11000 10999 10996 ] final   87.07 input  -57.11 | X-H torsion

> <Gold.Protein.ActiveResidues>
 VAL166  LYS551  ARG553  GLY616  TRP617  ASP618  TYR619  PRO620  LYS621  CYS622 
 ASP623  PHE694  ASN695  SER759  ASP760  ASP761  ALA762  ILE779  LEU786  VAL792 
 PHE793  MET794  SER795  GLU796  ALA797  LYS798  CYS799  TRP800  GLU811  SER814 

> <Gold.Protein.RotatedAtoms>
  151.1412  135.0180  159.8626 H   0  0  0  0  0  0  0  0  0  0  0  0  # atno 6907 bound_to 6896
  152.5452  134.1496  159.8523 H   0  0  0  0  0  0  0  0  0  0  0  0  # atno 6908 bound_to 6896
  151.1572  133.4823  159.2627 H   0  0  0  0  0  0  0  0  0  0  0  0  # atno 6909 bound_to 6896
  145.4721  140.9559  143.1911 H   0  0  0  0  0  0  0  0  0  0  0  0  # atno 7974 bound_to 7965
  155.0898  140.0395  157.2665 H   0  0  0  0  0  0  0  0  0  0  0  0  # atno 8008 bound_to 7997
  154.6841  140.2639  155.6853 H   0  0  0  0  0  0  0  0  0  0  0  0  # atno 8009 bound_to 7997
  156.2705  140.2772  156.1396 H   0  0  0  0  0  0  0  0  0  0  0  0  # atno 8010 bound_to 7997
  140.1514  144.4459  150.6757 H   0  0  0  0  0  0  0  0  0  0  0  0  # atno 10167 bound_to 10162
  157.5996  131.1053  150.7826 H   0  0  0  0  0  0  0  0  0  0  0  0  # atno 10718 bound_to 10713
  154.6411  135.5388  153.7791 H   0  0  0  0  0  0  0  0  0  0  0  0  # atno 10763 bound_to 10752
  153.0334  135.6459  154.1158 H   0  0  0  0  0  0  0  0  0  0  0  0  # atno 10764 bound_to 10752
  154.1082  135.2928  155.3216 H   0  0  0  0  0  0  0  0  0  0  0  0  # atno 10765 bound_to 10752
  139.8928  134.8397  156.2808 H   0  0  0  0  0  0  0  0  0  0  0  0  # atno 11005 bound_to 11000
  144.7939  139.6274  143.7101 LP  0  0  0  0  0  0  0  0  0  0  0  0  # atno 17320 bound_to 7965
  146.2390  139.5963  142.9504 LP  0  0  0  0  0  0  0  0  0  0  0  0  # atno 17321 bound_to 7965
  140.6700  143.2282  151.5649 LP  0  0  0  0  0  0  0  0  0  0  0  0  # atno 17342 bound_to 10162
  139.5424  144.2612  152.1377 LP  0  0  0  0  0  0  0  0  0  0  0  0  # atno 17343 bound_to 10162
  156.8228  130.4989  149.5341 LP  0  0  0  0  0  0  0  0  0  0  0  0  # atno 17370 bound_to 10713
  156.1066  130.6009  150.9981 LP  0  0  0  0  0  0  0  0  0  0  0  0  # atno 17371 bound_to 10713
  141.0040  133.7135  156.1005 LP  0  0  0  0  0  0  0  0  0  0  0  0  # atno 17394 bound_to 11000
  140.7459  134.4098  157.5548 LP  0  0  0  0  0  0  0  0  0  0  0  0  # atno 17395 bound_to 11000

$$$$
