AV-unprocessed.smi:1220|AV-procd|sdf|5115|dock10
  -GOLD-   22720 4173D 1   1.00000     0.00000
 Structure written by MMmdl.
 35 36  0  0  0  0  0  0  0  0  1 V2000
  148.4242  141.5882  155.8105 C   0  0  0  0  0  0  0  0  0  0  0  0
  149.7942  141.7025  156.4992 C   0  0  1  0  0  0  0  0  0  0  0  0
  149.7041  142.2603  157.9376 C   0  0  0  0  0  0  0  0  0  0  0  0
  150.8017  143.1495  158.2714 N   0  0  0  0  0  0  0  0  0  0  0  0
  150.7538  144.4909  158.5876 C   0  0  0  0  0  0  0  0  0  0  0  0
  152.0343  144.8958  158.8341 C   0  0  0  0  0  0  0  0  0  0  0  0
  152.8045  143.7142  158.6464 C   0  0  0  0  0  0  0  0  0  0  0  0
  152.0635  142.6700  158.3124 N   0  0  0  0  0  0  0  0  0  0  0  0
  150.4361  140.3910  156.5075 N   0  0  0  0  0  0  0  0  0  0  0  0
  150.7543  139.6747  155.4177 C   0  0  0  0  0  0  0  0  0  0  0  0
  150.5270  140.0556  154.2690 O   0  0  0  0  0  0  0  0  0  0  0  0
  151.4394  138.3249  155.6645 C   0  0  2  0  0  0  0  0  0  0  0  0
  150.4242  137.2206  156.0297 C   0  0  0  0  0  0  0  0  0  0  0  0
  151.1958  136.0122  156.5681 C   0  0  0  0  0  0  0  0  0  0  0  0
  152.6211  136.7087  157.4815 S   0  0  0  0  0  0  0  0  0  0  0  0
  152.3063  136.7512  158.9174 O   0  0  0  0  0  0  0  0  0  0  0  0
  153.8575  136.0778  156.9955 O   0  0  0  0  0  0  0  0  0  0  0  0
  152.4830  138.4028  156.7947 C   0  0  0  0  0  0  0  0  0  0  0  0
  147.9463  142.5625  155.7061 H   0  0  0  0  0  0  0  0  0  0  0  0
  147.7488  140.9451  156.3756 H   0  0  0  0  0  0  0  0  0  0  0  0
  148.5233  141.1693  154.8086 H   0  0  0  0  0  0  0  0  0  0  0  0
  150.4038  142.3803  155.8984 H   0  0  0  0  0  0  0  0  0  0  0  0
  148.7688  142.8056  158.0713 H   0  0  0  0  0  0  0  0  0  0  0  0
  149.6952  141.4470  158.6648 H   0  0  0  0  0  0  0  0  0  0  0  0
  149.8238  145.0399  158.6087 H   0  0  0  0  0  0  0  0  0  0  0  0
  152.3698  145.8849  159.1087 H   0  0  0  0  0  0  0  0  0  0  0  0
  153.8724  143.5845  158.7437 H   0  0  0  0  0  0  0  0  0  0  0  0
  150.6578  140.0001  157.4117 H   0  0  0  0  0  0  0  0  0  0  0  0
  151.9554  138.0106  154.7554 H   0  0  0  0  0  0  0  0  0  0  0  0
  149.7473  137.5775  156.8078 H   0  0  0  0  0  0  0  0  0  0  0  0
  149.8071  136.9424  155.1746 H   0  0  0  0  0  0  0  0  0  0  0  0
  150.5989  135.3779  157.2234 H   0  0  0  0  0  0  0  0  0  0  0  0
  151.5829  135.4048  155.7495 H   0  0  0  0  0  0  0  0  0  0  0  0
  153.4592  138.7320  156.4382 H   0  0  0  0  0  0  0  0  0  0  0  0
  152.1708  139.0664  157.6025 H   0  0  0  0  0  0  0  0  0  0  0  0
  1  2  1  0  0  0  0
  1 19  1  0  0  0  0
  1 20  1  0  0  0  0
  1 21  1  0  0  0  0
  2  3  1  0  0  0  0
  2  9  1  0  0  0  0
  2 22  1  0  0  0  0
  3  4  1  0  0  0  0
  3 23  1  0  0  0  0
  3 24  1  0  0  0  0
  4  8  1  0  0  0  0
  4  5  1  0  0  0  0
  5  6  2  0  0  0  0
  5 25  1  0  0  0  0
  6  7  1  0  0  0  0
  6 26  1  0  0  0  0
  7  8  2  0  0  0  0
  7 27  1  0  0  0  0
  9 10  1  0  0  0  0
  9 28  1  0  0  0  0
 10 11  2  0  0  0  0
 10 12  1  0  0  0  0
 12 18  1  0  0  0  0
 12 13  1  0  0  0  0
 12 29  1  0  0  0  0
 13 14  1  0  0  0  0
 13 30  1  0  0  0  0
 13 31  1  0  0  0  0
 14 15  1  0  0  0  0
 14 32  1  0  0  0  0
 14 33  1  0  0  0  0
 15 16  2  0  0  0  0
 15 17  2  0  0  0  0
 15 18  1  0  0  0  0
 18 34  1  0  0  0  0
 18 35  1  0  0  0  0
M  END
> <s_m_source_file>
AV-unprocessed.smi

> <i_m_source_file_index>
1220

> <i_lp_mmshare_version>
43012

> <i_f3d_flags>
0

> <s_epik_input>
bjFbY0hdW2NIXVtjSF1uMVtDSDJdW0NAQEhdKFtDSDNdKVtOSF1DKD1PKVtDQEBIXShbQ0gyXTIpW0NIMl1bQ0gyXVMyKD1PKT1P

> <s_epik_cmdline>
J2VwaWtfcHl0aG9uJywgJy1waCcsICc3LjAnLCAnLXRuJywgJzgnLCAnLW1hJywgJzIwMCcsICctbWV0YWxfYmluZGluZycsICctaW1hZScsICc8aW5maWxlLm1hZT4nLCAnLW9tYWUnLCAnPG91dGZpbGUubWFlPic=

> <r_lp_tautomer_probability>
1

> <r_epik_Ionization_Penalty>
0.000293905

> <r_epik_Ionization_Penalty_Charging>
0

> <r_epik_Ionization_Penalty_Neutral>
0.000293905

> <r_epik_State_Penalty>
-0

> <r_epik_Charging_Adjusted_Penalty>
0

> <i_epik_Tot_Q>
0

> <i_epik_Tot_abs_Q>
0

> <r_epik_Metal_State_Penalty>
-0

> <b_epik_Metal_Only>
0

> <s_lp_Force_Field>
OPLS_2005

> <r_lp_Energy>
2.06683

> <b_lp_Chiralities_Consistent>
1

> <s_lp_Variant>
AV-unprocessed.smi:1220-2

> <Gold.Version>
5.8.1

> <Gold.Id.Protein>
6NUR|6NUR_protein|mol2

> <Gold.PLP.Fitness>
38.7046

> <Gold.PLP.PLP>
-29.3390

> <Gold.PLP.part.hbond>
-2.9089

> <Gold.PLP.part.metal>
0.0000

> <Gold.PLP.part.buried>
-4.7380

> <Gold.PLP.part.nonpolar>
-23.0559

> <Gold.PLP.part.repulsive>
0.1935

> <Gold.PLP.ligand.clash>
0.0000

> <Gold.PLP.ligand.torsion>
1.0849

> <Gold.PLP.Chemscore.Hbond>
2.8393

> <Gold.PLP.Chemscore.CHOScore>
1.0000

> <Gold.PLP.Chemscore.Metal>
0.0000

> <Gold.Chemscore.Hbonds>
donor molecule, donor type, donor heavy atom, donor atom, acceptor molecule, acceptor atom, score
      P1  H  6896  6908       L1    16  0.86
      P1  H  7989  7998       L1    11  1.00
      P1  H 10752 10764       L1    17  1.00
      L1  C     5    25       P1  8029  1.00

> <Gold.PLP.Chemscore.Internal.Correction>
0.0176

> <Gold.Rescore>
     Score         DG    S(hbond)    S(metal)    S(lipo)     H(rot)  DE(clash)    DE(int)     intcor
     17.51     -18.90       2.85        0.00      71.40       1.75       0.20       1.18       ----

> <Gold.Chemscore.Fitness>
17.5139

> <Gold.Chemscore.DG>
-18.8981

> <Gold.Chemscore.ZeroCoef>
-5.4800

> <Gold.Chemscore.Hbond>
2.8543

> <Gold.Chemscore.Metal>
0.0000

> <Gold.Chemscore.Lipo>
71.4043

> <Gold.Chemscore.Internal_Hbond>
0.0000

> <Gold.Chemscore.DEClash>
0.2036

> <Gold.Chemscore.DEInternal>
1.1806

> <Gold.Chemscore.Rot>
1.7460

> <Gold.Chemscore.Internal.Correction>
   9.000000E+99

> <Gold.Chemscore.Hbonds>
donor molecule, donor type, donor heavy atom, donor atom, acceptor molecule, acceptor atom, score
      P1  H  6896  6908       L1    16  0.80
      P1  H  7989  7998       L1    11  0.94
      P1  H 10752 10764       L1    17  0.92

> <Gold.Chemscore.Hbond.Weighted>
-9.5335

> <Gold.Chemscore.Metal.Weighted>
-0.0000

> <Gold.Chemscore.Lipo.Weighted>
-8.3543

> <Gold.Chemscore.Internal_Hbond.Weighted>
0.0000

> <Gold.Chemscore.DEClash.Weighted>
0.2036

> <Gold.Chemscore.DEInternal.Weighted>
1.1806

> <Gold.Chemscore.Rot.Weighted>
4.4697

> <Gold.Chemscore.Internal.Correction.Weighted>
   9.000000E+99

> <Gold.Protein.RotatedTorsions>
[ 6907 6896 6895 6894 ] final -112.91 input  -60.11 | X-H torsion
[ 7974 7965 7964 7962 ] final  103.17 input  175.53 | X-H torsion
[ 8008 7997 7996 7995 ] final -156.76 input   59.86 | X-H torsion
[ 10167 10162 10161 10158 ] final  157.25 input  -65.29 | X-H torsion
[ 10718 10713 10712 10709 ] final -117.75 input   66.30 | X-H torsion
[ 10763 10752 10751 10750 ] final   11.42 input  -60.55 | X-H torsion
[ 11005 11000 10999 10996 ] final -167.18 input  -57.11 | X-H torsion

> <Gold.Protein.ActiveResidues>
 VAL166  LYS551  ARG553  GLY616  TRP617  ASP618  TYR619  PRO620  LYS621  CYS622 
 ASP623  PHE694  ASN695  SER759  ASP760  ASP761  ALA762  ILE779  LEU786  VAL792 
 PHE793  MET794  SER795  GLU796  ALA797  LYS798  CYS799  TRP800  GLU811  SER814 

> <Gold.Protein.RotatedAtoms>
  150.7791  133.9021  159.3344 H   0  0  0  0  0  0  0  0  0  0  0  0  # atno 6907 bound_to 6896
  151.6889  135.0948  160.0239 H   0  0  0  0  0  0  0  0  0  0  0  0  # atno 6908 bound_to 6896
  152.3837  133.6543  159.6217 H   0  0  0  0  0  0  0  0  0  0  0  0  # atno 6909 bound_to 6896
  145.3495  139.2443  143.3566 H   0  0  0  0  0  0  0  0  0  0  0  0  # atno 7974 bound_to 7965
  155.7222  140.0791  157.2326 H   0  0  0  0  0  0  0  0  0  0  0  0  # atno 8008 bound_to 7997
  154.4043  140.1610  156.2469 H   0  0  0  0  0  0  0  0  0  0  0  0  # atno 8009 bound_to 7997
  155.9186  140.3399  155.6158 H   0  0  0  0  0  0  0  0  0  0  0  0  # atno 8010 bound_to 7997
  139.4822  144.4934  151.8275 H   0  0  0  0  0  0  0  0  0  0  0  0  # atno 10167 bound_to 10162
  156.1056  130.6207  150.9203 H   0  0  0  0  0  0  0  0  0  0  0  0  # atno 10718 bound_to 10713
  153.1927  135.6845  153.8331 H   0  0  0  0  0  0  0  0  0  0  0  0  # atno 10763 bound_to 10752
  153.7625  135.3208  155.3340 H   0  0  0  0  0  0  0  0  0  0  0  0  # atno 10764 bound_to 10752
  154.8127  135.4707  154.0658 H   0  0  0  0  0  0  0  0  0  0  0  0  # atno 10765 bound_to 10752
  140.5561  134.5380  157.5133 H   0  0  0  0  0  0  0  0  0  0  0  0  # atno 11005 bound_to 11000
  146.2974  140.4108  142.8716 LP  0  0  0  0  0  0  0  0  0  0  0  0  # atno 17320 bound_to 7965
  144.8729  140.7297  143.6035 LP  0  0  0  0  0  0  0  0  0  0  0  0  # atno 17321 bound_to 7965
  140.4420  144.1973  150.5892 LP  0  0  0  0  0  0  0  0  0  0  0  0  # atno 17342 bound_to 10162
  140.4673  143.2426  151.9138 LP  0  0  0  0  0  0  0  0  0  0  0  0  # atno 17343 bound_to 10162
  157.6232  131.0928  150.8583 LP  0  0  0  0  0  0  0  0  0  0  0  0  # atno 17370 bound_to 10713
  156.8702  130.5143  149.5297 LP  0  0  0  0  0  0  0  0  0  0  0  0  # atno 17371 bound_to 10713
  139.9431  134.7751  156.0629 LP  0  0  0  0  0  0  0  0  0  0  0  0  # atno 17394 bound_to 11000
  141.1142  133.6633  156.3054 LP  0  0  0  0  0  0  0  0  0  0  0  0  # atno 17395 bound_to 11000

$$$$
