AV-unprocessed.smi:2496|AV-procd|sdf|9825|dock5
  -GOLD-   2272013453D 1   1.00000     0.00000
 Structure written by MMmdl.
 40 40  0  0  0  0  0  0  0  0  1 V2000
  152.4429  138.9612  155.5582 C   0  0  0  0  0  0  0  0  0  0  0  0
  151.0515  139.3950  155.1947 C   0  0  0  0  0  0  0  0  0  0  0  0
  150.6631  139.3241  153.9313 N   0  0  0  0  0  0  0  0  0  0  0  0
  149.4029  139.7878  153.9556 N   0  0  0  0  0  0  0  0  0  0  0  0
  148.9840  140.1549  155.2126 C   0  0  0  0  0  0  0  0  0  0  0  0
  147.6167  140.7068  155.4475 C   0  0  0  0  0  0  0  0  0  0  0  0
  150.0356  139.9094  156.0591 C   0  0  0  0  0  0  0  0  0  0  0  0
  150.1481  140.1315  157.5538 C   0  0  2  0  0  0  0  0  0  0  0  0
  149.2450  139.1739  158.3540 C   0  0  0  0  0  0  0  0  0  0  0  0
  149.8832  141.6120  157.8666 C   0  0  0  0  0  0  0  0  0  0  0  0
  148.7762  142.1110  157.6613 O   0  0  0  0  0  0  0  0  0  0  0  0
  150.9293  142.3027  158.3545 N   0  0  0  0  0  0  0  0  0  0  0  0
  150.9859  143.7326  158.6710 C   0  0  2  0  0  0  0  0  0  0  0  0
  151.8701  144.4816  157.6528 C   0  0  0  0  0  0  0  0  0  0  0  0
  151.3651  143.9969  160.1565 C   0  0  0  0  0  0  0  0  0  0  0  0
  151.5092  145.4999  160.4674 C   0  0  0  0  0  0  0  0  0  0  0  0
  152.6541  143.2624  160.5662 C   0  0  0  0  0  0  0  0  0  0  0  0
  148.8459  139.8516  153.1154 H   0  0  0  0  0  0  0  0  0  0  0  0
  153.0260  139.8031  155.9317 H   0  0  0  0  0  0  0  0  0  0  0  0
  152.9751  138.5436  154.7027 H   0  0  0  0  0  0  0  0  0  0  0  0
  152.4223  138.1990  156.3372 H   0  0  0  0  0  0  0  0  0  0  0  0
  147.6480  141.5469  156.1410 H   0  0  0  0  0  0  0  0  0  0  0  0
  146.9599  139.9448  155.8669 H   0  0  0  0  0  0  0  0  0  0  0  0
  147.1695  141.0605  154.5184 H   0  0  0  0  0  0  0  0  0  0  0  0
  151.1696  139.9327  157.8801 H   0  0  0  0  0  0  0  0  0  0  0  0
  148.1889  139.3153  158.1250 H   0  0  0  0  0  0  0  0  0  0  0  0
  149.3707  139.3200  159.4275 H   0  0  0  0  0  0  0  0  0  0  0  0
  149.4931  138.1349  158.1359 H   0  0  0  0  0  0  0  0  0  0  0  0
  151.7902  141.7911  158.4828 H   0  0  0  0  0  0  0  0  0  0  0  0
  149.9658  144.0899  158.5256 H   0  0  0  0  0  0  0  0  0  0  0  0
  151.7299  145.5600  157.7188 H   0  0  0  0  0  0  0  0  0  0  0  0
  151.6217  144.1930  156.6309 H   0  0  0  0  0  0  0  0  0  0  0  0
  152.9297  144.2772  157.8082 H   0  0  0  0  0  0  0  0  0  0  0  0
  150.5657  143.6122  160.7904 H   0  0  0  0  0  0  0  0  0  0  0  0
  152.2680  145.9627  159.8359 H   0  0  0  0  0  0  0  0  0  0  0  0
  151.8000  145.6600  161.5059 H   0  0  0  0  0  0  0  0  0  0  0  0
  150.5750  146.0401  160.3151 H   0  0  0  0  0  0  0  0  0  0  0  0
  153.4930  143.5498  159.9318 H   0  0  0  0  0  0  0  0  0  0  0  0
  152.5403  142.1805  160.5034 H   0  0  0  0  0  0  0  0  0  0  0  0
  152.9255  143.4913  161.5972 H   0  0  0  0  0  0  0  0  0  0  0  0
  1  2  1  0  0  0  0
  1 19  1  0  0  0  0
  1 20  1  0  0  0  0
  1 21  1  0  0  0  0
  2  7  1  0  0  0  0
  2  3  2  0  0  0  0
  3  4  1  0  0  0  0
  4 18  1  0  0  0  0
  4  5  1  0  0  0  0
  5  6  1  0  0  0  0
  5  7  2  0  0  0  0
  6 22  1  0  0  0  0
  6 23  1  0  0  0  0
  6 24  1  0  0  0  0
  7  8  1  0  0  0  0
  8  9  1  0  0  0  0
  8 10  1  0  0  0  0
  8 25  1  0  0  0  0
  9 26  1  0  0  0  0
  9 27  1  0  0  0  0
  9 28  1  0  0  0  0
 10 11  2  0  0  0  0
 10 12  1  0  0  0  0
 12 13  1  0  0  0  0
 12 29  1  0  0  0  0
 13 14  1  0  0  0  0
 13 15  1  0  0  0  0
 13 30  1  0  0  0  0
 14 31  1  0  0  0  0
 14 32  1  0  0  0  0
 14 33  1  0  0  0  0
 15 16  1  0  0  0  0
 15 17  1  0  0  0  0
 15 34  1  0  0  0  0
 16 35  1  0  0  0  0
 16 36  1  0  0  0  0
 16 37  1  0  0  0  0
 17 38  1  0  0  0  0
 17 39  1  0  0  0  0
 17 40  1  0  0  0  0
M  END
> <s_m_source_file>
AV-unprocessed.smi

> <i_m_source_file_index>
2496

> <i_lp_mmshare_version>
43012

> <i_f3d_flags>
0

> <s_epik_input>
W0NIM11jMW5bbkhdYyhbQ0gzXSljMVtDQEhdKFtDSDNdKUMoPU8pW05IXVtDQEhdKFtDSDNdKVtDSF0oW0NIM10pW0NIM10=

> <s_epik_cmdline>
J2VwaWtfcHl0aG9uJywgJy1waCcsICc3LjAnLCAnLXRuJywgJzgnLCAnLW1hJywgJzIwMCcsICctbWV0YWxfYmluZGluZycsICctaW1hZScsICc8aW5maWxlLm1hZT4nLCAnLW9tYWUnLCAnPG91dGZpbGUubWFlPic=

> <r_lp_tautomer_probability>
1

> <r_epik_Ionization_Penalty>
0.000456212

> <r_epik_Ionization_Penalty_Charging>
0

> <r_epik_Ionization_Penalty_Neutral>
0.000456212

> <r_epik_State_Penalty>
-0

> <r_epik_Charging_Adjusted_Penalty>
0

> <i_epik_Tot_Q>
0

> <i_epik_Tot_abs_Q>
0

> <r_epik_Metal_State_Penalty>
-0

> <b_epik_Metal_Only>
0

> <s_lp_Force_Field>
OPLS_2005

> <r_lp_Energy>
1.67244

> <b_lp_Chiralities_Consistent>
1

> <s_lp_Variant>
AV-unprocessed.smi:2496-1

> <Gold.Version>
5.8.1

> <Gold.Id.Protein>
6NUR|6NUR_protein|mol2

> <Gold.PLP.Fitness>
33.6239

> <Gold.PLP.PLP>
-30.5389

> <Gold.PLP.part.hbond>
-2.0000

> <Gold.PLP.part.metal>
0.0000

> <Gold.PLP.part.buried>
-2.6154

> <Gold.PLP.part.nonpolar>
-27.9581

> <Gold.PLP.part.repulsive>
1.8165

> <Gold.PLP.ligand.clash>
0.0000

> <Gold.PLP.ligand.torsion>
0.2560

> <Gold.PLP.Chemscore.Hbond>
1.1460

> <Gold.PLP.Chemscore.CHOScore>
0.0000

> <Gold.PLP.Chemscore.Metal>
0.0000

> <Gold.Chemscore.Hbonds>
donor molecule, donor type, donor heavy atom, donor atom, acceptor molecule, acceptor atom, score
      L1  H     4    18       P1  7957  0.42
      P1  H  7989  7998       L1     3  0.60

> <Gold.PLP.Chemscore.Internal.Correction>
0.1590

> <Gold.Rescore>
     Score         DG    S(hbond)    S(metal)    S(lipo)     H(rot)  DE(clash)    DE(int)     intcor
     13.85     -15.71       0.85        0.00      95.19       1.47       0.31       1.54       ----

> <Gold.Chemscore.Fitness>
13.8519

> <Gold.Chemscore.DG>
-15.7105

> <Gold.Chemscore.ZeroCoef>
-5.4800

> <Gold.Chemscore.Hbond>
0.8521

> <Gold.Chemscore.Metal>
0.0000

> <Gold.Chemscore.Lipo>
95.1945

> <Gold.Chemscore.Internal_Hbond>
0.0000

> <Gold.Chemscore.DEClash>
0.3148

> <Gold.Chemscore.DEInternal>
1.5439

> <Gold.Chemscore.Rot>
1.4662

> <Gold.Chemscore.Internal.Correction>
   9.000000E+99

> <Gold.Chemscore.Hbonds>
donor molecule, donor type, donor heavy atom, donor atom, acceptor molecule, acceptor atom, score
      L1  H     4    18       P1  7957  0.42
      P1  H  7989  7998       L1     3  0.01

> <Gold.Chemscore.Hbond.Weighted>
-2.8462

> <Gold.Chemscore.Metal.Weighted>
-0.0000

> <Gold.Chemscore.Lipo.Weighted>
-11.1378

> <Gold.Chemscore.Internal_Hbond.Weighted>
0.0000

> <Gold.Chemscore.DEClash.Weighted>
0.3148

> <Gold.Chemscore.DEInternal.Weighted>
1.5439

> <Gold.Chemscore.Rot.Weighted>
3.7534

> <Gold.Chemscore.Internal.Correction.Weighted>
   9.000000E+99

> <Gold.Protein.RotatedTorsions>
[ 6907 6896 6895 6894 ] final  -89.84 input  -60.11 | X-H torsion
[ 7974 7965 7964 7962 ] final   93.68 input  175.53 | X-H torsion
[ 8008 7997 7996 7995 ] final -164.50 input   59.86 | X-H torsion
[ 10167 10162 10161 10158 ] final -102.31 input  -65.29 | X-H torsion
[ 10718 10713 10712 10709 ] final  -48.90 input   66.30 | X-H torsion
[ 10763 10752 10751 10750 ] final  -90.61 input  -60.55 | X-H torsion
[ 11005 11000 10999 10996 ] final  -80.95 input  -57.11 | X-H torsion

> <Gold.Protein.ActiveResidues>
 VAL166  LYS551  ARG553  GLY616  TRP617  ASP618  TYR619  PRO620  LYS621  CYS622 
 ASP623  PHE694  ASN695  SER759  ASP760  ASP761  ALA762  ILE779  LEU786  VAL792 
 PHE793  MET794  SER795  GLU796  ALA797  LYS798  CYS799  TRP800  GLU811  SER814 

> <Gold.Protein.RotatedAtoms>
  150.6877  134.2525  159.4516 H   0  0  0  0  0  0  0  0  0  0  0  0  # atno 6907 bound_to 6896
  152.0461  134.9679  160.0583 H   0  0  0  0  0  0  0  0  0  0  0  0  # atno 6908 bound_to 6896
  152.1162  133.4293  159.4691 H   0  0  0  0  0  0  0  0  0  0  0  0  # atno 6909 bound_to 6896
  145.4757  139.2280  143.2910 H   0  0  0  0  0  0  0  0  0  0  0  0  # atno 7974 bound_to 7965
  155.8364  140.0941  157.1761 H   0  0  0  0  0  0  0  0  0  0  0  0  # atno 8008 bound_to 7997
  154.3981  140.1409  156.3737 H   0  0  0  0  0  0  0  0  0  0  0  0  # atno 8009 bound_to 7997
  155.8111  140.3449  155.5460 H   0  0  0  0  0  0  0  0  0  0  0  0  # atno 8010 bound_to 7997
  140.2320  143.3600  152.0878 H   0  0  0  0  0  0  0  0  0  0  0  0  # atno 10167 bound_to 10162
  156.1943  130.4154  149.9327 H   0  0  0  0  0  0  0  0  0  0  0  0  # atno 10718 bound_to 10713
  154.6675  135.5298  153.8096 H   0  0  0  0  0  0  0  0  0  0  0  0  # atno 10763 bound_to 10752
  153.0480  135.6521  154.0776 H   0  0  0  0  0  0  0  0  0  0  0  0  # atno 10764 bound_to 10752
  154.0678  135.2956  155.3293 H   0  0  0  0  0  0  0  0  0  0  0  0  # atno 10765 bound_to 10752
  141.1667  133.7174  156.8350 H   0  0  0  0  0  0  0  0  0  0  0  0  # atno 11005 bound_to 11000
  146.2370  140.5539  142.8950 LP  0  0  0  0  0  0  0  0  0  0  0  0  # atno 17320 bound_to 7965
  144.7918  140.6047  143.6536 LP  0  0  0  0  0  0  0  0  0  0  0  0  # atno 17321 bound_to 7965
  139.5107  144.6888  151.5816 LP  0  0  0  0  0  0  0  0  0  0  0  0  # atno 17342 bound_to 10162
  140.6178  143.9316  150.6502 LP  0  0  0  0  0  0  0  0  0  0  0  0  # atno 17343 bound_to 10162
  156.7057  130.8950  151.3604 LP  0  0  0  0  0  0  0  0  0  0  0  0  # atno 17370 bound_to 10713
  157.6948  130.9271  150.0614 LP  0  0  0  0  0  0  0  0  0  0  0  0  # atno 17371 bound_to 10713
  140.2024  134.8887  157.3183 LP  0  0  0  0  0  0  0  0  0  0  0  0  # atno 17394 bound_to 11000
  140.2173  134.4065  155.7583 LP  0  0  0  0  0  0  0  0  0  0  0  0  # atno 17395 bound_to 11000

$$$$
