AV-unprocessed.smi:1392|AV-procd|sdf|5659|dock1
  -GOLD-   22720 5283D 1   1.00000     0.00000
 Structure written by MMmdl.
 40 41  0  0  0  0  0  0  0  0  2 V2000
  151.5601  144.3105  157.5025 C   0  0  0  0  0  0  0  0  0  0  0  0
  151.6392  142.8711  157.7132 N   0  0  0  0  0  0  0  0  0  0  0  0
  152.2299  142.3389  158.9361 C   0  0  0  0  0  0  0  0  0  0  0  0
  151.0531  141.9926  156.7765 C   0  0  0  0  0  0  0  0  0  0  0  0
  151.5279  140.6784  156.5440 C   0  0  0  0  0  0  0  0  0  0  0  0
  150.8908  139.8605  155.5885 C   0  0  0  0  0  0  0  0  0  0  0  0
  149.7911  140.3593  154.8599 C   0  0  0  0  0  0  0  0  0  0  0  0
  149.1720  139.5009  153.9121 N   0  0  0  0  0  0  0  0  0  0  0  0
  147.9206  139.5709  153.4264 C   0  0  0  0  0  0  0  0  0  0  0  0
  147.0877  140.4237  153.7332 O   0  0  0  0  0  0  0  0  0  0  0  0
  147.6881  138.5974  152.5344 N   0  0  0  0  0  0  0  0  0  0  0  0
  146.4424  138.4197  151.7949 C   0  0  0  0  0  0  0  0  0  0  0  0
  145.7969  137.0453  152.0563 C   0  0  2  0  0  0  0  0  0  0  0  0
  145.5915  136.1909  150.8211 C   0  0  0  0  0  0  0  0  0  0  0  0
  144.5540  135.1861  151.3106 C   0  0  0  0  0  0  0  0  0  0  0  0
  143.7496  135.8901  152.2523 O   0  0  0  0  0  0  0  0  0  0  0  0
  144.3712  137.1239  152.6019 C   0  0  0  0  0  0  0  0  0  0  0  0
  149.3440  141.6724  155.1380 C   0  0  0  0  0  0  0  0  0  0  0  0
  149.9815  142.4199  156.0647 N   0  3  0  0  0  0  0  0  0  0  0  0
  152.1152  144.5970  156.6085 H   0  0  0  0  0  0  0  0  0  0  0  0
  151.9803  144.8585  158.3462 H   0  0  0  0  0  0  0  0  0  0  0  0
  150.5227  144.6257  157.3860 H   0  0  0  0  0  0  0  0  0  0  0  0
  153.0048  141.6081  158.7020 H   0  0  0  0  0  0  0  0  0  0  0  0
  151.4692  141.8549  159.5493 H   0  0  0  0  0  0  0  0  0  0  0  0
  152.6884  143.1291  159.5312 H   0  0  0  0  0  0  0  0  0  0  0  0
  152.3727  140.2802  157.0857 H   0  0  0  0  0  0  0  0  0  0  0  0
  151.2539  138.8581  155.4136 H   0  0  0  0  0  0  0  0  0  0  0  0
  149.7694  138.7970  153.5040 H   0  0  0  0  0  0  0  0  0  0  0  0
  148.4289  137.9395  152.3401 H   0  0  0  0  0  0  0  0  0  0  0  0
  145.7442  139.2184  152.0509 H   0  0  0  0  0  0  0  0  0  0  0  0
  146.6629  138.5344  150.7331 H   0  0  0  0  0  0  0  0  0  0  0  0
  146.4038  136.4839  152.7690 H   0  0  0  0  0  0  0  0  0  0  0  0
  145.1799  136.7886  150.0065 H   0  0  0  0  0  0  0  0  0  0  0  0
  146.5074  135.7151  150.4691 H   0  0  0  0  0  0  0  0  0  0  0  0
  143.9534  134.7753  150.4989 H   0  0  0  0  0  0  0  0  0  0  0  0
  145.0422  134.3570  151.8240 H   0  0  0  0  0  0  0  0  0  0  0  0
  144.3471  137.2904  153.6792 H   0  0  0  0  0  0  0  0  0  0  0  0
  143.8166  137.9326  152.1235 H   0  0  0  0  0  0  0  0  0  0  0  0
  148.4988  142.1532  154.6687 H   0  0  0  0  0  0  0  0  0  0  0  0
  149.6343  143.3633  156.2379 H   0  0  0  0  0  0  0  0  0  0  0  0
  1  2  1  0  0  0  0
  1 20  1  0  0  0  0
  1 21  1  0  0  0  0
  1 22  1  0  0  0  0
  2  3  1  0  0  0  0
  2  4  1  0  0  0  0
  3 23  1  0  0  0  0
  3 24  1  0  0  0  0
  3 25  1  0  0  0  0
  4 19  1  0  0  0  0
  4  5  2  0  0  0  0
  5  6  1  0  0  0  0
  5 26  1  0  0  0  0
  6  7  2  0  0  0  0
  6 27  1  0  0  0  0
  7  8  1  0  0  0  0
  7 18  1  0  0  0  0
  8  9  1  0  0  0  0
  8 28  1  0  0  0  0
  9 10  2  0  0  0  0
  9 11  1  0  0  0  0
 11 12  1  0  0  0  0
 11 29  1  0  0  0  0
 12 13  1  0  0  0  0
 12 30  1  0  0  0  0
 12 31  1  0  0  0  0
 13 17  1  0  0  0  0
 13 14  1  0  0  0  0
 13 32  1  0  0  0  0
 14 15  1  0  0  0  0
 14 33  1  0  0  0  0
 14 34  1  0  0  0  0
 15 16  1  0  0  0  0
 15 35  1  0  0  0  0
 15 36  1  0  0  0  0
 16 17  1  0  0  0  0
 17 37  1  0  0  0  0
 17 38  1  0  0  0  0
 18 19  2  0  0  0  0
 18 39  1  0  0  0  0
 19 40  1  0  0  0  0
M  CHG  1  19   1
M  END
> <s_m_source_file>
AV-unprocessed.smi

> <i_m_source_file_index>
1392

> <i_lp_mmshare_version>
43012

> <i_f3d_flags>
0

> <s_epik_input>
W0NIM11OKFtDSDNdKWMxW2NIXVtjSF1jKFtjSF1uMSlbTkhdQyg9TylbTkhdW0NIMl1bQ0BASF0yW0NIMl1bQ0gyXU9bQ0gyXTI=

> <s_epik_cmdline>
J2VwaWtfcHl0aG9uJywgJy1waCcsICc3LjAnLCAnLXRuJywgJzgnLCAnLW1hJywgJzIwMCcsICctbWV0YWxfYmluZGluZycsICctaW1hZScsICc8aW5maWxlLm1hZT4nLCAnLW9tYWUnLCAnPG91dGZpbGUubWFlPic=

> <r_lp_tautomer_probability>
0.999994

> <r_epik_Ionization_Penalty>
0.261114

> <r_epik_Ionization_Penalty_Charging>
0.261094

> <r_epik_Ionization_Penalty_Neutral>
2.01539e-05

> <r_epik_State_Penalty>
0.252829

> <r_epik_Charging_Adjusted_Penalty>
0.513923

> <i_epik_Tot_Q>
1

> <i_epik_Tot_abs_Q>
1

> <r_epik_Metal_State_Penalty>
0.54073

> <b_epik_Metal_Only>
0

> <s_lp_Force_Field>
OPLS_2005

> <r_lp_Energy>
27.7026

> <b_lp_Chiralities_Consistent>
1

> <s_lp_Variant>
AV-unprocessed.smi:1392-1

> <Gold.Version>
5.8.1

> <Gold.Id.Protein>
6NUR|6NUR_protein|mol2

> <Gold.PLP.Fitness>
45.3180

> <Gold.PLP.PLP>
-38.8129

> <Gold.PLP.part.hbond>
-4.0000

> <Gold.PLP.part.metal>
0.0000

> <Gold.PLP.part.buried>
0.5408

> <Gold.PLP.part.nonpolar>
-35.6654

> <Gold.PLP.part.repulsive>
0.5920

> <Gold.PLP.ligand.clash>
0.0000

> <Gold.PLP.ligand.torsion>
1.2448

> <Gold.PLP.Chemscore.Hbond>
2.9920

> <Gold.PLP.Chemscore.CHOScore>
0.0000

> <Gold.PLP.Chemscore.Metal>
0.0000

> <Gold.Chemscore.Hbonds>
donor molecule, donor type, donor heavy atom, donor atom, acceptor molecule, acceptor atom, score
      L1  H    11    29       P1  7948  1.00
      L1  H    19    40       P1  8028  1.95

> <Gold.PLP.Chemscore.Internal.Correction>
0.0187

> <Gold.Rescore>
     Score         DG    S(hbond)    S(metal)    S(lipo)     H(rot)  DE(clash)    DE(int)     intcor
     14.73     -18.08       1.85        0.00      81.65       1.23       0.83       2.53       ----

> <Gold.Chemscore.Fitness>
14.7280

> <Gold.Chemscore.DG>
-18.0821

> <Gold.Chemscore.ZeroCoef>
-5.4800

> <Gold.Chemscore.Hbond>
1.8533

> <Gold.Chemscore.Metal>
0.0000

> <Gold.Chemscore.Lipo>
81.6466

> <Gold.Chemscore.Internal_Hbond>
0.0000

> <Gold.Chemscore.DEClash>
0.8260

> <Gold.Chemscore.DEInternal>
2.5281

> <Gold.Chemscore.Rot>
1.2268

> <Gold.Chemscore.Internal.Correction>
   9.000000E+99

> <Gold.Chemscore.Hbonds>
donor molecule, donor type, donor heavy atom, donor atom, acceptor molecule, acceptor atom, score
      L1  H    11    29       P1  7948  0.94
      L1  H    19    40       P1  8028  0.93

> <Gold.Chemscore.Hbond.Weighted>
-6.1901

> <Gold.Chemscore.Metal.Weighted>
-0.0000

> <Gold.Chemscore.Lipo.Weighted>
-9.5527

> <Gold.Chemscore.Internal_Hbond.Weighted>
0.0000

> <Gold.Chemscore.DEClash.Weighted>
0.8260

> <Gold.Chemscore.DEInternal.Weighted>
2.5281

> <Gold.Chemscore.Rot.Weighted>
3.1406

> <Gold.Chemscore.Internal.Correction.Weighted>
   9.000000E+99

> <Gold.Protein.RotatedTorsions>
[ 6907 6896 6895 6894 ] final  112.25 input  -60.11 | X-H torsion
[ 7974 7965 7964 7962 ] final  -32.08 input  175.53 | X-H torsion
[ 8008 7997 7996 7995 ] final   -9.07 input   59.86 | X-H torsion
[ 10167 10162 10161 10158 ] final   49.50 input  -65.29 | X-H torsion
[ 10718 10713 10712 10709 ] final   91.79 input   66.30 | X-H torsion
[ 10763 10752 10751 10750 ] final  -56.51 input  -60.55 | X-H torsion
[ 11005 11000 10999 10996 ] final  -75.67 input  -57.11 | X-H torsion

> <Gold.Protein.ActiveResidues>
 VAL166  LYS551  ARG553  GLY616  TRP617  ASP618  TYR619  PRO620  LYS621  CYS622 
 ASP623  PHE694  ASN695  SER759  ASP760  ASP761  ALA762  ILE779  LEU786  VAL792 
 PHE793  MET794  SER795  GLU796  ALA797  LYS798  CYS799  TRP800  GLU811  SER814 

> <Gold.Protein.RotatedAtoms>
  152.4926  133.8542  159.7217 H   0  0  0  0  0  0  0  0  0  0  0  0  # atno 6907 bound_to 6896
  150.9071  133.7035  159.2870 H   0  0  0  0  0  0  0  0  0  0  0  0  # atno 6908 bound_to 6896
  151.4457  135.1029  159.9735 H   0  0  0  0  0  0  0  0  0  0  0  0  # atno 6909 bound_to 6896
  146.1018  140.5747  142.8817 H   0  0  0  0  0  0  0  0  0  0  0  0  # atno 7974 bound_to 7965
  154.5681  140.2364  155.8232 H   0  0  0  0  0  0  0  0  0  0  0  0  # atno 8008 bound_to 7997
  156.2085  140.3033  155.9638 H   0  0  0  0  0  0  0  0  0  0  0  0  # atno 8009 bound_to 7997
  155.2763  140.0420  157.3002 H   0  0  0  0  0  0  0  0  0  0  0  0  # atno 8010 bound_to 7997
  140.2823  144.3143  150.6261 H   0  0  0  0  0  0  0  0  0  0  0  0  # atno 10167 bound_to 10162
  157.6960  131.0420  150.3783 H   0  0  0  0  0  0  0  0  0  0  0  0  # atno 10718 bound_to 10713
  154.2079  135.6399  153.5106 H   0  0  0  0  0  0  0  0  0  0  0  0  # atno 10763 bound_to 10752
  152.9997  135.5467  154.6247 H   0  0  0  0  0  0  0  0  0  0  0  0  # atno 10764 bound_to 10752
  154.5676  135.2914  155.0832 H   0  0  0  0  0  0  0  0  0  0  0  0  # atno 10765 bound_to 10752
  141.1647  133.6955  156.7553 H   0  0  0  0  0  0  0  0  0  0  0  0  # atno 11005 bound_to 11000
  144.7439  140.5015  143.6850 LP  0  0  0  0  0  0  0  0  0  0  0  0  # atno 17320 bound_to 7965
  145.5839  139.1491  143.3220 LP  0  0  0  0  0  0  0  0  0  0  0  0  # atno 17321 bound_to 7965
  140.5802  143.2173  151.7442 LP  0  0  0  0  0  0  0  0  0  0  0  0  # atno 17342 bound_to 10162
  139.4959  144.4091  152.0099 LP  0  0  0  0  0  0  0  0  0  0  0  0  # atno 17343 bound_to 10162
  156.4200  130.3951  149.6832 LP  0  0  0  0  0  0  0  0  0  0  0  0  # atno 17370 bound_to 10713
  156.4086  130.7710  151.2722 LP  0  0  0  0  0  0  0  0  0  0  0  0  # atno 17371 bound_to 10713
  140.2574  134.8493  157.3726 LP  0  0  0  0  0  0  0  0  0  0  0  0  # atno 17394 bound_to 11000
  140.1644  134.4688  155.7873 LP  0  0  0  0  0  0  0  0  0  0  0  0  # atno 17395 bound_to 11000

$$$$
