AV-unprocessed.smi:1222|AV-procd|sdf|5123|dock5
  -GOLD-   22720 4183D 1   1.00000     0.00000
 Structure written by MMmdl.
 36 38  0  0  0  0  0  0  0  0  3 V2000
  150.6980  134.0989  156.0280 O   0  0  0  0  0  0  0  0  0  0  0  0
  150.4704  134.8112  155.0475 C   0  0  0  0  0  0  0  0  0  0  0  0
  151.0953  135.9680  154.7332 N   0  5  0  0  0  0  0  0  0  0  0  0
  150.4186  137.1276  154.7667 C   0  0  0  0  0  0  0  0  0  0  0  0
  149.1117  137.2011  155.0439 N   0  0  0  0  0  0  0  0  0  0  0  0
  148.6140  138.5053  155.0300 C   0  0  0  0  0  0  0  0  0  0  0  0
  149.5657  139.4476  154.7431 C   0  0  0  0  0  0  0  0  0  0  0  0
  151.1255  138.7207  154.4821 S   0  0  0  0  0  0  0  0  0  0  0  0
  149.5228  134.4559  154.1682 N   0  0  0  0  0  0  0  0  0  0  0  0
  148.6880  133.2609  154.2434 C   0  0  2  0  0  0  0  0  0  0  0  0
  149.5439  131.9853  154.1249 C   0  0  0  0  0  0  0  0  0  0  0  0
  148.6621  130.7270  154.0885 C   0  0  0  0  0  0  0  0  0  0  0  0
  147.6741  130.8021  152.9840 N   0  3  1  0  0  0  0  0  0  0  0  0
  146.8905  129.5549  152.8503 C   0  0  0  0  0  0  0  0  0  0  0  0
  147.1411  128.8144  151.5573 C   0  0  0  0  0  0  0  0  0  0  0  0
  145.8618  129.5994  151.7444 C   0  0  0  0  0  0  0  0  0  0  0  0
  146.8049  131.9985  153.1058 C   0  0  0  0  0  0  0  0  0  0  0  0
  147.6417  133.2881  153.1170 C   0  0  0  0  0  0  0  0  0  0  0  0
  147.5669  138.6712  155.2355 H   0  0  0  0  0  0  0  0  0  0  0  0
  149.4465  140.5180  154.6707 H   0  0  0  0  0  0  0  0  0  0  0  0
  149.3714  135.0722  153.3832 H   0  0  0  0  0  0  0  0  0  0  0  0
  148.1613  133.2519  155.1996 H   0  0  0  0  0  0  0  0  0  0  0  0
  150.1513  132.0288  153.2193 H   0  0  0  0  0  0  0  0  0  0  0  0
  150.2412  131.9180  154.9606 H   0  0  0  0  0  0  0  0  0  0  0  0
  149.2916  129.8463  153.9578 H   0  0  0  0  0  0  0  0  0  0  0  0
  148.1402  130.6061  155.0391 H   0  0  0  0  0  0  0  0  0  0  0  0
  146.6903  129.0084  153.7704 H   0  0  0  0  0  0  0  0  0  0  0  0
  147.8807  129.2167  150.8670 H   0  0  0  0  0  0  0  0  0  0  0  0
  147.0674  127.7289  151.5782 H   0  0  0  0  0  0  0  0  0  0  0  0
  144.9449  129.0309  151.8872 H   0  0  0  0  0  0  0  0  0  0  0  0
  145.7525  130.5231  151.1785 H   0  0  0  0  0  0  0  0  0  0  0  0
  146.1036  132.0282  152.2713 H   0  0  0  0  0  0  0  0  0  0  0  0
  146.2098  131.9279  154.0179 H   0  0  0  0  0  0  0  0  0  0  0  0
  146.9868  134.1523  153.2355 H   0  0  0  0  0  0  0  0  0  0  0  0
  148.1375  133.4058  152.1520 H   0  0  0  0  0  0  0  0  0  0  0  0
  148.2008  130.9091  152.1289 H   0  0  0  0  0  0  0  0  0  0  0  0
  1  2  2  0  0  0  0
  2  3  1  0  0  0  0
  2  9  1  0  0  0  0
  3  4  1  0  0  0  0
  4  8  1  0  0  0  0
  4  5  2  0  0  0  0
  5  6  1  0  0  0  0
  6  7  2  0  0  0  0
  6 19  1  0  0  0  0
  7  8  1  0  0  0  0
  7 20  1  0  0  0  0
  9 10  1  0  0  0  0
  9 21  1  0  0  0  0
 10 18  1  0  0  0  0
 10 11  1  0  0  0  0
 10 22  1  0  0  0  0
 11 12  1  0  0  0  0
 11 23  1  0  0  0  0
 11 24  1  0  0  0  0
 12 13  1  0  0  0  0
 12 25  1  0  0  0  0
 12 26  1  0  0  0  0
 13 14  1  0  0  0  0
 13 17  1  0  0  0  0
 13 36  1  0  0  0  0
 14 16  1  0  0  0  0
 14 15  1  0  0  0  0
 14 27  1  0  0  0  0
 15 16  1  0  0  0  0
 15 28  1  0  0  0  0
 15 29  1  0  0  0  0
 16 30  1  0  0  0  0
 16 31  1  0  0  0  0
 17 18  1  0  0  0  0
 17 32  1  0  0  0  0
 17 33  1  0  0  0  0
 18 34  1  0  0  0  0
 18 35  1  0  0  0  0
M  CHG  1   3  -1
M  CHG  1  13   1
M  END
> <s_m_source_file>
AV-unprocessed.smi

> <i_m_source_file_index>
1222

> <i_lp_mmshare_version>
43012

> <i_f3d_flags>
0

> <s_epik_input>
czFbY0hdW2NIXW5jMVtOSF1DKD1PKVtOSF1bQ0hdMltDSDJdW0NIMl1OKFtDSDJdW0NIMl0yKVtDSF0zW0NIMl1bQ0gyXTM=

> <s_epik_cmdline>
J2VwaWtfcHl0aG9uJywgJy1waCcsICc3LjAnLCAnLXRuJywgJzgnLCAnLW1hJywgJzIwMCcsICctbWV0YWxfYmluZGluZycsICctaW1hZScsICc8aW5maWxlLm1hZT4nLCAnLW9tYWUnLCAnPG91dGZpbGUubWFlPic=

> <r_lp_tautomer_probability>
0.999

> <r_epik_Ionization_Penalty>
6.4609

> <r_epik_Ionization_Penalty_Charging>
5.58663

> <r_epik_Ionization_Penalty_Neutral>
0.874262

> <r_epik_State_Penalty>
5.57752

> <r_epik_Charging_Adjusted_Penalty>
11.1642

> <i_epik_Tot_Q>
0

> <i_epik_Tot_abs_Q>
2

> <r_epik_Metal_State_Penalty>
1.58738

> <b_epik_Metal_Only>
1

> <s_lp_Force_Field>
OPLS_2005

> <r_lp_Energy>
15.8934

> <b_lp_Chiralities_Consistent>
1

> <s_lp_Variant>
AV-unprocessed.smi:1222-4

> <Gold.Version>
5.8.1

> <Gold.Id.Protein>
6NUR|6NUR_protein|mol2

> <Gold.PLP.Fitness>
41.5500

> <Gold.PLP.PLP>
-32.1616

> <Gold.PLP.part.hbond>
-3.0000

> <Gold.PLP.part.metal>
0.0000

> <Gold.PLP.part.buried>
-2.9374

> <Gold.PLP.part.nonpolar>
-26.2401

> <Gold.PLP.part.repulsive>
0.3566

> <Gold.PLP.ligand.clash>
0.0000

> <Gold.PLP.ligand.torsion>
1.4135

> <Gold.PLP.Chemscore.Hbond>
3.6500

> <Gold.PLP.Chemscore.CHOScore>
0.0000

> <Gold.PLP.Chemscore.Metal>
0.0000

> <Gold.Chemscore.Hbonds>
donor molecule, donor type, donor heavy atom, donor atom, acceptor molecule, acceptor atom, score
      L1  H     9    21       P1  7948  0.65
      L1  H    13    36       P1 10747  1.00
      P1  H 10752 10764       L1     3  2.00

> <Gold.PLP.Chemscore.Internal.Correction>
1.2653

> <Gold.Rescore>
     Score         DG    S(hbond)    S(metal)    S(lipo)     H(rot)  DE(clash)    DE(int)     intcor
     15.68     -17.20       1.89        0.00      73.38       1.25       0.09       1.43       ----

> <Gold.Chemscore.Fitness>
15.6824

> <Gold.Chemscore.DG>
-17.2016

> <Gold.Chemscore.ZeroCoef>
-5.4800

> <Gold.Chemscore.Hbond>
1.8949

> <Gold.Chemscore.Metal>
0.0000

> <Gold.Chemscore.Lipo>
73.3755

> <Gold.Chemscore.Internal_Hbond>
0.0000

> <Gold.Chemscore.DEClash>
0.0922

> <Gold.Chemscore.DEInternal>
1.4270

> <Gold.Chemscore.Rot>
1.2470

> <Gold.Chemscore.Internal.Correction>
   9.000000E+99

> <Gold.Chemscore.Hbonds>
donor molecule, donor type, donor heavy atom, donor atom, acceptor molecule, acceptor atom, score
      L1  H     9    21       P1  7948  0.06
      L1  H    13    36       P1 10747  0.96
      P1  H 10752 10764       L1     3  0.55

> <Gold.Chemscore.Hbond.Weighted>
-6.3291

> <Gold.Chemscore.Metal.Weighted>
-0.0000

> <Gold.Chemscore.Lipo.Weighted>
-8.5849

> <Gold.Chemscore.Internal_Hbond.Weighted>
0.0000

> <Gold.Chemscore.DEClash.Weighted>
0.0922

> <Gold.Chemscore.DEInternal.Weighted>
1.4270

> <Gold.Chemscore.Rot.Weighted>
3.1924

> <Gold.Chemscore.Internal.Correction.Weighted>
   9.000000E+99

> <Gold.Protein.RotatedTorsions>
[ 6907 6896 6895 6894 ] final  -79.14 input  -60.11 | X-H torsion
[ 7974 7965 7964 7962 ] final -179.49 input  175.53 | X-H torsion
[ 8008 7997 7996 7995 ] final  -94.67 input   59.86 | X-H torsion
[ 10167 10162 10161 10158 ] final  152.34 input  -65.29 | X-H torsion
[ 10718 10713 10712 10709 ] final  -98.32 input   66.30 | X-H torsion
[ 10763 10752 10751 10750 ] final  -57.35 input  -60.55 | X-H torsion
[ 11005 11000 10999 10996 ] final -126.31 input  -57.11 | X-H torsion

> <Gold.Protein.ActiveResidues>
 VAL166  LYS551  ARG553  GLY616  TRP617  ASP618  TYR619  PRO620  LYS621  CYS622 
 ASP623  PHE694  ASN695  SER759  ASP760  ASP761  ALA762  ILE779  LEU786  VAL792 
 PHE793  MET794  SER795  GLU796  ALA797  LYS798  CYS799  TRP800  GLU811  SER814 

> <Gold.Protein.RotatedAtoms>
  150.6956  134.4165  159.5185 H   0  0  0  0  0  0  0  0  0  0  0  0  # atno 6907 bound_to 6896
  152.1915  134.8665  160.0526 H   0  0  0  0  0  0  0  0  0  0  0  0  # atno 6908 bound_to 6896
  151.9618  133.3663  159.4075 H   0  0  0  0  0  0  0  0  0  0  0  0  # atno 6909 bound_to 6896
  144.7137  140.0710  143.6429 H   0  0  0  0  0  0  0  0  0  0  0  0  # atno 7974 bound_to 7965
  154.7514  140.0487  157.0896 H   0  0  0  0  0  0  0  0  0  0  0  0  # atno 8008 bound_to 7997
  155.0053  140.3129  155.4832 H   0  0  0  0  0  0  0  0  0  0  0  0  # atno 8009 bound_to 7997
  156.2886  140.2194  156.5164 H   0  0  0  0  0  0  0  0  0  0  0  0  # atno 8010 bound_to 7997
  139.4833  144.5366  151.7635 H   0  0  0  0  0  0  0  0  0  0  0  0  # atno 10167 bound_to 10162
  156.0104  130.5233  150.6505 H   0  0  0  0  0  0  0  0  0  0  0  0  # atno 10718 bound_to 10713
  154.2210  135.6377  153.5145 H   0  0  0  0  0  0  0  0  0  0  0  0  # atno 10763 bound_to 10752
  152.9969  135.5497  154.6114 H   0  0  0  0  0  0  0  0  0  0  0  0  # atno 10764 bound_to 10752
  154.5574  135.2906  155.0925 H   0  0  0  0  0  0  0  0  0  0  0  0  # atno 10765 bound_to 10752
  140.9691  134.0830  157.3888 H   0  0  0  0  0  0  0  0  0  0  0  0  # atno 11005 bound_to 11000
  145.9783  139.2922  143.1057 LP  0  0  0  0  0  0  0  0  0  0  0  0  # atno 17320 bound_to 7965
  145.9039  140.9224  143.0488 LP  0  0  0  0  0  0  0  0  0  0  0  0  # atno 17321 bound_to 7965
  140.4899  144.1325  150.5948 LP  0  0  0  0  0  0  0  0  0  0  0  0  # atno 17342 bound_to 10162
  140.4183  143.2624  151.9748 LP  0  0  0  0  0  0  0  0  0  0  0  0  # atno 17343 bound_to 10162
  157.4267  131.0844  151.1078 LP  0  0  0  0  0  0  0  0  0  0  0  0  # atno 17370 bound_to 10713
  157.1664  130.6248  149.5626 LP  0  0  0  0  0  0  0  0  0  0  0  0  # atno 17371 bound_to 10713
  139.8905  135.0113  156.6742 LP  0  0  0  0  0  0  0  0  0  0  0  0  # atno 17394 bound_to 11000
  140.7355  133.9022  155.8241 LP  0  0  0  0  0  0  0  0  0  0  0  0  # atno 17395 bound_to 11000

$$$$
