AV-unprocessed.smi:2229|AV-procd|sdf|9028|dock7
  -GOLD-   2272012233D 1   1.00000     0.00000
 Structure written by MMmdl.
 44 45  0  0  0  0  0  0  0  0  1 V2000
  150.5160  139.7358  154.9291 C   0  0  0  0  0  0  0  0  0  0  0  0
  149.7657  140.9682  155.4636 C   0  0  0  0  0  0  0  0  0  0  0  0
  148.9766  141.6452  154.3327 C   0  0  0  0  0  0  0  0  0  0  0  0
  150.7008  141.9804  156.1587 C   0  0  0  0  0  0  0  0  0  0  0  0
  151.3193  141.4526  157.4643 C   0  0  0  0  0  0  0  0  0  0  0  0
  152.0938  142.5172  158.2735 C   0  0  1  0  0  0  0  0  0  0  0  0
  151.1984  143.4930  159.0440 C   0  0  0  0  0  0  0  0  0  0  0  0
  152.1368  144.1347  160.0606 C   0  0  0  0  0  0  0  0  0  0  0  0
  153.0736  143.0044  160.4924 C   0  0  0  0  0  0  0  0  0  0  0  0
  153.0942  141.9849  159.3351 C   0  0  1  0  0  0  0  0  0  0  0  0
  152.7448  140.6526  159.8318 N   0  0  0  0  0  0  0  0  0  0  0  0
  153.4696  139.5374  159.6522 C   0  0  0  0  0  0  0  0  0  0  0  0
  154.5670  139.5227  159.0938 O   0  0  0  0  0  0  0  0  0  0  0  0
  152.8591  138.2359  160.1820 C   0  0  0  0  0  0  0  0  0  0  0  0
  153.7158  137.6077  161.1887 N   0  0  0  0  0  0  0  0  0  0  0  0
  154.1217  138.2390  162.3453 C   0  0  0  0  0  0  0  0  0  0  0  0
  154.8882  137.4874  163.0598 N   0  0  0  0  0  0  0  0  0  0  0  0
  154.9620  136.3544  162.3210 N   0  0  0  0  0  0  0  0  0  0  0  0
  154.2653  136.3958  161.1845 C   0  0  0  0  0  0  0  0  0  0  0  0
  154.1595  135.5138  160.3341 O   0  0  0  0  0  0  0  0  0  0  0  0
  155.5158  135.5800  162.6581 H   0  0  0  0  0  0  0  0  0  0  0  0
  151.2921  140.0213  154.2184 H   0  0  0  0  0  0  0  0  0  0  0  0
  149.8342  139.0549  154.4190 H   0  0  0  0  0  0  0  0  0  0  0  0
  150.9889  139.1688  155.7303 H   0  0  0  0  0  0  0  0  0  0  0  0
  149.0391  140.6211  156.1998 H   0  0  0  0  0  0  0  0  0  0  0  0
  149.6424  142.0204  153.5549 H   0  0  0  0  0  0  0  0  0  0  0  0
  148.3931  142.4871  154.7066 H   0  0  0  0  0  0  0  0  0  0  0  0
  148.2801  140.9474  153.8665 H   0  0  0  0  0  0  0  0  0  0  0  0
  151.4921  142.2849  155.4728 H   0  0  0  0  0  0  0  0  0  0  0  0
  150.1301  142.8821  156.3820 H   0  0  0  0  0  0  0  0  0  0  0  0
  150.5325  141.0198  158.0830 H   0  0  0  0  0  0  0  0  0  0  0  0
  152.0048  140.6421  157.2200 H   0  0  0  0  0  0  0  0  0  0  0  0
  152.6773  143.1087  157.5659 H   0  0  0  0  0  0  0  0  0  0  0  0
  150.7254  144.2327  158.3973 H   0  0  0  0  0  0  0  0  0  0  0  0
  150.4085  142.9488  159.5638 H   0  0  0  0  0  0  0  0  0  0  0  0
  152.7134  144.9242  159.5769 H   0  0  0  0  0  0  0  0  0  0  0  0
  151.6032  144.5809  160.9005 H   0  0  0  0  0  0  0  0  0  0  0  0
  154.0716  143.3802  160.7204 H   0  0  0  0  0  0  0  0  0  0  0  0
  152.6899  142.5493  161.4072 H   0  0  0  0  0  0  0  0  0  0  0  0
  154.0950  141.9639  158.8998 H   0  0  0  0  0  0  0  0  0  0  0  0
  151.8570  140.5655  160.3050 H   0  0  0  0  0  0  0  0  0  0  0  0
  151.8736  138.4557  160.5957 H   0  0  0  0  0  0  0  0  0  0  0  0
  152.7006  137.5321  159.3628 H   0  0  0  0  0  0  0  0  0  0  0  0
  153.7880  139.2575  162.5512 H   0  0  0  0  0  0  0  0  0  0  0  0
  1  2  1  0  0  0  0
  1 22  1  0  0  0  0
  1 23  1  0  0  0  0
  1 24  1  0  0  0  0
  2  3  1  0  0  0  0
  2  4  1  0  0  0  0
  2 25  1  0  0  0  0
  3 26  1  0  0  0  0
  3 27  1  0  0  0  0
  3 28  1  0  0  0  0
  4  5  1  0  0  0  0
  4 29  1  0  0  0  0
  4 30  1  0  0  0  0
  5  6  1  0  0  0  0
  5 31  1  0  0  0  0
  5 32  1  0  0  0  0
  6 10  1  0  0  0  0
  6  7  1  0  0  0  0
  6 33  1  0  0  0  0
  7  8  1  0  0  0  0
  7 34  1  0  0  0  0
  7 35  1  0  0  0  0
  8  9  1  0  0  0  0
  8 36  1  0  0  0  0
  8 37  1  0  0  0  0
  9 10  1  0  0  0  0
  9 38  1  0  0  0  0
  9 39  1  0  0  0  0
 10 11  1  0  0  0  0
 10 40  1  0  0  0  0
 11 12  1  0  0  0  0
 11 41  1  0  0  0  0
 12 13  2  0  0  0  0
 12 14  1  0  0  0  0
 14 15  1  0  0  0  0
 14 42  1  0  0  0  0
 14 43  1  0  0  0  0
 15 19  1  0  0  0  0
 15 16  1  0  0  0  0
 16 17  2  0  0  0  0
 16 44  1  0  0  0  0
 17 18  1  0  0  0  0
 18 21  1  0  0  0  0
 18 19  1  0  0  0  0
 19 20  2  0  0  0  0
M  END
> <s_m_source_file>
AV-unprocessed.smi

> <i_m_source_file_index>
2229

> <i_lp_mmshare_version>
43012

> <i_f3d_flags>
0

> <s_epik_input>
W0NIM11bQ0hdKFtDSDNdKVtDSDJdW0NIMl1bQ0BASF0xW0NIMl1bQ0gyXVtDSDJdW0NASF0xW05IXUMoPU8pW0NIMl1uMltjSF1uW25IXWMyPU8=

> <s_epik_cmdline>
J2VwaWtfcHl0aG9uJywgJy1waCcsICc3LjAnLCAnLXRuJywgJzgnLCAnLW1hJywgJzIwMCcsICctbWV0YWxfYmluZGluZycsICctaW1hZScsICc8aW5maWxlLm1hZT4nLCAnLW9tYWUnLCAnPG91dGZpbGUubWFlPic=

> <r_lp_tautomer_probability>
1

> <r_epik_Ionization_Penalty>
4.14174e-05

> <r_epik_Ionization_Penalty_Charging>
4.13165e-05

> <r_epik_Ionization_Penalty_Neutral>
1.00911e-07

> <r_epik_State_Penalty>
-0

> <r_epik_Charging_Adjusted_Penalty>
4.13165e-05

> <i_epik_Tot_Q>
0

> <i_epik_Tot_abs_Q>
0

> <r_epik_Metal_State_Penalty>
0.0399369

> <b_epik_Metal_Only>
0

> <s_lp_Force_Field>
OPLS_2005

> <r_lp_Energy>
36.1569

> <b_lp_Chiralities_Consistent>
1

> <s_lp_Variant>
AV-unprocessed.smi:2229-2

> <Gold.Version>
5.8.1

> <Gold.Id.Protein>
6NUR|6NUR_protein|mol2

> <Gold.PLP.Fitness>
44.9660

> <Gold.PLP.PLP>
-39.4228

> <Gold.PLP.part.hbond>
-2.0000

> <Gold.PLP.part.metal>
0.0000

> <Gold.PLP.part.buried>
-2.9998

> <Gold.PLP.part.nonpolar>
-33.0443

> <Gold.PLP.part.repulsive>
0.1420

> <Gold.PLP.ligand.clash>
0.0000

> <Gold.PLP.ligand.torsion>
0.2488

> <Gold.PLP.Chemscore.Hbond>
2.0000

> <Gold.PLP.Chemscore.CHOScore>
0.0000

> <Gold.PLP.Chemscore.Metal>
0.0000

> <Gold.Chemscore.Hbonds>
donor molecule, donor type, donor heavy atom, donor atom, acceptor molecule, acceptor atom, score
      P1  H  6896  6909       L1    20  1.00
      P1  H  7997  8009       L1    13  1.00

> <Gold.PLP.Chemscore.Internal.Correction>
0.0409

> <Gold.Rescore>
     Score         DG    S(hbond)    S(metal)    S(lipo)     H(rot)  DE(clash)    DE(int)     intcor
     16.40     -16.74       2.00        0.00      96.96       2.64       0.07       0.27       ----

> <Gold.Chemscore.Fitness>
16.4029

> <Gold.Chemscore.DG>
-16.7404

> <Gold.Chemscore.ZeroCoef>
-5.4800

> <Gold.Chemscore.Hbond>
1.9958

> <Gold.Chemscore.Metal>
0.0000

> <Gold.Chemscore.Lipo>
96.9615

> <Gold.Chemscore.Internal_Hbond>
0.0000

> <Gold.Chemscore.DEClash>
0.0659

> <Gold.Chemscore.DEInternal>
0.2717

> <Gold.Chemscore.Rot>
2.6368

> <Gold.Chemscore.Internal.Correction>
   9.000000E+99

> <Gold.Chemscore.Hbonds>
donor molecule, donor type, donor heavy atom, donor atom, acceptor molecule, acceptor atom, score
      P1  H  6896  6909       L1    20  0.95
      P1  H  7997  8009       L1    13  1.00

> <Gold.Chemscore.Hbond.Weighted>
-6.6660

> <Gold.Chemscore.Metal.Weighted>
-0.0000

> <Gold.Chemscore.Lipo.Weighted>
-11.3445

> <Gold.Chemscore.Internal_Hbond.Weighted>
0.0000

> <Gold.Chemscore.DEClash.Weighted>
0.0659

> <Gold.Chemscore.DEInternal.Weighted>
0.2717

> <Gold.Chemscore.Rot.Weighted>
6.7501

> <Gold.Chemscore.Internal.Correction.Weighted>
   9.000000E+99

> <Gold.Protein.RotatedTorsions>
[ 6907 6896 6895 6894 ] final  174.54 input  -60.11 | X-H torsion
[ 7974 7965 7964 7962 ] final -156.05 input  175.53 | X-H torsion
[ 8008 7997 7996 7995 ] final  115.79 input   59.86 | X-H torsion
[ 10167 10162 10161 10158 ] final  -69.33 input  -65.29 | X-H torsion
[ 10718 10713 10712 10709 ] final  -65.03 input   66.30 | X-H torsion
[ 10763 10752 10751 10750 ] final   13.42 input  -60.55 | X-H torsion
[ 11005 11000 10999 10996 ] final -160.70 input  -57.11 | X-H torsion

> <Gold.Protein.ActiveResidues>
 VAL166  LYS551  ARG553  GLY616  TRP617  ASP618  TYR619  PRO620  LYS621  CYS622 
 ASP623  PHE694  ASN695  SER759  ASP760  ASP761  ALA762  ILE779  LEU786  VAL792 
 PHE793  MET794  SER795  GLU796  ALA797  LYS798  CYS799  TRP800  GLU811  SER814 

> <Gold.Protein.RotatedAtoms>
  151.7506  133.3327  159.3390 H   0  0  0  0  0  0  0  0  0  0  0  0  # atno 6907 bound_to 6896
  150.7537  134.6196  159.6138 H   0  0  0  0  0  0  0  0  0  0  0  0  # atno 6908 bound_to 6896
  152.3471  134.7058  160.0299 H   0  0  0  0  0  0  0  0  0  0  0  0  # atno 6909 bound_to 6896
  144.7611  140.4164  143.5976 H   0  0  0  0  0  0  0  0  0  0  0  0  # atno 7974 bound_to 7965
  156.2402  140.2931  156.0423 H   0  0  0  0  0  0  0  0  0  0  0  0  # atno 8008 bound_to 7997
  155.1973  140.0408  157.2928 H   0  0  0  0  0  0  0  0  0  0  0  0  # atno 8009 bound_to 7997
  154.6154  140.2462  155.7623 H   0  0  0  0  0  0  0  0  0  0  0  0  # atno 8010 bound_to 7997
  140.5439  143.2314  151.7039 H   0  0  0  0  0  0  0  0  0  0  0  0  # atno 10167 bound_to 10162
  156.0693  130.4241  150.1505 H   0  0  0  0  0  0  0  0  0  0  0  0  # atno 10718 bound_to 10713
  153.1723  135.6814  153.8591 H   0  0  0  0  0  0  0  0  0  0  0  0  # atno 10763 bound_to 10752
  153.7951  135.3163  155.3384 H   0  0  0  0  0  0  0  0  0  0  0  0  # atno 10764 bound_to 10752
  154.8006  135.4780  154.0358 H   0  0  0  0  0  0  0  0  0  0  0  0  # atno 10765 bound_to 10752
  140.6286  134.4675  157.5228 H   0  0  0  0  0  0  0  0  0  0  0  0  # atno 11005 bound_to 11000
  145.6617  139.1582  143.2805 LP  0  0  0  0  0  0  0  0  0  0  0  0  # atno 17320 bound_to 7965
  146.1674  140.6697  142.9249 LP  0  0  0  0  0  0  0  0  0  0  0  0  # atno 17321 bound_to 7965
  139.4999  144.3926  152.0264 LP  0  0  0  0  0  0  0  0  0  0  0  0  # atno 17342 bound_to 10162
  140.3037  144.3617  150.6053 LP  0  0  0  0  0  0  0  0  0  0  0  0  # atno 17343 bound_to 10162
  156.9559  130.9789  151.3489 LP  0  0  0  0  0  0  0  0  0  0  0  0  # atno 17370 bound_to 10713
  157.5755  130.8340  149.8450 LP  0  0  0  0  0  0  0  0  0  0  0  0  # atno 17371 bound_to 10713
  139.9125  134.8315  156.1480 LP  0  0  0  0  0  0  0  0  0  0  0  0  # atno 17394 bound_to 11000
  141.0691  133.6805  156.2104 LP  0  0  0  0  0  0  0  0  0  0  0  0  # atno 17395 bound_to 11000

$$$$
