AV-unprocessed.smi:653|AV-procd|sdf|3204|dock4
  -GOLD-   22720 0143D 1   1.00000     0.00000
 Structure written by MMmdl.
 44 45  0  0  0  0  0  0  0  0  1 V2000
  143.9086  144.0004  162.5423 C   0  0  0  0  0  0  0  0  0  0  0  0
  144.5452  143.5691  161.2378 C   0  0  0  0  0  0  0  0  0  0  0  0
  144.3473  142.2666  160.7332 C   0  0  0  0  0  0  0  0  0  0  0  0
  144.9682  141.9167  159.5188 C   0  0  0  0  0  0  0  0  0  0  0  0
  145.7610  142.8781  158.8581 C   0  0  0  0  0  0  0  0  0  0  0  0
  146.4565  142.5499  157.5469 C   0  0  0  0  0  0  0  0  0  0  0  0
  147.8014  141.8448  157.7603 C   0  0  0  0  0  0  0  0  0  0  0  0
  147.8573  140.6969  158.2046 O   0  0  0  0  0  0  0  0  0  0  0  0
  148.8901  142.5573  157.4341 N   0  0  0  0  0  0  0  0  0  0  0  0
  150.2666  142.0958  157.5773 C   0  0  0  0  0  0  0  0  0  0  0  0
  151.0994  143.0423  158.4643 C   0  0  2  0  0  0  0  0  0  0  0  0
  151.3225  144.4197  157.8701 C   0  0  0  0  0  0  0  0  0  0  0  0
  152.5131  144.9178  158.6809 C   0  0  0  0  0  0  0  0  0  0  0  0
  153.3001  143.7628  158.9518 O   0  0  0  0  0  0  0  0  0  0  0  0
  152.5469  142.5795  158.6896 C   0  0  1  0  0  0  0  0  0  0  0  0
  152.7593  141.5247  159.8003 C   0  0  0  0  0  0  0  0  0  0  0  0
  152.8064  142.1253  161.2173 C   0  0  0  0  0  0  0  0  0  0  0  0
  154.0204  140.6902  159.5270 C   0  0  0  0  0  0  0  0  0  0  0  0
  145.8932  144.1532  159.4479 C   0  0  0  0  0  0  0  0  0  0  0  0
  145.3026  144.4972  160.6124 N   0  0  0  0  0  0  0  0  0  0  0  0
  143.1023  143.3244  162.8282 H   0  0  0  0  0  0  0  0  0  0  0  0
  143.4929  145.0049  162.4545 H   0  0  0  0  0  0  0  0  0  0  0  0
  144.6516  144.0040  163.3400 H   0  0  0  0  0  0  0  0  0  0  0  0
  143.7353  141.5507  161.2619 H   0  0  0  0  0  0  0  0  0  0  0  0
  144.8365  140.9289  159.1024 H   0  0  0  0  0  0  0  0  0  0  0  0
  145.8132  141.9134  156.9383 H   0  0  0  0  0  0  0  0  0  0  0  0
  146.6131  143.4718  156.9851 H   0  0  0  0  0  0  0  0  0  0  0  0
  148.7565  143.4902  157.0716 H   0  0  0  0  0  0  0  0  0  0  0  0
  150.2772  141.0841  157.9863 H   0  0  0  0  0  0  0  0  0  0  0  0
  150.7061  142.0275  156.5817 H   0  0  0  0  0  0  0  0  0  0  0  0
  150.5985  143.1727  159.4230 H   0  0  0  0  0  0  0  0  0  0  0  0
  151.5932  144.3443  156.8158 H   0  0  0  0  0  0  0  0  0  0  0  0
  150.4519  145.0707  157.9554 H   0  0  0  0  0  0  0  0  0  0  0  0
  153.0882  145.6807  158.1560 H   0  0  0  0  0  0  0  0  0  0  0  0
  152.1766  145.3377  159.6297 H   0  0  0  0  0  0  0  0  0  0  0  0
  152.9225  142.1811  157.7452 H   0  0  0  0  0  0  0  0  0  0  0  0
  151.9142  140.8365  159.7665 H   0  0  0  0  0  0  0  0  0  0  0  0
  153.6102  142.8555  161.3152 H   0  0  0  0  0  0  0  0  0  0  0  0
  152.9776  141.3481  161.9627 H   0  0  0  0  0  0  0  0  0  0  0  0
  151.8728  142.6183  161.4849 H   0  0  0  0  0  0  0  0  0  0  0  0
  154.9173  141.3103  159.5417 H   0  0  0  0  0  0  0  0  0  0  0  0
  153.9683  140.2038  158.5528 H   0  0  0  0  0  0  0  0  0  0  0  0
  154.1453  139.9082  160.2763 H   0  0  0  0  0  0  0  0  0  0  0  0
  146.4896  144.9189  158.9738 H   0  0  0  0  0  0  0  0  0  0  0  0
  1  2  1  0  0  0  0
  1 21  1  0  0  0  0
  1 22  1  0  0  0  0
  1 23  1  0  0  0  0
  2 20  1  0  0  0  0
  2  3  2  0  0  0  0
  3  4  1  0  0  0  0
  3 24  1  0  0  0  0
  4  5  2  0  0  0  0
  4 25  1  0  0  0  0
  5  6  1  0  0  0  0
  5 19  1  0  0  0  0
  6  7  1  0  0  0  0
  6 26  1  0  0  0  0
  6 27  1  0  0  0  0
  7  8  2  0  0  0  0
  7  9  1  0  0  0  0
  9 10  1  0  0  0  0
  9 28  1  0  0  0  0
 10 11  1  0  0  0  0
 10 29  1  0  0  0  0
 10 30  1  0  0  0  0
 11 15  1  0  0  0  0
 11 12  1  0  0  0  0
 11 31  1  0  0  0  0
 12 13  1  0  0  0  0
 12 32  1  0  0  0  0
 12 33  1  0  0  0  0
 13 14  1  0  0  0  0
 13 34  1  0  0  0  0
 13 35  1  0  0  0  0
 14 15  1  0  0  0  0
 15 16  1  0  0  0  0
 15 36  1  0  0  0  0
 16 17  1  0  0  0  0
 16 18  1  0  0  0  0
 16 37  1  0  0  0  0
 17 38  1  0  0  0  0
 17 39  1  0  0  0  0
 17 40  1  0  0  0  0
 18 41  1  0  0  0  0
 18 42  1  0  0  0  0
 18 43  1  0  0  0  0
 19 20  2  0  0  0  0
 19 44  1  0  0  0  0
M  END
> <s_m_source_file>
AV-unprocessed.smi

> <i_m_source_file_index>
653

> <i_lp_mmshare_version>
43012

> <i_f3d_flags>
0

> <s_epik_input>
W0NIM11jMVtjSF1bY0hdYyhbY0hdbjEpW0NIMl1DKD1PKVtOSF1bQ0gyXVtDQEBIXTJbQ0gyXVtDSDJdT1tDQEhdMltDSF0oW0NIM10pW0NIM10=

> <s_epik_cmdline>
J2VwaWtfcHl0aG9uJywgJy1waCcsICc3LjAnLCAnLXRuJywgJzgnLCAnLW1hJywgJzIwMCcsICctbWV0YWxfYmluZGluZycsICctaW1hZScsICc8aW5maWxlLm1hZT4nLCAnLW9tYWUnLCAnPG91dGZpbGUubWFlPic=

> <r_epik_Ionization_Penalty>
0.0166429

> <r_epik_Ionization_Penalty_Charging>
0

> <r_epik_Ionization_Penalty_Neutral>
0.0166429

> <r_epik_State_Penalty>
0.0131478

> <r_epik_Charging_Adjusted_Penalty>
0.0131478

> <i_epik_Tot_Q>
0

> <i_epik_Tot_abs_Q>
0

> <r_epik_Metal_State_Penalty>
0.012786

> <b_epik_Metal_Only>
0

> <s_lp_Force_Field>
OPLS_2005

> <r_lp_Energy>
19.6488

> <b_lp_Chiralities_Consistent>
1

> <s_lp_Variant>
AV-unprocessed.smi:653-1

> <Gold.Version>
5.8.1

> <Gold.Id.Protein>
6NUR|6NUR_protein|mol2

> <Gold.PLP.Fitness>
44.1688

> <Gold.PLP.PLP>
-40.0325

> <Gold.PLP.part.hbond>
-2.0000

> <Gold.PLP.part.metal>
0.0000

> <Gold.PLP.part.buried>
-5.4776

> <Gold.PLP.part.nonpolar>
-32.3757

> <Gold.PLP.part.repulsive>
0.1504

> <Gold.PLP.ligand.clash>
0.0000

> <Gold.PLP.ligand.torsion>
0.9124

> <Gold.PLP.Chemscore.Hbond>
0.9760

> <Gold.PLP.Chemscore.CHOScore>
1.0000

> <Gold.PLP.Chemscore.Metal>
0.0000

> <Gold.Chemscore.Hbonds>
donor molecule, donor type, donor heavy atom, donor atom, acceptor molecule, acceptor atom, score
      L1  H     9    28       P1  8028  1.00
      L1  C    19    44       P1  8029  1.00

> <Gold.PLP.Chemscore.Internal.Correction>
0.0332

> <Gold.Rescore>
     Score         DG    S(hbond)    S(metal)    S(lipo)     H(rot)  DE(clash)    DE(int)     intcor
     16.54     -16.90       0.94        0.00     103.18       1.48       0.02       0.34       ----

> <Gold.Chemscore.Fitness>
16.5407

> <Gold.Chemscore.DG>
-16.9013

> <Gold.Chemscore.ZeroCoef>
-5.4800

> <Gold.Chemscore.Hbond>
0.9435

> <Gold.Chemscore.Metal>
0.0000

> <Gold.Chemscore.Lipo>
103.1768

> <Gold.Chemscore.Internal_Hbond>
0.0000

> <Gold.Chemscore.DEClash>
0.0202

> <Gold.Chemscore.DEInternal>
0.3403

> <Gold.Chemscore.Rot>
1.4850

> <Gold.Chemscore.Internal.Correction>
   9.000000E+99

> <Gold.Chemscore.Hbonds>
donor molecule, donor type, donor heavy atom, donor atom, acceptor molecule, acceptor atom, score
      L1  H     9    28       P1  8028  0.33

> <Gold.Chemscore.Hbond.Weighted>
-3.1512

> <Gold.Chemscore.Metal.Weighted>
-0.0000

> <Gold.Chemscore.Lipo.Weighted>
-12.0717

> <Gold.Chemscore.Internal_Hbond.Weighted>
0.0000

> <Gold.Chemscore.DEClash.Weighted>
0.0202

> <Gold.Chemscore.DEInternal.Weighted>
0.3403

> <Gold.Chemscore.Rot.Weighted>
3.8015

> <Gold.Chemscore.Internal.Correction.Weighted>
   9.000000E+99

> <Gold.Protein.RotatedTorsions>
[ 6907 6896 6895 6894 ] final -172.17 input  -60.11 | X-H torsion
[ 7974 7965 7964 7962 ] final  144.85 input  175.53 | X-H torsion
[ 8008 7997 7996 7995 ] final -106.97 input   59.86 | X-H torsion
[ 10167 10162 10161 10158 ] final -175.10 input  -65.29 | X-H torsion
[ 10718 10713 10712 10709 ] final -162.08 input   66.30 | X-H torsion
[ 10763 10752 10751 10750 ] final  110.67 input  -60.55 | X-H torsion
[ 11005 11000 10999 10996 ] final   33.75 input  -57.11 | X-H torsion

> <Gold.Protein.ActiveResidues>
 VAL166  LYS551  ARG553  GLY616  TRP617  ASP618  TYR619  PRO620  LYS621  CYS622 
 ASP623  PHE694  ASN695  SER759  ASP760  ASP761  ALA762  ILE779  LEU786  VAL792 
 PHE793  MET794  SER795  GLU796  ALA797  LYS798  CYS799  TRP800  GLU811  SER814 

> <Gold.Protein.RotatedAtoms>
  151.5357  133.3441  159.2926 H   0  0  0  0  0  0  0  0  0  0  0  0  # atno 6907 bound_to 6896
  150.8566  134.7909  159.7061 H   0  0  0  0  0  0  0  0  0  0  0  0  # atno 6908 bound_to 6896
  152.4598  134.5219  159.9837 H   0  0  0  0  0  0  0  0  0  0  0  0  # atno 6909 bound_to 6896
  144.8801  139.5712  143.5847 H   0  0  0  0  0  0  0  0  0  0  0  0  # atno 7974 bound_to 7965
  154.9224  140.0407  157.2005 H   0  0  0  0  0  0  0  0  0  0  0  0  # atno 8008 bound_to 7997
  154.8241  140.2888  155.5745 H   0  0  0  0  0  0  0  0  0  0  0  0  # atno 8009 bound_to 7997
  156.2982  140.2513  156.3153 H   0  0  0  0  0  0  0  0  0  0  0  0  # atno 8010 bound_to 7997
  139.5598  144.1897  152.1220 H   0  0  0  0  0  0  0  0  0  0  0  0  # atno 10167 bound_to 10162
  156.6053  130.8828  151.2924 H   0  0  0  0  0  0  0  0  0  0  0  0  # atno 10718 bound_to 10713
  153.4523  135.3741  155.2291 H   0  0  0  0  0  0  0  0  0  0  0  0  # atno 10763 bound_to 10752
  154.8756  135.3888  154.4024 H   0  0  0  0  0  0  0  0  0  0  0  0  # atno 10764 bound_to 10752
  153.4585  135.7086  153.6129 H   0  0  0  0  0  0  0  0  0  0  0  0  # atno 10765 bound_to 10752
  140.2599  134.3204  155.7861 H   0  0  0  0  0  0  0  0  0  0  0  0  # atno 11005 bound_to 11000
  146.2989  139.7363  142.9106 LP  0  0  0  0  0  0  0  0  0  0  0  0  # atno 17320 bound_to 7965
  145.3970  141.0380  143.3092 LP  0  0  0  0  0  0  0  0  0  0  0  0  # atno 17321 bound_to 7965
  140.1409  144.5203  150.6745 LP  0  0  0  0  0  0  0  0  0  0  0  0  # atno 17342 bound_to 10162
  140.6877  143.2358  151.5217 LP  0  0  0  0  0  0  0  0  0  0  0  0  # atno 17343 bound_to 10162
  157.7269  130.9635  150.1674 LP  0  0  0  0  0  0  0  0  0  0  0  0  # atno 17370 bound_to 10713
  156.2435  130.3693  149.8311 LP  0  0  0  0  0  0  0  0  0  0  0  0  # atno 17371 bound_to 10713
  141.2191  133.7403  156.9171 LP  0  0  0  0  0  0  0  0  0  0  0  0  # atno 17394 bound_to 11000
  140.1475  134.9253  157.2548 LP  0  0  0  0  0  0  0  0  0  0  0  0  # atno 17395 bound_to 11000

$$$$
