AV-unprocessed.smi:2001|AV-procd|sdf|8102|dock6
  -GOLD-   2272010323D 1   1.00000     0.00000
 Structure written by MMmdl.
 50 51  0  0  0  0  0  0  0  0  1 V2000
  143.8970  138.3755  159.9726 C   0  0  0  0  0  0  0  0  0  0  0  0
  145.0434  138.4483  160.8020 O   0  0  0  0  0  0  0  0  0  0  0  0
  144.9856  137.5413  161.8896 C   0  0  0  0  0  0  0  0  0  0  0  0
  146.4185  137.1920  162.3190 C   0  0  0  0  0  0  0  0  0  0  0  0
  147.1113  136.4024  161.2959 N   0  0  0  0  0  0  0  0  0  0  0  0
  148.1295  137.0844  160.6503 N   0  0  0  0  0  0  0  0  0  0  0  0
  148.8151  136.5011  159.7205 C   0  0  0  0  0  0  0  0  0  0  0  0
  149.9116  137.2015  158.9961 C   0  0  0  0  0  0  0  0  0  0  0  0
  151.0461  136.7268  158.9178 O   0  0  0  0  0  0  0  0  0  0  0  0
  149.5735  138.3762  158.4347 N   0  0  0  0  0  0  0  0  0  0  0  0
  150.4692  139.2252  157.6595 C   0  0  0  0  0  0  0  0  0  0  0  0
  150.1797  140.7147  157.9191 C   0  0  0  0  0  0  0  0  0  0  0  0
  151.3458  141.5185  158.2811 N   0  0  0  0  0  0  0  0  0  0  0  0
  152.0132  141.0331  159.4864 C   0  0  0  0  0  0  0  0  0  0  0  0
  153.2263  141.9051  159.8636 C   0  0  2  0  0  0  0  0  0  0  0  0
  153.8841  141.4512  161.1709 C   0  0  0  0  0  0  0  0  0  0  0  0
  152.7983  143.2547  160.0231 O   0  0  0  0  0  0  0  0  0  0  0  0
  152.1824  143.7914  158.8558 C   0  0  2  0  0  0  0  0  0  0  0  0
  151.7787  145.2404  159.1481 C   0  0  0  0  0  0  0  0  0  0  0  0
  150.9729  142.9150  158.4775 C   0  0  0  0  0  0  0  0  0  0  0  0
  148.5359  135.1261  159.3418 C   0  0  0  0  0  0  0  0  0  0  0  0
  147.5455  134.4712  159.9867 C   0  0  0  0  0  0  0  0  0  0  0  0
  146.7556  135.1071  161.0421 C   0  0  0  0  0  0  0  0  0  0  0  0
  145.8543  134.5293  161.6489 O   0  0  0  0  0  0  0  0  0  0  0  0
  143.9948  139.0837  159.1499 H   0  0  0  0  0  0  0  0  0  0  0  0
  142.9923  138.6275  160.5275 H   0  0  0  0  0  0  0  0  0  0  0  0
  143.7806  137.3783  159.5459 H   0  0  0  0  0  0  0  0  0  0  0  0
  144.4439  137.9923  162.7227 H   0  0  0  0  0  0  0  0  0  0  0  0
  144.4458  136.6404  161.5932 H   0  0  0  0  0  0  0  0  0  0  0  0
  146.9762  138.1039  162.5401 H   0  0  0  0  0  0  0  0  0  0  0  0
  146.3886  136.6364  163.2582 H   0  0  0  0  0  0  0  0  0  0  0  0
  148.6223  138.6972  158.5461 H   0  0  0  0  0  0  0  0  0  0  0  0
  151.4878  138.9718  157.9512 H   0  0  0  0  0  0  0  0  0  0  0  0
  150.3825  138.9975  156.5957 H   0  0  0  0  0  0  0  0  0  0  0  0
  149.7409  141.1317  157.0114 H   0  0  0  0  0  0  0  0  0  0  0  0
  149.4138  140.8080  158.6909 H   0  0  0  0  0  0  0  0  0  0  0  0
  151.3059  141.0130  160.3171 H   0  0  0  0  0  0  0  0  0  0  0  0
  152.3548  140.0087  159.3413 H   0  0  0  0  0  0  0  0  0  0  0  0
  153.9687  141.8616  159.0648 H   0  0  0  0  0  0  0  0  0  0  0  0
  154.2332  140.4209  161.0980 H   0  0  0  0  0  0  0  0  0  0  0  0
  153.1852  141.5103  162.0055 H   0  0  0  0  0  0  0  0  0  0  0  0
  154.7439  142.0769  161.4114 H   0  0  0  0  0  0  0  0  0  0  0  0
  152.9067  143.7864  158.0394 H   0  0  0  0  0  0  0  0  0  0  0  0
  151.3135  145.7014  158.2764 H   0  0  0  0  0  0  0  0  0  0  0  0
  152.6483  145.8406  159.4167 H   0  0  0  0  0  0  0  0  0  0  0  0
  151.0691  145.2932  159.9744 H   0  0  0  0  0  0  0  0  0  0  0  0
  150.5177  143.3057  157.5664 H   0  0  0  0  0  0  0  0  0  0  0  0
  150.2147  142.9868  159.2591 H   0  0  0  0  0  0  0  0  0  0  0  0
  149.1030  134.6314  158.5667 H   0  0  0  0  0  0  0  0  0  0  0  0
  147.3287  133.4480  159.7168 H   0  0  0  0  0  0  0  0  0  0  0  0
  1  2  1  0  0  0  0
  1 25  1  0  0  0  0
  1 26  1  0  0  0  0
  1 27  1  0  0  0  0
  2  3  1  0  0  0  0
  3  4  1  0  0  0  0
  3 28  1  0  0  0  0
  3 29  1  0  0  0  0
  4  5  1  0  0  0  0
  4 30  1  0  0  0  0
  4 31  1  0  0  0  0
  5 23  1  0  0  0  0
  5  6  1  0  0  0  0
  6  7  2  0  0  0  0
  7  8  1  0  0  0  0
  7 21  1  0  0  0  0
  8  9  2  0  0  0  0
  8 10  1  0  0  0  0
 10 11  1  0  0  0  0
 10 32  1  0  0  0  0
 11 12  1  0  0  0  0
 11 33  1  0  0  0  0
 11 34  1  0  0  0  0
 12 13  1  0  0  0  0
 12 35  1  0  0  0  0
 12 36  1  0  0  0  0
 13 20  1  0  0  0  0
 13 14  1  0  0  0  0
 14 15  1  0  0  0  0
 14 37  1  0  0  0  0
 14 38  1  0  0  0  0
 15 16  1  0  0  0  0
 15 17  1  0  0  0  0
 15 39  1  0  0  0  0
 16 40  1  0  0  0  0
 16 41  1  0  0  0  0
 16 42  1  0  0  0  0
 17 18  1  0  0  0  0
 18 19  1  0  0  0  0
 18 20  1  0  0  0  0
 18 43  1  0  0  0  0
 19 44  1  0  0  0  0
 19 45  1  0  0  0  0
 19 46  1  0  0  0  0
 20 47  1  0  0  0  0
 20 48  1  0  0  0  0
 21 22  2  0  0  0  0
 21 49  1  0  0  0  0
 22 23  1  0  0  0  0
 22 50  1  0  0  0  0
 23 24  2  0  0  0  0
M  END
> <s_m_source_file>
AV-unprocessed.smi

> <i_m_source_file_index>
2001

> <i_lp_mmshare_version>
43012

> <i_f3d_flags>
0

> <s_epik_input>
W0NIM11PW0NIMl1bQ0gyXW4xbmMoW2NIXVtjSF1jMT1PKUMoPU8pW05IXVtDSDJdW0NIMl1OMltDSDJdW0NAQEhdKFtDSDNdKU9bQ0BASF0oW0NIM10pW0NIMl0y

> <s_epik_cmdline>
J2VwaWtfcHl0aG9uJywgJy1waCcsICc3LjAnLCAnLXRuJywgJzgnLCAnLW1hJywgJzIwMCcsICctbWV0YWxfYmluZGluZycsICctaW1hZScsICc8aW5maWxlLm1hZT4nLCAnLW9tYWUnLCAnPG91dGZpbGUubWFlPic=

> <r_lp_tautomer_probability>
1

> <r_epik_Ionization_Penalty>
0.206669

> <r_epik_Ionization_Penalty_Charging>
5.55992e-09

> <r_epik_Ionization_Penalty_Neutral>
0.206669

> <r_epik_State_Penalty>
0.196651

> <r_epik_Charging_Adjusted_Penalty>
0.196651

> <i_epik_Tot_Q>
0

> <i_epik_Tot_abs_Q>
0

> <r_epik_Metal_State_Penalty>
0.198372

> <b_epik_Metal_Only>
0

> <s_lp_Force_Field>
OPLS_2005

> <r_lp_Energy>
38.6275

> <b_lp_Chiralities_Consistent>
1

> <s_lp_Variant>
AV-unprocessed.smi:2001-1

> <Gold.Version>
5.8.1

> <Gold.Id.Protein>
6NUR|6NUR_protein|mol2

> <Gold.PLP.Fitness>
49.5324

> <Gold.PLP.PLP>
-45.7134

> <Gold.PLP.part.hbond>
-4.0000

> <Gold.PLP.part.metal>
0.0000

> <Gold.PLP.part.buried>
-6.8396

> <Gold.PLP.part.nonpolar>
-36.2955

> <Gold.PLP.part.repulsive>
0.1943

> <Gold.PLP.ligand.clash>
0.0000

> <Gold.PLP.ligand.torsion>
1.7603

> <Gold.PLP.Chemscore.Hbond>
2.4320

> <Gold.PLP.Chemscore.CHOScore>
0.0000

> <Gold.PLP.Chemscore.Metal>
0.0000

> <Gold.Chemscore.Hbonds>
donor molecule, donor type, donor heavy atom, donor atom, acceptor molecule, acceptor atom, score
      P1  H  6896  6909       L1     9  1.00
      P1  H  6931  6943       L1     6  0.86
      P1  H  6934  6947       L1     2  0.34

> <Gold.PLP.Chemscore.Internal.Correction>
0.0437

> <Gold.Rescore>
     Score         DG    S(hbond)    S(metal)    S(lipo)     H(rot)  DE(clash)    DE(int)     intcor
     17.18     -19.02       2.03        0.00     101.48       2.00       0.04       1.80       ----

> <Gold.Chemscore.Fitness>
17.1782

> <Gold.Chemscore.DG>
-19.0212

> <Gold.Chemscore.ZeroCoef>
-5.4800

> <Gold.Chemscore.Hbond>
2.0337

> <Gold.Chemscore.Metal>
0.0000

> <Gold.Chemscore.Lipo>
101.4848

> <Gold.Chemscore.Internal_Hbond>
0.0000

> <Gold.Chemscore.DEClash>
0.0417

> <Gold.Chemscore.DEInternal>
1.8014

> <Gold.Chemscore.Rot>
2.0020

> <Gold.Chemscore.Internal.Correction>
   9.000000E+99

> <Gold.Chemscore.Hbonds>
donor molecule, donor type, donor heavy atom, donor atom, acceptor molecule, acceptor atom, score
      P1  H  6896  6909       L1     9  0.74
      P1  H  6931  6943       L1     6  0.61
      P1  H  6934  6947       L1     2  0.09

> <Gold.Chemscore.Hbond.Weighted>
-6.7927

> <Gold.Chemscore.Metal.Weighted>
-0.0000

> <Gold.Chemscore.Lipo.Weighted>
-11.8737

> <Gold.Chemscore.Internal_Hbond.Weighted>
0.0000

> <Gold.Chemscore.DEClash.Weighted>
0.0417

> <Gold.Chemscore.DEInternal.Weighted>
1.8014

> <Gold.Chemscore.Rot.Weighted>
5.1252

> <Gold.Chemscore.Internal.Correction.Weighted>
   9.000000E+99

> <Gold.Protein.RotatedTorsions>
[ 6907 6896 6895 6894 ] final   94.20 input  -60.11 | X-H torsion
[ 7974 7965 7964 7962 ] final  178.08 input  175.53 | X-H torsion
[ 8008 7997 7996 7995 ] final  116.31 input   59.86 | X-H torsion
[ 10167 10162 10161 10158 ] final  -10.11 input  -65.29 | X-H torsion
[ 10718 10713 10712 10709 ] final   61.77 input   66.30 | X-H torsion
[ 10763 10752 10751 10750 ] final -162.51 input  -60.55 | X-H torsion
[ 11005 11000 10999 10996 ] final -108.23 input  -57.11 | X-H torsion

> <Gold.Protein.ActiveResidues>
 VAL166  LYS551  ARG553  GLY616  TRP617  ASP618  TYR619  PRO620  LYS621  CYS622 
 ASP623  PHE694  ASN695  SER759  ASP760  ASP761  ALA762  ILE779  LEU786  VAL792 
 PHE793  MET794  SER795  GLU796  ALA797  LYS798  CYS799  TRP800  GLU811  SER814 

> <Gold.Protein.RotatedAtoms>
  152.5450  134.1230  159.8406 H   0  0  0  0  0  0  0  0  0  0  0  0  # atno 6907 bound_to 6896
  151.1284  133.5047  159.2607 H   0  0  0  0  0  0  0  0  0  0  0  0  # atno 6908 bound_to 6896
  151.1702  135.0324  159.8803 H   0  0  0  0  0  0  0  0  0  0  0  0  # atno 6909 bound_to 6896
  144.7160  140.0344  143.6438 H   0  0  0  0  0  0  0  0  0  0  0  0  # atno 7974 bound_to 7965
  156.2432  140.2920  156.0504 H   0  0  0  0  0  0  0  0  0  0  0  0  # atno 8008 bound_to 7997
  155.1888  140.0406  157.2913 H   0  0  0  0  0  0  0  0  0  0  0  0  # atno 8009 bound_to 7997
  154.6209  140.2475  155.7558 H   0  0  0  0  0  0  0  0  0  0  0  0  # atno 8010 bound_to 7997
  140.7105  143.5784  150.9018 H   0  0  0  0  0  0  0  0  0  0  0  0  # atno 10167 bound_to 10162
  157.5852  130.9013  149.9503 H   0  0  0  0  0  0  0  0  0  0  0  0  # atno 10718 bound_to 10713
  154.7208  135.3025  154.9051 H   0  0  0  0  0  0  0  0  0  0  0  0  # atno 10763 bound_to 10752
  153.9923  135.6717  153.4759 H   0  0  0  0  0  0  0  0  0  0  0  0  # atno 10764 bound_to 10752
  153.0832  135.4998  154.8462 H   0  0  0  0  0  0  0  0  0  0  0  0  # atno 10765 bound_to 10752
  141.0913  133.9050  157.2070 H   0  0  0  0  0  0  0  0  0  0  0  0  # atno 11005 bound_to 11000
  146.0075  139.3142  143.0890 LP  0  0  0  0  0  0  0  0  0  0  0  0  # atno 17320 bound_to 7965
  145.8720  140.9414  143.0645 LP  0  0  0  0  0  0  0  0  0  0  0  0  # atno 17321 bound_to 7965
  139.9510  143.6272  152.3029 LP  0  0  0  0  0  0  0  0  0  0  0  0  # atno 17342 bound_to 10162
  139.6791  144.7657  151.1642 LP  0  0  0  0  0  0  0  0  0  0  0  0  # atno 17343 bound_to 10162
  156.0901  130.3664  150.0412 LP  0  0  0  0  0  0  0  0  0  0  0  0  # atno 17370 bound_to 10713
  156.8544  130.9470  151.3623 LP  0  0  0  0  0  0  0  0  0  0  0  0  # atno 17371 bound_to 10713
  139.9739  135.0120  156.9582 LP  0  0  0  0  0  0  0  0  0  0  0  0  # atno 17394 bound_to 11000
  140.5246  134.0873  155.7300 LP  0  0  0  0  0  0  0  0  0  0  0  0  # atno 17395 bound_to 11000

$$$$
