AV-unprocessed.smi:1041|AV-procd|sdf|4532|dock1
  -GOLD-   22720 2553D 1   1.00000     0.00000
 Structure written by MMmdl.
 52 53  0  0  0  0  0  0  0  0  1 V2000
  151.1098  144.7708  158.7685 C   0  0  0  0  0  0  0  0  0  0  0  0
  150.1239  143.7850  159.0196 O   0  0  0  0  0  0  0  0  0  0  0  0
  150.3505  142.5909  158.2885 C   0  0  0  0  0  0  0  0  0  0  0  0
  150.4083  142.9138  156.7863 C   0  0  0  0  0  0  0  0  0  0  0  0
  150.7290  141.7850  155.9119 N   0  0  0  0  0  0  0  0  0  0  0  0
  149.5252  141.0130  155.6061 C   0  0  0  0  0  0  0  0  0  0  0  0
  149.7947  139.8608  154.6247 C   0  0  0  0  0  0  0  0  0  0  0  0
  150.8714  138.9097  155.1779 C   0  0  0  0  0  0  0  0  0  0  0  0
  151.1770  137.7738  154.1812 C   0  0  0  0  0  0  0  0  0  0  0  0
  150.5799  136.5094  154.5983 N   0  0  0  0  0  0  0  0  0  0  0  0
  151.1325  135.6176  155.4353 C   0  0  0  0  0  0  0  0  0  0  0  0
  152.2376  135.7651  155.9558 O   0  0  0  0  0  0  0  0  0  0  0  0
  150.2987  134.3742  155.7497 C   0  0  0  0  0  0  0  0  0  0  0  0
  151.0010  133.0334  155.5398 C   0  0  0  0  0  0  0  0  0  0  0  0
  150.6453  132.1555  154.5567 C   0  0  0  0  0  0  0  0  0  0  0  0
  149.5144  132.4277  153.5800 C   0  0  0  0  0  0  0  0  0  0  0  0
  151.3119  130.9341  154.3857 N   0  0  0  0  0  0  0  0  0  0  0  0
  152.2859  130.6406  155.1829 C   0  0  0  0  0  0  0  0  0  0  0  0
  153.0843  129.3566  155.1043 C   0  0  0  0  0  0  0  0  0  0  0  0
  152.6970  131.4910  156.2077 N   0  0  0  0  0  0  0  0  0  0  0  0
  152.1099  132.6844  156.4492 C   0  0  0  0  0  0  0  0  0  0  0  0
  152.4979  133.3910  157.3783 O   0  0  0  0  0  0  0  0  0  0  0  0
  152.1177  139.7358  155.5591 C   0  0  0  0  0  0  0  0  0  0  0  0
  151.7454  140.9023  156.4903 C   0  0  0  0  0  0  0  0  0  0  0  0
  153.4620  131.2071  156.8022 H   0  0  0  0  0  0  0  0  0  0  0  0
  150.8922  145.6640  159.3542 H   0  0  0  0  0  0  0  0  0  0  0  0
  151.1247  145.0541  157.7154 H   0  0  0  0  0  0  0  0  0  0  0  0
  152.1024  144.4172  159.0503 H   0  0  0  0  0  0  0  0  0  0  0  0
  151.2676  142.1053  158.6234 H   0  0  0  0  0  0  0  0  0  0  0  0
  149.5367  141.8884  158.4739 H   0  0  0  0  0  0  0  0  0  0  0  0
  149.4624  143.3610  156.4772 H   0  0  0  0  0  0  0  0  0  0  0  0
  151.1626  143.6900  156.6513 H   0  0  0  0  0  0  0  0  0  0  0  0
  149.0965  140.6145  156.5271 H   0  0  0  0  0  0  0  0  0  0  0  0
  148.7688  141.6691  155.1736 H   0  0  0  0  0  0  0  0  0  0  0  0
  148.8703  139.3133  154.4377 H   0  0  0  0  0  0  0  0  0  0  0  0
  150.1147  140.2679  153.6644 H   0  0  0  0  0  0  0  0  0  0  0  0
  150.4767  138.4581  156.0900 H   0  0  0  0  0  0  0  0  0  0  0  0
  150.7592  138.0217  153.2052 H   0  0  0  0  0  0  0  0  0  0  0  0
  152.2538  137.6762  154.0330 H   0  0  0  0  0  0  0  0  0  0  0  0
  149.6633  136.3000  154.2296 H   0  0  0  0  0  0  0  0  0  0  0  0
  149.9638  134.4367  156.7854 H   0  0  0  0  0  0  0  0  0  0  0  0
  149.3801  134.4208  155.1637 H   0  0  0  0  0  0  0  0  0  0  0  0
  149.7308  133.3107  152.9786 H   0  0  0  0  0  0  0  0  0  0  0  0
  148.5773  132.5902  154.1129 H   0  0  0  0  0  0  0  0  0  0  0  0
  149.3683  131.5883  152.8991 H   0  0  0  0  0  0  0  0  0  0  0  0
  152.4229  128.4966  155.2123 H   0  0  0  0  0  0  0  0  0  0  0  0
  153.8418  129.3042  155.8877 H   0  0  0  0  0  0  0  0  0  0  0  0
  153.5861  129.2851  154.1391 H   0  0  0  0  0  0  0  0  0  0  0  0
  152.8581  139.1062  156.0523 H   0  0  0  0  0  0  0  0  0  0  0  0
  152.5933  140.1263  154.6580 H   0  0  0  0  0  0  0  0  0  0  0  0
  152.6536  141.4643  156.7043 H   0  0  0  0  0  0  0  0  0  0  0  0
  151.3937  140.5079  157.4449 H   0  0  0  0  0  0  0  0  0  0  0  0
  1  2  1  0  0  0  0
  1 26  1  0  0  0  0
  1 27  1  0  0  0  0
  1 28  1  0  0  0  0
  2  3  1  0  0  0  0
  3  4  1  0  0  0  0
  3 29  1  0  0  0  0
  3 30  1  0  0  0  0
  4  5  1  0  0  0  0
  4 31  1  0  0  0  0
  4 32  1  0  0  0  0
  5 24  1  0  0  0  0
  5  6  1  0  0  0  0
  6  7  1  0  0  0  0
  6 33  1  0  0  0  0
  6 34  1  0  0  0  0
  7  8  1  0  0  0  0
  7 35  1  0  0  0  0
  7 36  1  0  0  0  0
  8  9  1  0  0  0  0
  8 23  1  0  0  0  0
  8 37  1  0  0  0  0
  9 10  1  0  0  0  0
  9 38  1  0  0  0  0
  9 39  1  0  0  0  0
 10 11  1  0  0  0  0
 10 40  1  0  0  0  0
 11 12  2  0  0  0  0
 11 13  1  0  0  0  0
 13 14  1  0  0  0  0
 13 41  1  0  0  0  0
 13 42  1  0  0  0  0
 14 21  1  0  0  0  0
 14 15  2  0  0  0  0
 15 16  1  0  0  0  0
 15 17  1  0  0  0  0
 16 43  1  0  0  0  0
 16 44  1  0  0  0  0
 16 45  1  0  0  0  0
 17 18  2  0  0  0  0
 18 19  1  0  0  0  0
 18 20  1  0  0  0  0
 19 46  1  0  0  0  0
 19 47  1  0  0  0  0
 19 48  1  0  0  0  0
 20 25  1  0  0  0  0
 20 21  1  0  0  0  0
 21 22  2  0  0  0  0
 23 24  1  0  0  0  0
 23 49  1  0  0  0  0
 23 50  1  0  0  0  0
 24 51  1  0  0  0  0
 24 52  1  0  0  0  0
M  END
> <s_m_source_file>
AV-unprocessed.smi

> <i_m_source_file_index>
1041

> <i_lp_mmshare_version>
43012

> <i_f3d_flags>
0

> <s_epik_input>
W0NIM11PW0NIMl1bQ0gyXU4xW0NIMl1bQ0gyXVtDSF0oW0NIMl1bQ0gyXTEpW0NIMl1bTkhdQyg9TylbQ0gyXWMyYyhbQ0gzXSluYyhbQ0gzXSlbbkhdYzI9Tw==

> <s_epik_cmdline>
J2VwaWtfcHl0aG9uJywgJy1waCcsICc3LjAnLCAnLXRuJywgJzgnLCAnLW1hJywgJzIwMCcsICctbWV0YWxfYmluZGluZycsICctaW1hZScsICc8aW5maWxlLm1hZT4nLCAnLW9tYWUnLCAnPG91dGZpbGUubWFlPic=

> <r_lp_tautomer_probability>
0.839158

> <r_epik_Ionization_Penalty>
2.47116

> <r_epik_Ionization_Penalty_Charging>
0.00036358

> <r_epik_Ionization_Penalty_Neutral>
2.4708

> <r_epik_State_Penalty>
2.72392

> <r_epik_Charging_Adjusted_Penalty>
2.72428

> <i_epik_Tot_Q>
0

> <i_epik_Tot_abs_Q>
0

> <r_epik_Metal_State_Penalty>
2.89755

> <b_epik_Metal_Only>
0

> <s_lp_Force_Field>
OPLS_2005

> <r_lp_Energy>
27.3294

> <b_lp_Chiralities_Consistent>
1

> <s_lp_Variant>
AV-unprocessed.smi:1041-5

> <Gold.Version>
5.8.1

> <Gold.Id.Protein>
6NUR|6NUR_protein|mol2

> <Gold.PLP.Fitness>
48.4486

> <Gold.PLP.PLP>
-43.1866

> <Gold.PLP.part.hbond>
-3.5012

> <Gold.PLP.part.metal>
0.0000

> <Gold.PLP.part.buried>
-1.3172

> <Gold.PLP.part.nonpolar>
-38.4198

> <Gold.PLP.part.repulsive>
0.3233

> <Gold.PLP.ligand.clash>
0.0000

> <Gold.PLP.ligand.torsion>
1.1868

> <Gold.PLP.Chemscore.Hbond>
2.4379

> <Gold.PLP.Chemscore.CHOScore>
0.0000

> <Gold.PLP.Chemscore.Metal>
0.0000

> <Gold.Chemscore.Hbonds>
donor molecule, donor type, donor heavy atom, donor atom, acceptor molecule, acceptor atom, score
      P1  H  6896  6908       L1    22  0.18
      P1  H 10752 10765       L1    12  0.49

> <Gold.PLP.Chemscore.Internal.Correction>
0.3219

> <Gold.Rescore>
     Score         DG    S(hbond)    S(metal)    S(lipo)     H(rot)  DE(clash)    DE(int)     intcor
     15.20     -16.77       1.96        0.00      92.20       2.36       0.30       1.27       ----

> <Gold.Chemscore.Fitness>
15.1970

> <Gold.Chemscore.DG>
-16.7654

> <Gold.Chemscore.ZeroCoef>
-5.4800

> <Gold.Chemscore.Hbond>
1.9577

> <Gold.Chemscore.Metal>
0.0000

> <Gold.Chemscore.Lipo>
92.2038

> <Gold.Chemscore.Internal_Hbond>
0.0000

> <Gold.Chemscore.DEClash>
0.2967

> <Gold.Chemscore.DEInternal>
1.2717

> <Gold.Chemscore.Rot>
2.3598

> <Gold.Chemscore.Internal.Correction>
   9.000000E+99

> <Gold.Chemscore.Hbonds>
donor molecule, donor type, donor heavy atom, donor atom, acceptor molecule, acceptor atom, score
      L1  H    10    40       P1  7948  0.02
      P1  H  6896  6908       L1    22  0.17
      P1  H 10752 10765       L1    12  0.20

> <Gold.Chemscore.Hbond.Weighted>
-6.5386

> <Gold.Chemscore.Metal.Weighted>
-0.0000

> <Gold.Chemscore.Lipo.Weighted>
-10.7878

> <Gold.Chemscore.Internal_Hbond.Weighted>
0.0000

> <Gold.Chemscore.DEClash.Weighted>
0.2967

> <Gold.Chemscore.DEInternal.Weighted>
1.2717

> <Gold.Chemscore.Rot.Weighted>
6.0410

> <Gold.Chemscore.Internal.Correction.Weighted>
   9.000000E+99

> <Gold.Protein.RotatedTorsions>
[ 6907 6896 6895 6894 ] final   86.68 input  -60.11 | X-H torsion
[ 7974 7965 7964 7962 ] final  -63.81 input  175.53 | X-H torsion
[ 8008 7997 7996 7995 ] final   95.38 input   59.86 | X-H torsion
[ 10167 10162 10161 10158 ] final  161.49 input  -65.29 | X-H torsion
[ 10718 10713 10712 10709 ] final -176.37 input   66.30 | X-H torsion
[ 10763 10752 10751 10750 ] final -157.69 input  -60.55 | X-H torsion
[ 11005 11000 10999 10996 ] final  -64.22 input  -57.11 | X-H torsion

> <Gold.Protein.ActiveResidues>
 VAL166  LYS551  ARG553  GLY616  TRP617  ASP618  TYR619  PRO620  LYS621  CYS622 
 ASP623  PHE694  ASN695  SER759  ASP760  ASP761  ALA762  ILE779  LEU786  VAL792 
 PHE793  MET794  SER795  GLU796  ALA797  LYS798  CYS799  TRP800  GLU811  SER814 

> <Gold.Protein.RotatedAtoms>
  152.5398  134.2394  159.8855 H   0  0  0  0  0  0  0  0  0  0  0  0  # atno 6907 bound_to 6896
  151.2362  133.4417  159.2613 H   0  0  0  0  0  0  0  0  0  0  0  0  # atno 6908 bound_to 6896
  151.0669  134.9787  159.8345 H   0  0  0  0  0  0  0  0  0  0  0  0  # atno 6909 bound_to 6896
  145.7745  140.8795  143.0363 H   0  0  0  0  0  0  0  0  0  0  0  0  # atno 7974 bound_to 7965
  156.0683  140.3287  155.7544 H   0  0  0  0  0  0  0  0  0  0  0  0  # atno 8008 bound_to 7997
  155.5346  140.0596  157.2899 H   0  0  0  0  0  0  0  0  0  0  0  0  # atno 8009 bound_to 7997
  154.4516  140.1921  156.0518 H   0  0  0  0  0  0  0  0  0  0  0  0  # atno 8010 bound_to 7997
  139.4850  144.4532  151.8803 H   0  0  0  0  0  0  0  0  0  0  0  0  # atno 10167 bound_to 10162
  156.8136  130.9595  151.3115 H   0  0  0  0  0  0  0  0  0  0  0  0  # atno 10718 bound_to 10713
  154.7616  135.3119  154.8367 H   0  0  0  0  0  0  0  0  0  0  0  0  # atno 10763 bound_to 10752
  153.9127  135.6804  153.4754 H   0  0  0  0  0  0  0  0  0  0  0  0  # atno 10764 bound_to 10752
  153.1217  135.4819  154.9138 H   0  0  0  0  0  0  0  0  0  0  0  0  # atno 10765 bound_to 10752
  141.1418  133.6663  156.5800 H   0  0  0  0  0  0  0  0  0  0  0  0  # atno 11005 bound_to 11000
  144.6807  139.9901  143.7484 LP  0  0  0  0  0  0  0  0  0  0  0  0  # atno 17320 bound_to 7965
  146.0137  139.3191  143.0855 LP  0  0  0  0  0  0  0  0  0  0  0  0  # atno 17321 bound_to 7965
  140.3989  144.2518  150.5894 LP  0  0  0  0  0  0  0  0  0  0  0  0  # atno 17342 bound_to 10162
  140.5075  143.2300  151.8585 LP  0  0  0  0  0  0  0  0  0  0  0  0  # atno 17343 bound_to 10162
  157.6493  130.8871  149.9601 LP  0  0  0  0  0  0  0  0  0  0  0  0  # atno 17370 bound_to 10713
  156.1030  130.3654  150.0184 LP  0  0  0  0  0  0  0  0  0  0  0  0  # atno 17371 bound_to 10713
  140.3845  134.7494  157.4682 LP  0  0  0  0  0  0  0  0  0  0  0  0  # atno 17394 bound_to 11000
  140.0612  134.5992  155.8746 LP  0  0  0  0  0  0  0  0  0  0  0  0  # atno 17395 bound_to 11000

$$$$
