AV-unprocessed.smi:1752|AV-procd|sdf|7058|dock6
  -GOLD-   22720 8273D 1   1.00000     0.00000
 Structure written by MMmdl.
 43 44  0  0  0  0  0  0  0  0  2 V2000
  151.2507  142.4429  157.7605 C   0  0  0  0  0  0  0  0  0  0  0  0
  150.8970  141.1002  157.0994 C   0  0  2  0  0  0  0  0  0  0  0  0
  152.0602  140.4834  156.2967 C   0  0  0  0  0  0  0  0  0  0  0  0
  151.6368  139.3910  155.4390 N   0  0  0  0  0  0  0  0  0  0  0  0
  151.9480  138.0516  155.5435 C   0  0  0  0  0  0  0  0  0  0  0  0
  151.3228  137.4077  154.5145 C   0  0  0  0  0  0  0  0  0  0  0  0
  150.6418  138.4511  153.8272 C   0  0  0  0  0  0  0  0  0  0  0  0
  150.8297  139.6367  154.3843 N   0  0  0  0  0  0  0  0  0  0  0  0
  149.7527  141.2871  156.2110 N   0  0  0  0  0  0  0  0  0  0  0  0
  148.4990  140.8468  156.4195 C   0  0  0  0  0  0  0  0  0  0  0  0
  148.1670  140.2449  157.4415 O   0  0  0  0  0  0  0  0  0  0  0  0
  147.6199  141.1783  155.4402 N   0  0  0  0  0  0  0  0  0  0  0  0
  148.0212  141.7001  154.1141 C   0  0  0  0  0  0  0  0  0  0  0  0
  147.0696  141.3030  152.9609 C   0  0  0  0  0  0  0  0  0  0  0  0
  146.8765  139.7838  152.7620 C   0  0  0  0  0  0  0  0  0  0  0  0
  146.7118  138.9988  154.0153 N   0  3  2  0  0  0  0  0  0  0  0  0
  146.4611  137.5676  153.7363 C   0  0  0  0  0  0  0  0  0  0  0  0
  145.7451  139.5570  154.9991 C   0  0  0  0  0  0  0  0  0  0  0  0
  146.1814  140.9104  155.6098 C   0  0  0  0  0  0  0  0  0  0  0  0
  152.0640  142.3346  158.4784 H   0  0  0  0  0  0  0  0  0  0  0  0
  150.3957  142.8497  158.3017 H   0  0  0  0  0  0  0  0  0  0  0  0
  151.5579  143.1812  157.0189 H   0  0  0  0  0  0  0  0  0  0  0  0
  150.6399  140.4021  157.8978 H   0  0  0  0  0  0  0  0  0  0  0  0
  152.5260  141.2434  155.6677 H   0  0  0  0  0  0  0  0  0  0  0  0
  152.8375  140.1212  156.9725 H   0  0  0  0  0  0  0  0  0  0  0  0
  152.5833  137.6734  156.3308 H   0  0  0  0  0  0  0  0  0  0  0  0
  151.3480  136.3522  154.2868 H   0  0  0  0  0  0  0  0  0  0  0  0
  150.0208  138.3824  152.9462 H   0  0  0  0  0  0  0  0  0  0  0  0
  149.9294  141.7991  155.3590 H   0  0  0  0  0  0  0  0  0  0  0  0
  148.0875  142.7870  154.1768 H   0  0  0  0  0  0  0  0  0  0  0  0
  149.0161  141.3433  153.8418 H   0  0  0  0  0  0  0  0  0  0  0  0
  146.0994  141.7847  153.0776 H   0  0  0  0  0  0  0  0  0  0  0  0
  147.4606  141.7204  152.0324 H   0  0  0  0  0  0  0  0  0  0  0  0
  146.0181  139.6161  152.1099 H   0  0  0  0  0  0  0  0  0  0  0  0
  147.7458  139.3862  152.2363 H   0  0  0  0  0  0  0  0  0  0  0  0
  145.4895  137.4274  153.2605 H   0  0  0  0  0  0  0  0  0  0  0  0
  146.4795  136.9832  154.6568 H   0  0  0  0  0  0  0  0  0  0  0  0
  147.2280  137.1629  153.0747 H   0  0  0  0  0  0  0  0  0  0  0  0
  144.7538  139.6383  154.5510 H   0  0  0  0  0  0  0  0  0  0  0  0
  145.6524  138.8424  155.8182 H   0  0  0  0  0  0  0  0  0  0  0  0
  145.8937  140.9421  156.6623 H   0  0  0  0  0  0  0  0  0  0  0  0
  145.6080  141.7281  155.1739 H   0  0  0  0  0  0  0  0  0  0  0  0
  147.6086  139.0329  154.4790 H   0  0  0  0  0  0  0  0  0  0  0  0
  1  2  1  0  0  0  0
  1 20  1  0  0  0  0
  1 21  1  0  0  0  0
  1 22  1  0  0  0  0
  2  3  1  0  0  0  0
  2  9  1  0  0  0  0
  2 23  1  0  0  0  0
  3  4  1  0  0  0  0
  3 24  1  0  0  0  0
  3 25  1  0  0  0  0
  4  8  1  0  0  0  0
  4  5  1  0  0  0  0
  5  6  2  0  0  0  0
  5 26  1  0  0  0  0
  6  7  1  0  0  0  0
  6 27  1  0  0  0  0
  7  8  2  0  0  0  0
  7 28  1  0  0  0  0
  9 10  1  0  0  0  0
  9 29  1  0  0  0  0
 10 11  2  0  0  0  0
 10 12  1  0  0  0  0
 12 19  1  0  0  0  0
 12 13  1  0  0  0  0
 13 14  1  0  0  0  0
 13 30  1  0  0  0  0
 13 31  1  0  0  0  0
 14 15  1  0  0  0  0
 14 32  1  0  0  0  0
 14 33  1  0  0  0  0
 15 16  1  0  0  0  0
 15 34  1  0  0  0  0
 15 35  1  0  0  0  0
 16 17  1  0  0  0  0
 16 18  1  0  0  0  0
 16 43  1  0  0  0  0
 17 36  1  0  0  0  0
 17 37  1  0  0  0  0
 17 38  1  0  0  0  0
 18 19  1  0  0  0  0
 18 39  1  0  0  0  0
 18 40  1  0  0  0  0
 19 41  1  0  0  0  0
 19 42  1  0  0  0  0
M  CHG  1  16   1
M  END
> <s_m_source_file>
AV-unprocessed.smi

> <i_m_source_file_index>
1752

> <i_lp_mmshare_version>
43012

> <i_f3d_flags>
0

> <s_epik_input>
bjFbY0hdW2NIXVtjSF1uMVtDSDJdW0NAQEhdKFtDSDNdKVtOSF1DKD1PKU4yW0NIMl1bQ0gyXVtDSDJdTihbQ0gzXSlbQ0gyXVtDSDJdMg==

> <s_epik_cmdline>
J2VwaWtfcHl0aG9uJywgJy1waCcsICc3LjAnLCAnLXRuJywgJzgnLCAnLW1hJywgJzIwMCcsICctbWV0YWxfYmluZGluZycsICctaW1hZScsICc8aW5maWxlLm1hZT4nLCAnLW9tYWUnLCAnPG91dGZpbGUubWFlPic=

> <r_lp_tautomer_probability>
1

> <r_epik_Ionization_Penalty>
0.00208423

> <r_epik_Ionization_Penalty_Charging>
0.00203643

> <r_epik_Ionization_Penalty_Neutral>
4.77939e-05

> <r_epik_State_Penalty>
0.00139278

> <r_epik_Charging_Adjusted_Penalty>
0.00342922

> <i_epik_Tot_Q>
1

> <i_epik_Tot_abs_Q>
1

> <r_epik_Metal_State_Penalty>
-0

> <b_epik_Metal_Only>
0

> <s_lp_Force_Field>
OPLS_2005

> <r_lp_Energy>
46.8375

> <b_lp_Chiralities_Consistent>
1

> <s_lp_Variant>
AV-unprocessed.smi:1752-1

> <Gold.Version>
5.8.1

> <Gold.Id.Protein>
6NUR|6NUR_protein|mol2

> <Gold.PLP.Fitness>
34.8640

> <Gold.PLP.PLP>
-26.4101

> <Gold.PLP.part.hbond>
-1.0000

> <Gold.PLP.part.metal>
0.0000

> <Gold.PLP.part.buried>
-4.1621

> <Gold.PLP.part.nonpolar>
-21.9513

> <Gold.PLP.part.repulsive>
0.1992

> <Gold.PLP.ligand.clash>
0.0000

> <Gold.PLP.ligand.torsion>
0.2775

> <Gold.PLP.Chemscore.Hbond>
1.0000

> <Gold.PLP.Chemscore.CHOScore>
1.9650

> <Gold.PLP.Chemscore.Metal>
0.0000

> <Gold.Chemscore.Hbonds>
donor molecule, donor type, donor heavy atom, donor atom, acceptor molecule, acceptor atom, score
      P1  H  7989  7998       L1     8  1.00
      L1  C     7    28       P1  7948  0.84
      L1  C     7    28       P1  7957  1.00

> <Gold.PLP.Chemscore.Internal.Correction>
0.1139

> <Gold.Rescore>
     Score         DG    S(hbond)    S(metal)    S(lipo)     H(rot)  DE(clash)    DE(int)     intcor
     12.16     -12.66       0.81        0.00      69.32       1.41       0.15       0.35       ----

> <Gold.Chemscore.Fitness>
12.1645

> <Gold.Chemscore.DG>
-12.6642

> <Gold.Chemscore.ZeroCoef>
-5.4800

> <Gold.Chemscore.Hbond>
0.8053

> <Gold.Chemscore.Metal>
0.0000

> <Gold.Chemscore.Lipo>
69.3212

> <Gold.Chemscore.Internal_Hbond>
0.0000

> <Gold.Chemscore.DEClash>
0.1461

> <Gold.Chemscore.DEInternal>
0.3537

> <Gold.Chemscore.Rot>
1.4125

> <Gold.Chemscore.Internal.Correction>
   9.000000E+99

> <Gold.Chemscore.Hbonds>
donor molecule, donor type, donor heavy atom, donor atom, acceptor molecule, acceptor atom, score
      P1  H  7989  7998       L1     8  0.48

> <Gold.Chemscore.Hbond.Weighted>
-2.6896

> <Gold.Chemscore.Metal.Weighted>
-0.0000

> <Gold.Chemscore.Lipo.Weighted>
-8.1106

> <Gold.Chemscore.Internal_Hbond.Weighted>
0.0000

> <Gold.Chemscore.DEClash.Weighted>
0.1461

> <Gold.Chemscore.DEInternal.Weighted>
0.3537

> <Gold.Chemscore.Rot.Weighted>
3.6160

> <Gold.Chemscore.Internal.Correction.Weighted>
   9.000000E+99

> <Gold.Protein.RotatedTorsions>
[ 6907 6896 6895 6894 ] final -169.64 input  -60.11 | X-H torsion
[ 7974 7965 7964 7962 ] final  -52.26 input  175.53 | X-H torsion
[ 8008 7997 7996 7995 ] final  -95.56 input   59.86 | X-H torsion
[ 10167 10162 10161 10158 ] final  -83.55 input  -65.29 | X-H torsion
[ 10718 10713 10712 10709 ] final  -76.10 input   66.30 | X-H torsion
[ 10763 10752 10751 10750 ] final  116.66 input  -60.55 | X-H torsion
[ 11005 11000 10999 10996 ] final   42.54 input  -57.11 | X-H torsion

> <Gold.Protein.ActiveResidues>
 VAL166  LYS551  ARG553  GLY616  TRP617  ASP618  TYR619  PRO620  LYS621  CYS622 
 ASP623  PHE694  ASN695  SER759  ASP760  ASP761  ALA762  ILE779  LEU786  VAL792 
 PHE793  MET794  SER795  GLU796  ALA797  LYS798  CYS799  TRP800  GLU811  SER814 

> <Gold.Protein.RotatedAtoms>
  151.4949  133.3517  159.2859 H   0  0  0  0  0  0  0  0  0  0  0  0  # atno 6907 bound_to 6896
  150.8811  134.8204  159.7236 H   0  0  0  0  0  0  0  0  0  0  0  0  # atno 6908 bound_to 6896
  152.4763  134.4846  159.9728 H   0  0  0  0  0  0  0  0  0  0  0  0  # atno 6909 bound_to 6896
  145.9099  140.7923  142.9700 H   0  0  0  0  0  0  0  0  0  0  0  0  # atno 7974 bound_to 7965
  154.7629  140.0479  157.0988 H   0  0  0  0  0  0  0  0  0  0  0  0  # atno 8008 bound_to 7997
  154.9915  140.3114  155.4885 H   0  0  0  0  0  0  0  0  0  0  0  0  # atno 8009 bound_to 7997
  156.2907  140.2218  156.5020 H   0  0  0  0  0  0  0  0  0  0  0  0  # atno 8010 bound_to 7997
  140.4216  143.2582  151.8882 H   0  0  0  0  0  0  0  0  0  0  0  0  # atno 10167 bound_to 10162
  156.0186  130.4457  150.3142 H   0  0  0  0  0  0  0  0  0  0  0  0  # atno 10718 bound_to 10713
  153.5407  135.3559  155.2717 H   0  0  0  0  0  0  0  0  0  0  0  0  # atno 10763 bound_to 10752
  154.8718  135.4090  154.3048 H   0  0  0  0  0  0  0  0  0  0  0  0  # atno 10764 bound_to 10752
  153.3754  135.7066  153.6674 H   0  0  0  0  0  0  0  0  0  0  0  0  # atno 10765 bound_to 10752
  140.1729  134.4199  155.8246 H   0  0  0  0  0  0  0  0  0  0  0  0  # atno 11005 bound_to 11000
  144.6742  140.1810  143.7406 LP  0  0  0  0  0  0  0  0  0  0  0  0  # atno 17320 bound_to 7965
  145.8684  139.2259  143.1675 LP  0  0  0  0  0  0  0  0  0  0  0  0  # atno 17321 bound_to 7965
  139.4783  144.5431  151.8498 LP  0  0  0  0  0  0  0  0  0  0  0  0  # atno 17342 bound_to 10162
  140.4527  144.1832  150.5899 LP  0  0  0  0  0  0  0  0  0  0  0  0  # atno 17343 bound_to 10162
  157.1243  131.0255  151.2996 LP  0  0  0  0  0  0  0  0  0  0  0  0  # atno 17370 bound_to 10713
  157.4602  130.7649  149.7229 LP  0  0  0  0  0  0  0  0  0  0  0  0  # atno 17371 bound_to 10713
  141.2218  133.6964  156.7796 LP  0  0  0  0  0  0  0  0  0  0  0  0  # atno 17394 bound_to 11000
  140.2356  134.8652  157.3521 LP  0  0  0  0  0  0  0  0  0  0  0  0  # atno 17395 bound_to 11000

$$$$
