AV-unprocessed.smi:658|AV-procd|sdf|3231|dock6
  -GOLD-   22720 0173D 1   1.00000     0.00000
 Structure written by MMmdl.
 38 38  0  0  0  0  0  0  0  0  2 V2000
  146.7721  139.1619  152.6020 C   0  0  0  0  0  0  0  0  0  0  0  0
  147.8029  139.5363  153.6827 C   0  0  1  0  0  0  0  0  0  0  0  0
  149.0695  138.8247  153.3964 N   0  3  0  0  0  0  0  0  0  0  0  0
  149.6634  138.1209  154.5518 C   0  0  0  0  0  0  0  0  0  0  0  0
  150.9829  137.4437  154.1636 C   0  0  0  0  0  0  0  0  0  0  0  0
  152.0420  137.5439  155.2689 C   0  0  0  0  0  0  0  0  0  0  0  0
  152.8653  139.1903  155.2333 S   0  0  0  0  0  0  0  0  0  0  0  0
  154.2865  138.8833  154.3149 N   0  0  0  0  0  0  0  0  0  0  0  0
  152.0233  140.1161  154.4610 O   0  0  0  0  0  0  0  0  0  0  0  0
  153.2810  139.5321  156.6017 O   0  0  0  0  0  0  0  0  0  0  0  0
  148.0472  141.0658  153.7860 C   0  0  2  0  0  0  0  0  0  0  0  0
  149.2795  141.4279  154.6357 C   0  0  0  0  0  0  0  0  0  0  0  0
  146.8748  141.7656  154.2968 N   0  0  0  0  0  0  0  0  0  0  0  0
  146.1322  142.7619  153.6941 C   0  0  0  0  0  0  0  0  0  0  0  0
  145.1391  143.1134  154.5624 C   0  0  0  0  0  0  0  0  0  0  0  0
  145.3596  142.2704  155.6869 C   0  0  0  0  0  0  0  0  0  0  0  0
  146.3994  141.4679  155.5259 N   0  0  0  0  0  0  0  0  0  0  0  0
  145.7854  139.5705  152.8217 H   0  0  0  0  0  0  0  0  0  0  0  0
  146.6581  138.0798  152.5284 H   0  0  0  0  0  0  0  0  0  0  0  0
  147.0741  139.5314  151.6214 H   0  0  0  0  0  0  0  0  0  0  0  0
  147.4038  139.1839  154.6355 H   0  0  0  0  0  0  0  0  0  0  0  0
  148.8876  138.1385  152.6780 H   0  0  0  0  0  0  0  0  0  0  0  0
  149.8349  138.8279  155.3640 H   0  0  0  0  0  0  0  0  0  0  0  0
  148.9553  137.3763  154.9174 H   0  0  0  0  0  0  0  0  0  0  0  0
  150.8003  136.3934  153.9325 H   0  0  0  0  0  0  0  0  0  0  0  0
  151.3706  137.8983  153.2511 H   0  0  0  0  0  0  0  0  0  0  0  0
  151.5920  137.4110  156.2530 H   0  0  0  0  0  0  0  0  0  0  0  0
  152.8077  136.7778  155.1444 H   0  0  0  0  0  0  0  0  0  0  0  0
  154.1891  139.1319  153.3307 H   0  0  0  0  0  0  0  0  0  0  0  0
  154.6793  137.9572  154.4816 H   0  0  0  0  0  0  0  0  0  0  0  0
  148.2320  141.4409  152.7773 H   0  0  0  0  0  0  0  0  0  0  0  0
  150.1984  141.0467  154.1905 H   0  0  0  0  0  0  0  0  0  0  0  0
  149.2044  141.0218  155.6449 H   0  0  0  0  0  0  0  0  0  0  0  0
  149.3911  142.5094  154.7208 H   0  0  0  0  0  0  0  0  0  0  0  0
  146.3686  143.1339  152.7082 H   0  0  0  0  0  0  0  0  0  0  0  0
  144.3723  143.8598  154.4171 H   0  0  0  0  0  0  0  0  0  0  0  0
  144.7997  142.2190  156.6090 H   0  0  0  0  0  0  0  0  0  0  0  0
  149.7376  139.4918  153.0372 H   0  0  0  0  0  0  0  0  0  0  0  0
  1  2  1  0  0  0  0
  1 18  1  0  0  0  0
  1 19  1  0  0  0  0
  1 20  1  0  0  0  0
  2  3  1  0  0  0  0
  2 11  1  0  0  0  0
  2 21  1  0  0  0  0
  3  4  1  0  0  0  0
  3 22  1  0  0  0  0
  3 38  1  0  0  0  0
  4  5  1  0  0  0  0
  4 23  1  0  0  0  0
  4 24  1  0  0  0  0
  5  6  1  0  0  0  0
  5 25  1  0  0  0  0
  5 26  1  0  0  0  0
  6  7  1  0  0  0  0
  6 27  1  0  0  0  0
  6 28  1  0  0  0  0
  7  8  1  0  0  0  0
  7  9  2  0  0  0  0
  7 10  2  0  0  0  0
  8 29  1  0  0  0  0
  8 30  1  0  0  0  0
 11 12  1  0  0  0  0
 11 13  1  0  0  0  0
 11 31  1  0  0  0  0
 12 32  1  0  0  0  0
 12 33  1  0  0  0  0
 12 34  1  0  0  0  0
 13 17  1  0  0  0  0
 13 14  1  0  0  0  0
 14 15  2  0  0  0  0
 14 35  1  0  0  0  0
 15 16  1  0  0  0  0
 15 36  1  0  0  0  0
 16 17  2  0  0  0  0
 16 37  1  0  0  0  0
M  CHG  1   3   1
M  END
> <s_m_source_file>
AV-unprocessed.smi

> <i_m_source_file_index>
658

> <i_lp_mmshare_version>
43012

> <i_f3d_flags>
0

> <s_epik_input>
bjFbY0hdW2NIXVtjSF1uMVtDQEBIXShbQ0gzXSlbQ0BIXShbQ0gzXSlbTkhdW0NIMl1bQ0gyXVtDSDJdUyg9TykoPU8pW05IMl0=

> <s_epik_cmdline>
J2VwaWtfcHl0aG9uJywgJy1waCcsICc3LjAnLCAnLXRuJywgJzgnLCAnLW1hJywgJzIwMCcsICctbWV0YWxfYmluZGluZycsICctaW1hZScsICc8aW5maWxlLm1hZT4nLCAnLW9tYWUnLCAnPG91dGZpbGUubWFlPic=

> <r_lp_tautomer_probability>
1

> <r_epik_Ionization_Penalty>
0.00535781

> <r_epik_Ionization_Penalty_Charging>
0.00511015

> <r_epik_Ionization_Penalty_Neutral>
0.000247661

> <r_epik_State_Penalty>
-0

> <r_epik_Charging_Adjusted_Penalty>
0.00511015

> <i_epik_Tot_Q>
1

> <i_epik_Tot_abs_Q>
1

> <r_epik_Metal_State_Penalty>
0.149106

> <b_epik_Metal_Only>
0

> <s_lp_Force_Field>
OPLS_2005

> <r_lp_Energy>
8.89673

> <b_lp_Chiralities_Consistent>
1

> <s_lp_Variant>
AV-unprocessed.smi:658-2

> <Gold.Version>
5.8.1

> <Gold.Id.Protein>
6NUR|6NUR_protein|mol2

> <Gold.PLP.Fitness>
44.9294

> <Gold.PLP.PLP>
-34.9107

> <Gold.PLP.part.hbond>
-4.7929

> <Gold.PLP.part.metal>
0.0000

> <Gold.PLP.part.buried>
-2.6758

> <Gold.PLP.part.nonpolar>
-27.5440

> <Gold.PLP.part.repulsive>
0.2304

> <Gold.PLP.ligand.clash>
0.0000

> <Gold.PLP.ligand.torsion>
1.6744

> <Gold.PLP.Chemscore.Hbond>
4.3533

> <Gold.PLP.Chemscore.CHOScore>
0.0000

> <Gold.PLP.Chemscore.Metal>
0.0000

> <Gold.Chemscore.Hbonds>
donor molecule, donor type, donor heavy atom, donor atom, acceptor molecule, acceptor atom, score
      L1  H     3    22       P1  7948  1.95
      L1  H     3    38       P1  7957  0.38
      P1  H  7989  7998       L1     9  0.27
      P1  H  7997  8009       L1    10  0.45
      P1  H  7997  8010       L1     8  0.29

> <Gold.PLP.Chemscore.Internal.Correction>
0.3076

> <Gold.Rescore>
     Score         DG    S(hbond)    S(metal)    S(lipo)     H(rot)  DE(clash)    DE(int)     intcor
     11.84     -13.93       2.73        0.00      62.75       3.13       0.32       1.76       ----

> <Gold.Chemscore.Fitness>
11.8418

> <Gold.Chemscore.DG>
-13.9290

> <Gold.Chemscore.ZeroCoef>
-5.4800

> <Gold.Chemscore.Hbond>
2.7313

> <Gold.Chemscore.Metal>
0.0000

> <Gold.Chemscore.Lipo>
62.7547

> <Gold.Chemscore.Internal_Hbond>
0.0000

> <Gold.Chemscore.DEClash>
0.3222

> <Gold.Chemscore.DEInternal>
1.7649

> <Gold.Chemscore.Rot>
3.1312

> <Gold.Chemscore.Internal.Correction>
   9.000000E+99

> <Gold.Chemscore.Hbonds>
donor molecule, donor type, donor heavy atom, donor atom, acceptor molecule, acceptor atom, score
      L1  H     3    22       P1  7948  0.89
      L1  H     3    38       P1  7957  0.37
      P1  H  7989  7998       L1     9  0.26
      P1  H  7997  8009       L1    10  0.44
      P1  H  7997  8010       L1     8  0.01

> <Gold.Chemscore.Hbond.Weighted>
-9.1226

> <Gold.Chemscore.Metal.Weighted>
-0.0000

> <Gold.Chemscore.Lipo.Weighted>
-7.3423

> <Gold.Chemscore.Internal_Hbond.Weighted>
0.0000

> <Gold.Chemscore.DEClash.Weighted>
0.3222

> <Gold.Chemscore.DEInternal.Weighted>
1.7649

> <Gold.Chemscore.Rot.Weighted>
8.0160

> <Gold.Chemscore.Internal.Correction.Weighted>
   9.000000E+99

> <Gold.Protein.RotatedTorsions>
[ 6907 6896 6895 6894 ] final   53.54 input  -60.11 | X-H torsion
[ 7974 7965 7964 7962 ] final   51.79 input  175.53 | X-H torsion
[ 8008 7997 7996 7995 ] final  158.53 input   59.86 | X-H torsion
[ 10167 10162 10161 10158 ] final   50.34 input  -65.29 | X-H torsion
[ 10718 10713 10712 10709 ] final -148.96 input   66.30 | X-H torsion
[ 10763 10752 10751 10750 ] final  121.41 input  -60.55 | X-H torsion
[ 11005 11000 10999 10996 ] final   51.55 input  -57.11 | X-H torsion

> <Gold.Protein.ActiveResidues>
 VAL166  LYS551  ARG553  GLY616  TRP617  ASP618  TYR619  PRO620  LYS621  CYS622 
 ASP623  PHE694  ASN695  SER759  ASP760  ASP761  ALA762  ILE779  LEU786  VAL792 
 PHE793  MET794  SER795  GLU796  ALA797  LYS798  CYS799  TRP800  GLU811  SER814 

> <Gold.Protein.RotatedAtoms>
  152.3347  134.7213  160.0279 H   0  0  0  0  0  0  0  0  0  0  0  0  # atno 6907 bound_to 6896
  151.7618  133.3329  159.3428 H   0  0  0  0  0  0  0  0  0  0  0  0  # atno 6908 bound_to 6896
  150.7444  134.6031  159.6091 H   0  0  0  0  0  0  0  0  0  0  0  0  # atno 6909 bound_to 6896
  145.9878  139.4307  143.0092 H   0  0  0  0  0  0  0  0  0  0  0  0  # atno 7974 bound_to 7965
  156.2297  140.1856  156.7274 H   0  0  0  0  0  0  0  0  0  0  0  0  # atno 8008 bound_to 7997
  154.6001  140.0637  156.9384 H   0  0  0  0  0  0  0  0  0  0  0  0  # atno 8009 bound_to 7997
  155.2189  140.3306  155.4321 H   0  0  0  0  0  0  0  0  0  0  0  0  # atno 8010 bound_to 7997
  140.2734  144.3239  150.6284 H   0  0  0  0  0  0  0  0  0  0  0  0  # atno 10167 bound_to 10162
  156.4269  130.8056  151.2282 H   0  0  0  0  0  0  0  0  0  0  0  0  # atno 10718 bound_to 10713
  153.6137  135.3426  155.2987 H   0  0  0  0  0  0  0  0  0  0  0  0  # atno 10763 bound_to 10752
  154.8613  135.4256  154.2282 H   0  0  0  0  0  0  0  0  0  0  0  0  # atno 10764 bound_to 10752
  153.3138  135.7033  153.7163 H   0  0  0  0  0  0  0  0  0  0  0  0  # atno 10765 bound_to 10752
  140.0923  134.5192  155.8840 H   0  0  0  0  0  0  0  0  0  0  0  0  # atno 11005 bound_to 11000
  145.7675  140.9910  143.1167 LP  0  0  0  0  0  0  0  0  0  0  0  0  # atno 17320 bound_to 7965
  144.6880  139.9406  143.7475 LP  0  0  0  0  0  0  0  0  0  0  0  0  # atno 17321 bound_to 7965
  140.5871  143.2169  151.7322 LP  0  0  0  0  0  0  0  0  0  0  0  0  # atno 17342 bound_to 10162
  139.4982  144.3995  152.0196 LP  0  0  0  0  0  0  0  0  0  0  0  0  # atno 17343 bound_to 10162
  157.7508  131.0210  150.3734 LP  0  0  0  0  0  0  0  0  0  0  0  0  # atno 17370 bound_to 10713
  156.4063  130.3925  149.6923 LP  0  0  0  0  0  0  0  0  0  0  0  0  # atno 17371 bound_to 10713
  141.2081  133.6671  156.6352 LP  0  0  0  0  0  0  0  0  0  0  0  0  # atno 17394 bound_to 11000
  140.3335  134.7909  157.4344 LP  0  0  0  0  0  0  0  0  0  0  0  0  # atno 17395 bound_to 11000

$$$$
