AV-unprocessed.smi:2954|AV-procd|sdf|11297|dock9
  -GOLD-   2272016193D 1   1.00000     0.00000
 Structure written by MMmdl.
 42 44  0  0  0  0  0  0  0  0  1 V2000
  151.1103  138.6077  159.0791 C   0  0  0  0  0  0  0  0  0  0  0  0
  152.4381  139.3214  159.3949 C   0  0  2  0  0  0  0  0  0  0  0  0
  153.0874  138.8387  160.6160 N   0  0  0  0  0  0  0  0  0  0  0  0
  153.3216  137.5612  160.9490 C   0  0  0  0  0  0  0  0  0  0  0  0
  153.0073  136.6136  160.2331 O   0  0  0  0  0  0  0  0  0  0  0  0
  152.3002  140.8251  159.4462 C   0  0  0  0  0  0  0  0  0  0  0  0
  152.4822  141.5150  160.5756 N   0  0  0  0  0  0  0  0  0  0  0  0
  152.2474  142.8179  160.1870 C   0  0  0  0  0  0  0  0  0  0  0  0
  152.2738  144.0175  160.9335 C   0  0  0  0  0  0  0  0  0  0  0  0
  151.9853  145.2505  160.3130 C   0  0  0  0  0  0  0  0  0  0  0  0
  151.6678  145.3009  158.9404 C   0  0  0  0  0  0  0  0  0  0  0  0
  151.6398  144.1173  158.1783 C   0  0  0  0  0  0  0  0  0  0  0  0
  151.9298  142.8886  158.8025 C   0  0  0  0  0  0  0  0  0  0  0  0
  151.9844  141.5716  158.3542 N   0  0  0  0  0  0  0  0  0  0  0  0
  151.7258  141.1301  156.9899 C   0  0  0  0  0  0  0  0  0  0  0  0
  150.2338  141.2117  156.6379 C   0  0  0  0  0  0  0  0  0  0  0  0
  149.8847  140.0615  155.8800 O   0  0  0  0  0  0  0  0  0  0  0  0
  148.9009  140.1733  154.9216 C   0  0  0  0  0  0  0  0  0  0  0  0
  148.4505  141.4090  154.3918 C   0  0  0  0  0  0  0  0  0  0  0  0
  147.4388  141.4387  153.4123 C   0  0  0  0  0  0  0  0  0  0  0  0
  146.8652  140.2394  152.9520 C   0  0  0  0  0  0  0  0  0  0  0  0
  147.3041  139.0086  153.4732 C   0  0  0  0  0  0  0  0  0  0  0  0
  148.3164  138.9759  154.4524 C   0  0  0  0  0  0  0  0  0  0  0  0
  148.8448  137.4521  155.0724 Cl  0  0  0  0  0  0  0  0  0  0  0  0
  150.7265  138.9220  158.1080 H   0  0  0  0  0  0  0  0  0  0  0  0
  150.3399  138.8268  159.8190 H   0  0  0  0  0  0  0  0  0  0  0  0
  151.2437  137.5261  159.0453 H   0  0  0  0  0  0  0  0  0  0  0  0
  153.1203  139.0474  158.5936 H   0  0  0  0  0  0  0  0  0  0  0  0
  153.3904  139.5466  161.2688 H   0  0  0  0  0  0  0  0  0  0  0  0
  153.8251  137.4715  161.9235 H   0  0  0  0  0  0  0  0  0  0  0  0
  152.5130  143.9882  161.9863 H   0  0  0  0  0  0  0  0  0  0  0  0
  152.0059  146.1611  160.8933 H   0  0  0  0  0  0  0  0  0  0  0  0
  151.4446  146.2488  158.4728 H   0  0  0  0  0  0  0  0  0  0  0  0
  151.3913  144.1543  157.1282 H   0  0  0  0  0  0  0  0  0  0  0  0
  152.2965  141.7603  156.3073 H   0  0  0  0  0  0  0  0  0  0  0  0
  152.1114  140.1205  156.8505 H   0  0  0  0  0  0  0  0  0  0  0  0
  149.6407  141.2584  157.5524 H   0  0  0  0  0  0  0  0  0  0  0  0
  150.0397  142.1175  156.0616 H   0  0  0  0  0  0  0  0  0  0  0  0
  148.8641  142.3497  154.7221 H   0  0  0  0  0  0  0  0  0  0  0  0
  147.1025  142.3844  153.0139 H   0  0  0  0  0  0  0  0  0  0  0  0
  146.0896  140.2633  152.2007 H   0  0  0  0  0  0  0  0  0  0  0  0
  146.8640  138.0875  153.1200 H   0  0  0  0  0  0  0  0  0  0  0  0
  1  2  1  0  0  0  0
  1 25  1  0  0  0  0
  1 26  1  0  0  0  0
  1 27  1  0  0  0  0
  2  3  1  0  0  0  0
  2  6  1  0  0  0  0
  2 28  1  0  0  0  0
  3  4  1  0  0  0  0
  3 29  1  0  0  0  0
  4  5  2  0  0  0  0
  4 30  1  0  0  0  0
  6 14  1  0  0  0  0
  6  7  2  0  0  0  0
  7  8  1  0  0  0  0
  8 13  2  0  0  0  0
  8  9  1  0  0  0  0
  9 10  2  0  0  0  0
  9 31  1  0  0  0  0
 10 11  1  0  0  0  0
 10 32  1  0  0  0  0
 11 12  2  0  0  0  0
 11 33  1  0  0  0  0
 12 13  1  0  0  0  0
 12 34  1  0  0  0  0
 13 14  1  0  0  0  0
 14 15  1  0  0  0  0
 15 16  1  0  0  0  0
 15 35  1  0  0  0  0
 15 36  1  0  0  0  0
 16 17  1  0  0  0  0
 16 37  1  0  0  0  0
 16 38  1  0  0  0  0
 17 18  1  0  0  0  0
 18 23  1  0  0  0  0
 18 19  2  0  0  0  0
 19 20  1  0  0  0  0
 19 39  1  0  0  0  0
 20 21  2  0  0  0  0
 20 40  1  0  0  0  0
 21 22  1  0  0  0  0
 21 41  1  0  0  0  0
 22 23  2  0  0  0  0
 22 42  1  0  0  0  0
 23 24  1  0  0  0  0
M  END
> <s_m_source_file>
AV-unprocessed.smi

> <i_m_source_file_index>
2954

> <i_lp_mmshare_version>
43012

> <i_f3d_flags>
0

> <s_epik_input>
Tz1bQ0hdW05IXVtDQEBIXShbQ0gzXSljKG4xKW4oYyhjMTIpW2NIXVtjSF1bY0hdW2NIXTIpW0NIMl1bQ0gyXU9jM1tjSF1bY0hdW2NIXVtjSF1jM0Ns

> <s_epik_cmdline>
J2VwaWtfcHl0aG9uJywgJy1waCcsICc3LjAnLCAnLXRuJywgJzgnLCAnLW1hJywgJzIwMCcsICctbWV0YWxfYmluZGluZycsICctaW1hZScsICc8aW5maWxlLm1hZT4nLCAnLW9tYWUnLCAnPG91dGZpbGUubWFlPic=

> <r_lp_tautomer_probability>
1

> <r_epik_Ionization_Penalty>
0.0861383

> <r_epik_Ionization_Penalty_Charging>
0

> <r_epik_Ionization_Penalty_Neutral>
0.0861383

> <r_epik_State_Penalty>
0.0766841

> <r_epik_Charging_Adjusted_Penalty>
0.0766841

> <i_epik_Tot_Q>
0

> <i_epik_Tot_abs_Q>
0

> <r_epik_Metal_State_Penalty>
0.0668745

> <b_epik_Metal_Only>
0

> <s_lp_Force_Field>
OPLS_2005

> <r_lp_Energy>
13.8103

> <b_lp_Chiralities_Consistent>
1

> <s_lp_Variant>
AV-unprocessed.smi:2954-1

> <Gold.Version>
5.8.1

> <Gold.Id.Protein>
6NUR|6NUR_protein|mol2

> <Gold.PLP.Fitness>
48.6285

> <Gold.PLP.PLP>
-47.7465

> <Gold.PLP.part.hbond>
-1.0000

> <Gold.PLP.part.metal>
0.0000

> <Gold.PLP.part.buried>
-6.9445

> <Gold.PLP.part.nonpolar>
-40.1163

> <Gold.PLP.part.repulsive>
0.0739

> <Gold.PLP.ligand.clash>
0.0000

> <Gold.PLP.ligand.torsion>
1.1103

> <Gold.PLP.Chemscore.Hbond>
1.0000

> <Gold.PLP.Chemscore.CHOScore>
0.0000

> <Gold.PLP.Chemscore.Metal>
0.0000

> <Gold.Chemscore.Hbonds>
donor molecule, donor type, donor heavy atom, donor atom, acceptor molecule, acceptor atom, score
      P1  H  6896  6908       L1     5  1.00

> <Gold.PLP.Chemscore.Internal.Correction>
0.1026

> <Gold.Rescore>
     Score         DG    S(hbond)    S(metal)    S(lipo)     H(rot)  DE(clash)    DE(int)     intcor
     15.82     -18.72       0.99        0.00     134.78       2.28       0.66       2.25       ----

> <Gold.Chemscore.Fitness>
15.8154

> <Gold.Chemscore.DG>
-18.7186

> <Gold.Chemscore.ZeroCoef>
-5.4800

> <Gold.Chemscore.Hbond>
0.9937

> <Gold.Chemscore.Metal>
0.0000

> <Gold.Chemscore.Lipo>
134.7768

> <Gold.Chemscore.Internal_Hbond>
0.0000

> <Gold.Chemscore.DEClash>
0.6551

> <Gold.Chemscore.DEInternal>
2.2481

> <Gold.Chemscore.Rot>
2.2849

> <Gold.Chemscore.Internal.Correction>
   9.000000E+99

> <Gold.Chemscore.Hbonds>
donor molecule, donor type, donor heavy atom, donor atom, acceptor molecule, acceptor atom, score
      P1  H  6896  6908       L1     5  1.00

> <Gold.Chemscore.Hbond.Weighted>
-3.3191

> <Gold.Chemscore.Metal.Weighted>
-0.0000

> <Gold.Chemscore.Lipo.Weighted>
-15.7689

> <Gold.Chemscore.Internal_Hbond.Weighted>
0.0000

> <Gold.Chemscore.DEClash.Weighted>
0.6551

> <Gold.Chemscore.DEInternal.Weighted>
2.2481

> <Gold.Chemscore.Rot.Weighted>
5.8495

> <Gold.Chemscore.Internal.Correction.Weighted>
   9.000000E+99

> <Gold.Protein.RotatedTorsions>
[ 6907 6896 6895 6894 ] final  -88.89 input  -60.11 | X-H torsion
[ 7974 7965 7964 7962 ] final  119.75 input  175.53 | X-H torsion
[ 8008 7997 7996 7995 ] final  -41.77 input   59.86 | X-H torsion
[ 10167 10162 10161 10158 ] final -119.39 input  -65.29 | X-H torsion
[ 10718 10713 10712 10709 ] final  -77.62 input   66.30 | X-H torsion
[ 10763 10752 10751 10750 ] final -129.52 input  -60.55 | X-H torsion
[ 11005 11000 10999 10996 ] final   16.51 input  -57.11 | X-H torsion

> <Gold.Protein.ActiveResidues>
 VAL166  LYS551  ARG553  GLY616  TRP617  ASP618  TYR619  PRO620  LYS621  CYS622 
 ASP623  PHE694  ASN695  SER759  ASP760  ASP761  ALA762  ILE779  LEU786  VAL792 
 PHE793  MET794  SER795  GLU796  ALA797  LYS798  CYS799  TRP800  GLU811  SER814 

> <Gold.Protein.RotatedAtoms>
  150.6871  134.2672  159.4572 H   0  0  0  0  0  0  0  0  0  0  0  0  # atno 6907 bound_to 6896
  152.0597  134.9599  160.0584 H   0  0  0  0  0  0  0  0  0  0  0  0  # atno 6908 bound_to 6896
  152.1031  133.4226  159.4633 H   0  0  0  0  0  0  0  0  0  0  0  0  # atno 6909 bound_to 6896
  145.1394  139.3277  143.4624 H   0  0  0  0  0  0  0  0  0  0  0  0  # atno 7974 bound_to 7965
  154.4002  140.1491  156.3246 H   0  0  0  0  0  0  0  0  0  0  0  0  # atno 8008 bound_to 7997
  155.8499  140.3458  155.5665 H   0  0  0  0  0  0  0  0  0  0  0  0  # atno 8009 bound_to 7997
  155.7996  140.0868  157.1955 H   0  0  0  0  0  0  0  0  0  0  0  0  # atno 8010 bound_to 7997
  140.0471  143.5096  152.2101 H   0  0  0  0  0  0  0  0  0  0  0  0  # atno 10167 bound_to 10162
  156.0140  130.4496  150.3372 H   0  0  0  0  0  0  0  0  0  0  0  0  # atno 10718 bound_to 10713
  154.8757  135.3892  154.3934 H   0  0  0  0  0  0  0  0  0  0  0  0  # atno 10763 bound_to 10752
  153.4667  135.7029  153.6023 H   0  0  0  0  0  0  0  0  0  0  0  0  # atno 10764 bound_to 10752
  153.4498  135.3836  155.2245 H   0  0  0  0  0  0  0  0  0  0  0  0  # atno 10765 bound_to 10752
  140.4464  134.1269  155.7696 H   0  0  0  0  0  0  0  0  0  0  0  0  # atno 11005 bound_to 11000
  146.3506  140.1425  142.8594 LP  0  0  0  0  0  0  0  0  0  0  0  0  # atno 17320 bound_to 7965
  145.0549  140.9045  143.4973 LP  0  0  0  0  0  0  0  0  0  0  0  0  # atno 17321 bound_to 7965
  139.5976  144.7572  151.3248 LP  0  0  0  0  0  0  0  0  0  0  0  0  # atno 17342 bound_to 10162
  140.7234  143.7073  150.7797 LP  0  0  0  0  0  0  0  0  0  0  0  0  # atno 17343 bound_to 10162
  157.1469  131.0311  151.2903 LP  0  0  0  0  0  0  0  0  0  0  0  0  # atno 17370 bound_to 10713
  157.4425  130.7552  149.7081 LP  0  0  0  0  0  0  0  0  0  0  0  0  # atno 17371 bound_to 10713
  141.1683  133.8658  157.1647 LP  0  0  0  0  0  0  0  0  0  0  0  0  # atno 17394 bound_to 11000
  140.0036  135.0018  157.0243 LP  0  0  0  0  0  0  0  0  0  0  0  0  # atno 17395 bound_to 11000

$$$$
