AV-unprocessed.smi:1703|AV-procd|sdf|6874|dock1
  -GOLD-   22720 8 73D 1   1.00000     0.00000
 Structure written by MMmdl.
 50 52  0  0  0  0  0  0  0  0  3 V2000
  150.7804  136.5007  157.7151 C   0  0  0  0  0  0  0  0  0  0  0  0
  149.9951  135.5378  156.8179 C   0  0  1  0  0  0  0  0  0  0  0  0
  149.7095  136.1431  155.4288 C   0  0  0  0  0  0  0  0  0  0  0  0
  149.0194  135.1691  154.5488 N   0  3  2  0  0  0  0  0  0  0  0  0
  147.5694  135.0183  154.8453 C   0  0  0  0  0  0  0  0  0  0  0  0
  146.7314  134.7819  153.5705 C   0  0  2  0  0  0  0  0  0  0  0  0
  146.4143  136.0323  152.9945 O   0  0  0  0  0  0  0  0  0  0  0  0
  145.4069  134.0325  153.8216 C   0  0  0  0  0  0  0  0  0  0  0  0
  144.5862  133.8926  152.6073 N   0  0  0  0  0  0  0  0  0  0  0  0
  143.3102  134.3113  152.3608 C   0  0  0  0  0  0  0  0  0  0  0  0
  142.3998  135.0333  153.2987 C   0  0  0  0  0  0  0  0  0  0  0  0
  142.1039  134.2717  154.4477 O   0  0  0  0  0  0  0  0  0  0  0  0
  142.9987  133.9330  151.0897 N   0  3  0  0  0  0  0  0  0  0  0  0
  144.0793  133.2626  150.5168 C   0  0  0  0  0  0  0  0  0  0  0  0
  144.2320  132.6964  149.2550 C   0  0  0  0  0  0  0  0  0  0  0  0
  145.4700  132.0782  148.9845 C   0  0  0  0  0  0  0  0  0  0  0  0
  146.4971  132.0397  149.9496 C   0  0  0  0  0  0  0  0  0  0  0  0
  146.3310  132.6180  151.2256 C   0  0  0  0  0  0  0  0  0  0  0  0
  145.1031  133.2277  151.4866 C   0  0  0  0  0  0  0  0  0  0  0  0
  149.7784  133.8932  154.4905 C   0  0  0  0  0  0  0  0  0  0  0  0
  150.0977  133.3506  155.9013 C   0  0  1  0  0  0  0  0  0  0  0  0
  151.0001  132.1131  155.8480 C   0  0  0  0  0  0  0  0  0  0  0  0
  150.7705  134.3555  156.6525 O   0  0  0  0  0  0  0  0  0  0  0  0
  150.2288  137.4275  157.8746 H   0  0  0  0  0  0  0  0  0  0  0  0
  151.7434  136.7565  157.2721 H   0  0  0  0  0  0  0  0  0  0  0  0
  150.9714  136.0559  158.6922 H   0  0  0  0  0  0  0  0  0  0  0  0
  149.0580  135.2884  157.3188 H   0  0  0  0  0  0  0  0  0  0  0  0
  149.1271  137.0614  155.5140 H   0  0  0  0  0  0  0  0  0  0  0  0
  150.6508  136.4234  154.9536 H   0  0  0  0  0  0  0  0  0  0  0  0
  147.4312  134.2054  155.5564 H   0  0  0  0  0  0  0  0  0  0  0  0
  147.1954  135.9155  155.3409 H   0  0  0  0  0  0  0  0  0  0  0  0
  147.3108  134.2206  152.8389 H   0  0  0  0  0  0  0  0  0  0  0  0
  147.1439  136.3203  152.4667 H   0  0  0  0  0  0  0  0  0  0  0  0
  145.5847  133.0499  154.2581 H   0  0  0  0  0  0  0  0  0  0  0  0
  144.8047  134.5775  154.5501 H   0  0  0  0  0  0  0  0  0  0  0  0
  142.8467  135.9794  153.6027 H   0  0  0  0  0  0  0  0  0  0  0  0
  141.4690  135.2713  152.7832 H   0  0  0  0  0  0  0  0  0  0  0  0
  142.4846  133.4123  154.3474 H   0  0  0  0  0  0  0  0  0  0  0  0
  143.4455  132.7226  148.5146 H   0  0  0  0  0  0  0  0  0  0  0  0
  145.6339  131.6225  148.0184 H   0  0  0  0  0  0  0  0  0  0  0  0
  147.4315  131.5545  149.7063 H   0  0  0  0  0  0  0  0  0  0  0  0
  147.1284  132.5792  151.9523 H   0  0  0  0  0  0  0  0  0  0  0  0
  149.2455  133.1455  153.9045 H   0  0  0  0  0  0  0  0  0  0  0  0
  150.7113  134.0855  153.9587 H   0  0  0  0  0  0  0  0  0  0  0  0
  149.1781  133.0749  156.4193 H   0  0  0  0  0  0  0  0  0  0  0  0
  150.5240  131.3030  155.2946 H   0  0  0  0  0  0  0  0  0  0  0  0
  151.2184  131.7460  156.8513 H   0  0  0  0  0  0  0  0  0  0  0  0
  151.9504  132.3371  155.3623 H   0  0  0  0  0  0  0  0  0  0  0  0
  149.0525  135.5672  153.6204 H   0  0  0  0  0  0  0  0  0  0  0  0
  142.1039  134.1135  150.6520 H   0  0  0  0  0  0  0  0  0  0  0  0
  1  2  1  0  0  0  0
  1 24  1  0  0  0  0
  1 25  1  0  0  0  0
  1 26  1  0  0  0  0
  2 23  1  0  0  0  0
  2  3  1  0  0  0  0
  2 27  1  0  0  0  0
  3  4  1  0  0  0  0
  3 28  1  0  0  0  0
  3 29  1  0  0  0  0
  4  5  1  0  0  0  0
  4 20  1  0  0  0  0
  4 49  1  0  0  0  0
  5  6  1  0  0  0  0
  5 30  1  0  0  0  0
  5 31  1  0  0  0  0
  6  7  1  0  0  0  0
  6  8  1  0  0  0  0
  6 32  1  0  0  0  0
  7 33  1  0  0  0  0
  8  9  1  0  0  0  0
  8 34  1  0  0  0  0
  8 35  1  0  0  0  0
  9 19  1  0  0  0  0
  9 10  1  0  0  0  0
 10 11  1  0  0  0  0
 10 13  2  0  0  0  0
 11 12  1  0  0  0  0
 11 36  1  0  0  0  0
 11 37  1  0  0  0  0
 12 38  1  0  0  0  0
 13 14  1  0  0  0  0
 13 50  1  0  0  0  0
 14 19  2  0  0  0  0
 14 15  1  0  0  0  0
 15 16  2  0  0  0  0
 15 39  1  0  0  0  0
 16 17  1  0  0  0  0
 16 40  1  0  0  0  0
 17 18  2  0  0  0  0
 17 41  1  0  0  0  0
 18 19  1  0  0  0  0
 18 42  1  0  0  0  0
 20 21  1  0  0  0  0
 20 43  1  0  0  0  0
 20 44  1  0  0  0  0
 21 22  1  0  0  0  0
 21 23  1  0  0  0  0
 21 45  1  0  0  0  0
 22 46  1  0  0  0  0
 22 47  1  0  0  0  0
 22 48  1  0  0  0  0
M  CHG  1   4   1
M  CHG  1  13   1
M  END
> <s_m_source_file>
AV-unprocessed.smi

> <i_m_source_file_index>
1703

> <i_lp_mmshare_version>
43012

> <i_f3d_flags>
0

> <s_epik_input>
W0NIM11bQ0BASF0xW0NIMl1OKFtDSDJdW0NASF0oTzEpW0NIM10pW0NIMl1bQ0BIXShbT0hdKVtDSDJdbihjKG4yKVtDSDJdW09IXSljKGMyMylbY0hdW2NIXVtjSF1bY0hdMw==

> <s_epik_cmdline>
J2VwaWtfcHl0aG9uJywgJy1waCcsICc3LjAnLCAnLXRuJywgJzgnLCAnLW1hJywgJzIwMCcsICctbWV0YWxfYmluZGluZycsICctaW1hZScsICc8aW5maWxlLm1hZT4nLCAnLW9tYWUnLCAnPG91dGZpbGUubWFlPic=

> <r_epik_Ionization_Penalty>
2.22579

> <r_epik_Ionization_Penalty_Charging>
2.22492

> <r_epik_Ionization_Penalty_Neutral>
0.000870007

> <r_epik_State_Penalty>
2.3141

> <r_epik_Charging_Adjusted_Penalty>
4.53902

> <i_epik_Tot_Q>
2

> <i_epik_Tot_abs_Q>
2

> <r_epik_Metal_State_Penalty>
6.36517

> <b_epik_Metal_Only>
0

> <s_lp_Force_Field>
OPLS_2005

> <r_lp_Energy>
32.0601

> <b_lp_Chiralities_Consistent>
1

> <s_lp_Variant>
AV-unprocessed.smi:1703-22

> <Gold.Version>
5.8.1

> <Gold.Id.Protein>
6NUR|6NUR_protein|mol2

> <Gold.PLP.Fitness>
55.7003

> <Gold.PLP.PLP>
-36.0144

> <Gold.PLP.part.hbond>
-5.0000

> <Gold.PLP.part.metal>
0.0000

> <Gold.PLP.part.buried>
-0.1994

> <Gold.PLP.part.nonpolar>
-28.7581

> <Gold.PLP.part.repulsive>
0.0041

> <Gold.PLP.ligand.clash>
0.0000

> <Gold.PLP.ligand.torsion>
0.6949

> <Gold.PLP.Chemscore.Hbond>
7.0000

> <Gold.PLP.Chemscore.CHOScore>
0.0000

> <Gold.PLP.Chemscore.Metal>
0.0000

> <Gold.Chemscore.Hbonds>
donor molecule, donor type, donor heavy atom, donor atom, acceptor molecule, acceptor atom, score
      L1  H     4    49       P1  7948  2.00
      L1  H     7    33       P1  7948  1.00
      L1  H    12    38       P1 10957  1.00
      L1  H    13    50       P1 10186  2.00
      P1  H 11000 11005       L1    12  0.99

> <Gold.PLP.Chemscore.Internal.Correction>
0.0758

> <Gold.Rescore>
     Score         DG    S(hbond)    S(metal)    S(lipo)     H(rot)  DE(clash)    DE(int)     intcor
     21.38     -23.69       4.39        0.00      96.83       3.04       1.73       0.57       ----

> <Gold.Chemscore.Fitness>
21.3839

> <Gold.Chemscore.DG>
-23.6907

> <Gold.Chemscore.ZeroCoef>
-5.4800

> <Gold.Chemscore.Hbond>
4.3887

> <Gold.Chemscore.Metal>
0.0000

> <Gold.Chemscore.Lipo>
96.8309

> <Gold.Chemscore.Internal_Hbond>
0.0000

> <Gold.Chemscore.DEClash>
1.7342

> <Gold.Chemscore.DEInternal>
0.5726

> <Gold.Chemscore.Rot>
3.0378

> <Gold.Chemscore.Internal.Correction>
   9.000000E+99

> <Gold.Chemscore.Hbonds>
donor molecule, donor type, donor heavy atom, donor atom, acceptor molecule, acceptor atom, score
      L1  H     4    49       P1  7948  0.74
      L1  H     7    33       P1  7948  0.97
      L1  H    12    38       P1 10957  0.96
      L1  H    13    50       P1 10186  0.39
      P1  H 11000 11005       L1    12  0.24

> <Gold.Chemscore.Hbond.Weighted>
-14.6582

> <Gold.Chemscore.Metal.Weighted>
-0.0000

> <Gold.Chemscore.Lipo.Weighted>
-11.3292

> <Gold.Chemscore.Internal_Hbond.Weighted>
0.0000

> <Gold.Chemscore.DEClash.Weighted>
1.7342

> <Gold.Chemscore.DEInternal.Weighted>
0.5726

> <Gold.Chemscore.Rot.Weighted>
7.7767

> <Gold.Chemscore.Internal.Correction.Weighted>
   9.000000E+99

> <Gold.Protein.RotatedTorsions>
[ 6907 6896 6895 6894 ] final   35.19 input  -60.11 | X-H torsion
[ 7974 7965 7964 7962 ] final  125.25 input  175.53 | X-H torsion
[ 8008 7997 7996 7995 ] final  143.05 input   59.86 | X-H torsion
[ 10167 10162 10161 10158 ] final -162.83 input  -65.29 | X-H torsion
[ 10718 10713 10712 10709 ] final   49.61 input   66.30 | X-H torsion
[ 10763 10752 10751 10750 ] final -151.16 input  -60.55 | X-H torsion
[ 11005 11000 10999 10996 ] final   -9.75 input  -57.11 | X-H torsion

> <Gold.Protein.ActiveResidues>
 VAL166  LYS551  ARG553  GLY616  TRP617  ASP618  TYR619  PRO620  LYS621  CYS622 
 ASP623  PHE694  ASN695  SER759  ASP760  ASP761  ALA762  ILE779  LEU786  VAL792 
 PHE793  MET794  SER795  GLU796  ALA797  LYS798  CYS799  TRP800  GLU811  SER814 

> <Gold.Protein.RotatedAtoms>
  152.1127  134.9262  160.0565 H   0  0  0  0  0  0  0  0  0  0  0  0  # atno 6907 bound_to 6896
  152.0434  133.3982  159.4354 H   0  0  0  0  0  0  0  0  0  0  0  0  # atno 6908 bound_to 6896
  150.6844  134.3310  159.4871 H   0  0  0  0  0  0  0  0  0  0  0  0  # atno 6909 bound_to 6896
  145.0751  139.3700  143.4938 H   0  0  0  0  0  0  0  0  0  0  0  0  # atno 7974 bound_to 7965
  156.2938  140.2273  156.4827 H   0  0  0  0  0  0  0  0  0  0  0  0  # atno 8008 bound_to 7997
  154.7839  140.0458  157.1170 H   0  0  0  0  0  0  0  0  0  0  0  0  # atno 8009 bound_to 7997
  154.9726  140.3068  155.4985 H   0  0  0  0  0  0  0  0  0  0  0  0  # atno 8010 bound_to 7997
  139.6364  144.0342  152.2057 H   0  0  0  0  0  0  0  0  0  0  0  0  # atno 10167 bound_to 10162
  157.4804  130.8311  149.8086 H   0  0  0  0  0  0  0  0  0  0  0  0  # atno 10718 bound_to 10713
  154.8075  135.3266  154.7394 H   0  0  0  0  0  0  0  0  0  0  0  0  # atno 10763 bound_to 10752
  153.8049  135.6900  153.4854 H   0  0  0  0  0  0  0  0  0  0  0  0  # atno 10764 bound_to 10752
  153.1830  135.4579  154.9997 H   0  0  0  0  0  0  0  0  0  0  0  0  # atno 10765 bound_to 10752
  140.7375  133.8698  155.8941 H   0  0  0  0  0  0  0  0  0  0  0  0  # atno 11005 bound_to 11000
  146.3530  140.0514  142.8635 LP  0  0  0  0  0  0  0  0  0  0  0  0  # atno 17320 bound_to 7965
  145.1246  140.9482  143.4580 LP  0  0  0  0  0  0  0  0  0  0  0  0  # atno 17321 bound_to 7965
  140.0020  144.6286  150.7721 LP  0  0  0  0  0  0  0  0  0  0  0  0  # atno 17342 bound_to 10162
  140.7467  143.2896  151.3368 LP  0  0  0  0  0  0  0  0  0  0  0  0  # atno 17343 bound_to 10162
  156.0118  130.3830  150.2238 LP  0  0  0  0  0  0  0  0  0  0  0  0  # atno 17370 bound_to 10713
  157.0424  131.0039  151.3279 LP  0  0  0  0  0  0  0  0  0  0  0  0  # atno 17371 bound_to 10713
  140.9866  134.1334  157.4446 LP  0  0  0  0  0  0  0  0  0  0  0  0  # atno 17394 bound_to 11000
  139.8813  135.0027  156.6145 LP  0  0  0  0  0  0  0  0  0  0  0  0  # atno 17395 bound_to 11000

$$$$
