#       Name:                AV-unprocessed.smi:840
#       Creating user name   scv26
#       Creation time:       Fri Mar 27 01:37:30 2020


#       File generated by GOLD software.
#

@<TRIPOS>MOLECULE
AV-unprocessed.smi:840
    42    43     1
SMALL
NO_CHARGES


@<TRIPOS>ATOM
      1 ****        -0.9233  -1.5234   2.9029 C.3            1 S1                 0.0000
      2 ****        -0.4007  -1.1837   1.4973 C.3            1 S1                 0.0000
      3 ****         1.0335  -1.4687   1.4652 N.am           1 S1                 0.0000
      4 ****         1.7664  -1.6308   0.3531 C.2            1 S1                 0.0000
      5 ****         1.2944  -1.5817  -0.7833 O.2            1 S1                 0.0000
      6 ****         3.0596  -1.8473   0.6503 N.am           1 S1                 0.0000
      7 ****         4.1454  -2.0424  -0.2432 C.2            1 S1                 0.0000
      8 ****         4.0365  -2.0372  -1.5768 N.2            1 S1                 0.0000
      9 ****         5.2664  -2.2510  -2.2044 C.2            1 S1                 0.0000
     10 ****         6.3087  -2.4189  -1.3271 C.2            1 S1                 0.0000
     11 ****         5.7837  -2.3135   0.3322 S.3            1 S1                 0.0000
     12 ****        -0.6694   0.3070   1.2335 C.2            1 S1                 0.0000
     13 ****         0.1088   1.1692   1.6451 O.2            1 S1                 0.0000
     14 ****        -1.7897   0.5927   0.5535 N.am           1 S1                 0.0000
     15 ****        -2.2296   1.9360   0.1886 C.3            1 S1                 0.0000
     16 ****        -3.7367   1.9453  -0.1251 C.3            1 S1                 0.0000
     17 ****        -3.8496   2.1194  -1.6398 C.3            1 S1                 0.0000
     18 ****        -2.6273   2.9533  -2.0104 C.3            1 S1                 0.0000
     19 ****        -1.5220   2.4364  -1.0879 C.3            1 S1                 0.0000
     20 ****        -1.9941  -1.3317   2.9854 H              1 S1                 0.0000
     21 ****        -0.4204  -0.9392   3.6753 H              1 S1                 0.0000
     22 ****        -0.7654  -2.5778   3.1320 H              1 S1                 0.0000
     23 ****        -0.9172  -1.7966   0.7558 H              1 S1                 0.0000
     24 ****         1.5039  -1.5194   2.3568 H              1 S1                 0.0000
     25 ****         3.2974  -1.8645   1.6311 H              1 S1                 0.0000
     26 ****         5.3092  -2.2680  -3.2832 H              1 S1                 0.0000
     27 ****         7.3490  -2.5966  -1.5556 H              1 S1                 0.0000
     28 ****        -2.3729  -0.1755   0.2547 H              1 S1                 0.0000
     29 ****        -2.0407   2.6206   1.0177 H              1 S1                 0.0000
     30 ****        -4.2592   1.0542   0.2262 H              1 S1                 0.0000
     31 ****        -4.1994   2.8012   0.3682 H              1 S1                 0.0000
     32 ****        -3.7922   1.1456  -2.1280 H              1 S1                 0.0000
     33 ****        -4.7863   2.5895  -1.9401 H              1 S1                 0.0000
     34 ****        -2.3661   2.8714  -3.0657 H              1 S1                 0.0000
     35 ****        -2.8230   4.0047  -1.7959 H              1 S1                 0.0000
     36 ****        -0.7794   3.2051  -0.8714 H              1 S1                 0.0000
     37 ****        -0.9995   1.6174  -1.5852 H              1 S1                 0.0000
     38 ****         0.3171  -1.4137  -0.9120 LP             1 S1                 0.0000
     39 ****         1.8885  -1.7099  -1.5775 LP             1 S1                 0.0000
     40 ****         3.1761  -1.8968  -2.0667 LP             1 S1                 0.0000
     41 ****         0.9255   0.9024   2.1567 LP             1 S1                 0.0000
     42 ****        -0.0763   2.1357   1.4674 LP             1 S1                 0.0000
@<TRIPOS>BOND
    1    1    2 1     
    2    1   20 1     
    3    1   21 1     
    4    1   22 1     
    5    2    3 1     
    6    2   12 1     
    7    2   23 1     
    8    3    4 am    
    9    3   24 1     
   10    4    5 2     
   11    4    6 am    
   12    6    7 1     
   13    6   25 1     
   14    7   11 1     
   15    7    8 2     
   16    8    9 1     
   17    9   10 2     
   18    9   26 1     
   19   10   11 1     
   20   10   27 1     
   21   12   13 2     
   22   12   14 am    
   23   14   15 1     
   24   14   28 1     
   25   15   19 1     
   26   15   16 1     
   27   15   29 1     
   28   16   17 1     
   29   16   30 1     
   30   16   31 1     
   31   17   18 1     
   32   17   32 1     
   33   17   33 1     
   34   18   19 1     
   35   18   34 1     
   36   18   35 1     
   37   19   36 1     
   38   19   37 1     
   39    5   38 1     
   40    5   39 1     
   41    8   40 1     
   42   13   41 1     
   43   13   42 1     
@<TRIPOS>SUBSTRUCTURE
      1 S1             1
@<TRIPOS>SET
LONE_PAIRS      STATIC     ATOMS    <user>   **** ""
5 38 39 40 41 42
DONOR_HYDROGENS      STATIC     ATOMS    <user>   **** ""
3 24 25 28
ATOM$BLUE        STATIC     ATOMS    COLORGROUP SYSTEM
5 38 39 40 41 42
ATOM$RED        STATIC     ATOMS    COLORGROUP SYSTEM
3 24 25 28
