#       Name:                AV-unprocessed.smi:1257
#       Creating user name   scv26
#       Creation time:       Fri Mar 27 04:40:33 2020


#       File generated by GOLD software.
#

@<TRIPOS>MOLECULE
AV-unprocessed.smi:1257
    55    56     1
SMALL
NO_CHARGES


@<TRIPOS>ATOM
      1 ****        -6.4903   3.1898   2.7824 C.3            1 S1                 0.0000
      2 ****        -7.0848   2.5783   1.5068 C.3            1 S1                 0.0000
      3 ****        -6.4369   1.3177   1.1647 N.am           1 S1                 0.0000
      4 ****        -5.2641   1.2017   0.5238 C.2            1 S1                 0.0000
      5 ****        -4.6090   2.1693   0.1338 O.2            1 S1                 0.0000
      6 ****        -4.7749  -0.2296   0.2705 C.3            1 S1                 0.0000
      7 ****        -3.3243  -0.3167   0.1230 N.am           1 S1                 0.0000
      8 ****        -2.4434  -0.3337   1.1377 C.2            1 S1                 0.0000
      9 ****        -2.7735  -0.3246   2.3240 O.2            1 S1                 0.0000
     10 ****        -0.9987  -0.4317   0.7420 C.ar           1 S1                 0.0000
     11 ****        -0.0631  -1.0657   1.5858 C.ar           1 S1                 0.0000
     12 ****         1.2881  -1.1210   1.1939 C.ar           1 S1                 0.0000
     13 ****         1.6766  -0.5341  -0.0336 C.ar           1 S1                 0.0000
     14 ****         3.0247  -0.5844  -0.4496 N.3            1 S1                 0.0000
     15 ****         3.4208   0.2426  -1.5877 C.3            1 S1                 0.0000
     16 ****         4.9547   0.2863  -1.7142 C.3            1 S1                 0.0000
     17 ****         5.4069   1.0473  -2.9647 C.3            1 S1                 0.0000
     18 ****         5.4533  -1.0458  -1.7961 O.3            1 S1                 0.0000
     19 ****         5.1567  -1.8107  -0.6310 C.3            1 S1                 0.0000
     20 ****         5.8123  -3.1874  -0.7810 C.3            1 S1                 0.0000
     21 ****         3.6285  -1.9140  -0.4663 C.3            1 S1                 0.0000
     22 ****         0.7792   0.0924  -0.8340 N.ar           1 S1                 0.0000
     23 ****        -0.5149   0.1434  -0.4540 C.ar           1 S1                 0.0000
     24 ****        -7.0070   4.1126   3.0457 H              1 S1                 0.0000
     25 ****        -5.4338   3.4277   2.6549 H              1 S1                 0.0000
     26 ****        -6.5803   2.5058   3.6266 H              1 S1                 0.0000
     27 ****        -8.1478   2.3859   1.6528 H              1 S1                 0.0000
     28 ****        -7.0082   3.2821   0.6763 H              1 S1                 0.0000
     29 ****        -6.9112   0.4708   1.4431 H              1 S1                 0.0000
     30 ****        -5.1098  -0.8897   1.0726 H              1 S1                 0.0000
     31 ****        -5.2349  -0.5938  -0.6481 H              1 S1                 0.0000
     32 ****        -2.9645  -0.3459  -0.8198 H              1 S1                 0.0000
     33 ****        -0.3689  -1.5079   2.5230 H              1 S1                 0.0000
     34 ****         2.0078  -1.5968   1.8429 H              1 S1                 0.0000
     35 ****         2.9795  -0.1651  -2.4983 H              1 S1                 0.0000
     36 ****         3.0391   1.2572  -1.4651 H              1 S1                 0.0000
     37 ****         5.3823   0.7759  -0.8373 H              1 S1                 0.0000
     38 ****         5.0568   2.0797  -2.9435 H              1 S1                 0.0000
     39 ****         5.0210   0.5811  -3.8716 H              1 S1                 0.0000
     40 ****         6.4946   1.0667  -3.0369 H              1 S1                 0.0000
     41 ****         5.5870  -1.3155   0.2413 H              1 S1                 0.0000
     42 ****         5.6223  -3.8100   0.0935 H              1 S1                 0.0000
     43 ****         6.8926  -3.0940  -0.8942 H              1 S1                 0.0000
     44 ****         5.4295  -3.7132  -1.6564 H              1 S1                 0.0000
     45 ****         3.4070  -2.4669   0.4454 H              1 S1                 0.0000
     46 ****         3.1988  -2.4818  -1.2926 H              1 S1                 0.0000
     47 ****        -1.1759   0.6639  -1.1318 H              1 S1                 0.0000
     48 ****        -4.9465   3.0975   0.2905 LP             1 S1                 0.0000
     49 ****        -3.7397   2.0266  -0.3394 LP             1 S1                 0.0000
     50 ****        -3.7417  -0.3035   2.5735 LP             1 S1                 0.0000
     51 ****        -2.0734  -0.3382   3.0380 LP             1 S1                 0.0000
     52 ****         3.4450  -0.1042   0.3204 LP             1 S1                 0.0000
     53 ****         6.4459  -1.0103  -1.9126 LP             1 S1                 0.0000
     54 ****         5.0405  -1.4948  -2.5885 LP             1 S1                 0.0000
     55 ****         1.0720   0.5108  -1.6937 LP             1 S1                 0.0000
@<TRIPOS>BOND
    1    1    2 1     
    2    1   24 1     
    3    1   25 1     
    4    1   26 1     
    5    2    3 1     
    6    2   27 1     
    7    2   28 1     
    8    3    4 am    
    9    3   29 1     
   10    4    5 2     
   11    4    6 1     
   12    6    7 1     
   13    6   30 1     
   14    6   31 1     
   15    7    8 am    
   16    7   32 1     
   17    8    9 2     
   18    8   10 1     
   19   10   23 ar    
   20   10   11 ar    
   21   11   12 ar    
   22   11   33 1     
   23   12   13 ar    
   24   12   34 1     
   25   13   14 1     
   26   13   22 ar    
   27   14   21 1     
   28   14   15 1     
   29   15   16 1     
   30   15   35 1     
   31   15   36 1     
   32   16   17 1     
   33   16   18 1     
   34   16   37 1     
   35   17   38 1     
   36   17   39 1     
   37   17   40 1     
   38   18   19 1     
   39   19   20 1     
   40   19   21 1     
   41   19   41 1     
   42   20   42 1     
   43   20   43 1     
   44   20   44 1     
   45   21   45 1     
   46   21   46 1     
   47   22   23 ar    
   48   23   47 1     
   49    5   48 1     
   50    5   49 1     
   51    9   50 1     
   52    9   51 1     
   53   14   52 1     
   54   18   53 1     
   55   18   54 1     
   56   22   55 1     
@<TRIPOS>SUBSTRUCTURE
      1 S1             1
@<TRIPOS>SET
LONE_PAIRS      STATIC     ATOMS    <user>   **** ""
8 48 49 50 51 52 53 54 55
DONOR_HYDROGENS      STATIC     ATOMS    <user>   **** ""
2 29 32
ATOM$BLUE        STATIC     ATOMS    COLORGROUP SYSTEM
8 48 49 50 51 52 53 54 55
ATOM$RED        STATIC     ATOMS    COLORGROUP SYSTEM
2 29 32
