AV-unprocessed.smi:743|AV-procd|sdf|3560|dock4
  -GOLD-   22720 0553D 1   1.00000     0.00000
 Structure written by MMmdl.
 29 30  0  0  0  0  0  0  0  0  2 V2000
  141.5808  137.6594  154.4950 C   0  0  0  0  0  0  0  0  0  0  0  0
  142.2844  136.6762  153.6994 N   0  0  0  0  0  0  0  0  0  0  0  0
  143.0822  136.8746  152.5941 C   0  0  0  0  0  0  0  0  0  0  0  0
  143.5241  135.6485  152.1752 C   0  0  0  0  0  0  0  0  0  0  0  0
  144.4175  135.2902  151.0043 C   0  0  2  0  0  0  0  0  0  0  0  0
  143.8104  134.2337  150.1903 N   0  0  0  0  0  0  0  0  0  0  0  0
  144.0848  132.9171  150.2498 C   0  0  0  0  0  0  0  0  0  0  0  0
  143.4344  132.0985  149.6053 O   0  0  0  0  0  0  0  0  0  0  0  0
  145.2704  132.4335  151.1024 C   0  0  0  0  0  0  0  0  0  0  0  0
  145.8193  133.4847  152.0843 C   0  0  0  0  0  0  0  0  0  0  0  0
  145.8435  134.8798  151.4456 C   0  0  2  0  0  0  0  0  0  0  0  0
  146.4720  135.8771  152.3321 N   0  3  0  0  0  0  0  0  0  0  0  0
  142.9387  134.7561  153.1202 C   0  0  0  0  0  0  0  0  0  0  0  0
  142.1939  135.3709  154.0228 N   0  0  0  0  0  0  0  0  0  0  0  0
  146.4735  134.8267  150.5563 H   0  0  0  0  0  0  0  0  0  0  0  0
  141.7407  138.6568  154.0847 H   0  0  0  0  0  0  0  0  0  0  0  0
  141.9485  137.6357  155.5213 H   0  0  0  0  0  0  0  0  0  0  0  0
  140.5122  137.4424  154.4912 H   0  0  0  0  0  0  0  0  0  0  0  0
  143.2633  137.8627  152.1961 H   0  0  0  0  0  0  0  0  0  0  0  0
  144.5103  136.1576  150.3494 H   0  0  0  0  0  0  0  0  0  0  0  0
  143.0545  134.5170  149.5828 H   0  0  0  0  0  0  0  0  0  0  0  0
  144.9872  131.5297  151.6425 H   0  0  0  0  0  0  0  0  0  0  0  0
  146.0622  132.1432  150.4111 H   0  0  0  0  0  0  0  0  0  0  0  0
  145.2134  133.4930  152.9916 H   0  0  0  0  0  0  0  0  0  0  0  0
  146.8245  133.1971  152.3938 H   0  0  0  0  0  0  0  0  0  0  0  0
  146.3904  135.5710  153.2913 H   0  0  0  0  0  0  0  0  0  0  0  0
  146.0080  136.7675  152.2226 H   0  0  0  0  0  0  0  0  0  0  0  0
  143.0283  133.6810  153.1710 H   0  0  0  0  0  0  0  0  0  0  0  0
  147.4483  135.9747  152.0920 H   0  0  0  0  0  0  0  0  0  0  0  0
  1  2  1  0  0  0  0
  1 16  1  0  0  0  0
  1 17  1  0  0  0  0
  1 18  1  0  0  0  0
  2 14  1  0  0  0  0
  2  3  1  0  0  0  0
  3  4  2  0  0  0  0
  3 19  1  0  0  0  0
  4  5  1  0  0  0  0
  4 13  1  0  0  0  0
  5 11  1  0  0  0  0
  5  6  1  0  0  0  0
  5 20  1  0  0  0  0
  6  7  1  0  0  0  0
  6 21  1  0  0  0  0
  7  8  2  0  0  0  0
  7  9  1  0  0  0  0
  9 10  1  0  0  0  0
  9 22  1  0  0  0  0
  9 23  1  0  0  0  0
 10 11  1  0  0  0  0
 10 24  1  0  0  0  0
 10 25  1  0  0  0  0
 11 15  1  0  0  0  0
 11 12  1  0  0  0  0
 12 26  1  0  0  0  0
 12 27  1  0  0  0  0
 12 29  1  0  0  0  0
 13 14  2  0  0  0  0
 13 28  1  0  0  0  0
M  CHG  1  12   1
M  END
> <s_m_source_file>
AV-unprocessed.smi

> <i_m_source_file_index>
743

> <i_lp_mmshare_version>
43012

> <i_f3d_flags>
0

> <s_epik_input>
W0NIM11uMVtjSF1jKFtjSF1uMSlbQ0BASF0yW05IXUMoPU8pW0NIMl1bQ0gyXVtDQEBIXTJbTkgyXQ==

> <s_epik_cmdline>
J2VwaWtfcHl0aG9uJywgJy1waCcsICc3LjAnLCAnLXRuJywgJzgnLCAnLW1hJywgJzIwMCcsICctbWV0YWxfYmluZGluZycsICctaW1hZScsICc8aW5maWxlLm1hZT4nLCAnLW9tYWUnLCAnPG91dGZpbGUubWFlPic=

> <r_lp_tautomer_probability>
1

> <r_epik_Ionization_Penalty>
0.00878543

> <r_epik_Ionization_Penalty_Charging>
0.00874185

> <r_epik_Ionization_Penalty_Neutral>
4.35793e-05

> <r_epik_State_Penalty>
0.00660351

> <r_epik_Charging_Adjusted_Penalty>
0.0153454

> <i_epik_Tot_Q>
1

> <i_epik_Tot_abs_Q>
1

> <r_epik_Metal_State_Penalty>
0.00660727

> <b_epik_Metal_Only>
0

> <s_lp_Force_Field>
OPLS_2005

> <r_lp_Energy>
11.1602

> <b_lp_Chiralities_Consistent>
1

> <s_lp_Variant>
AV-unprocessed.smi:743-1

> <Gold.Version>
5.8.1

> <Gold.Id.Protein>
6NUR|6NUR_protein|mol2

> <Gold.PLP.Fitness>
43.3083

> <Gold.PLP.PLP>
-24.8491

> <Gold.PLP.part.hbond>
-2.8349

> <Gold.PLP.part.metal>
0.0000

> <Gold.PLP.part.buried>
-7.2500

> <Gold.PLP.part.nonpolar>
-16.7852

> <Gold.PLP.part.repulsive>
0.4061

> <Gold.PLP.ligand.clash>
0.0000

> <Gold.PLP.ligand.torsion>
0.2333

> <Gold.PLP.Chemscore.Hbond>
3.4990

> <Gold.PLP.Chemscore.CHOScore>
2.8033

> <Gold.PLP.Chemscore.Metal>
0.0000

> <Gold.Chemscore.Hbonds>
donor molecule, donor type, donor heavy atom, donor atom, acceptor molecule, acceptor atom, score
      L1  H     6    21       P1 10186  0.75
      L1  H    12    29       P1  7948  1.95
      P1  H 10785 10796       L1     8  0.70
      L1  C     3    19       P1 10171  0.96
      L1  C     3    19       P1 10175  0.81
      L1  C    13    28       P1 10957  1.00

> <Gold.PLP.Chemscore.Internal.Correction>
0.0189

> <Gold.Rescore>
     Score         DG    S(hbond)    S(metal)    S(lipo)     H(rot)  DE(clash)    DE(int)     intcor
     16.87     -17.14       2.88        0.00      39.22       1.00       0.07       0.21       ----

> <Gold.Chemscore.Fitness>
16.8668

> <Gold.Chemscore.DG>
-17.1448

> <Gold.Chemscore.ZeroCoef>
-5.4800

> <Gold.Chemscore.Hbond>
2.8849

> <Gold.Chemscore.Metal>
0.0000

> <Gold.Chemscore.Lipo>
39.2249

> <Gold.Chemscore.Internal_Hbond>
0.0000

> <Gold.Chemscore.DEClash>
0.0691

> <Gold.Chemscore.DEInternal>
0.2090

> <Gold.Chemscore.Rot>
1.0000

> <Gold.Chemscore.Internal.Correction>
   9.000000E+99

> <Gold.Chemscore.Hbonds>
donor molecule, donor type, donor heavy atom, donor atom, acceptor molecule, acceptor atom, score
      L1  H     6    21       P1 10186  0.69
      L1  H    12    29       P1  7948  0.92
      P1  H 10785 10796       L1     8  0.67

> <Gold.Chemscore.Hbond.Weighted>
-9.6355

> <Gold.Chemscore.Metal.Weighted>
-0.0000

> <Gold.Chemscore.Lipo.Weighted>
-4.5893

> <Gold.Chemscore.Internal_Hbond.Weighted>
0.0000

> <Gold.Chemscore.DEClash.Weighted>
0.0691

> <Gold.Chemscore.DEInternal.Weighted>
0.2090

> <Gold.Chemscore.Rot.Weighted>
2.5600

> <Gold.Chemscore.Internal.Correction.Weighted>
   9.000000E+99

> <Gold.Protein.RotatedTorsions>
[ 6907 6896 6895 6894 ] final  163.01 input  -60.11 | X-H torsion
[ 7974 7965 7964 7962 ] final -166.00 input  175.53 | X-H torsion
[ 8008 7997 7996 7995 ] final  -26.42 input   59.86 | X-H torsion
[ 10167 10162 10161 10158 ] final  168.30 input  -65.29 | X-H torsion
[ 10718 10713 10712 10709 ] final -124.72 input   66.30 | X-H torsion
[ 10763 10752 10751 10750 ] final  -30.19 input  -60.55 | X-H torsion
[ 11005 11000 10999 10996 ] final  -62.74 input  -57.11 | X-H torsion

> <Gold.Protein.ActiveResidues>
 VAL166  LYS551  ARG553  GLY616  TRP617  ASP618  TYR619  PRO620  LYS621  CYS622 
 ASP623  PHE694  ASN695  SER759  ASP760  ASP761  ALA762  ILE779  LEU786  VAL792 
 PHE793  MET794  SER795  GLU796  ALA797  LYS798  CYS799  TRP800  GLU811  SER814 

> <Gold.Protein.RotatedAtoms>
  151.9317  133.3613  159.3932 H   0  0  0  0  0  0  0  0  0  0  0  0  # atno 6907 bound_to 6896
  150.7016  134.4531  159.5355 H   0  0  0  0  0  0  0  0  0  0  0  0  # atno 6908 bound_to 6896
  152.2172  134.8446  160.0541 H   0  0  0  0  0  0  0  0  0  0  0  0  # atno 6909 bound_to 6896
  144.7256  140.2731  143.6247 H   0  0  0  0  0  0  0  0  0  0  0  0  # atno 7974 bound_to 7965
  154.4426  140.1900  156.0773 H   0  0  0  0  0  0  0  0  0  0  0  0  # atno 8008 bound_to 7997
  156.0466  140.3313  155.7276 H   0  0  0  0  0  0  0  0  0  0  0  0  # atno 8009 bound_to 7997
  155.5620  140.0604  157.2817 H   0  0  0  0  0  0  0  0  0  0  0  0  # atno 8010 bound_to 7997
  139.4965  144.3829  151.9602 H   0  0  0  0  0  0  0  0  0  0  0  0  # atno 10167 bound_to 10162
  156.1612  130.6603  151.0053 H   0  0  0  0  0  0  0  0  0  0  0  0  # atno 10718 bound_to 10713
  153.7768  135.6908  153.4896 H   0  0  0  0  0  0  0  0  0  0  0  0  # atno 10763 bound_to 10752
  153.1838  135.4496  155.0060 H   0  0  0  0  0  0  0  0  0  0  0  0  # atno 10764 bound_to 10752
  154.8097  135.3372  154.7274 H   0  0  0  0  0  0  0  0  0  0  0  0  # atno 10765 bound_to 10752
  141.1370  133.6643  156.5573 H   0  0  0  0  0  0  0  0  0  0  0  0  # atno 11005 bound_to 11000
  145.8023  139.1969  143.2041 LP  0  0  0  0  0  0  0  0  0  0  0  0  # atno 17320 bound_to 7965
  146.0666  140.7914  142.9709 LP  0  0  0  0  0  0  0  0  0  0  0  0  # atno 17321 bound_to 7965
  140.3266  144.3366  150.5997 LP  0  0  0  0  0  0  0  0  0  0  0  0  # atno 17342 bound_to 10162
  140.5679  143.2184  151.7650 LP  0  0  0  0  0  0  0  0  0  0  0  0  # atno 17343 bound_to 10162
  157.6734  131.0856  150.7555 LP  0  0  0  0  0  0  0  0  0  0  0  0  # atno 17370 bound_to 10713
  156.7618  130.4801  149.5435 LP  0  0  0  0  0  0  0  0  0  0  0  0  # atno 17371 bound_to 10713
  140.4016  134.7352  157.4783 LP  0  0  0  0  0  0  0  0  0  0  0  0  # atno 17394 bound_to 11000
  140.0492  134.6155  155.8883 LP  0  0  0  0  0  0  0  0  0  0  0  0  # atno 17395 bound_to 11000

$$$$
