AV-unprocessed.smi:2198|AV-procd|sdf|8916|dock9
  -GOLD-   2272012133D 1   1.00000     0.00000
 Structure written by MMmdl.
 43 44  0  0  0  0  0  0  0  0  1 V2000
  143.9534  142.5048  157.8169 C   0  0  0  0  0  0  0  0  0  0  0  0
  145.3040  142.1834  157.2152 C   0  0  0  0  0  0  0  0  0  0  0  0
  145.4252  142.5568  155.8868 N   0  0  0  0  0  0  0  0  0  0  0  0
  146.6249  142.2973  155.2484 C   0  0  0  0  0  0  0  0  0  0  0  0
  146.6736  142.7336  153.7945 C   0  0  0  0  0  0  0  0  0  0  0  0
  147.6548  141.7028  155.9028 C   0  0  0  0  0  0  0  0  0  0  0  0
  148.9971  141.4027  155.2362 C   0  0  0  0  0  0  0  0  0  0  0  0
  150.2456  141.6195  156.0957 C   0  0  0  0  0  0  0  0  0  0  0  0
  151.0627  140.7127  156.2585 O   0  0  0  0  0  0  0  0  0  0  0  0
  150.3732  142.8350  156.6486 N   0  0  0  0  0  0  0  0  0  0  0  0
  151.4655  143.2549  157.5214 C   0  0  1  0  0  0  0  0  0  0  0  0
  151.0920  144.5764  158.2169 C   0  0  0  0  0  0  0  0  0  0  0  0
  152.1883  145.0231  159.1965 C   0  0  0  0  0  0  0  0  0  0  0  0
  152.4954  143.9266  160.2283 C   0  0  0  0  0  0  0  0  0  0  0  0
  152.8811  142.6007  159.5450 C   0  0  1  0  0  0  0  0  0  0  0  0
  153.1826  141.5032  160.5756 C   0  0  0  0  0  0  0  0  0  0  0  0
  151.7793  142.1596  158.5620 C   0  0  0  0  0  0  0  0  0  0  0  0
  147.4696  141.3379  157.3272 C   0  0  0  0  0  0  0  0  0  0  0  0
  148.3709  140.8127  157.9799 O   0  0  0  0  0  0  0  0  0  0  0  0
  146.2291  141.6127  157.9253 N   0  0  0  0  0  0  0  0  0  0  0  0
  144.6870  143.0050  155.3637 H   0  0  0  0  0  0  0  0  0  0  0  0
  143.8469  142.0469  158.8012 H   0  0  0  0  0  0  0  0  0  0  0  0
  143.1513  142.1307  157.1801 H   0  0  0  0  0  0  0  0  0  0  0  0
  143.8355  143.5833  157.9267 H   0  0  0  0  0  0  0  0  0  0  0  0
  146.8218  141.8721  153.1435 H   0  0  0  0  0  0  0  0  0  0  0  0
  147.4939  143.4333  153.6332 H   0  0  0  0  0  0  0  0  0  0  0  0
  145.7494  143.2271  153.4915 H   0  0  0  0  0  0  0  0  0  0  0  0
  149.0896  142.0328  154.3514 H   0  0  0  0  0  0  0  0  0  0  0  0
  149.0130  140.3820  154.8525 H   0  0  0  0  0  0  0  0  0  0  0  0
  149.6551  143.5187  156.4581 H   0  0  0  0  0  0  0  0  0  0  0  0
  152.3561  143.4315  156.9147 H   0  0  0  0  0  0  0  0  0  0  0  0
  150.9245  145.3564  157.4732 H   0  0  0  0  0  0  0  0  0  0  0  0
  150.1522  144.4576  158.7585 H   0  0  0  0  0  0  0  0  0  0  0  0
  153.0954  145.2688  158.6431 H   0  0  0  0  0  0  0  0  0  0  0  0
  151.8804  145.9365  159.7057 H   0  0  0  0  0  0  0  0  0  0  0  0
  153.3020  144.2579  160.8832 H   0  0  0  0  0  0  0  0  0  0  0  0
  151.6234  143.7737  160.8659 H   0  0  0  0  0  0  0  0  0  0  0  0
  153.7931  142.7711  158.9712 H   0  0  0  0  0  0  0  0  0  0  0  0
  152.3071  141.2823  161.1871 H   0  0  0  0  0  0  0  0  0  0  0  0
  153.9896  141.8028  161.2447 H   0  0  0  0  0  0  0  0  0  0  0  0
  153.4882  140.5787  160.0854 H   0  0  0  0  0  0  0  0  0  0  0  0
  150.8734  141.9114  159.1176 H   0  0  0  0  0  0  0  0  0  0  0  0
  152.0882  141.2445  158.0550 H   0  0  0  0  0  0  0  0  0  0  0  0
  1 22  1  0  0  0  0
  1 23  1  0  0  0  0
  1 24  1  0  0  0  0
  1  2  1  0  0  0  0
  2  3  1  0  0  0  0
  2 20  2  0  0  0  0
  3  4  1  0  0  0  0
  3 21  1  0  0  0  0
  4  6  2  0  0  0  0
  4  5  1  0  0  0  0
  5 25  1  0  0  0  0
  5 26  1  0  0  0  0
  5 27  1  0  0  0  0
  6 18  1  0  0  0  0
  6  7  1  0  0  0  0
  7  8  1  0  0  0  0
  7 28  1  0  0  0  0
  7 29  1  0  0  0  0
  8  9  2  0  0  0  0
  8 10  1  0  0  0  0
 10 11  1  0  0  0  0
 10 30  1  0  0  0  0
 11 17  1  0  0  0  0
 11 12  1  0  0  0  0
 11 31  1  0  0  0  0
 12 13  1  0  0  0  0
 12 32  1  0  0  0  0
 12 33  1  0  0  0  0
 13 14  1  0  0  0  0
 13 34  1  0  0  0  0
 13 35  1  0  0  0  0
 14 15  1  0  0  0  0
 14 36  1  0  0  0  0
 14 37  1  0  0  0  0
 15 16  1  0  0  0  0
 15 17  1  0  0  0  0
 15 38  1  0  0  0  0
 16 39  1  0  0  0  0
 16 40  1  0  0  0  0
 16 41  1  0  0  0  0
 17 42  1  0  0  0  0
 17 43  1  0  0  0  0
 18 19  2  0  0  0  0
 18 20  1  0  0  0  0
M  END
> <s_m_source_file>
AV-unprocessed.smi

> <i_m_source_file_index>
2198

> <i_lp_mmshare_version>
43012

> <i_f3d_flags>
0

> <s_epik_input>
W0NIM11jMW5jKFtDSDNdKWMoYyg9TylbbkhdMSlbQ0gyXUMoPU8pW05IXVtDQEBIXTJbQ0gyXVtDSDJdW0NIMl1bQ0BASF0oW0NIM10pW0NIMl0y

> <s_epik_cmdline>
J2VwaWtfcHl0aG9uJywgJy1waCcsICc3LjAnLCAnLXRuJywgJzgnLCAnLW1hJywgJzIwMCcsICctbWV0YWxfYmluZGluZycsICctaW1hZScsICc8aW5maWxlLm1hZT4nLCAnLW9tYWUnLCAnPG91dGZpbGUubWFlPic=

> <r_lp_tautomer_probability>
0.156392

> <r_epik_Ionization_Penalty>
0.0136514

> <r_epik_Ionization_Penalty_Charging>
0.0135207

> <r_epik_Ionization_Penalty_Neutral>
0.000130657

> <r_epik_State_Penalty>
1.15342

> <r_epik_Charging_Adjusted_Penalty>
1.16694

> <i_epik_Tot_Q>
0

> <i_epik_Tot_abs_Q>
0

> <r_epik_Metal_State_Penalty>
1.31404

> <b_epik_Metal_Only>
0

> <s_lp_Force_Field>
OPLS_2005

> <r_lp_Energy>
13.5708

> <b_lp_Chiralities_Consistent>
1

> <s_lp_Variant>
AV-unprocessed.smi:2198-6

> <Gold.Version>
5.8.1

> <Gold.Id.Protein>
6NUR|6NUR_protein|mol2

> <Gold.PLP.Fitness>
42.2043

> <Gold.PLP.PLP>
-40.2315

> <Gold.PLP.part.hbond>
-1.3255

> <Gold.PLP.part.metal>
0.0000

> <Gold.PLP.part.buried>
-6.5404

> <Gold.PLP.part.nonpolar>
-32.3246

> <Gold.PLP.part.repulsive>
0.1226

> <Gold.PLP.ligand.clash>
0.0000

> <Gold.PLP.ligand.torsion>
0.5152

> <Gold.PLP.Chemscore.Hbond>
1.0000

> <Gold.PLP.Chemscore.CHOScore>
0.0000

> <Gold.PLP.Chemscore.Metal>
0.0000

> <Gold.Chemscore.Hbonds>
donor molecule, donor type, donor heavy atom, donor atom, acceptor molecule, acceptor atom, score
      L1  H    10    30       P1  8028  1.00

> <Gold.PLP.Chemscore.Internal.Correction>
0.0032

> <Gold.Rescore>
     Score         DG    S(hbond)    S(metal)    S(lipo)     H(rot)  DE(clash)    DE(int)     intcor
     14.50     -16.96       0.99        0.00     102.15       1.48       0.17       2.29       ----

> <Gold.Chemscore.Fitness>
14.4986

> <Gold.Chemscore.DG>
-16.9558

> <Gold.Chemscore.ZeroCoef>
-5.4800

> <Gold.Chemscore.Hbond>
0.9920

> <Gold.Chemscore.Metal>
0.0000

> <Gold.Chemscore.Lipo>
102.1504

> <Gold.Chemscore.Internal_Hbond>
0.0000

> <Gold.Chemscore.DEClash>
0.1657

> <Gold.Chemscore.DEInternal>
2.2914

> <Gold.Chemscore.Rot>
1.4801

> <Gold.Chemscore.Internal.Correction>
   9.000000E+99

> <Gold.Chemscore.Hbonds>
donor molecule, donor type, donor heavy atom, donor atom, acceptor molecule, acceptor atom, score
      L1  H    10    30       P1  8028  0.99

> <Gold.Chemscore.Hbond.Weighted>
-3.3133

> <Gold.Chemscore.Metal.Weighted>
-0.0000

> <Gold.Chemscore.Lipo.Weighted>
-11.9516

> <Gold.Chemscore.Internal_Hbond.Weighted>
0.0000

> <Gold.Chemscore.DEClash.Weighted>
0.1657

> <Gold.Chemscore.DEInternal.Weighted>
2.2914

> <Gold.Chemscore.Rot.Weighted>
3.7891

> <Gold.Chemscore.Internal.Correction.Weighted>
   9.000000E+99

> <Gold.Protein.RotatedTorsions>
[ 6907 6896 6895 6894 ] final  156.47 input  -60.11 | X-H torsion
[ 7974 7965 7964 7962 ] final   77.34 input  175.53 | X-H torsion
[ 8008 7997 7996 7995 ] final   -3.47 input   59.86 | X-H torsion
[ 10167 10162 10161 10158 ] final   -3.00 input  -65.29 | X-H torsion
[ 10718 10713 10712 10709 ] final  103.31 input   66.30 | X-H torsion
[ 10763 10752 10751 10750 ] final   24.60 input  -60.55 | X-H torsion
[ 11005 11000 10999 10996 ] final -155.76 input  -57.11 | X-H torsion

> <Gold.Protein.ActiveResidues>
 VAL166  LYS551  ARG553  GLY616  TRP617  ASP618  TYR619  PRO620  LYS621  CYS622 
 ASP623  PHE694  ASN695  SER759  ASP760  ASP761  ALA762  ILE779  LEU786  VAL792 
 PHE793  MET794  SER795  GLU796  ALA797  LYS798  CYS799  TRP800  GLU811  SER814 

> <Gold.Protein.RotatedAtoms>
  152.0293  133.3930  159.4290 H   0  0  0  0  0  0  0  0  0  0  0  0  # atno 6907 bound_to 6896
  150.6883  134.3539  159.4930 H   0  0  0  0  0  0  0  0  0  0  0  0  # atno 6908 bound_to 6896
  152.1323  134.9125  160.0609 H   0  0  0  0  0  0  0  0  0  0  0  0  # atno 6909 bound_to 6896
  145.6913  139.2553  143.1758 H   0  0  0  0  0  0  0  0  0  0  0  0  # atno 7974 bound_to 7965
  154.6246  140.2508  155.7508 H   0  0  0  0  0  0  0  0  0  0  0  0  # atno 8008 bound_to 7997
  156.2446  140.2919  156.0489 H   0  0  0  0  0  0  0  0  0  0  0  0  # atno 8009 bound_to 7997
  155.1842  140.0390  157.2878 H   0  0  0  0  0  0  0  0  0  0  0  0  # atno 8010 bound_to 7997
  140.6873  143.6591  150.8282 H   0  0  0  0  0  0  0  0  0  0  0  0  # atno 10167 bound_to 10162
  157.6776  131.0775  150.5536 H   0  0  0  0  0  0  0  0  0  0  0  0  # atno 10718 bound_to 10713
  153.0752  135.6602  154.0161 H   0  0  0  0  0  0  0  0  0  0  0  0  # atno 10763 bound_to 10752
  153.9796  135.2956  155.3422 H   0  0  0  0  0  0  0  0  0  0  0  0  # atno 10764 bound_to 10752
  154.7138  135.5194  153.8778 H   0  0  0  0  0  0  0  0  0  0  0  0  # atno 10765 bound_to 10752
  140.6829  134.4124  157.5225 H   0  0  0  0  0  0  0  0  0  0  0  0  # atno 11005 bound_to 11000
  146.0879  140.7689  142.9609 LP  0  0  0  0  0  0  0  0  0  0  0  0  # atno 17320 bound_to 7965
  144.6996  140.3592  143.7167 LP  0  0  0  0  0  0  0  0  0  0  0  0  # atno 17321 bound_to 7965
  140.0299  143.5454  152.2764 LP  0  0  0  0  0  0  0  0  0  0  0  0  # atno 17342 bound_to 10162
  139.6243  144.7634  151.2672 LP  0  0  0  0  0  0  0  0  0  0  0  0  # atno 17343 bound_to 10162
  156.5840  130.4312  149.5965 LP  0  0  0  0  0  0  0  0  0  0  0  0  # atno 17370 bound_to 10713
  156.2637  130.6977  151.1754 LP  0  0  0  0  0  0  0  0  0  0  0  0  # atno 17371 bound_to 10713
  139.8946  134.8702  156.2169 LP  0  0  0  0  0  0  0  0  0  0  0  0  # atno 17394 bound_to 11000
  141.0303  133.6992  156.1418 LP  0  0  0  0  0  0  0  0  0  0  0  0  # atno 17395 bound_to 11000

$$$$
