AV-unprocessed.smi:1986|AV-procd|sdf|8052|dock6
  -GOLD-   2272010253D 1   1.00000     0.00000
 Structure written by MMmdl.
 48 49  0  0  0  0  0  0  0  0  2 V2000
  144.1778  134.4771  156.3058 C   0  0  0  0  0  0  0  0  0  0  0  0
  144.9354  134.9629  155.0573 C   0  0  0  0  0  0  0  0  0  0  0  0
  144.1324  134.9438  153.7209 C   0  0  1  0  0  0  0  0  0  0  0  0
  142.6263  135.1453  154.0325 C   0  0  0  0  0  0  0  0  0  0  0  0
  144.5960  136.1338  152.8183 C   0  0  0  0  0  0  0  0  0  0  0  0
  144.6347  137.4188  153.5142 N   0  0  0  0  0  0  0  0  0  0  0  0
  145.5783  137.8213  154.3771 C   0  0  0  0  0  0  0  0  0  0  0  0
  146.5966  137.1764  154.6250 O   0  0  0  0  0  0  0  0  0  0  0  0
  145.3184  139.1578  155.0810 C   0  0  0  0  0  0  0  0  0  0  0  0
  146.4103  140.1149  154.8560 N   0  0  0  0  0  0  0  0  0  0  0  0
  147.5633  139.5499  154.3335 N   0  0  0  0  0  0  0  0  0  0  0  0
  148.5948  140.2889  154.1000 C   0  0  0  0  0  0  0  0  0  0  0  0
  149.7167  139.6885  153.5839 O   0  0  0  0  0  0  0  0  0  0  0  0
  148.5748  141.7095  154.3720 C   0  0  0  0  0  0  0  0  0  0  0  0
  147.4455  142.2525  154.8769 C   0  0  0  0  0  0  0  0  0  0  0  0
  146.2572  141.4435  155.1522 C   0  0  0  0  0  0  0  0  0  0  0  0
  145.2146  141.9108  155.6127 O   0  0  0  0  0  0  0  0  0  0  0  0
  144.3210  133.6324  152.9950 N   0  3  0  0  0  0  0  0  0  0  0  0
  143.7174  133.5542  151.6351 C   0  0  0  0  0  0  0  0  0  0  0  0
  143.7738  132.1110  151.1107 C   0  0  0  0  0  0  0  0  0  0  0  0
  145.1271  131.6818  151.0642 O   0  0  0  0  0  0  0  0  0  0  0  0
  145.7223  131.6732  152.3545 C   0  0  0  0  0  0  0  0  0  0  0  0
  145.7101  133.0917  152.9517 C   0  0  0  0  0  0  0  0  0  0  0  0
  149.8102  140.0395  152.7117 H   0  0  0  0  0  0  0  0  0  0  0  0
  144.8217  134.5326  157.1837 H   0  0  0  0  0  0  0  0  0  0  0  0
  143.8562  133.4403  156.2106 H   0  0  0  0  0  0  0  0  0  0  0  0
  143.2993  135.0877  156.5129 H   0  0  0  0  0  0  0  0  0  0  0  0
  145.2855  135.9731  155.2675 H   0  0  0  0  0  0  0  0  0  0  0  0
  145.8329  134.3525  154.9619 H   0  0  0  0  0  0  0  0  0  0  0  0
  142.4040  136.1743  154.3160 H   0  0  0  0  0  0  0  0  0  0  0  0
  142.2917  134.5203  154.8609 H   0  0  0  0  0  0  0  0  0  0  0  0
  142.0008  134.9112  153.1706 H   0  0  0  0  0  0  0  0  0  0  0  0
  145.5674  135.9308  152.3645 H   0  0  0  0  0  0  0  0  0  0  0  0
  143.9148  136.2530  151.9757 H   0  0  0  0  0  0  0  0  0  0  0  0
  143.8503  138.0366  153.3623 H   0  0  0  0  0  0  0  0  0  0  0  0
  144.3718  139.5578  154.7130 H   0  0  0  0  0  0  0  0  0  0  0  0
  145.1767  139.0050  156.1529 H   0  0  0  0  0  0  0  0  0  0  0  0
  149.4478  142.3133  154.1717 H   0  0  0  0  0  0  0  0  0  0  0  0
  147.4175  143.3121  155.0844 H   0  0  0  0  0  0  0  0  0  0  0  0
  142.6782  133.8784  151.6368 H   0  0  0  0  0  0  0  0  0  0  0  0
  144.2540  134.2051  150.9446 H   0  0  0  0  0  0  0  0  0  0  0  0
  143.1823  131.4419  151.7383 H   0  0  0  0  0  0  0  0  0  0  0  0
  143.3543  132.0597  150.1059 H   0  0  0  0  0  0  0  0  0  0  0  0
  145.1993  130.9700  153.0035 H   0  0  0  0  0  0  0  0  0  0  0  0
  146.7480  131.3148  152.2645 H   0  0  0  0  0  0  0  0  0  0  0  0
  146.3494  133.7413  152.3537 H   0  0  0  0  0  0  0  0  0  0  0  0
  146.1514  133.0308  153.9448 H   0  0  0  0  0  0  0  0  0  0  0  0
  143.8042  132.9656  153.5515 H   0  0  0  0  0  0  0  0  0  0  0  0
  1  2  1  0  0  0  0
  1 25  1  0  0  0  0
  1 26  1  0  0  0  0
  1 27  1  0  0  0  0
  2  3  1  0  0  0  0
  2 28  1  0  0  0  0
  2 29  1  0  0  0  0
  3  4  1  0  0  0  0
  3  5  1  0  0  0  0
  3 18  1  0  0  0  0
  4 30  1  0  0  0  0
  4 31  1  0  0  0  0
  4 32  1  0  0  0  0
  5  6  1  0  0  0  0
  5 33  1  0  0  0  0
  5 34  1  0  0  0  0
  6  7  1  0  0  0  0
  6 35  1  0  0  0  0
  7  8  2  0  0  0  0
  7  9  1  0  0  0  0
  9 36  1  0  0  0  0
  9 37  1  0  0  0  0
  9 10  1  0  0  0  0
 10 11  1  0  0  0  0
 10 16  1  0  0  0  0
 11 12  2  0  0  0  0
 12 13  1  0  0  0  0
 12 14  1  0  0  0  0
 13 24  1  0  0  0  0
 14 38  1  0  0  0  0
 14 15  2  0  0  0  0
 15 39  1  0  0  0  0
 15 16  1  0  0  0  0
 16 17  2  0  0  0  0
 18 23  1  0  0  0  0
 18 19  1  0  0  0  0
 18 48  1  0  0  0  0
 19 20  1  0  0  0  0
 19 40  1  0  0  0  0
 19 41  1  0  0  0  0
 20 21  1  0  0  0  0
 20 42  1  0  0  0  0
 20 43  1  0  0  0  0
 21 22  1  0  0  0  0
 22 23  1  0  0  0  0
 22 44  1  0  0  0  0
 22 45  1  0  0  0  0
 23 46  1  0  0  0  0
 23 47  1  0  0  0  0
M  CHG  1  18   1
M  END
> <s_m_source_file>
AV-unprocessed.smi

> <i_m_source_file_index>
1986

> <i_lp_mmshare_version>
43012

> <i_f3d_flags>
0

> <s_epik_input>
W0NIMl0xW0NIMl1PW0NIMl1bQ0gyXU4xW0NAQF0oW0NIM10pKFtDSDJdW0NIM10pW0NIMl1bTkhdQyg9TylbQ0gyXW4yW25IXWMoPU8pW2NIXVtjSF1jMj1P

> <s_epik_cmdline>
J2VwaWtfcHl0aG9uJywgJy1waCcsICc3LjAnLCAnLXRuJywgJzgnLCAnLW1hJywgJzIwMCcsICctbWV0YWxfYmluZGluZycsICctaW1hZScsICc8aW5maWxlLm1hZT4nLCAnLW9tYWUnLCAnPG91dGZpbGUubWFlPic=

> <r_lp_tautomer_probability>
0.9996

> <r_epik_Ionization_Penalty>
2.73198

> <r_epik_Ionization_Penalty_Charging>
0.519658

> <r_epik_Ionization_Penalty_Neutral>
2.21233

> <r_epik_State_Penalty>
2.2852

> <r_epik_Charging_Adjusted_Penalty>
2.80486

> <i_epik_Tot_Q>
1

> <i_epik_Tot_abs_Q>
1

> <r_epik_Metal_State_Penalty>
2.2852

> <b_epik_Metal_Only>
0

> <s_lp_Force_Field>
OPLS_2005

> <r_lp_Energy>
43.5621

> <b_lp_Chiralities_Consistent>
1

> <s_lp_Variant>
AV-unprocessed.smi:1986-7

> <Gold.Version>
5.8.1

> <Gold.Id.Protein>
6NUR|6NUR_protein|mol2

> <Gold.PLP.Fitness>
33.6559

> <Gold.PLP.PLP>
-26.8462

> <Gold.PLP.part.hbond>
-2.5662

> <Gold.PLP.part.metal>
0.0000

> <Gold.PLP.part.buried>
-2.6737

> <Gold.PLP.part.nonpolar>
-22.0695

> <Gold.PLP.part.repulsive>
0.4432

> <Gold.PLP.ligand.clash>
0.0000

> <Gold.PLP.ligand.torsion>
1.2139

> <Gold.PLP.Chemscore.Hbond>
2.9825

> <Gold.PLP.Chemscore.CHOScore>
0.0000

> <Gold.PLP.Chemscore.Metal>
0.0000

> <Gold.Chemscore.Hbonds>
donor molecule, donor type, donor heavy atom, donor atom, acceptor molecule, acceptor atom, score
      L1  H    13    24       P1  7957  1.00
      L1  H    18    48       P1 10957  1.85

> <Gold.PLP.Chemscore.Internal.Correction>
0.2899

> <Gold.Rescore>
     Score         DG    S(hbond)    S(metal)    S(lipo)     H(rot)  DE(clash)    DE(int)     intcor
      6.02     -11.47       2.32        0.00      53.89       3.15       0.58       4.87       ----

> <Gold.Chemscore.Fitness>
6.0196

> <Gold.Chemscore.DG>
-11.4743

> <Gold.Chemscore.ZeroCoef>
-5.4800

> <Gold.Chemscore.Hbond>
2.3200

> <Gold.Chemscore.Metal>
0.0000

> <Gold.Chemscore.Lipo>
53.8938

> <Gold.Chemscore.Internal_Hbond>
0.0000

> <Gold.Chemscore.DEClash>
0.5800

> <Gold.Chemscore.DEInternal>
4.8747

> <Gold.Chemscore.Rot>
3.1485

> <Gold.Chemscore.Internal.Correction>
   9.000000E+99

> <Gold.Chemscore.Hbonds>
donor molecule, donor type, donor heavy atom, donor atom, acceptor molecule, acceptor atom, score
      L1  H    13    24       P1  7957  0.94
      L1  H    18    48       P1 10957  0.76

> <Gold.Chemscore.Hbond.Weighted>
-7.7488

> <Gold.Chemscore.Metal.Weighted>
-0.0000

> <Gold.Chemscore.Lipo.Weighted>
-6.3056

> <Gold.Chemscore.Internal_Hbond.Weighted>
0.0000

> <Gold.Chemscore.DEClash.Weighted>
0.5800

> <Gold.Chemscore.DEInternal.Weighted>
4.8747

> <Gold.Chemscore.Rot.Weighted>
8.0601

> <Gold.Chemscore.Internal.Correction.Weighted>
   9.000000E+99

> <Gold.Protein.RotatedTorsions>
[ 6907 6896 6895 6894 ] final  -74.48 input  -60.11 | X-H torsion
[ 7974 7965 7964 7962 ] final  -93.41 input  175.53 | X-H torsion
[ 8008 7997 7996 7995 ] final  -34.36 input   59.86 | X-H torsion
[ 10167 10162 10161 10158 ] final   65.65 input  -65.29 | X-H torsion
[ 10718 10713 10712 10709 ] final -179.06 input   66.30 | X-H torsion
[ 10763 10752 10751 10750 ] final  -98.10 input  -60.55 | X-H torsion
[ 11005 11000 10999 10996 ] final  -85.35 input  -57.11 | X-H torsion

> <Gold.Protein.ActiveResidues>
 VAL166  LYS551  ARG553  GLY616  TRP617  ASP618  TYR619  PRO620  LYS621  CYS622 
 ASP623  PHE694  ASN695  SER759  ASP760  ASP761  ALA762  ILE779  LEU786  VAL792 
 PHE793  MET794  SER795  GLU796  ALA797  LYS798  CYS799  TRP800  GLU811  SER814 

> <Gold.Protein.RotatedAtoms>
  150.7092  134.4863  159.5494 H   0  0  0  0  0  0  0  0  0  0  0  0  # atno 6907 bound_to 6896
  152.2490  134.8149  160.0458 H   0  0  0  0  0  0  0  0  0  0  0  0  # atno 6908 bound_to 6896
  151.8903  133.3479  159.3833 H   0  0  0  0  0  0  0  0  0  0  0  0  # atno 6909 bound_to 6896
  145.3869  140.9524  143.2362 H   0  0  0  0  0  0  0  0  0  0  0  0  # atno 7974 bound_to 7965
  154.4123  140.1686  156.2036 H   0  0  0  0  0  0  0  0  0  0  0  0  # atno 8008 bound_to 7997
  155.9503  140.3401  155.6378 H   0  0  0  0  0  0  0  0  0  0  0  0  # atno 8009 bound_to 7997
  155.6878  140.0730  157.2450 H   0  0  0  0  0  0  0  0  0  0  0  0  # atno 8010 bound_to 7997
  140.1090  144.4835  150.6990 H   0  0  0  0  0  0  0  0  0  0  0  0  # atno 10167 bound_to 10162
  156.8535  130.9727  151.3090 H   0  0  0  0  0  0  0  0  0  0  0  0  # atno 10718 bound_to 10713
  154.7385  135.5022  153.9082 H   0  0  0  0  0  0  0  0  0  0  0  0  # atno 10763 bound_to 10752
  153.1019  135.6687  153.9665 H   0  0  0  0  0  0  0  0  0  0  0  0  # atno 10764 bound_to 10752
  153.9448  135.3064  155.3420 H   0  0  0  0  0  0  0  0  0  0  0  0  # atno 10765 bound_to 10752
  141.1642  133.7395  156.9003 H   0  0  0  0  0  0  0  0  0  0  0  0  # atno 11005 bound_to 11000
  144.8467  139.5385  143.6875 LP  0  0  0  0  0  0  0  0  0  0  0  0  # atno 17320 bound_to 7965
  146.2816  139.6891  142.9225 LP  0  0  0  0  0  0  0  0  0  0  0  0  # atno 17321 bound_to 7965
  140.6936  143.2390  151.5063 LP  0  0  0  0  0  0  0  0  0  0  0  0  # atno 17342 bound_to 10162
  139.5629  144.2112  152.1720 LP  0  0  0  0  0  0  0  0  0  0  0  0  # atno 17343 bound_to 10162
  157.6290  130.8714  149.9240 LP  0  0  0  0  0  0  0  0  0  0  0  0  # atno 17370 bound_to 10713
  156.0815  130.3672  150.0570 LP  0  0  0  0  0  0  0  0  0  0  0  0  # atno 17371 bound_to 10713
  140.1587  134.9180  157.2687 LP  0  0  0  0  0  0  0  0  0  0  0  0  # atno 17394 bound_to 11000
  140.2636  134.3542  155.7398 LP  0  0  0  0  0  0  0  0  0  0  0  0  # atno 17395 bound_to 11000

$$$$
