#       Name:                AV-unprocessed.smi:28
#       Creating user name   scv26
#       Creation time:       Thu Mar 26 15:45:41 2020


#       File generated by GOLD software.
#

@<TRIPOS>MOLECULE
AV-unprocessed.smi:28
    51    54     1
SMALL
NO_CHARGES


@<TRIPOS>ATOM
      1 ****        -1.0537   3.9461  -1.1521 O.2            1 S1                 0.0000
      2 ****        -1.4105   2.7690  -1.0790 C.2            1 S1                 0.0000
      3 ****        -2.7678   2.3640  -0.7292 C.2            1 S1                 0.0000
      4 ****        -3.6980   3.3021  -0.4839 F              1 S1                 0.0000
      5 ****        -3.1075   1.0596  -0.6425 C.2            1 S1                 0.0000
      6 ****        -2.2123   0.0280  -0.8766 N.am           1 S1                 0.0000
      7 ****        -2.6100  -1.4281  -0.7491 C.3            1 S1                 0.0000
      8 ****        -2.6905  -2.0936  -2.1367 C.3            1 S1                 0.0000
      9 ****        -4.0689  -2.7246  -2.1278 C.3            1 S1                 0.0000
     10 ****        -4.8348  -1.7973  -1.1966 C.3            1 S1                 0.0000
     11 ****        -3.8832  -1.5260  -0.1762 O.3            1 S1                 0.0000
     12 ****        -0.8742   0.3280  -1.2136 C.2            1 S1                 0.0000
     13 ****        -0.0546  -0.5747  -1.3996 O.2            1 S1                 0.0000
     14 ****        -0.5197   1.6938  -1.3190 N.am           1 S1                 0.0000
     15 ****         0.8628   2.0131  -1.6342 C.3            1 S1                 0.0000
     16 ****         1.6779   2.0778  -0.3812 C.2            1 S1                 0.0000
     17 ****         1.8972   3.1433   0.3914 N.2            1 S1                 0.0000
     18 ****         2.6837   2.6964   1.4285 N.2            1 S1                 0.0000
     19 ****         2.8770   1.3913   1.2114 C.2            1 S1                 0.0000
     20 ****         3.6458   0.4325   1.9967 C.ar           1 S1                 0.0000
     21 ****         4.5539  -0.4167   1.3270 C.ar           1 S1                 0.0000
     22 ****         5.3156  -1.3581   2.0448 C.ar           1 S1                 0.0000
     23 ****         5.1702  -1.4618   3.4401 C.ar           1 S1                 0.0000
     24 ****         4.2581  -0.6282   4.1137 C.ar           1 S1                 0.0000
     25 ****         3.4916   0.3159   3.4009 C.ar           1 S1                 0.0000
     26 ****         2.2427   1.3829   4.3706 Br             1 S1                 0.0000
     27 ****         2.2786   0.9485   0.0741 O.3            1 S1                 0.0000
     28 ****        -4.1278   0.8339  -0.3730 H              1 S1                 0.0000
     29 ****        -1.8740  -1.8763  -0.0793 H              1 S1                 0.0000
     30 ****        -2.6221  -1.3402  -2.9234 H              1 S1                 0.0000
     31 ****        -1.8873  -2.8192  -2.2695 H              1 S1                 0.0000
     32 ****        -4.5134  -2.7965  -3.1207 H              1 S1                 0.0000
     33 ****        -4.0204  -3.7266  -1.6994 H              1 S1                 0.0000
     34 ****        -5.1129  -0.8749  -1.7088 H              1 S1                 0.0000
     35 ****        -5.7381  -2.2546  -0.7925 H              1 S1                 0.0000
     36 ****         1.2486   1.2561  -2.3189 H              1 S1                 0.0000
     37 ****         0.8955   2.9600  -2.1751 H              1 S1                 0.0000
     38 ****         4.6756  -0.3440   0.2558 H              1 S1                 0.0000
     39 ****         6.0116  -1.9997   1.5246 H              1 S1                 0.0000
     40 ****         5.7533  -2.1835   3.9929 H              1 S1                 0.0000
     41 ****         4.1410  -0.7176   5.1837 H              1 S1                 0.0000
     42 ****        -0.1075   4.1681  -1.3875 LP             1 S1                 0.0000
     43 ****        -1.7103   4.6795  -0.9760 LP             1 S1                 0.0000
     44 ****        -4.1138  -0.6643   0.2758 LP             1 S1                 0.0000
     45 ****        -3.8919  -2.2672   0.4951 LP             1 S1                 0.0000
     46 ****        -0.3351  -1.5306  -1.3121 LP             1 S1                 0.0000
     47 ****         0.8905  -0.3507  -1.6378 LP             1 S1                 0.0000
     48 ****         1.5600   4.0736   0.2469 LP             1 S1                 0.0000
     49 ****         3.0388   3.2381   2.1904 LP             1 S1                 0.0000
     50 ****         2.9512   0.6043  -0.5810 LP             1 S1                 0.0000
     51 ****         1.6080   0.2331   0.2703 LP             1 S1                 0.0000
@<TRIPOS>BOND
    1    1    2 2     
    2    2   14 am    
    3    2    3 1     
    4    3    4 1     
    5    3    5 2     
    6    5    6 1     
    7    5   28 1     
    8    6    7 1     
    9    6   12 am    
   10    7   11 1     
   11    7    8 1     
   12    7   29 1     
   13    8    9 1     
   14    8   30 1     
   15    8   31 1     
   16    9   10 1     
   17    9   32 1     
   18    9   33 1     
   19   10   11 1     
   20   10   34 1     
   21   10   35 1     
   22   12   13 2     
   23   12   14 am    
   24   14   15 1     
   25   15   16 1     
   26   15   36 1     
   27   15   37 1     
   28   16   27 1     
   29   16   17 2     
   30   17   18 1     
   31   18   19 2     
   32   19   20 1     
   33   19   27 1     
   34   20   25 ar    
   35   20   21 ar    
   36   21   22 ar    
   37   21   38 1     
   38   22   23 ar    
   39   22   39 1     
   40   23   24 ar    
   41   23   40 1     
   42   24   25 ar    
   43   24   41 1     
   44   25   26 1     
   45    1   42 1     
   46    1   43 1     
   47   11   44 1     
   48   11   45 1     
   49   13   46 1     
   50   13   47 1     
   51   17   48 1     
   52   18   49 1     
   53   27   50 1     
   54   27   51 1     
@<TRIPOS>SUBSTRUCTURE
      1 S1             1
@<TRIPOS>SET
LONE_PAIRS      STATIC     ATOMS    <user>   **** ""
10 42 43 44 45 46 47 48 49 50 51
ATOM$BLUE        STATIC     ATOMS    COLORGROUP SYSTEM
10 42 43 44 45 46 47 48 49 50 51
