AV-unprocessed.smi:3318|AV-procd|sdf|12765|dock6
  -GOLD-   2272019103D 1   1.00000     0.00000
 Structure written by MMmdl.
 44 45  0  0  0  0  0  0  0  0  2 V2000
  145.8239  136.0617  151.5806 C   0  0  0  0  0  0  0  0  0  0  0  0
  145.5133  137.0415  152.7176 C   0  0  0  0  0  0  0  0  0  0  0  0
  146.2740  136.6980  154.0099 C   0  0  0  0  0  0  0  0  0  0  0  0
  147.6462  137.2657  154.0315 N   0  3  2  0  0  0  0  0  0  0  0  0
  148.4177  136.8952  155.2479 C   0  0  0  0  0  0  0  0  0  0  0  0
  149.8679  137.4010  155.1651 C   0  0  0  0  0  0  0  0  0  0  0  0
  149.9123  138.9251  154.9409 C   0  0  1  0  0  0  0  0  0  0  0  0
  151.2774  139.3903  154.7296 N   0  0  0  0  0  0  0  0  0  0  0  0
  151.9799  139.6143  155.9850 C   0  0  0  0  0  0  0  0  0  0  0  0
  151.2358  140.6680  156.8163 C   0  0  0  0  0  0  0  0  0  0  0  0
  151.9766  141.0034  158.0969 C   0  0  0  0  0  0  0  0  0  0  0  0
  151.5515  142.0698  158.9176 C   0  0  0  0  0  0  0  0  0  0  0  0
  152.2654  142.3295  160.1034 C   0  0  0  0  0  0  0  0  0  0  0  0
  153.3705  141.5167  160.4218 C   0  0  0  0  0  0  0  0  0  0  0  0
  153.7142  140.4763  159.5358 C   0  0  0  0  0  0  0  0  0  0  0  0
  153.0361  140.2183  158.3967 N   0  0  0  0  0  0  0  0  0  0  0  0
  149.0821  139.2772  153.6963 C   0  0  0  0  0  0  0  0  0  0  0  0
  147.6485  138.7355  153.8159 C   0  0  0  0  0  0  0  0  0  0  0  0
  145.2750  136.3290  150.6773 H   0  0  0  0  0  0  0  0  0  0  0  0
  145.5435  135.0430  151.8494 H   0  0  0  0  0  0  0  0  0  0  0  0
  146.8866  136.0645  151.3368 H   0  0  0  0  0  0  0  0  0  0  0  0
  145.7602  138.0484  152.3829 H   0  0  0  0  0  0  0  0  0  0  0  0
  144.4403  137.0334  152.9115 H   0  0  0  0  0  0  0  0  0  0  0  0
  145.7078  137.1058  154.8483 H   0  0  0  0  0  0  0  0  0  0  0  0
  146.3141  135.6183  154.1623 H   0  0  0  0  0  0  0  0  0  0  0  0
  147.9281  137.3089  156.1310 H   0  0  0  0  0  0  0  0  0  0  0  0
  148.4324  135.8135  155.3747 H   0  0  0  0  0  0  0  0  0  0  0  0
  150.3900  137.1288  156.0823 H   0  0  0  0  0  0  0  0  0  0  0  0
  150.3840  136.8885  154.3516 H   0  0  0  0  0  0  0  0  0  0  0  0
  149.4821  139.4409  155.8013 H   0  0  0  0  0  0  0  0  0  0  0  0
  151.7879  138.7359  154.1535 H   0  0  0  0  0  0  0  0  0  0  0  0
  152.0434  138.6786  156.5420 H   0  0  0  0  0  0  0  0  0  0  0  0
  152.9981  139.9523  155.7936 H   0  0  0  0  0  0  0  0  0  0  0  0
  151.1038  141.5825  156.2357 H   0  0  0  0  0  0  0  0  0  0  0  0
  150.2342  140.3130  157.0638 H   0  0  0  0  0  0  0  0  0  0  0  0
  150.6971  142.6736  158.6487 H   0  0  0  0  0  0  0  0  0  0  0  0
  151.9695  143.1361  160.7577 H   0  0  0  0  0  0  0  0  0  0  0  0
  153.9404  141.6859  161.3232 H   0  0  0  0  0  0  0  0  0  0  0  0
  154.5551  139.8329  159.7486 H   0  0  0  0  0  0  0  0  0  0  0  0
  149.0542  140.3590  153.5582 H   0  0  0  0  0  0  0  0  0  0  0  0
  149.5505  138.8628  152.8018 H   0  0  0  0  0  0  0  0  0  0  0  0
  147.1011  138.9762  152.9038 H   0  0  0  0  0  0  0  0  0  0  0  0
  147.1267  139.2271  154.6389 H   0  0  0  0  0  0  0  0  0  0  0  0
  148.1322  136.8664  153.2412 H   0  0  0  0  0  0  0  0  0  0  0  0
  1  2  1  0  0  0  0
  1 19  1  0  0  0  0
  1 20  1  0  0  0  0
  1 21  1  0  0  0  0
  2  3  1  0  0  0  0
  2 22  1  0  0  0  0
  2 23  1  0  0  0  0
  3  4  1  0  0  0  0
  3 24  1  0  0  0  0
  3 25  1  0  0  0  0
  4 18  1  0  0  0  0
  4  5  1  0  0  0  0
  4 44  1  0  0  0  0
  5  6  1  0  0  0  0
  5 26  1  0  0  0  0
  5 27  1  0  0  0  0
  6  7  1  0  0  0  0
  6 28  1  0  0  0  0
  6 29  1  0  0  0  0
  7  8  1  0  0  0  0
  7 17  1  0  0  0  0
  7 30  1  0  0  0  0
  8  9  1  0  0  0  0
  8 31  1  0  0  0  0
  9 10  1  0  0  0  0
  9 32  1  0  0  0  0
  9 33  1  0  0  0  0
 10 11  1  0  0  0  0
 10 34  1  0  0  0  0
 10 35  1  0  0  0  0
 11 16  1  0  0  0  0
 11 12  2  0  0  0  0
 12 13  1  0  0  0  0
 12 36  1  0  0  0  0
 13 14  2  0  0  0  0
 13 37  1  0  0  0  0
 14 15  1  0  0  0  0
 14 38  1  0  0  0  0
 15 16  2  0  0  0  0
 15 39  1  0  0  0  0
 17 18  1  0  0  0  0
 17 40  1  0  0  0  0
 17 41  1  0  0  0  0
 18 42  1  0  0  0  0
 18 43  1  0  0  0  0
M  CHG  1   4   1
M  END
> <s_m_source_file>
AV-unprocessed.smi

> <i_m_source_file_index>
3318

> <i_lp_mmshare_version>
43012

> <i_f3d_flags>
0

> <s_epik_input>
W0NIM11bQ0gyXVtDSDJdTjFbQ0gyXVtDSDJdW0NIXShbQ0gyXVtDSDJdMSlbTkhdW0NIMl1bQ0gyXWMyW2NIXVtjSF1bY0hdW2NIXW4y

> <s_epik_cmdline>
J2VwaWtfcHl0aG9uJywgJy1waCcsICc3LjAnLCAnLXRuJywgJzgnLCAnLW1hJywgJzIwMCcsICctbWV0YWxfYmluZGluZycsICctaW1hZScsICc8aW5maWxlLm1hZT4nLCAnLW9tYWUnLCAnPG91dGZpbGUubWFlPic=

> <r_epik_Ionization_Penalty>
2.30703

> <r_epik_Ionization_Penalty_Charging>
0.000286176

> <r_epik_Ionization_Penalty_Neutral>
2.30674

> <r_epik_State_Penalty>
2.39905

> <r_epik_Charging_Adjusted_Penalty>
2.39933

> <i_epik_Tot_Q>
1

> <i_epik_Tot_abs_Q>
1

> <r_epik_Metal_State_Penalty>
2.30906

> <b_epik_Metal_Only>
0

> <s_lp_Force_Field>
OPLS_2005

> <r_lp_Energy>
18.8506

> <b_lp_Chiralities_Consistent>
1

> <s_lp_Variant>
AV-unprocessed.smi:3318-4

> <Gold.Version>
5.8.1

> <Gold.Id.Protein>
6NUR|6NUR_protein|mol2

> <Gold.PLP.Fitness>
41.4985

> <Gold.PLP.PLP>
-30.4296

> <Gold.PLP.part.hbond>
-3.0000

> <Gold.PLP.part.metal>
0.0000

> <Gold.PLP.part.buried>
0.3633

> <Gold.PLP.part.nonpolar>
-28.1398

> <Gold.PLP.part.repulsive>
0.0000

> <Gold.PLP.ligand.clash>
0.0000

> <Gold.PLP.ligand.torsion>
0.4719

> <Gold.PLP.Chemscore.Hbond>
3.9760

> <Gold.PLP.Chemscore.CHOScore>
0.0000

> <Gold.PLP.Chemscore.Metal>
0.0000

> <Gold.Chemscore.Hbonds>
donor molecule, donor type, donor heavy atom, donor atom, acceptor molecule, acceptor atom, score
      L1  H     4    44       P1  7948  2.00
      P1  H  7989  7998       L1     8  0.60
      P1  H  7997  8009       L1    16  0.86

> <Gold.PLP.Chemscore.Internal.Correction>
0.0847

> <Gold.Rescore>
     Score         DG    S(hbond)    S(metal)    S(lipo)     H(rot)  DE(clash)    DE(int)     intcor
     17.07     -19.12       1.80        0.00      97.74       1.48       1.67       0.39       ----

> <Gold.Chemscore.Fitness>
17.0672

> <Gold.Chemscore.DG>
-19.1241

> <Gold.Chemscore.ZeroCoef>
-5.4800

> <Gold.Chemscore.Hbond>
1.7966

> <Gold.Chemscore.Metal>
0.0000

> <Gold.Chemscore.Lipo>
97.7372

> <Gold.Chemscore.Internal_Hbond>
0.0000

> <Gold.Chemscore.DEClash>
1.6710

> <Gold.Chemscore.DEInternal>
0.3860

> <Gold.Chemscore.Rot>
1.4811

> <Gold.Chemscore.Internal.Correction>
   9.000000E+99

> <Gold.Chemscore.Hbonds>
donor molecule, donor type, donor heavy atom, donor atom, acceptor molecule, acceptor atom, score
      L1  H     4    44       P1  7948  1.00
      P1  H  7989  7998       L1     8  0.03
      P1  H  7997  8009       L1    16  0.23

> <Gold.Chemscore.Hbond.Weighted>
-6.0006

> <Gold.Chemscore.Metal.Weighted>
-0.0000

> <Gold.Chemscore.Lipo.Weighted>
-11.4353

> <Gold.Chemscore.Internal_Hbond.Weighted>
0.0000

> <Gold.Chemscore.DEClash.Weighted>
1.6710

> <Gold.Chemscore.DEInternal.Weighted>
0.3860

> <Gold.Chemscore.Rot.Weighted>
3.7917

> <Gold.Chemscore.Internal.Correction.Weighted>
   9.000000E+99

> <Gold.Protein.RotatedTorsions>
[ 6907 6896 6895 6894 ] final -100.56 input  -60.11 | X-H torsion
[ 7974 7965 7964 7962 ] final  -89.09 input  175.53 | X-H torsion
[ 8008 7997 7996 7995 ] final  153.89 input   59.86 | X-H torsion
[ 10167 10162 10161 10158 ] final  -85.12 input  -65.29 | X-H torsion
[ 10718 10713 10712 10709 ] final  132.12 input   66.30 | X-H torsion
[ 10763 10752 10751 10750 ] final   27.79 input  -60.55 | X-H torsion
[ 11005 11000 10999 10996 ] final  -98.56 input  -57.11 | X-H torsion

> <Gold.Protein.ActiveResidues>
 VAL166  LYS551  ARG553  GLY616  TRP617  ASP618  TYR619  PRO620  LYS621  CYS622 
 ASP623  PHE694  ASN695  SER759  ASP760  ASP761  ALA762  ILE779  LEU786  VAL792 
 PHE793  MET794  SER795  GLU796  ALA797  LYS798  CYS799  TRP800  GLU811  SER814 

> <Gold.Protein.RotatedAtoms>
  150.7120  134.0869  159.3917 H   0  0  0  0  0  0  0  0  0  0  0  0  # atno 6907 bound_to 6896
  151.8854  135.0435  160.0502 H   0  0  0  0  0  0  0  0  0  0  0  0  # atno 6908 bound_to 6896
  152.2534  133.5199  159.5375 H   0  0  0  0  0  0  0  0  0  0  0  0  # atno 6909 bound_to 6896
  145.4445  140.9559  143.2057 H   0  0  0  0  0  0  0  0  0  0  0  0  # atno 7974 bound_to 7965
  156.2559  140.1981  156.6561 H   0  0  0  0  0  0  0  0  0  0  0  0  # atno 8008 bound_to 7997
  154.6500  140.0573  156.9969 H   0  0  0  0  0  0  0  0  0  0  0  0  # atno 8009 bound_to 7997
  155.1433  140.3244  155.4450 H   0  0  0  0  0  0  0  0  0  0  0  0  # atno 8010 bound_to 7997
  140.4067  143.2639  151.9071 H   0  0  0  0  0  0  0  0  0  0  0  0  # atno 10167 bound_to 10162
  157.4902  131.1090  150.9567 H   0  0  0  0  0  0  0  0  0  0  0  0  # atno 10718 bound_to 10713
  153.0533  135.6528  154.0639 H   0  0  0  0  0  0  0  0  0  0  0  0  # atno 10763 bound_to 10752
  154.0323  135.2910  155.3368 H   0  0  0  0  0  0  0  0  0  0  0  0  # atno 10764 bound_to 10752
  154.6834  135.5311  153.8361 H   0  0  0  0  0  0  0  0  0  0  0  0  # atno 10765 bound_to 10752
  141.1340  133.8255  157.0856 H   0  0  0  0  0  0  0  0  0  0  0  0  # atno 11005 bound_to 11000
  144.8101  139.5979  143.7033 LP  0  0  0  0  0  0  0  0  0  0  0  0  # atno 17320 bound_to 7965
  146.2538  139.6258  142.9409 LP  0  0  0  0  0  0  0  0  0  0  0  0  # atno 17321 bound_to 7965
  139.4783  144.5578  151.8286 LP  0  0  0  0  0  0  0  0  0  0  0  0  # atno 17342 bound_to 10162
  140.4682  144.1625  150.5914 LP  0  0  0  0  0  0  0  0  0  0  0  0  # atno 17343 bound_to 10162
  157.0271  130.5696  149.5338 LP  0  0  0  0  0  0  0  0  0  0  0  0  # atno 17370 bound_to 10713
  156.0169  130.5263  150.8161 LP  0  0  0  0  0  0  0  0  0  0  0  0  # atno 17371 bound_to 10713
  140.0424  134.9847  157.0986 LP  0  0  0  0  0  0  0  0  0  0  0  0  # atno 17394 bound_to 11000
  140.4115  134.1976  155.7163 LP  0  0  0  0  0  0  0  0  0  0  0  0  # atno 17395 bound_to 11000

$$$$
