AV-unprocessed.smi:346|AV-procd|sdf|2392|dock10
  -GOLD-   2262022323D 1   1.00000     0.00000
 Structure written by MMmdl.
 33 34  0  0  0  0  0  0  0  0  1 V2000
  147.0451  142.0770  154.2081 C   0  0  0  0  0  0  0  0  0  0  0  0
  148.0440  141.1329  153.8642 O   0  0  0  0  0  0  0  0  0  0  0  0
  148.7913  140.6991  154.9875 C   0  0  0  0  0  0  0  0  0  0  0  0
  149.9074  141.7149  155.2588 C   0  0  0  0  0  0  0  0  0  0  0  0
  150.8714  141.2090  156.2231 N   0  0  0  0  0  0  0  0  0  0  0  0
  151.6160  140.0778  156.1425 C   0  0  0  0  0  0  0  0  0  0  0  0
  151.4964  138.9982  154.7445 S   0  0  0  0  0  0  0  0  0  0  0  0
  150.6758  137.5639  155.5047 C   0  0  0  0  0  0  0  0  0  0  0  0
  151.4820  136.9711  156.6580 C   0  0  0  0  0  0  0  0  0  0  0  0
  150.9430  137.0400  157.8783 N   0  0  0  0  0  0  0  0  0  0  0  0
  152.5746  136.4480  156.4510 O   0  0  0  0  0  0  0  0  0  0  0  0
  152.4281  139.8551  157.1781 N   0  0  0  0  0  0  0  0  0  0  0  0
  152.1907  140.9396  157.9986 C   0  0  0  0  0  0  0  0  0  0  0  0
  152.7468  141.2827  159.2516 C   0  0  0  0  0  0  0  0  0  0  0  0
  152.3455  142.4628  159.9117 C   0  0  0  0  0  0  0  0  0  0  0  0
  153.0334  142.8654  161.4416 Cl  0  0  0  0  0  0  0  0  0  0  0  0
  151.3850  143.3148  159.3279 C   0  0  0  0  0  0  0  0  0  0  0  0
  150.8185  142.9907  158.0799 C   0  0  0  0  0  0  0  0  0  0  0  0
  151.2216  141.8102  157.4275 C   0  0  0  0  0  0  0  0  0  0  0  0
  146.5034  142.3792  153.3118 H   0  0  0  0  0  0  0  0  0  0  0  0
  147.4830  142.9708  154.6540 H   0  0  0  0  0  0  0  0  0  0  0  0
  146.3258  141.6524  154.9095 H   0  0  0  0  0  0  0  0  0  0  0  0
  148.1400  140.6113  155.8584 H   0  0  0  0  0  0  0  0  0  0  0  0
  149.2191  139.7140  154.7943 H   0  0  0  0  0  0  0  0  0  0  0  0
  150.4314  141.9500  154.3320 H   0  0  0  0  0  0  0  0  0  0  0  0
  149.4926  142.6558  155.6213 H   0  0  0  0  0  0  0  0  0  0  0  0
  149.6943  137.8607  155.8764 H   0  0  0  0  0  0  0  0  0  0  0  0
  150.5177  136.7962  154.7459 H   0  0  0  0  0  0  0  0  0  0  0  0
  151.4366  136.6547  158.6704 H   0  0  0  0  0  0  0  0  0  0  0  0
  150.0388  137.4716  158.0027 H   0  0  0  0  0  0  0  0  0  0  0  0
  153.4835  140.6360  159.7050 H   0  0  0  0  0  0  0  0  0  0  0  0
  151.0818  144.2177  159.8379 H   0  0  0  0  0  0  0  0  0  0  0  0
  150.0838  143.6421  157.6309 H   0  0  0  0  0  0  0  0  0  0  0  0
  1  2  1  0  0  0  0
  1 20  1  0  0  0  0
  1 21  1  0  0  0  0
  1 22  1  0  0  0  0
  2  3  1  0  0  0  0
  3  4  1  0  0  0  0
  3 23  1  0  0  0  0
  3 24  1  0  0  0  0
  4  5  1  0  0  0  0
  4 25  1  0  0  0  0
  4 26  1  0  0  0  0
  5 19  1  0  0  0  0
  5  6  1  0  0  0  0
  6  7  1  0  0  0  0
  6 12  2  0  0  0  0
  7  8  1  0  0  0  0
  8  9  1  0  0  0  0
  8 27  1  0  0  0  0
  8 28  1  0  0  0  0
  9 10  1  0  0  0  0
  9 11  2  0  0  0  0
 10 29  1  0  0  0  0
 10 30  1  0  0  0  0
 12 13  1  0  0  0  0
 13 19  2  0  0  0  0
 13 14  1  0  0  0  0
 14 15  2  0  0  0  0
 14 31  1  0  0  0  0
 15 16  1  0  0  0  0
 15 17  1  0  0  0  0
 17 18  2  0  0  0  0
 17 32  1  0  0  0  0
 18 19  1  0  0  0  0
 18 33  1  0  0  0  0
M  END
> <s_m_source_file>
AV-unprocessed.smi

> <i_m_source_file_index>
346

> <i_lp_mmshare_version>
43012

> <i_f3d_flags>
0

> <s_epik_input>
W2NIXTFjKENsKVtjSF1bY0hdYyhjMTIpbihbQ0gyXVtDSDJdT1tDSDNdKWMobjIpU1tDSDJdQyg9TylbTkgyXQ==

> <s_epik_cmdline>
J2VwaWtfcHl0aG9uJywgJy1waCcsICc3LjAnLCAnLXRuJywgJzgnLCAnLW1hJywgJzIwMCcsICctbWV0YWxfYmluZGluZycsICctaW1hZScsICc8aW5maWxlLm1hZT4nLCAnLW9tYWUnLCAnPG91dGZpbGUubWFlPic=

> <r_epik_Ionization_Penalty>
0.00801462

> <r_epik_Ionization_Penalty_Charging>
0

> <r_epik_Ionization_Penalty_Neutral>
0.00801462

> <r_epik_State_Penalty>
0.00601782

> <r_epik_Charging_Adjusted_Penalty>
0.00601782

> <i_epik_Tot_Q>
0

> <i_epik_Tot_abs_Q>
0

> <r_epik_Metal_State_Penalty>
0.00593415

> <b_epik_Metal_Only>
0

> <s_lp_Force_Field>
OPLS_2005

> <r_lp_Energy>
4.29965

> <b_lp_Chiralities_Consistent>
1

> <s_lp_Variant>
AV-unprocessed.smi:346-1

> <Gold.Version>
5.8.1

> <Gold.Id.Protein>
6NUR|6NUR_protein|mol2

> <Gold.PLP.Fitness>
44.2264

> <Gold.PLP.PLP>
-38.7916

> <Gold.PLP.part.hbond>
-2.0000

> <Gold.PLP.part.metal>
0.0000

> <Gold.PLP.part.buried>
-4.0401

> <Gold.PLP.part.nonpolar>
-32.1490

> <Gold.PLP.part.repulsive>
0.2373

> <Gold.PLP.ligand.clash>
0.0000

> <Gold.PLP.ligand.torsion>
0.2831

> <Gold.PLP.Chemscore.Hbond>
1.9920

> <Gold.PLP.Chemscore.CHOScore>
0.0000

> <Gold.PLP.Chemscore.Metal>
0.0000

> <Gold.Chemscore.Hbonds>
donor molecule, donor type, donor heavy atom, donor atom, acceptor molecule, acceptor atom, score
      P1  H  7997  8008       L1    12  0.99
      P1  H 10752 10764       L1    11  1.00

> <Gold.PLP.Chemscore.Internal.Correction>
0.0250

> <Gold.Rescore>
     Score         DG    S(hbond)    S(metal)    S(lipo)     H(rot)  DE(clash)    DE(int)     intcor
     15.25     -15.80       1.70        0.00      98.34       2.68       0.06       0.50       ----

> <Gold.Chemscore.Fitness>
15.2454

> <Gold.Chemscore.DG>
-15.8005

> <Gold.Chemscore.ZeroCoef>
-5.4800

> <Gold.Chemscore.Hbond>
1.7004

> <Gold.Chemscore.Metal>
0.0000

> <Gold.Chemscore.Lipo>
98.3376

> <Gold.Chemscore.Internal_Hbond>
0.0000

> <Gold.Chemscore.DEClash>
0.0572

> <Gold.Chemscore.DEInternal>
0.4979

> <Gold.Chemscore.Rot>
2.6814

> <Gold.Chemscore.Internal.Correction>
   9.000000E+99

> <Gold.Chemscore.Hbonds>
donor molecule, donor type, donor heavy atom, donor atom, acceptor molecule, acceptor atom, score
      P1  H  7997  8008       L1    12  0.31
      P1  H 10752 10764       L1    11  0.96

> <Gold.Chemscore.Hbond.Weighted>
-5.6793

> <Gold.Chemscore.Metal.Weighted>
-0.0000

> <Gold.Chemscore.Lipo.Weighted>
-11.5055

> <Gold.Chemscore.Internal_Hbond.Weighted>
0.0000

> <Gold.Chemscore.DEClash.Weighted>
0.0572

> <Gold.Chemscore.DEInternal.Weighted>
0.4979

> <Gold.Chemscore.Rot.Weighted>
6.8644

> <Gold.Chemscore.Internal.Correction.Weighted>
   9.000000E+99

> <Gold.Protein.RotatedTorsions>
[ 6907 6896 6895 6894 ] final  125.66 input  -60.11 | X-H torsion
[ 7974 7965 7964 7962 ] final  -51.74 input  175.53 | X-H torsion
[ 8008 7997 7996 7995 ] final  -57.14 input   59.86 | X-H torsion
[ 10167 10162 10161 10158 ] final  155.95 input  -65.29 | X-H torsion
[ 10718 10713 10712 10709 ] final    5.96 input   66.30 | X-H torsion
[ 10763 10752 10751 10750 ] final  -31.40 input  -60.55 | X-H torsion
[ 11005 11000 10999 10996 ] final  161.42 input  -57.11 | X-H torsion

> <Gold.Protein.ActiveResidues>
 VAL166  LYS551  ARG553  GLY616  TRP617  ASP618  TYR619  PRO620  LYS621  CYS622 
 ASP623  PHE694  ASN695  SER759  ASP760  ASP761  ALA762  ILE779  LEU786  VAL792 
 PHE793  MET794  SER795  GLU796  ALA797  LYS798  CYS799  TRP800  GLU811  SER814 

> <Gold.Protein.RotatedAtoms>
  152.3973  133.6765  159.6286 H   0  0  0  0  0  0  0  0  0  0  0  0  # atno 6907 bound_to 6896
  150.7869  133.8853  159.3306 H   0  0  0  0  0  0  0  0  0  0  0  0  # atno 6908 bound_to 6896
  151.6626  135.0989  160.0234 H   0  0  0  0  0  0  0  0  0  0  0  0  # atno 6909 bound_to 6896
  145.9156  140.7878  142.9673 H   0  0  0  0  0  0  0  0  0  0  0  0  # atno 7974 bound_to 7965
  154.4256  140.1113  156.5749 H   0  0  0  0  0  0  0  0  0  0  0  0  # atno 8008 bound_to 7997
  155.6173  140.3495  155.4622 H   0  0  0  0  0  0  0  0  0  0  0  0  # atno 8009 bound_to 7997
  156.0052  140.1207  157.0498 H   0  0  0  0  0  0  0  0  0  0  0  0  # atno 8010 bound_to 7997
  139.4821  144.5052  151.8108 H   0  0  0  0  0  0  0  0  0  0  0  0  # atno 10167 bound_to 10162
  156.9152  130.5770  149.5647 H   0  0  0  0  0  0  0  0  0  0  0  0  # atno 10718 bound_to 10713
  153.7967  135.6893  153.4862 H   0  0  0  0  0  0  0  0  0  0  0  0  # atno 10763 bound_to 10752
  153.1714  135.4541  154.9906 H   0  0  0  0  0  0  0  0  0  0  0  0  # atno 10764 bound_to 10752
  154.8023  135.3342  154.7459 H   0  0  0  0  0  0  0  0  0  0  0  0  # atno 10765 bound_to 10752
  140.2157  134.8234  157.3167 H   0  0  0  0  0  0  0  0  0  0  0  0  # atno 11005 bound_to 11000
  144.6747  140.1895  143.7398 LP  0  0  0  0  0  0  0  0  0  0  0  0  # atno 17320 bound_to 7965
  145.8616  139.2225  143.1713 LP  0  0  0  0  0  0  0  0  0  0  0  0  # atno 17321 bound_to 7965
  140.4549  144.1803  150.5900 LP  0  0  0  0  0  0  0  0  0  0  0  0  # atno 17342 bound_to 10162
  140.4545  143.2473  151.9303 LP  0  0  0  0  0  0  0  0  0  0  0  0  # atno 17343 bound_to 10162
  156.0517  130.5585  150.9003 LP  0  0  0  0  0  0  0  0  0  0  0  0  # atno 17370 bound_to 10713
  157.5942  131.0943  150.9068 LP  0  0  0  0  0  0  0  0  0  0  0  0  # atno 17371 bound_to 10713
  140.1904  134.4379  155.7719 LP  0  0  0  0  0  0  0  0  0  0  0  0  # atno 17394 bound_to 11000
  141.2225  133.7024  156.8017 LP  0  0  0  0  0  0  0  0  0  0  0  0  # atno 17395 bound_to 11000

$$$$
