AV-unprocessed.smi:81|AV-procd|sdf|788|dock8
  -GOLD-   2262017163D 1   1.00000     0.00000
 Structure written by MMmdl.
 64 67  0  0  0  0  0  0  0  0  2 V2000
  152.2502  138.3153  156.3747 C   0  0  0  0  0  0  0  0  0  0  0  0
  151.4511  139.2378  155.4393 C   0  0  0  0  0  0  0  0  0  0  0  0
  152.2076  139.4525  154.1211 C   0  0  0  0  0  0  0  0  0  0  0  0
  151.1329  140.5961  156.1047 C   0  0  0  0  0  0  0  0  0  0  0  0
  150.6572  140.4866  157.4869 N   0  0  0  0  0  0  0  0  0  0  0  0
  149.4605  139.8634  157.6262 C   0  0  0  0  0  0  0  0  0  0  0  0
  148.3489  140.3848  157.0430 N   0  0  0  0  0  0  0  0  0  0  0  0
  147.1737  139.7605  157.1664 C   0  0  0  0  0  0  0  0  0  0  0  0
  146.8954  138.6258  157.8117 N   0  0  0  0  0  0  0  0  0  0  0  0
  148.0123  138.0949  158.3870 C   0  0  0  0  0  0  0  0  0  0  0  0
  149.3224  138.6468  158.3456 C   0  0  0  0  0  0  0  0  0  0  0  0
  150.2065  137.8329  159.0422 N   0  0  0  0  0  0  0  0  0  0  0  0
  149.4604  136.8518  159.4707 C   0  0  0  0  0  0  0  0  0  0  0  0
  148.1318  136.9250  159.1161 N   0  0  0  0  0  0  0  0  0  0  0  0
  147.0887  135.9673  159.4464 C   0  0  0  0  0  0  0  0  0  0  0  0
  146.6009  136.0737  160.9109 C   0  0  1  0  0  0  0  0  0  0  0  0
  147.7281  136.0035  161.7694 O   0  0  0  0  0  0  0  0  0  0  0  0
  145.8369  137.3526  161.2208 C   0  0  0  0  0  0  0  0  0  0  0  0
  145.0025  136.9542  162.4317 C   0  0  0  0  0  0  0  0  0  0  0  0
  144.6534  135.5943  162.2055 O   0  0  0  0  0  0  0  0  0  0  0  0
  145.5620  134.9938  161.2830 C   0  0  2  0  0  0  0  0  0  0  0  0
  146.1127  133.6690  161.8346 C   0  0  0  0  0  0  0  0  0  0  0  0
  150.8888  141.6514  158.3533 C   0  0  2  0  0  0  0  0  0  0  0  0
  150.1631  142.9308  157.8860 C   0  0  0  0  0  0  0  0  0  0  0  0
  150.3793  144.0791  158.8848 C   0  0  0  0  0  0  0  0  0  0  0  0
  151.8258  144.3457  159.0818 N   0  3  1  0  0  0  0  0  0  0  0  0
  152.0694  145.5267  159.9376 C   0  0  0  0  0  0  0  0  0  0  0  0
  152.5533  143.1432  159.5587 C   0  0  0  0  0  0  0  0  0  0  0  0
  152.3829  141.9682  158.5814 C   0  0  0  0  0  0  0  0  0  0  0  0
  153.2007  138.7676  156.6595 H   0  0  0  0  0  0  0  0  0  0  0  0
  152.4668  137.3613  155.8935 H   0  0  0  0  0  0  0  0  0  0  0  0
  151.6988  138.0984  157.2895 H   0  0  0  0  0  0  0  0  0  0  0  0
  150.5174  138.7337  155.1870 H   0  0  0  0  0  0  0  0  0  0  0  0
  153.1624  139.9521  154.2884 H   0  0  0  0  0  0  0  0  0  0  0  0
  151.6270  140.0655  153.4308 H   0  0  0  0  0  0  0  0  0  0  0  0
  152.4102  138.5029  153.6251 H   0  0  0  0  0  0  0  0  0  0  0  0
  152.0274  141.2200  156.0872 H   0  0  0  0  0  0  0  0  0  0  0  0
  150.3870  141.1271  155.5119 H   0  0  0  0  0  0  0  0  0  0  0  0
  146.3372  140.2353  156.6750 H   0  0  0  0  0  0  0  0  0  0  0  0
  149.8635  136.0371  160.0546 H   0  0  0  0  0  0  0  0  0  0  0  0
  146.2574  136.1290  158.7587 H   0  0  0  0  0  0  0  0  0  0  0  0
  147.4614  134.9624  159.2433 H   0  0  0  0  0  0  0  0  0  0  0  0
  148.2715  136.7606  161.6128 H   0  0  0  0  0  0  0  0  0  0  0  0
  146.4783  138.2154  161.4072 H   0  0  0  0  0  0  0  0  0  0  0  0
  145.1712  137.6025  160.3935 H   0  0  0  0  0  0  0  0  0  0  0  0
  145.5963  137.0189  163.3442 H   0  0  0  0  0  0  0  0  0  0  0  0
  144.1185  137.5797  162.5571 H   0  0  0  0  0  0  0  0  0  0  0  0
  144.9648  134.7693  160.3980 H   0  0  0  0  0  0  0  0  0  0  0  0
  146.8146  133.2149  161.1349 H   0  0  0  0  0  0  0  0  0  0  0  0
  145.3049  132.9568  162.0030 H   0  0  0  0  0  0  0  0  0  0  0  0
  146.6268  133.8103  162.7856 H   0  0  0  0  0  0  0  0  0  0  0  0
  150.4611  141.3864  159.3213 H   0  0  0  0  0  0  0  0  0  0  0  0
  150.5252  143.2445  156.9059 H   0  0  0  0  0  0  0  0  0  0  0  0
  149.0950  142.7377  157.7800 H   0  0  0  0  0  0  0  0  0  0  0  0
  149.8879  144.9795  158.5140 H   0  0  0  0  0  0  0  0  0  0  0  0
  149.9166  143.8367  159.8429 H   0  0  0  0  0  0  0  0  0  0  0  0
  151.6943  145.3622  160.9487 H   0  0  0  0  0  0  0  0  0  0  0  0
  151.5753  146.4082  159.5278 H   0  0  0  0  0  0  0  0  0  0  0  0
  153.1362  145.7435  159.9995 H   0  0  0  0  0  0  0  0  0  0  0  0
  153.6137  143.3760  159.6643 H   0  0  0  0  0  0  0  0  0  0  0  0
  152.1897  142.8637  160.5488 H   0  0  0  0  0  0  0  0  0  0  0  0
  152.9035  141.0952  158.9758 H   0  0  0  0  0  0  0  0  0  0  0  0
  152.8678  142.2198  157.6380 H   0  0  0  0  0  0  0  0  0  0  0  0
  152.2037  144.5693  158.1721 H   0  0  0  0  0  0  0  0  0  0  0  0
  1  2  1  0  0  0  0
  1 30  1  0  0  0  0
  1 31  1  0  0  0  0
  1 32  1  0  0  0  0
  2  3  1  0  0  0  0
  2  4  1  0  0  0  0
  2 33  1  0  0  0  0
  3 34  1  0  0  0  0
  3 35  1  0  0  0  0
  3 36  1  0  0  0  0
  4  5  1  0  0  0  0
  4 37  1  0  0  0  0
  4 38  1  0  0  0  0
  5  6  1  0  0  0  0
  5 23  1  0  0  0  0
  6 11  1  0  0  0  0
  6  7  2  0  0  0  0
  7  8  1  0  0  0  0
  8  9  2  0  0  0  0
  8 39  1  0  0  0  0
  9 10  1  0  0  0  0
 10 14  1  0  0  0  0
 10 11  2  0  0  0  0
 11 12  1  0  0  0  0
 12 13  2  0  0  0  0
 13 14  1  0  0  0  0
 13 40  1  0  0  0  0
 14 15  1  0  0  0  0
 15 16  1  0  0  0  0
 15 41  1  0  0  0  0
 15 42  1  0  0  0  0
 16 21  1  0  0  0  0
 16 17  1  0  0  0  0
 16 18  1  0  0  0  0
 17 43  1  0  0  0  0
 18 19  1  0  0  0  0
 18 44  1  0  0  0  0
 18 45  1  0  0  0  0
 19 20  1  0  0  0  0
 19 46  1  0  0  0  0
 19 47  1  0  0  0  0
 20 21  1  0  0  0  0
 21 22  1  0  0  0  0
 21 48  1  0  0  0  0
 22 49  1  0  0  0  0
 22 50  1  0  0  0  0
 22 51  1  0  0  0  0
 23 29  1  0  0  0  0
 23 24  1  0  0  0  0
 23 52  1  0  0  0  0
 24 25  1  0  0  0  0
 24 53  1  0  0  0  0
 24 54  1  0  0  0  0
 25 26  1  0  0  0  0
 25 55  1  0  0  0  0
 25 56  1  0  0  0  0
 26 27  1  0  0  0  0
 26 28  1  0  0  0  0
 26 64  1  0  0  0  0
 27 57  1  0  0  0  0
 27 58  1  0  0  0  0
 27 59  1  0  0  0  0
 28 29  1  0  0  0  0
 28 60  1  0  0  0  0
 28 61  1  0  0  0  0
 29 62  1  0  0  0  0
 29 63  1  0  0  0  0
M  CHG  1  26   1
M  END
> <s_m_source_file>
AV-unprocessed.smi

> <i_m_source_file_index>
81

> <i_lp_mmshare_version>
43012

> <i_f3d_flags>
0

> <s_epik_input>
W0NIMl0xW0NIMl1OKFtDSDNdKVtDSDJdW0NIMl1bQ0hdMU4oW0NIMl1bQ0hdKFtDSDNdKVtDSDNdKWMobltjSF1uMiljKGMyMyluW2NIXW4zW0NIMl1bQ0BAXTQoW09IXSlbQ0gyXVtDSDJdT1tDQEhdNFtDSDNd

> <s_epik_cmdline>
J2VwaWtfcHl0aG9uJywgJy1waCcsICc3LjAnLCAnLXRuJywgJzgnLCAnLW1hJywgJzIwMCcsICctbWV0YWxfYmluZGluZycsICctaW1hZScsICc8aW5maWxlLm1hZT4nLCAnLW9tYWUnLCAnPG91dGZpbGUubWFlPic=

> <r_lp_tautomer_probability>
1

> <r_epik_Ionization_Penalty>
0.00272708

> <r_epik_Ionization_Penalty_Charging>
0.00158983

> <r_epik_Ionization_Penalty_Neutral>
0.00113725

> <r_epik_State_Penalty>
-0

> <r_epik_Charging_Adjusted_Penalty>
0.00158983

> <i_epik_Tot_Q>
1

> <i_epik_Tot_abs_Q>
1

> <r_epik_Metal_State_Penalty>
-0

> <b_epik_Metal_Only>
0

> <s_lp_Force_Field>
OPLS_2005

> <r_lp_Energy>
45.229

> <b_lp_Chiralities_Consistent>
1

> <s_lp_Variant>
AV-unprocessed.smi:81-3

> <Gold.Version>
5.8.1

> <Gold.Id.Protein>
6NUR|6NUR_protein|mol2

> <Gold.PLP.Fitness>
42.1345

> <Gold.PLP.PLP>
-43.2434

> <Gold.PLP.part.hbond>
-0.8384

> <Gold.PLP.part.metal>
0.0000

> <Gold.PLP.part.buried>
-6.1023

> <Gold.PLP.part.nonpolar>
-36.9154

> <Gold.PLP.part.repulsive>
0.0540

> <Gold.PLP.ligand.clash>
0.0000

> <Gold.PLP.ligand.torsion>
0.9521

> <Gold.PLP.Chemscore.Hbond>
0.0000

> <Gold.PLP.Chemscore.CHOScore>
0.0000

> <Gold.PLP.Chemscore.Metal>
0.0000

> <Gold.PLP.Chemscore.Internal.Correction>
0.7954

> <Gold.Rescore>
     Score         DG    S(hbond)    S(metal)    S(lipo)     H(rot)  DE(clash)    DE(int)     intcor
     11.38     -12.43       0.00        0.00     115.84       2.58       0.19       0.87       ----

> <Gold.Chemscore.Fitness>
11.3773

> <Gold.Chemscore.DG>
-12.4348

> <Gold.Chemscore.ZeroCoef>
-5.4800

> <Gold.Chemscore.Hbond>
0.0000

> <Gold.Chemscore.Metal>
0.0000

> <Gold.Chemscore.Lipo>
115.8380

> <Gold.Chemscore.Internal_Hbond>
0.0000

> <Gold.Chemscore.DEClash>
0.1906

> <Gold.Chemscore.DEInternal>
0.8669

> <Gold.Chemscore.Rot>
2.5774

> <Gold.Chemscore.Internal.Correction>
   9.000000E+99

> <Gold.Chemscore.Hbond.Weighted>
-0.0000

> <Gold.Chemscore.Metal.Weighted>
-0.0000

> <Gold.Chemscore.Lipo.Weighted>
-13.5530

> <Gold.Chemscore.Internal_Hbond.Weighted>
0.0000

> <Gold.Chemscore.DEClash.Weighted>
0.1906

> <Gold.Chemscore.DEInternal.Weighted>
0.8669

> <Gold.Chemscore.Rot.Weighted>
6.5982

> <Gold.Chemscore.Internal.Correction.Weighted>
   9.000000E+99

> <Gold.Protein.RotatedTorsions>
[ 6907 6896 6895 6894 ] final    0.09 input  -60.11 | X-H torsion
[ 7974 7965 7964 7962 ] final  -90.43 input  175.53 | X-H torsion
[ 8008 7997 7996 7995 ] final  -19.31 input   59.86 | X-H torsion
[ 10167 10162 10161 10158 ] final -117.21 input  -65.29 | X-H torsion
[ 10718 10713 10712 10709 ] final  152.14 input   66.30 | X-H torsion
[ 10763 10752 10751 10750 ] final -102.90 input  -60.55 | X-H torsion
[ 11005 11000 10999 10996 ] final   17.46 input  -57.11 | X-H torsion

> <Gold.Protein.ActiveResidues>
 VAL166  LYS551  ARG553  GLY616  TRP617  ASP618  TYR619  PRO620  LYS621  CYS622 
 ASP623  PHE694  ASN695  SER759  ASP760  ASP761  ALA762  ILE779  LEU786  VAL792 
 PHE793  MET794  SER795  GLU796  ALA797  LYS798  CYS799  TRP800  GLU811  SER814 

> <Gold.Protein.RotatedAtoms>
  151.5708  135.1062  159.9994 H   0  0  0  0  0  0  0  0  0  0  0  0  # atno 6907 bound_to 6896
  152.4402  133.7429  159.6662 H   0  0  0  0  0  0  0  0  0  0  0  0  # atno 6908 bound_to 6896
  150.8306  133.8029  159.3124 H   0  0  0  0  0  0  0  0  0  0  0  0  # atno 6909 bound_to 6896
  145.4266  140.9554  143.2151 H   0  0  0  0  0  0  0  0  0  0  0  0  # atno 7974 bound_to 7965
  154.4846  140.2092  155.9686 H   0  0  0  0  0  0  0  0  0  0  0  0  # atno 8008 bound_to 7997
  156.1216  140.3212  155.8186 H   0  0  0  0  0  0  0  0  0  0  0  0  # atno 8009 bound_to 7997
  155.4458  140.0513  157.2997 H   0  0  0  0  0  0  0  0  0  0  0  0  # atno 8010 bound_to 7997
  140.0708  143.4879  152.1980 H   0  0  0  0  0  0  0  0  0  0  0  0  # atno 10167 bound_to 10162
  157.2616  131.0799  151.1662 H   0  0  0  0  0  0  0  0  0  0  0  0  # atno 10718 bound_to 10713
  154.7768  135.4843  153.9760 H   0  0  0  0  0  0  0  0  0  0  0  0  # atno 10763 bound_to 10752
  153.1439  135.6778  153.8992 H   0  0  0  0  0  0  0  0  0  0  0  0  # atno 10764 bound_to 10752
  153.8658  135.3150  155.3418 H   0  0  0  0  0  0  0  0  0  0  0  0  # atno 10765 bound_to 10752
  140.4357  134.1374  155.7685 H   0  0  0  0  0  0  0  0  0  0  0  0  # atno 11005 bound_to 11000
  144.8210  139.5792  143.6987 LP  0  0  0  0  0  0  0  0  0  0  0  0  # atno 17320 bound_to 7965
  146.2629  139.6451  142.9349 LP  0  0  0  0  0  0  0  0  0  0  0  0  # atno 17321 bound_to 7965
  139.5837  144.7522  151.3575 LP  0  0  0  0  0  0  0  0  0  0  0  0  # atno 17342 bound_to 10162
  140.7126  143.7350  150.7595 LP  0  0  0  0  0  0  0  0  0  0  0  0  # atno 17343 bound_to 10162
  157.3169  130.6918  149.6247 LP  0  0  0  0  0  0  0  0  0  0  0  0  # atno 17370 bound_to 10713
  155.9664  130.4347  150.5059 LP  0  0  0  0  0  0  0  0  0  0  0  0  # atno 17371 bound_to 10713
  141.1727  133.8577  157.1520 LP  0  0  0  0  0  0  0  0  0  0  0  0  # atno 17394 bound_to 11000
  140.0104  134.9990  157.0382 LP  0  0  0  0  0  0  0  0  0  0  0  0  # atno 17395 bound_to 11000

$$$$
