AV-unprocessed.smi:283|AV-procd|sdf|2127|dock1
  -GOLD-   2262021433D 1   1.00000     0.00000
 Structure written by MMmdl.
 48 51  0  0  0  0  0  0  0  0  1 V2000
  154.6168  141.1354  160.6476 C   0  0  0  0  0  0  0  0  0  0  0  0
  153.2061  141.1677  160.0314 C   0  0  2  0  0  0  0  0  0  0  0  0
  153.1969  140.5616  158.7002 N   0  0  0  0  0  0  0  0  0  0  0  0
  152.5504  139.4012  158.4504 C   0  0  0  0  0  0  0  0  0  0  0  0
  153.1416  138.1993  158.6759 N   0  0  0  0  0  0  0  0  0  0  0  0
  152.4753  137.0694  158.4225 C   0  0  0  0  0  0  0  0  0  0  0  0
  151.2353  136.9203  157.9527 N   0  0  0  0  0  0  0  0  0  0  0  0
  150.6329  138.1240  157.7278 C   0  0  0  0  0  0  0  0  0  0  0  0
  151.2213  139.4000  157.9536 C   0  0  0  0  0  0  0  0  0  0  0  0
  150.3188  140.4010  157.6202 N   0  0  0  0  0  0  0  0  0  0  0  0
  149.2600  139.7501  157.2205 C   0  0  0  0  0  0  0  0  0  0  0  0
  149.3597  138.3766  157.2526 N   0  0  0  0  0  0  0  0  0  0  0  0
  148.3074  137.3856  156.8521 C   0  0  1  0  0  0  0  0  0  0  0  0
  147.0670  138.0262  156.7766 O   0  0  0  0  0  0  0  0  0  0  0  0
  146.5323  137.9313  155.4563 C   0  0  2  0  0  0  0  0  0  0  0  0
  144.9987  137.8846  155.5238 C   0  0  0  0  0  0  0  0  0  0  0  0
  144.4754  137.4789  154.2774 O   0  0  0  0  0  0  0  0  0  0  0  0
  147.1649  136.6429  154.9277 C   0  0  1  0  0  0  0  0  0  0  0  0
  147.1357  136.5384  153.5171 O   0  0  0  0  0  0  0  0  0  0  0  0
  148.5778  136.7239  155.4869 C   0  0  1  0  0  0  0  0  0  0  0  0
  149.4515  137.4722  154.6543 O   0  0  0  0  0  0  0  0  0  0  0  0
  152.6727  142.5996  160.0294 C   0  0  0  0  0  0  0  0  0  0  0  0
  152.3156  143.2201  158.8086 C   0  0  0  0  0  0  0  0  0  0  0  0
  151.8322  144.5419  158.7887 C   0  0  0  0  0  0  0  0  0  0  0  0
  151.7059  145.2623  159.9897 C   0  0  0  0  0  0  0  0  0  0  0  0
  152.0688  144.6605  161.2084 C   0  0  0  0  0  0  0  0  0  0  0  0
  152.5542  143.3376  161.2350 C   0  0  0  0  0  0  0  0  0  0  0  0
  153.0016  142.6584  162.7612 Cl  0  0  0  0  0  0  0  0  0  0  0  0
  148.2799  136.6663  157.6715 H   0  0  0  0  0  0  0  0  0  0  0  0
  146.8734  138.7760  154.8553 H   0  0  0  0  0  0  0  0  0  0  0  0
  146.6542  135.7806  155.3594 H   0  0  0  0  0  0  0  0  0  0  0  0
  149.0110  135.7347  155.6386 H   0  0  0  0  0  0  0  0  0  0  0  0
  154.6104  141.5453  161.6580 H   0  0  0  0  0  0  0  0  0  0  0  0
  155.3193  141.7238  160.0565 H   0  0  0  0  0  0  0  0  0  0  0  0
  155.0099  140.1212  160.7137 H   0  0  0  0  0  0  0  0  0  0  0  0
  152.5395  140.5720  160.6540 H   0  0  0  0  0  0  0  0  0  0  0  0
  153.7729  141.0215  158.0102 H   0  0  0  0  0  0  0  0  0  0  0  0
  153.0117  136.1543  158.6252 H   0  0  0  0  0  0  0  0  0  0  0  0
  148.3670  140.2594  156.8886 H   0  0  0  0  0  0  0  0  0  0  0  0
  144.6767  137.1548  156.2672 H   0  0  0  0  0  0  0  0  0  0  0  0
  144.5834  138.8497  155.8155 H   0  0  0  0  0  0  0  0  0  0  0  0
  144.4877  138.2213  153.6924 H   0  0  0  0  0  0  0  0  0  0  0  0
  147.9162  136.0825  153.2392 H   0  0  0  0  0  0  0  0  0  0  0  0
  149.4997  137.0466  153.8118 H   0  0  0  0  0  0  0  0  0  0  0  0
  152.4143  142.6888  157.8736 H   0  0  0  0  0  0  0  0  0  0  0  0
  151.5605  145.0035  157.8508 H   0  0  0  0  0  0  0  0  0  0  0  0
  151.3366  146.2771  159.9763 H   0  0  0  0  0  0  0  0  0  0  0  0
  151.9772  145.2196  162.1281 H   0  0  0  0  0  0  0  0  0  0  0  0
  1  2  1  0  0  0  0
  1 33  1  0  0  0  0
  1 34  1  0  0  0  0
  1 35  1  0  0  0  0
  2  3  1  0  0  0  0
  2 22  1  0  0  0  0
  2 36  1  0  0  0  0
  3  4  1  0  0  0  0
  3 37  1  0  0  0  0
  4  9  1  0  0  0  0
  4  5  2  0  0  0  0
  5  6  1  0  0  0  0
  6  7  2  0  0  0  0
  6 38  1  0  0  0  0
  7  8  1  0  0  0  0
  8 12  1  0  0  0  0
  8  9  2  0  0  0  0
  9 10  1  0  0  0  0
 10 11  2  0  0  0  0
 11 12  1  0  0  0  0
 11 39  1  0  0  0  0
 12 13  1  0  0  0  0
 13 29  1  0  0  0  0
 13 20  1  0  0  0  0
 13 14  1  0  0  0  0
 14 15  1  0  0  0  0
 15 30  1  0  0  0  0
 15 16  1  0  0  0  0
 15 18  1  0  0  0  0
 16 17  1  0  0  0  0
 16 40  1  0  0  0  0
 16 41  1  0  0  0  0
 17 42  1  0  0  0  0
 18 31  1  0  0  0  0
 18 19  1  0  0  0  0
 18 20  1  0  0  0  0
 19 43  1  0  0  0  0
 20 32  1  0  0  0  0
 20 21  1  0  0  0  0
 21 44  1  0  0  0  0
 22 27  1  0  0  0  0
 22 23  2  0  0  0  0
 23 24  1  0  0  0  0
 23 45  1  0  0  0  0
 24 25  2  0  0  0  0
 24 46  1  0  0  0  0
 25 26  1  0  0  0  0
 25 47  1  0  0  0  0
 26 27  2  0  0  0  0
 26 48  1  0  0  0  0
 27 28  1  0  0  0  0
M  END
> <s_m_source_file>
AV-unprocessed.smi

> <i_m_source_file_index>
283

> <i_lp_mmshare_version>
43012

> <i_f3d_flags>
0

> <s_epik_input>
Q2xjMVtjSF1bY0hdW2NIXVtjSF1jMVtDQEhdKFtDSDNdKVtOSF1jKG5bY0hdbjIpYyhjMjMpbltjSF1uM1tDQEBIXTRPW0NASF0oW0NIMl1bT0hdKVtDQEBIXShbT0hdKVtDQEhdNFtPSF0=

> <s_epik_cmdline>
J2VwaWtfcHl0aG9uJywgJy1waCcsICc3LjAnLCAnLXRuJywgJzgnLCAnLW1hJywgJzIwMCcsICctbWV0YWxfYmluZGluZycsICctaW1hZScsICc8aW5maWxlLm1hZT4nLCAnLW9tYWUnLCAnPG91dGZpbGUubWFlPic=

> <r_lp_tautomer_probability>
1

> <r_epik_Ionization_Penalty>
0.000266407

> <r_epik_Ionization_Penalty_Charging>
0

> <r_epik_Ionization_Penalty_Neutral>
0.000266407

> <r_epik_State_Penalty>
-0

> <r_epik_Charging_Adjusted_Penalty>
0

> <i_epik_Tot_Q>
0

> <i_epik_Tot_abs_Q>
0

> <r_epik_Metal_State_Penalty>
-0

> <b_epik_Metal_Only>
0

> <s_epik_Chemistry_Notes>
This compound contains an acetal/aminal-like group ( X-CH(R)-Y where X, Y are N, S, or O) that may be acid/base labile, releasing an aldehyde.

> <s_lp_Force_Field>
OPLS_2005

> <r_lp_Energy>
51.5446

> <b_lp_Chiralities_Consistent>
1

> <s_lp_Variant>
AV-unprocessed.smi:283-3

> <Gold.Version>
5.8.1

> <Gold.Id.Protein>
6NUR|6NUR_protein|mol2

> <Gold.PLP.Fitness>
52.3556

> <Gold.PLP.PLP>
-45.8060

> <Gold.PLP.part.hbond>
-3.0000

> <Gold.PLP.part.metal>
0.0000

> <Gold.PLP.part.buried>
-5.8459

> <Gold.PLP.part.nonpolar>
-37.4550

> <Gold.PLP.part.repulsive>
0.2853

> <Gold.PLP.ligand.clash>
0.0000

> <Gold.PLP.ligand.torsion>
1.2611

> <Gold.PLP.Chemscore.Hbond>
2.9520

> <Gold.PLP.Chemscore.CHOScore>
0.0000

> <Gold.PLP.Chemscore.Metal>
0.0000

> <Gold.Chemscore.Hbonds>
donor molecule, donor type, donor heavy atom, donor atom, acceptor molecule, acceptor atom, score
      L1  H    19    43       P1  7948  0.67
      L1  H    21    44       P1  7948  0.68

> <Gold.PLP.Chemscore.Internal.Correction>
0.2158

> <Gold.Rescore>
     Score         DG    S(hbond)    S(metal)    S(lipo)     H(rot)  DE(clash)    DE(int)     intcor
     15.77     -17.78       2.96        0.00     110.38       4.10       0.08       1.94       ----

> <Gold.Chemscore.Fitness>
15.7652

> <Gold.Chemscore.DG>
-17.7779

> <Gold.Chemscore.ZeroCoef>
-5.4800

> <Gold.Chemscore.Hbond>
2.9556

> <Gold.Chemscore.Metal>
0.0000

> <Gold.Chemscore.Lipo>
110.3779

> <Gold.Chemscore.Internal_Hbond>
0.0000

> <Gold.Chemscore.DEClash>
0.0755

> <Gold.Chemscore.DEInternal>
1.9372

> <Gold.Chemscore.Rot>
4.0968

> <Gold.Chemscore.Internal.Correction>
   9.000000E+99

> <Gold.Chemscore.Hbonds>
donor molecule, donor type, donor heavy atom, donor atom, acceptor molecule, acceptor atom, score
      L1  H    19    43       P1  7948  0.68
      L1  H    21    44       P1  7948  0.62

> <Gold.Chemscore.Hbond.Weighted>
-9.8716

> <Gold.Chemscore.Metal.Weighted>
-0.0000

> <Gold.Chemscore.Lipo.Weighted>
-12.9142

> <Gold.Chemscore.Internal_Hbond.Weighted>
0.0000

> <Gold.Chemscore.DEClash.Weighted>
0.0755

> <Gold.Chemscore.DEInternal.Weighted>
1.9372

> <Gold.Chemscore.Rot.Weighted>
10.4879

> <Gold.Chemscore.Internal.Correction.Weighted>
   9.000000E+99

> <Gold.Protein.RotatedTorsions>
[ 6907 6896 6895 6894 ] final -110.08 input  -60.11 | X-H torsion
[ 7974 7965 7964 7962 ] final -146.74 input  175.53 | X-H torsion
[ 8008 7997 7996 7995 ] final  136.85 input   59.86 | X-H torsion
[ 10167 10162 10161 10158 ] final    3.85 input  -65.29 | X-H torsion
[ 10718 10713 10712 10709 ] final   21.44 input   66.30 | X-H torsion
[ 10763 10752 10751 10750 ] final  118.50 input  -60.55 | X-H torsion
[ 11005 11000 10999 10996 ] final  -69.98 input  -57.11 | X-H torsion

> <Gold.Protein.ActiveResidues>
 VAL166  LYS551  ARG553  GLY616  TRP617  ASP618  TYR619  PRO620  LYS621  CYS622 
 ASP623  PHE694  ASN695  SER759  ASP760  ASP761  ALA762  ILE779  LEU786  VAL792 
 PHE793  MET794  SER795  GLU796  ALA797  LYS798  CYS799  TRP800  GLU811  SER814 

> <Gold.Protein.RotatedAtoms>
  150.7602  133.9434  159.3463 H   0  0  0  0  0  0  0  0  0  0  0  0  # atno 6907 bound_to 6896
  151.7345  135.0866  160.0315 H   0  0  0  0  0  0  0  0  0  0  0  0  # atno 6908 bound_to 6896
  152.3568  133.6210  159.6021 H   0  0  0  0  0  0  0  0  0  0  0  0  # atno 6909 bound_to 6896
  144.8139  140.5417  143.5624 H   0  0  0  0  0  0  0  0  0  0  0  0  # atno 7974 bound_to 7965
  156.3003  140.2434  156.3814 H   0  0  0  0  0  0  0  0  0  0  0  0  # atno 8008 bound_to 7997
  154.8698  140.0416  157.1737 H   0  0  0  0  0  0  0  0  0  0  0  0  # atno 8009 bound_to 7997
  154.8808  140.2949  155.5430 H   0  0  0  0  0  0  0  0  0  0  0  0  # atno 8010 bound_to 7997
  140.6565  143.7414  150.7662 H   0  0  0  0  0  0  0  0  0  0  0  0  # atno 10167 bound_to 10162
  157.1385  130.6622  149.5973 H   0  0  0  0  0  0  0  0  0  0  0  0  # atno 10718 bound_to 10713
  153.5686  135.3506  155.2828 H   0  0  0  0  0  0  0  0  0  0  0  0  # atno 10763 bound_to 10752
  154.8685  135.4154  154.2750 H   0  0  0  0  0  0  0  0  0  0  0  0  # atno 10764 bound_to 10752
  153.3511  135.7055  153.6857 H   0  0  0  0  0  0  0  0  0  0  0  0  # atno 10765 bound_to 10752
  141.1565  133.6778  156.6683 H   0  0  0  0  0  0  0  0  0  0  0  0  # atno 11005 bound_to 11000
  145.5260  139.1476  143.3526 LP  0  0  0  0  0  0  0  0  0  0  0  0  # atno 17320 bound_to 7965
  146.2440  140.5400  142.8921 LP  0  0  0  0  0  0  0  0  0  0  0  0  # atno 17321 bound_to 7965
  140.1075  143.4730  152.2389 LP  0  0  0  0  0  0  0  0  0  0  0  0  # atno 17342 bound_to 10162
  139.5788  144.7501  151.3693 LP  0  0  0  0  0  0  0  0  0  0  0  0  # atno 17343 bound_to 10162
  155.9793  130.4786  150.6709 LP  0  0  0  0  0  0  0  0  0  0  0  0  # atno 17370 bound_to 10713
  157.4329  131.0851  151.1021 LP  0  0  0  0  0  0  0  0  0  0  0  0  # atno 17371 bound_to 10713
  140.3195  134.8020  157.4241 LP  0  0  0  0  0  0  0  0  0  0  0  0  # atno 17394 bound_to 11000
  140.1109  134.5346  155.8267 LP  0  0  0  0  0  0  0  0  0  0  0  0  # atno 17395 bound_to 11000

$$$$
