#       Name:                AV-unprocessed.smi:50
#       Creating user name   scv26
#       Creation time:       Thu Mar 26 16:36:22 2020


#       File generated by GOLD software.
#

@<TRIPOS>MOLECULE
AV-unprocessed.smi:50
    52    53     1
SMALL
NO_CHARGES


@<TRIPOS>ATOM
      1 ****        -3.7001   1.2314  -0.6492 C.3            1 S1                 0.0000
      2 ****        -2.2825   1.7657  -0.9288 C.3            1 S1                 0.0000
      3 ****        -2.0078   1.7040  -2.4441 C.3            1 S1                 0.0000
      4 ****        -1.2200   1.0236  -0.0713 C.3            1 S1                 0.0000
      5 ****        -1.5150   1.1554   1.3688 N.4            1 S1                 1.0000
      6 ****         0.2206   1.5291  -0.2795 C.2            1 S1                 0.0000
      7 ****         0.7853   2.3504   0.4461 O.2            1 S1                 0.0000
      8 ****         0.7654   0.9505  -1.3664 O.3            1 S1                 0.0000
      9 ****         2.1044   1.2335  -1.7517 C.3            1 S1                 0.0000
     10 ****         3.0516   0.1675  -1.1882 C.3            1 S1                 0.0000
     11 ****         3.3625   0.4718   0.1651 O.3            1 S1                 0.0000
     12 ****         3.5096  -0.6346   0.9971 C.3            1 S1                 0.0000
     13 ****         2.2545  -0.8461   1.6974 N.pl3          1 S1                 0.0000
     14 ****         1.8995  -0.3085   2.8807 C.2            1 S1                 0.0000
     15 ****         0.6808  -0.6286   3.3127 N.2            1 S1                 0.0000
     16 ****         0.2251  -1.4643   2.3007 C.2            1 S1                 0.0000
     17 ****        -1.0753  -2.1483   2.1029 C.2            1 S1                 0.0000
     18 ****        -1.9480  -2.0312   2.9605 O.2            1 S1                 0.0000
     19 ****        -1.2010  -2.8425   0.9325 N.pl3          1 S1                -1.0000
     20 ****        -0.1311  -2.9126   0.0298 C.2            1 S1                 0.0000
     21 ****        -0.4161  -3.6780  -1.0794 N.pl3          1 S1                 0.0000
     22 ****         1.0444  -2.3455   0.1459 N.2            1 S1                 0.0000
     23 ****         1.1596  -1.6125   1.3118 C.2            1 S1                 0.0000
     24 ****        -1.2540  -0.0398  -0.3120 H              1 S1                 0.0000
     25 ****        -3.7720   0.1678  -0.8796 H              1 S1                 0.0000
     26 ****        -4.4433   1.7513  -1.2547 H              1 S1                 0.0000
     27 ****        -3.9900   1.3667   0.3929 H              1 S1                 0.0000
     28 ****        -2.2725   2.8192  -0.6443 H              1 S1                 0.0000
     29 ****        -1.9132   0.6727  -2.7864 H              1 S1                 0.0000
     30 ****        -1.0951   2.2345  -2.7151 H              1 S1                 0.0000
     31 ****        -2.8169   2.1671  -3.0101 H              1 S1                 0.0000
     32 ****        -0.8310   0.6316   1.8972 H              1 S1                 0.0000
     33 ****        -2.4362   0.7882   1.5596 H              1 S1                 0.0000
     34 ****         2.1353   1.1940  -2.8405 H              1 S1                 0.0000
     35 ****         2.4191   2.2391  -1.4690 H              1 S1                 0.0000
     36 ****         2.6112  -0.8198  -1.3237 H              1 S1                 0.0000
     37 ****         3.9871   0.1674  -1.7478 H              1 S1                 0.0000
     38 ****         3.8030  -1.5416   0.4653 H              1 S1                 0.0000
     39 ****         4.2769  -0.4074   1.7377 H              1 S1                 0.0000
     40 ****         2.5513   0.3495   3.4364 H              1 S1                 0.0000
     41 ****        -1.3016  -4.1396  -1.2267 H              1 S1                 0.0000
     42 ****         0.2327  -3.8073  -1.8420 H              1 S1                 0.0000
     43 ****        -1.4710   2.1281   1.6357 H              1 S1                 0.0000
     44 ****         0.3044   2.7359   1.2336 LP             1 S1                 0.0000
     45 ****         1.7243   2.6311   0.2472 LP             1 S1                 0.0000
     46 ****         2.6266   1.0406   0.5323 LP             1 S1                 0.0000
     47 ****         4.2198   0.9864   0.1785 LP             1 S1                 0.0000
     48 ****         0.2144  -0.3415   4.1494 LP             1 S1                 0.0000
     49 ****        -1.7757  -1.4806   3.7773 LP             1 S1                 0.0000
     50 ****        -2.8303  -2.4865   2.8414 LP             1 S1                 0.0000
     51 ****        -2.0622  -3.3036   0.7187 LP             1 S1                 0.0000
     52 ****         1.7747  -2.4331  -0.5316 LP             1 S1                 0.0000
@<TRIPOS>BOND
    1    1    2 1     
    2    1   25 1     
    3    1   26 1     
    4    1   27 1     
    5    2    3 1     
    6    2    4 1     
    7    2   28 1     
    8    3   29 1     
    9    3   30 1     
   10    3   31 1     
   11    4   24 1     
   12    4    5 1     
   13    4    6 1     
   14    5   32 1     
   15    5   33 1     
   16    5   43 1     
   17    6    7 2     
   18    6    8 1     
   19    8    9 1     
   20    9   10 1     
   21    9   34 1     
   22    9   35 1     
   23   10   11 1     
   24   10   36 1     
   25   10   37 1     
   26   11   12 1     
   27   12   13 1     
   28   12   38 1     
   29   12   39 1     
   30   13   23 1     
   31   13   14 1     
   32   14   15 2     
   33   14   40 1     
   34   15   16 1     
   35   16   23 2     
   36   16   17 1     
   37   17   18 2     
   38   17   19 1     
   39   19   20 1     
   40   20   21 1     
   41   20   22 2     
   42   21   41 1     
   43   21   42 1     
   44   22   23 1     
   45    7   44 1     
   46    7   45 1     
   47   11   46 1     
   48   11   47 1     
   49   15   48 1     
   50   18   49 1     
   51   18   50 1     
   52   19   51 1     
   53   22   52 1     
@<TRIPOS>SUBSTRUCTURE
      1 S1             1
@<TRIPOS>SET
LONE_PAIRS      STATIC     ATOMS    <user>   **** ""
9 44 45 46 47 48 49 50 51 52
DONOR_HYDROGENS      STATIC     ATOMS    <user>   **** ""
5 32 33 43 41 42
ATOM$BLUE        STATIC     ATOMS    COLORGROUP SYSTEM
9 44 45 46 47 48 49 50 51 52
ATOM$RED        STATIC     ATOMS    COLORGROUP SYSTEM
5 32 33 43 41 42
