AV-unprocessed.smi:2174|AV-procd|sdf|8842|dock6
  -GOLD-   2272012 33D 1   1.00000     0.00000
 Structure written by MMmdl.
 46 47  0  0  0  0  0  0  0  0  2 V2000
  149.1693  139.1309  154.0223 C   0  0  0  0  0  0  0  0  0  0  0  0
  150.5781  139.0449  154.5358 C   0  0  0  0  0  0  0  0  0  0  0  0
  151.2357  140.1531  154.8331 N   0  0  0  0  0  0  0  0  0  0  0  0
  152.4945  139.7435  155.2833 O   0  0  0  0  0  0  0  0  0  0  0  0
  152.5446  138.3880  155.2426 C   0  0  0  0  0  0  0  0  0  0  0  0
  153.8135  137.7486  155.6957 C   0  0  0  0  0  0  0  0  0  0  0  0
  151.3615  137.8805  154.7799 C   0  0  0  0  0  0  0  0  0  0  0  0
  150.9709  136.4362  154.5797 C   0  0  0  0  0  0  0  0  0  0  0  0
  149.6278  136.1220  155.2483 C   0  0  0  0  0  0  0  0  0  0  0  0
  149.5673  136.0058  156.4714 O   0  0  0  0  0  0  0  0  0  0  0  0
  148.5534  136.0132  154.4497 N   0  0  0  0  0  0  0  0  0  0  0  0
  147.1924  135.7371  154.8990 C   0  0  0  0  0  0  0  0  0  0  0  0
  146.1416  135.9449  153.7874 C   0  0  0  0  0  0  0  0  0  0  0  0
  146.3775  135.1080  152.5786 N   0  3  0  0  0  0  0  0  0  0  0  0
  145.5024  135.4960  151.4373 C   0  0  0  0  0  0  0  0  0  0  0  0
  144.1342  134.7885  151.4063 C   0  0  0  0  0  0  0  0  0  0  0  0
  144.1643  133.4791  150.6014 C   0  0  0  0  0  0  0  0  0  0  0  0
  144.9449  132.3430  151.2759 C   0  0  0  0  0  0  0  0  0  0  0  0
  146.3840  132.7117  151.6736 C   0  0  0  0  0  0  0  0  0  0  0  0
  146.4443  133.6520  152.8926 C   0  0  0  0  0  0  0  0  0  0  0  0
  149.0275  138.4815  153.1582 H   0  0  0  0  0  0  0  0  0  0  0  0
  148.9111  140.1458  153.7174 H   0  0  0  0  0  0  0  0  0  0  0  0
  148.4579  138.8228  154.7888 H   0  0  0  0  0  0  0  0  0  0  0  0
  153.6071  136.8814  156.3237 H   0  0  0  0  0  0  0  0  0  0  0  0
  154.4206  138.4460  156.2737 H   0  0  0  0  0  0  0  0  0  0  0  0
  154.4024  137.4149  154.8412 H   0  0  0  0  0  0  0  0  0  0  0  0
  150.9018  136.1965  153.5178 H   0  0  0  0  0  0  0  0  0  0  0  0
  151.7217  135.7615  154.9917 H   0  0  0  0  0  0  0  0  0  0  0  0
  148.6966  136.1074  153.4544 H   0  0  0  0  0  0  0  0  0  0  0  0
  147.1623  134.7065  155.2530 H   0  0  0  0  0  0  0  0  0  0  0  0
  146.9524  136.3573  155.7643 H   0  0  0  0  0  0  0  0  0  0  0  0
  145.1396  135.7615  154.1774 H   0  0  0  0  0  0  0  0  0  0  0  0
  146.1670  136.9975  153.5028 H   0  0  0  0  0  0  0  0  0  0  0  0
  145.3491  136.5756  151.4486 H   0  0  0  0  0  0  0  0  0  0  0  0
  146.0390  135.3079  150.5069 H   0  0  0  0  0  0  0  0  0  0  0  0
  143.7415  134.6289  152.4111 H   0  0  0  0  0  0  0  0  0  0  0  0
  143.4239  135.4548  150.9153 H   0  0  0  0  0  0  0  0  0  0  0  0
  143.1405  133.1429  150.4340 H   0  0  0  0  0  0  0  0  0  0  0  0
  144.5780  133.6683  149.6101 H   0  0  0  0  0  0  0  0  0  0  0  0
  144.3993  131.9943  152.1538 H   0  0  0  0  0  0  0  0  0  0  0  0
  144.9742  131.4943  150.5915 H   0  0  0  0  0  0  0  0  0  0  0  0
  146.8891  131.7846  151.9471 H   0  0  0  0  0  0  0  0  0  0  0  0
  146.9459  133.1104  150.8282 H   0  0  0  0  0  0  0  0  0  0  0  0
  147.3877  133.4738  153.4091 H   0  0  0  0  0  0  0  0  0  0  0  0
  145.6605  133.3851  153.6031 H   0  0  0  0  0  0  0  0  0  0  0  0
  147.3056  135.3603  152.2699 H   0  0  0  0  0  0  0  0  0  0  0  0
  1  2  1  0  0  0  0
  1 21  1  0  0  0  0
  1 22  1  0  0  0  0
  1 23  1  0  0  0  0
  2  7  1  0  0  0  0
  2  3  2  0  0  0  0
  3  4  1  0  0  0  0
  4  5  1  0  0  0  0
  5  6  1  0  0  0  0
  5  7  2  0  0  0  0
  6 24  1  0  0  0  0
  6 25  1  0  0  0  0
  6 26  1  0  0  0  0
  7  8  1  0  0  0  0
  8  9  1  0  0  0  0
  8 27  1  0  0  0  0
  8 28  1  0  0  0  0
  9 10  2  0  0  0  0
  9 11  1  0  0  0  0
 11 12  1  0  0  0  0
 11 29  1  0  0  0  0
 12 13  1  0  0  0  0
 12 30  1  0  0  0  0
 12 31  1  0  0  0  0
 13 14  1  0  0  0  0
 13 32  1  0  0  0  0
 13 33  1  0  0  0  0
 14 20  1  0  0  0  0
 14 15  1  0  0  0  0
 14 46  1  0  0  0  0
 15 16  1  0  0  0  0
 15 34  1  0  0  0  0
 15 35  1  0  0  0  0
 16 17  1  0  0  0  0
 16 36  1  0  0  0  0
 16 37  1  0  0  0  0
 17 18  1  0  0  0  0
 17 38  1  0  0  0  0
 17 39  1  0  0  0  0
 18 19  1  0  0  0  0
 18 40  1  0  0  0  0
 18 41  1  0  0  0  0
 19 20  1  0  0  0  0
 19 42  1  0  0  0  0
 19 43  1  0  0  0  0
 20 44  1  0  0  0  0
 20 45  1  0  0  0  0
M  CHG  1  14   1
M  END
> <s_m_source_file>
AV-unprocessed.smi

> <i_m_source_file_index>
2174

> <i_lp_mmshare_version>
43012

> <i_f3d_flags>
0

> <s_epik_input>
W0NIM11jMW5vYyhbQ0gzXSljMVtDSDJdQyg9TylbTkhdW0NIMl1bQ0gyXU4yW0NIMl1bQ0gyXVtDSDJdW0NIMl1bQ0gyXVtDSDJdMg==

> <s_epik_cmdline>
J2VwaWtfcHl0aG9uJywgJy1waCcsICc3LjAnLCAnLXRuJywgJzgnLCAnLW1hJywgJzIwMCcsICctbWV0YWxfYmluZGluZycsICctaW1hZScsICc8aW5maWxlLm1hZT4nLCAnLW9tYWUnLCAnPG91dGZpbGUubWFlPic=

> <r_epik_Ionization_Penalty>
0.0024041

> <r_epik_Ionization_Penalty_Charging>
0.00240401

> <r_epik_Ionization_Penalty_Neutral>
9.67143e-08

> <r_epik_State_Penalty>
0.00166275

> <r_epik_Charging_Adjusted_Penalty>
0.00406676

> <i_epik_Tot_Q>
1

> <i_epik_Tot_abs_Q>
1

> <r_epik_Metal_State_Penalty>
-0

> <b_epik_Metal_Only>
0

> <s_lp_Force_Field>
OPLS_2005

> <r_lp_Energy>
23.9456

> <b_lp_Chiralities_Consistent>
1

> <s_lp_Variant>
AV-unprocessed.smi:2174-1

> <Gold.Version>
5.8.1

> <Gold.Id.Protein>
6NUR|6NUR_protein|mol2

> <Gold.PLP.Fitness>
46.1341

> <Gold.PLP.PLP>
-31.8092

> <Gold.PLP.part.hbond>
-4.2722

> <Gold.PLP.part.metal>
0.0000

> <Gold.PLP.part.buried>
-0.5093

> <Gold.PLP.part.nonpolar>
-27.4370

> <Gold.PLP.part.repulsive>
0.0700

> <Gold.PLP.ligand.clash>
0.0000

> <Gold.PLP.ligand.torsion>
0.3671

> <Gold.PLP.Chemscore.Hbond>
5.0000

> <Gold.PLP.Chemscore.CHOScore>
0.0000

> <Gold.PLP.Chemscore.Metal>
0.0000

> <Gold.Chemscore.Hbonds>
donor molecule, donor type, donor heavy atom, donor atom, acceptor molecule, acceptor atom, score
      L1  H    11    29       P1  7948  1.00
      L1  H    14    46       P1  7948  2.00
      P1  H  7989  7998       L1     3  1.00
      P1  H  7997  8010       L1     4  0.81

> <Gold.PLP.Chemscore.Internal.Correction>
0.0591

> <Gold.Rescore>
     Score         DG    S(hbond)    S(metal)    S(lipo)     H(rot)  DE(clash)    DE(int)     intcor
     18.90     -20.25       2.95        0.00      78.92       1.69       1.05       0.30       ----

> <Gold.Chemscore.Fitness>
18.9031

> <Gold.Chemscore.DG>
-20.2480

> <Gold.Chemscore.ZeroCoef>
-5.4800

> <Gold.Chemscore.Hbond>
2.9496

> <Gold.Chemscore.Metal>
0.0000

> <Gold.Chemscore.Lipo>
78.9215

> <Gold.Chemscore.Internal_Hbond>
0.0000

> <Gold.Chemscore.DEClash>
1.0477

> <Gold.Chemscore.DEInternal>
0.2973

> <Gold.Chemscore.Rot>
1.6865

> <Gold.Chemscore.Internal.Correction>
   9.000000E+99

> <Gold.Chemscore.Hbonds>
donor molecule, donor type, donor heavy atom, donor atom, acceptor molecule, acceptor atom, score
      L1  H    11    29       P1  7948  0.99
      L1  H    14    46       P1  7948  1.00
      P1  H  7989  7998       L1     3  0.17
      P1  H  7997  8010       L1     4  0.21

> <Gold.Chemscore.Hbond.Weighted>
-9.8515

> <Gold.Chemscore.Metal.Weighted>
-0.0000

> <Gold.Chemscore.Lipo.Weighted>
-9.2338

> <Gold.Chemscore.Internal_Hbond.Weighted>
0.0000

> <Gold.Chemscore.DEClash.Weighted>
1.0477

> <Gold.Chemscore.DEInternal.Weighted>
0.2973

> <Gold.Chemscore.Rot.Weighted>
4.3174

> <Gold.Chemscore.Internal.Correction.Weighted>
   9.000000E+99

> <Gold.Protein.RotatedTorsions>
[ 6907 6896 6895 6894 ] final -108.35 input  -60.11 | X-H torsion
[ 7974 7965 7964 7962 ] final  127.84 input  175.53 | X-H torsion
[ 8008 7997 7996 7995 ] final   84.54 input   59.86 | X-H torsion
[ 10167 10162 10161 10158 ] final  150.31 input  -65.29 | X-H torsion
[ 10718 10713 10712 10709 ] final   30.82 input   66.30 | X-H torsion
[ 10763 10752 10751 10750 ] final -103.71 input  -60.55 | X-H torsion
[ 11005 11000 10999 10996 ] final -165.58 input  -57.11 | X-H torsion

> <Gold.Protein.ActiveResidues>
 VAL166  LYS551  ARG553  GLY616  TRP617  ASP618  TYR619  PRO620  LYS621  CYS622 
 ASP623  PHE694  ASN695  SER759  ASP760  ASP761  ALA762  ILE779  LEU786  VAL792 
 PHE793  MET794  SER795  GLU796  ALA797  LYS798  CYS799  TRP800  GLU811  SER814 

> <Gold.Protein.RotatedAtoms>
  150.7496  133.9691  159.3539 H   0  0  0  0  0  0  0  0  0  0  0  0  # atno 6907 bound_to 6896
  151.7623  135.0805  160.0357 H   0  0  0  0  0  0  0  0  0  0  0  0  # atno 6908 bound_to 6896
  152.3395  133.6013  159.5902 H   0  0  0  0  0  0  0  0  0  0  0  0  # atno 6909 bound_to 6896
  145.0461  139.3922  143.5077 H   0  0  0  0  0  0  0  0  0  0  0  0  # atno 7974 bound_to 7965
  155.9384  140.3410  155.6307 H   0  0  0  0  0  0  0  0  0  0  0  0  # atno 8008 bound_to 7997
  155.7070  140.0767  157.2405 H   0  0  0  0  0  0  0  0  0  0  0  0  # atno 8009 bound_to 7997
  154.4098  140.1629  156.2242 H   0  0  0  0  0  0  0  0  0  0  0  0  # atno 8010 bound_to 7997
  139.4851  144.5532  151.7363 H   0  0  0  0  0  0  0  0  0  0  0  0  # atno 10167 bound_to 10162
  157.2646  130.7178  149.6472 H   0  0  0  0  0  0  0  0  0  0  0  0  # atno 10718 bound_to 10713
  154.7827  135.4813  153.9878 H   0  0  0  0  0  0  0  0  0  0  0  0  # atno 10763 bound_to 10752
  153.1516  135.6792  153.8881 H   0  0  0  0  0  0  0  0  0  0  0  0  # atno 10764 bound_to 10752
  153.8524  135.3165  155.3411 H   0  0  0  0  0  0  0  0  0  0  0  0  # atno 10765 bound_to 10752
  140.5741  134.5207  157.5167 H   0  0  0  0  0  0  0  0  0  0  0  0  # atno 11005 bound_to 11000
  146.3514  140.0087  142.8669 LP  0  0  0  0  0  0  0  0  0  0  0  0  # atno 17320 bound_to 7965
  145.1586  140.9661  143.4390 LP  0  0  0  0  0  0  0  0  0  0  0  0  # atno 17321 bound_to 7965
  140.5090  144.1054  150.5990 LP  0  0  0  0  0  0  0  0  0  0  0  0  # atno 17342 bound_to 10162
  140.3973  143.2721  151.9989 LP  0  0  0  0  0  0  0  0  0  0  0  0  # atno 17343 bound_to 10162
  155.9663  130.4387  150.5227 LP  0  0  0  0  0  0  0  0  0  0  0  0  # atno 17370 bound_to 10713
  157.3138  131.0669  151.1981 LP  0  0  0  0  0  0  0  0  0  0  0  0  # atno 17371 bound_to 10713
  139.9348  134.7896  156.0833 LP  0  0  0  0  0  0  0  0  0  0  0  0  # atno 17394 bound_to 11000
  141.1037  133.6667  156.2814 LP  0  0  0  0  0  0  0  0  0  0  0  0  # atno 17395 bound_to 11000

$$$$
