AV-unprocessed.smi:1191|AV-procd|sdf|4984|dock5
  -GOLD-   22720 3583D 1   1.00000     0.00000
 Structure written by MMmdl.
 47 48  0  0  0  0  0  0  0  0  2 V2000
  153.5832  141.4118  161.3581 C   0  0  0  0  0  0  0  0  0  0  0  0
  152.7961  142.4326  160.5903 C   0  0  0  0  0  0  0  0  0  0  0  0
  152.1815  143.6204  161.0757 C   0  0  0  0  0  0  0  0  0  0  0  0
  151.6029  144.1772  159.9701 C   0  0  0  0  0  0  0  0  0  0  0  0
  150.8082  145.4340  159.8312 C   0  0  0  0  0  0  0  0  0  0  0  0
  151.8798  143.3368  158.9056 N   0  0  0  0  0  0  0  0  0  0  0  0
  151.4939  143.4634  157.5084 C   0  0  0  0  0  0  0  0  0  0  0  0
  150.9238  142.1499  156.9689 C   0  0  0  0  0  0  0  0  0  0  0  0
  151.1763  141.0860  157.5346 O   0  0  0  0  0  0  0  0  0  0  0  0
  150.1424  142.2362  155.8815 N   0  0  0  0  0  0  0  0  0  0  0  0
  149.4781  141.1063  155.2437 C   0  0  0  0  0  0  0  0  0  0  0  0
  148.5383  141.5743  154.1155 C   0  0  0  0  0  0  0  0  0  0  0  0
  147.4473  142.4515  154.6103 N   0  3  1  0  0  0  0  0  0  0  0  0
  146.4005  142.6756  153.5800 C   0  0  0  0  0  0  0  0  0  0  0  0
  145.3593  143.6988  154.0604 C   0  0  0  0  0  0  0  0  0  0  0  0
  144.7303  143.2595  155.3884 C   0  0  0  0  0  0  0  0  0  0  0  0
  145.8255  143.0028  156.4372 C   0  0  1  0  0  0  0  0  0  0  0  0
  145.2258  142.5368  157.7715 C   0  0  0  0  0  0  0  0  0  0  0  0
  146.8569  141.9918  155.8967 C   0  0  0  0  0  0  0  0  0  0  0  0
  152.6125  142.2695  159.2908 N   0  0  0  0  0  0  0  0  0  0  0  0
  153.5668  141.6237  162.4274 H   0  0  0  0  0  0  0  0  0  0  0  0
  154.6254  141.3990  161.0381 H   0  0  0  0  0  0  0  0  0  0  0  0
  153.1760  140.4107  161.2130 H   0  0  0  0  0  0  0  0  0  0  0  0
  152.1683  144.0054  162.0845 H   0  0  0  0  0  0  0  0  0  0  0  0
  150.8029  145.9949  160.7659 H   0  0  0  0  0  0  0  0  0  0  0  0
  149.7739  145.2123  159.5682 H   0  0  0  0  0  0  0  0  0  0  0  0
  151.2268  146.0779  159.0578 H   0  0  0  0  0  0  0  0  0  0  0  0
  150.7686  144.2727  157.4149 H   0  0  0  0  0  0  0  0  0  0  0  0
  152.3636  143.7489  156.9145 H   0  0  0  0  0  0  0  0  0  0  0  0
  149.9910  143.1484  155.4750 H   0  0  0  0  0  0  0  0  0  0  0  0
  150.2582  140.4524  154.8567 H   0  0  0  0  0  0  0  0  0  0  0  0
  148.9268  140.5275  155.9870 H   0  0  0  0  0  0  0  0  0  0  0  0
  149.1303  142.1280  153.3851 H   0  0  0  0  0  0  0  0  0  0  0  0
  148.1162  140.7205  153.5830 H   0  0  0  0  0  0  0  0  0  0  0  0
  146.8584  143.0400  152.6595 H   0  0  0  0  0  0  0  0  0  0  0  0
  145.9158  141.7280  153.3397 H   0  0  0  0  0  0  0  0  0  0  0  0
  145.8319  144.6743  154.1824 H   0  0  0  0  0  0  0  0  0  0  0  0
  144.5834  143.8235  153.3045 H   0  0  0  0  0  0  0  0  0  0  0  0
  144.0383  144.0249  155.7420 H   0  0  0  0  0  0  0  0  0  0  0  0
  144.1417  142.3541  155.2337 H   0  0  0  0  0  0  0  0  0  0  0  0
  146.3430  143.9455  156.6225 H   0  0  0  0  0  0  0  0  0  0  0  0
  144.6911  141.5931  157.6590 H   0  0  0  0  0  0  0  0  0  0  0  0
  144.5230  143.2723  158.1637 H   0  0  0  0  0  0  0  0  0  0  0  0
  146.0026  142.3922  158.5229 H   0  0  0  0  0  0  0  0  0  0  0  0
  146.3904  141.0156  155.7533 H   0  0  0  0  0  0  0  0  0  0  0  0
  147.6400  141.8584  156.6420 H   0  0  0  0  0  0  0  0  0  0  0  0
  147.8659  143.3544  154.7836 H   0  0  0  0  0  0  0  0  0  0  0  0
  1  2  1  0  0  0  0
  1 21  1  0  0  0  0
  1 22  1  0  0  0  0
  1 23  1  0  0  0  0
  2 20  2  0  0  0  0
  2  3  1  0  0  0  0
  3  4  2  0  0  0  0
  3 24  1  0  0  0  0
  4  5  1  0  0  0  0
  4  6  1  0  0  0  0
  5 25  1  0  0  0  0
  5 26  1  0  0  0  0
  5 27  1  0  0  0  0
  6  7  1  0  0  0  0
  6 20  1  0  0  0  0
  7  8  1  0  0  0  0
  7 28  1  0  0  0  0
  7 29  1  0  0  0  0
  8  9  2  0  0  0  0
  8 10  1  0  0  0  0
 10 11  1  0  0  0  0
 10 30  1  0  0  0  0
 11 12  1  0  0  0  0
 11 31  1  0  0  0  0
 11 32  1  0  0  0  0
 12 13  1  0  0  0  0
 12 33  1  0  0  0  0
 12 34  1  0  0  0  0
 13 19  1  0  0  0  0
 13 14  1  0  0  0  0
 13 47  1  0  0  0  0
 14 15  1  0  0  0  0
 14 35  1  0  0  0  0
 14 36  1  0  0  0  0
 15 16  1  0  0  0  0
 15 37  1  0  0  0  0
 15 38  1  0  0  0  0
 16 17  1  0  0  0  0
 16 39  1  0  0  0  0
 16 40  1  0  0  0  0
 17 18  1  0  0  0  0
 17 19  1  0  0  0  0
 17 41  1  0  0  0  0
 18 42  1  0  0  0  0
 18 43  1  0  0  0  0
 18 44  1  0  0  0  0
 19 45  1  0  0  0  0
 19 46  1  0  0  0  0
M  CHG  1  13   1
M  END
> <s_m_source_file>
AV-unprocessed.smi

> <i_m_source_file_index>
1191

> <i_lp_mmshare_version>
43012

> <i_f3d_flags>
0

> <s_epik_input>
W0NIM11jMVtjSF1jKFtDSDNdKW4objEpW0NIMl1DKD1PKVtOSF1bQ0gyXVtDSDJdTjJbQ0gyXVtDSDJdW0NIMl1bQ0BASF0oW0NIM10pW0NIMl0y

> <s_epik_cmdline>
J2VwaWtfcHl0aG9uJywgJy1waCcsICc3LjAnLCAnLXRuJywgJzgnLCAnLW1hJywgJzIwMCcsICctbWV0YWxfYmluZGluZycsICctaW1hZScsICc8aW5maWxlLm1hZT4nLCAnLW9tYWUnLCAnPG91dGZpbGUubWFlPic=

> <r_lp_tautomer_probability>
1

> <r_epik_Ionization_Penalty>
0.00249932

> <r_epik_Ionization_Penalty_Charging>
0.00230623

> <r_epik_Ionization_Penalty_Neutral>
0.000193092

> <r_epik_State_Penalty>
-0

> <r_epik_Charging_Adjusted_Penalty>
0.00230623

> <i_epik_Tot_Q>
1

> <i_epik_Tot_abs_Q>
1

> <r_epik_Metal_State_Penalty>
-0

> <b_epik_Metal_Only>
0

> <s_lp_Force_Field>
OPLS_2005

> <r_lp_Energy>
14.3844

> <b_lp_Chiralities_Consistent>
1

> <s_lp_Variant>
AV-unprocessed.smi:1191-1

> <Gold.Version>
5.8.1

> <Gold.Id.Protein>
6NUR|6NUR_protein|mol2

> <Gold.PLP.Fitness>
55.7180

> <Gold.PLP.PLP>
-48.0367

> <Gold.PLP.part.hbond>
-2.0000

> <Gold.PLP.part.metal>
0.0000

> <Gold.PLP.part.buried>
-7.6824

> <Gold.PLP.part.nonpolar>
-38.7857

> <Gold.PLP.part.repulsive>
0.2804

> <Gold.PLP.ligand.clash>
0.0000

> <Gold.PLP.ligand.torsion>
0.5720

> <Gold.PLP.Chemscore.Hbond>
2.9280

> <Gold.PLP.Chemscore.CHOScore>
0.0000

> <Gold.PLP.Chemscore.Metal>
0.0000

> <Gold.Chemscore.Hbonds>
donor molecule, donor type, donor heavy atom, donor atom, acceptor molecule, acceptor atom, score
      L1  H    10    30       P1  8028  0.85
      L1  H    13    47       P1  8028  2.00

> <Gold.PLP.Chemscore.Internal.Correction>
0.0412

> <Gold.Rescore>
     Score         DG    S(hbond)    S(metal)    S(lipo)     H(rot)  DE(clash)    DE(int)     intcor
     17.28     -19.39       1.76        0.00     105.06       1.67       0.01       2.11       ----

> <Gold.Chemscore.Fitness>
17.2839

> <Gold.Chemscore.DG>
-19.3948

> <Gold.Chemscore.ZeroCoef>
-5.4800

> <Gold.Chemscore.Hbond>
1.7625

> <Gold.Chemscore.Metal>
0.0000

> <Gold.Chemscore.Lipo>
105.0604

> <Gold.Chemscore.Internal_Hbond>
0.0000

> <Gold.Chemscore.DEClash>
0.0050

> <Gold.Chemscore.DEInternal>
2.1059

> <Gold.Chemscore.Rot>
1.6657

> <Gold.Chemscore.Internal.Correction>
   9.000000E+99

> <Gold.Chemscore.Hbonds>
donor molecule, donor type, donor heavy atom, donor atom, acceptor molecule, acceptor atom, score
      L1  H    10    30       P1  8028  0.83
      L1  H    13    47       P1  8028  0.70

> <Gold.Chemscore.Hbond.Weighted>
-5.8868

> <Gold.Chemscore.Metal.Weighted>
-0.0000

> <Gold.Chemscore.Lipo.Weighted>
-12.2921

> <Gold.Chemscore.Internal_Hbond.Weighted>
0.0000

> <Gold.Chemscore.DEClash.Weighted>
0.0050

> <Gold.Chemscore.DEInternal.Weighted>
2.1059

> <Gold.Chemscore.Rot.Weighted>
4.2641

> <Gold.Chemscore.Internal.Correction.Weighted>
   9.000000E+99

> <Gold.Protein.RotatedTorsions>
[ 6907 6896 6895 6894 ] final -139.54 input  -60.11 | X-H torsion
[ 7974 7965 7964 7962 ] final  149.24 input  175.53 | X-H torsion
[ 8008 7997 7996 7995 ] final  -87.22 input   59.86 | X-H torsion
[ 10167 10162 10161 10158 ] final -176.18 input  -65.29 | X-H torsion
[ 10718 10713 10712 10709 ] final  134.61 input   66.30 | X-H torsion
[ 10763 10752 10751 10750 ] final -133.60 input  -60.55 | X-H torsion
[ 11005 11000 10999 10996 ] final   21.42 input  -57.11 | X-H torsion

> <Gold.Protein.ActiveResidues>
 VAL166  LYS551  ARG553  GLY616  TRP617  ASP618  TYR619  PRO620  LYS621  CYS622 
 ASP623  PHE694  ASN695  SER759  ASP760  ASP761  ALA762  ILE779  LEU786  VAL792 
 PHE793  MET794  SER795  GLU796  ALA797  LYS798  CYS799  TRP800  GLU811  SER814 

> <Gold.Protein.RotatedAtoms>
  151.0491  133.5640  159.2643 H   0  0  0  0  0  0  0  0  0  0  0  0  # atno 6907 bound_to 6896
  151.2657  135.0668  159.9125 H   0  0  0  0  0  0  0  0  0  0  0  0  # atno 6908 bound_to 6896
  152.5378  134.0229  159.8044 H   0  0  0  0  0  0  0  0  0  0  0  0  # atno 6909 bound_to 6896
  144.8452  139.6256  143.5998 H   0  0  0  0  0  0  0  0  0  0  0  0  # atno 7974 bound_to 7965
  154.6608  140.0568  157.0059 H   0  0  0  0  0  0  0  0  0  0  0  0  # atno 8008 bound_to 7997
  155.1232  140.3249  155.4473 H   0  0  0  0  0  0  0  0  0  0  0  0  # atno 8009 bound_to 7997
  156.2617  140.1994  156.6353 H   0  0  0  0  0  0  0  0  0  0  0  0  # atno 8010 bound_to 7997
  139.5543  144.2029  152.1132 H   0  0  0  0  0  0  0  0  0  0  0  0  # atno 10167 bound_to 10162
  157.4655  131.1076  150.9867 H   0  0  0  0  0  0  0  0  0  0  0  0  # atno 10718 bound_to 10713
  154.8730  135.3761  154.4599 H   0  0  0  0  0  0  0  0  0  0  0  0  # atno 10763 bound_to 10752
  153.5268  135.7028  153.5708 H   0  0  0  0  0  0  0  0  0  0  0  0  # atno 10764 bound_to 10752
  153.3931  135.3967  155.1902 H   0  0  0  0  0  0  0  0  0  0  0  0  # atno 10765 bound_to 10752
  140.3918  134.1811  155.7662 H   0  0  0  0  0  0  0  0  0  0  0  0  # atno 11005 bound_to 11000
  146.2738  139.6702  142.9277 LP  0  0  0  0  0  0  0  0  0  0  0  0  # atno 17320 bound_to 7965
  145.4611  141.0433  143.2751 LP  0  0  0  0  0  0  0  0  0  0  0  0  # atno 17321 bound_to 7965
  140.1531  144.5096  150.6676 LP  0  0  0  0  0  0  0  0  0  0  0  0  # atno 17342 bound_to 10162
  140.6812  143.2328  151.5378 LP  0  0  0  0  0  0  0  0  0  0  0  0  # atno 17343 bound_to 10162
  157.0650  130.5841  149.5392 LP  0  0  0  0  0  0  0  0  0  0  0  0  # atno 17370 bound_to 10713
  156.0048  130.5133  150.7793 LP  0  0  0  0  0  0  0  0  0  0  0  0  # atno 17371 bound_to 10713
  141.1888  133.8252  157.0980 LP  0  0  0  0  0  0  0  0  0  0  0  0  # atno 17394 bound_to 11000
  140.0401  134.9858  157.0946 LP  0  0  0  0  0  0  0  0  0  0  0  0  # atno 17395 bound_to 11000

$$$$
