AV-unprocessed.smi:166|AV-procd|sdf|1391|dock4
  -GOLD-   2262019133D 1   1.00000     0.00000
 Structure written by MMmdl.
 54 58  0  0  0  0  0  0  0  0  1 V2000
  145.9975  136.6809  151.1877 O   0  0  0  0  0  0  0  0  0  0  0  0
  145.1755  136.2265  152.2494 C   0  0  2  0  0  0  0  0  0  0  0  0
  145.0683  137.3318  153.3266 C   0  0  0  0  0  0  0  0  0  0  0  0
  146.3529  137.7528  153.8644 N   0  0  0  0  0  0  0  0  0  0  0  0
  147.2814  136.9647  154.5073 C   0  0  0  0  0  0  0  0  0  0  0  0
  148.3634  137.5827  154.8954 N   0  0  0  0  0  0  0  0  0  0  0  0
  148.1701  138.8953  154.4822 C   0  0  0  0  0  0  0  0  0  0  0  0
  148.9367  140.0913  154.5709 C   0  0  0  0  0  0  0  0  0  0  0  0
  150.1501  140.1858  155.1530 N   0  0  0  0  0  0  0  0  0  0  0  0
  150.7807  138.8883  155.3754 C   0  0  0  0  0  0  0  0  0  0  0  0
  152.2439  139.0661  155.8116 C   0  0  0  0  0  0  0  0  0  0  0  0
  152.3390  139.9912  157.0350 C   0  0  0  0  0  0  0  0  0  0  0  0
  151.6477  141.3365  156.7515 C   0  0  2  0  0  0  0  0  0  0  0  0
  151.6891  142.0991  157.9505 O   0  0  0  0  0  0  0  0  0  0  0  0
  151.3569  143.4695  157.7878 C   0  0  0  0  0  0  0  0  0  0  0  0
  152.2878  144.3003  158.6443 C   0  0  0  0  0  0  0  0  0  0  0  0
  152.4029  144.0300  160.1274 C   0  0  0  0  0  0  0  0  0  0  0  0
  151.7407  145.2945  159.6434 C   0  0  0  0  0  0  0  0  0  0  0  0
  150.1936  141.0995  156.2922 C   0  0  0  0  0  0  0  0  0  0  0  0
  148.4242  141.2199  154.0234 N   0  0  0  0  0  0  0  0  0  0  0  0
  147.2275  141.1888  153.4289 C   0  0  0  0  0  0  0  0  0  0  0  0
  146.3975  140.1543  153.2752 N   0  0  0  0  0  0  0  0  0  0  0  0
  146.9147  139.0170  153.8236 C   0  0  0  0  0  0  0  0  0  0  0  0
  145.7722  134.9339  152.7957 C   0  0  0  0  0  0  0  0  0  0  0  0
  145.0838  133.8600  151.9649 C   0  0  0  0  0  0  0  0  0  0  0  0
  143.7612  134.3562  151.8567 O   0  0  0  0  0  0  0  0  0  0  0  0
  143.8248  135.7649  151.6606 C   0  0  0  0  0  0  0  0  0  0  0  0
  146.8588  136.8640  151.5309 H   0  0  0  0  0  0  0  0  0  0  0  0
  144.5673  138.2097  152.9162 H   0  0  0  0  0  0  0  0  0  0  0  0
  144.4485  136.9878  154.1556 H   0  0  0  0  0  0  0  0  0  0  0  0
  147.1318  135.9091  154.6811 H   0  0  0  0  0  0  0  0  0  0  0  0
  150.2290  138.3424  156.1420 H   0  0  0  0  0  0  0  0  0  0  0  0
  150.7360  138.2919  154.4628 H   0  0  0  0  0  0  0  0  0  0  0  0
  152.6872  138.0963  156.0385 H   0  0  0  0  0  0  0  0  0  0  0  0
  152.8216  139.4881  154.9883 H   0  0  0  0  0  0  0  0  0  0  0  0
  151.8685  139.5087  157.8930 H   0  0  0  0  0  0  0  0  0  0  0  0
  153.3837  140.1536  157.3020 H   0  0  0  0  0  0  0  0  0  0  0  0
  152.2040  141.8519  155.9662 H   0  0  0  0  0  0  0  0  0  0  0  0
  151.4504  143.7687  156.7427 H   0  0  0  0  0  0  0  0  0  0  0  0
  150.3319  143.6637  158.1030 H   0  0  0  0  0  0  0  0  0  0  0  0
  153.2151  144.5757  158.1450 H   0  0  0  0  0  0  0  0  0  0  0  0
  151.7631  143.2600  160.5542 H   0  0  0  0  0  0  0  0  0  0  0  0
  153.3890  144.1196  160.5785 H   0  0  0  0  0  0  0  0  0  0  0  0
  152.2844  146.2286  159.7690 H   0  0  0  0  0  0  0  0  0  0  0  0
  150.6598  145.3669  159.7477 H   0  0  0  0  0  0  0  0  0  0  0  0
  149.7224  142.0414  156.0103 H   0  0  0  0  0  0  0  0  0  0  0  0
  149.6153  140.6854  157.1187 H   0  0  0  0  0  0  0  0  0  0  0  0
  146.8867  142.1269  153.0160 H   0  0  0  0  0  0  0  0  0  0  0  0
  146.8605  134.8906  152.7354 H   0  0  0  0  0  0  0  0  0  0  0  0
  145.4940  134.8017  153.8424 H   0  0  0  0  0  0  0  0  0  0  0  0
  145.5315  133.7814  150.9730 H   0  0  0  0  0  0  0  0  0  0  0  0
  145.1094  132.8780  152.4374 H   0  0  0  0  0  0  0  0  0  0  0  0
  142.9700  136.2211  152.1584 H   0  0  0  0  0  0  0  0  0  0  0  0
  143.7419  135.9912  150.5962 H   0  0  0  0  0  0  0  0  0  0  0  0
  1  2  1  0  0  0  0
  1 28  1  0  0  0  0
  2 27  1  0  0  0  0
  2  3  1  0  0  0  0
  2 24  1  0  0  0  0
  3  4  1  0  0  0  0
  3 29  1  0  0  0  0
  3 30  1  0  0  0  0
  4 23  1  0  0  0  0
  4  5  1  0  0  0  0
  5  6  2  0  0  0  0
  5 31  1  0  0  0  0
  6  7  1  0  0  0  0
  7 23  2  0  0  0  0
  7  8  1  0  0  0  0
  8  9  1  0  0  0  0
  8 20  2  0  0  0  0
  9 19  1  0  0  0  0
  9 10  1  0  0  0  0
 10 11  1  0  0  0  0
 10 32  1  0  0  0  0
 10 33  1  0  0  0  0
 11 12  1  0  0  0  0
 11 34  1  0  0  0  0
 11 35  1  0  0  0  0
 12 13  1  0  0  0  0
 12 36  1  0  0  0  0
 12 37  1  0  0  0  0
 13 14  1  0  0  0  0
 13 19  1  0  0  0  0
 13 38  1  0  0  0  0
 14 15  1  0  0  0  0
 15 16  1  0  0  0  0
 15 39  1  0  0  0  0
 15 40  1  0  0  0  0
 16 18  1  0  0  0  0
 16 17  1  0  0  0  0
 16 41  1  0  0  0  0
 17 18  1  0  0  0  0
 17 42  1  0  0  0  0
 17 43  1  0  0  0  0
 18 44  1  0  0  0  0
 18 45  1  0  0  0  0
 19 46  1  0  0  0  0
 19 47  1  0  0  0  0
 20 21  1  0  0  0  0
 21 22  2  0  0  0  0
 21 48  1  0  0  0  0
 22 23  1  0  0  0  0
 24 25  1  0  0  0  0
 24 49  1  0  0  0  0
 24 50  1  0  0  0  0
 25 26  1  0  0  0  0
 25 51  1  0  0  0  0
 25 52  1  0  0  0  0
 26 27  1  0  0  0  0
 27 53  1  0  0  0  0
 27 54  1  0  0  0  0
M  END
> <s_m_source_file>
AV-unprocessed.smi

> <i_m_source_file_index>
166

> <i_lp_mmshare_version>
43012

> <i_f3d_flags>
0

> <s_epik_input>
W0NIMl0xT1tDSDJdW0NIMl1bQ0BAXTEoW09IXSlbQ0gyXW4oW2NIXW4yKWMoYzIzKW5bY0hdbmMzTjRbQ0gyXVtDSDJdW0NIMl1bQ0BIXShbQ0gyXTQpT1tDSDJdW0NIXTVbQ0gyXVtDSDJdNQ==

> <s_epik_cmdline>
J2VwaWtfcHl0aG9uJywgJy1waCcsICc3LjAnLCAnLXRuJywgJzgnLCAnLW1hJywgJzIwMCcsICctbWV0YWxfYmluZGluZycsICctaW1hZScsICc8aW5maWxlLm1hZT4nLCAnLW9tYWUnLCAnPG91dGZpbGUubWFlPic=

> <r_lp_tautomer_probability>
1

> <r_epik_Ionization_Penalty>
0.00342552

> <r_epik_Ionization_Penalty_Charging>
0

> <r_epik_Ionization_Penalty_Neutral>
0.00342552

> <r_epik_State_Penalty>
0.0022204

> <r_epik_Charging_Adjusted_Penalty>
0.0022204

> <i_epik_Tot_Q>
0

> <i_epik_Tot_abs_Q>
0

> <r_epik_Metal_State_Penalty>
-0

> <b_epik_Metal_Only>
0

> <s_lp_Force_Field>
OPLS_2005

> <r_lp_Energy>
47.9091

> <b_lp_Chiralities_Consistent>
1

> <s_lp_Variant>
AV-unprocessed.smi:166-4

> <Gold.Version>
5.8.1

> <Gold.Id.Protein>
6NUR|6NUR_protein|mol2

> <Gold.PLP.Fitness>
46.1752

> <Gold.PLP.PLP>
-40.1488

> <Gold.PLP.part.hbond>
-3.6727

> <Gold.PLP.part.metal>
0.0000

> <Gold.PLP.part.buried>
-1.0634

> <Gold.PLP.part.nonpolar>
-36.4168

> <Gold.PLP.part.repulsive>
1.9287

> <Gold.PLP.ligand.clash>
0.0000

> <Gold.PLP.ligand.torsion>
0.9449

> <Gold.PLP.Chemscore.Hbond>
2.3406

> <Gold.PLP.Chemscore.CHOScore>
0.0000

> <Gold.PLP.Chemscore.Metal>
0.0000

> <Gold.Chemscore.Hbonds>
donor molecule, donor type, donor heavy atom, donor atom, acceptor molecule, acceptor atom, score
      L1  H     1    28       P1  7948  0.60
      P1  H  7989  7998       L1     9  0.22

> <Gold.PLP.Chemscore.Internal.Correction>
0.8944

> <Gold.Rescore>
     Score         DG    S(hbond)    S(metal)    S(lipo)     H(rot)  DE(clash)    DE(int)     intcor
      9.84     -13.71       0.97        0.00     101.40       2.68       0.74       3.13       ----

> <Gold.Chemscore.Fitness>
9.8421

> <Gold.Chemscore.DG>
-13.7137

> <Gold.Chemscore.ZeroCoef>
-5.4800

> <Gold.Chemscore.Hbond>
0.9687

> <Gold.Chemscore.Metal>
0.0000

> <Gold.Chemscore.Lipo>
101.3960

> <Gold.Chemscore.Internal_Hbond>
0.0000

> <Gold.Chemscore.DEClash>
0.7371

> <Gold.Chemscore.DEInternal>
3.1345

> <Gold.Chemscore.Rot>
2.6817

> <Gold.Chemscore.Internal.Correction>
   9.000000E+99

> <Gold.Chemscore.Hbonds>
donor molecule, donor type, donor heavy atom, donor atom, acceptor molecule, acceptor atom, score
      L1  H     1    28       P1  7948  0.58
      P1  H  7989  7998       L1     9  0.01
      P1  H  8011  8017       L1    20  0.01

> <Gold.Chemscore.Hbond.Weighted>
-3.2355

> <Gold.Chemscore.Metal.Weighted>
-0.0000

> <Gold.Chemscore.Lipo.Weighted>
-11.8633

> <Gold.Chemscore.Internal_Hbond.Weighted>
0.0000

> <Gold.Chemscore.DEClash.Weighted>
0.7371

> <Gold.Chemscore.DEInternal.Weighted>
3.1345

> <Gold.Chemscore.Rot.Weighted>
6.8651

> <Gold.Chemscore.Internal.Correction.Weighted>
   9.000000E+99

> <Gold.Protein.RotatedTorsions>
[ 6907 6896 6895 6894 ] final  162.39 input  -60.11 | X-H torsion
[ 7974 7965 7964 7962 ] final  -15.45 input  175.53 | X-H torsion
[ 8008 7997 7996 7995 ] final  143.39 input   59.86 | X-H torsion
[ 10167 10162 10161 10158 ] final   56.75 input  -65.29 | X-H torsion
[ 10718 10713 10712 10709 ] final    2.08 input   66.30 | X-H torsion
[ 10763 10752 10751 10750 ] final  148.57 input  -60.55 | X-H torsion
[ 11005 11000 10999 10996 ] final   42.91 input  -57.11 | X-H torsion

> <Gold.Protein.ActiveResidues>
 VAL166  LYS551  ARG553  GLY616  TRP617  ASP618  TYR619  PRO620  LYS621  CYS622 
 ASP623  PHE694  ASN695  SER759  ASP760  ASP761  ALA762  ILE779  LEU786  VAL792 
 PHE793  MET794  SER795  GLU796  ALA797  LYS798  CYS799  TRP800  GLU811  SER814 

> <Gold.Protein.RotatedAtoms>
  151.9412  133.3638  159.3965 H   0  0  0  0  0  0  0  0  0  0  0  0  # atno 6907 bound_to 6896
  150.6998  134.4438  159.5313 H   0  0  0  0  0  0  0  0  0  0  0  0  # atno 6908 bound_to 6896
  152.2095  134.8515  160.0550 H   0  0  0  0  0  0  0  0  0  0  0  0  # atno 6909 bound_to 6896
  146.2031  140.3495  142.8416 H   0  0  0  0  0  0  0  0  0  0  0  0  # atno 7974 bound_to 7965
  156.2931  140.2263  156.4883 H   0  0  0  0  0  0  0  0  0  0  0  0  # atno 8008 bound_to 7997
  154.7793  140.0461  157.1136 H   0  0  0  0  0  0  0  0  0  0  0  0  # atno 8009 bound_to 7997
  154.9778  140.3074  155.4963 H   0  0  0  0  0  0  0  0  0  0  0  0  # atno 8010 bound_to 7997
  140.2054  144.3944  150.6511 H   0  0  0  0  0  0  0  0  0  0  0  0  # atno 10167 bound_to 10162
  156.8577  130.5575  149.5665 H   0  0  0  0  0  0  0  0  0  0  0  0  # atno 10718 bound_to 10713
  154.0568  135.2877  155.3331 H   0  0  0  0  0  0  0  0  0  0  0  0  # atno 10763 bound_to 10752
  154.6834  135.5255  153.8296 H   0  0  0  0  0  0  0  0  0  0  0  0  # atno 10764 bound_to 10752
  153.0538  135.6587  154.0760 H   0  0  0  0  0  0  0  0  0  0  0  0  # atno 10765 bound_to 10752
  140.1694  134.4240  155.8266 H   0  0  0  0  0  0  0  0  0  0  0  0  # atno 11005 bound_to 11000
  144.8729  140.7297  143.6035 LP  0  0  0  0  0  0  0  0  0  0  0  0  # atno 17320 bound_to 7965
  145.3415  139.1731  143.4483 LP  0  0  0  0  0  0  0  0  0  0  0  0  # atno 17321 bound_to 7965
  140.6361  143.2195  151.6392 LP  0  0  0  0  0  0  0  0  0  0  0  0  # atno 17342 bound_to 10162
  139.5200  144.3235  152.0890 LP  0  0  0  0  0  0  0  0  0  0  0  0  # atno 17343 bound_to 10162
  156.0794  130.5808  150.9534 LP  0  0  0  0  0  0  0  0  0  0  0  0  # atno 17370 bound_to 10713
  157.6268  131.0925  150.8518 LP  0  0  0  0  0  0  0  0  0  0  0  0  # atno 17371 bound_to 10713
  141.2216  133.6949  156.7737 LP  0  0  0  0  0  0  0  0  0  0  0  0  # atno 17394 bound_to 11000
  140.2395  134.8624  157.3559 LP  0  0  0  0  0  0  0  0  0  0  0  0  # atno 17395 bound_to 11000

$$$$
