AV-unprocessed.smi:2021|AV-procd|sdf|8178|dock7
  -GOLD-   2272010433D 1   1.00000     0.00000
 Structure written by MMmdl.
 42 43  0  0  0  0  0  0  0  0  2 V2000
  151.6649  143.9235  157.8146 C   0  0  0  0  0  0  0  0  0  0  0  0
  151.0206  142.5326  157.9404 C   0  0  0  0  0  0  0  0  0  0  0  0
  151.8836  141.6197  158.8247 C   0  0  0  0  0  0  0  0  0  0  0  0
  150.7847  141.8820  156.5606 C   0  0  0  0  0  0  0  0  0  0  0  0
  149.3747  141.9766  156.1029 N   0  3  2  0  0  0  0  0  0  0  0  0
  148.3903  141.4966  157.1039 C   0  0  0  0  0  0  0  0  0  0  0  0
  146.9593  141.6542  156.5657 C   0  0  0  0  0  0  0  0  0  0  0  0
  146.8388  140.9592  155.3323 O   0  0  0  0  0  0  0  0  0  0  0  0
  147.7020  141.4817  154.3274 C   0  0  2  0  0  0  0  0  0  0  0  0
  147.4386  140.7414  153.0039 C   0  0  0  0  0  0  0  0  0  0  0  0
  146.6568  139.5260  153.2077 N   0  0  0  0  0  0  0  0  0  0  0  0
  146.4487  138.5808  152.2795 C   0  0  0  0  0  0  0  0  0  0  0  0
  146.9052  138.6411  151.1377 O   0  0  0  0  0  0  0  0  0  0  0  0
  145.6911  137.5807  152.7628 N   0  0  0  0  0  0  0  0  0  0  0  0
  145.2531  136.4069  152.0938 C   0  0  0  0  0  0  0  0  0  0  0  0
  145.7794  135.9670  150.9400 N   0  0  0  0  0  0  0  0  0  0  0  0
  145.1677  134.7997  150.5016 N   0  0  0  0  0  0  0  0  0  0  0  0
  144.2059  134.4054  151.3408 C   0  0  0  0  0  0  0  0  0  0  0  0
  143.9549  135.4203  152.7506 S   0  0  0  0  0  0  0  0  0  0  0  0
  149.1582  141.3034  154.7999 C   0  0  0  0  0  0  0  0  0  0  0  0
  152.6260  143.8696  157.3021 H   0  0  0  0  0  0  0  0  0  0  0  0
  151.8369  144.3671  158.7957 H   0  0  0  0  0  0  0  0  0  0  0  0
  151.0278  144.6101  157.2568 H   0  0  0  0  0  0  0  0  0  0  0  0
  150.0648  142.6503  158.4502 H   0  0  0  0  0  0  0  0  0  0  0  0
  152.8675  141.4543  158.3843 H   0  0  0  0  0  0  0  0  0  0  0  0
  151.4129  140.6458  158.9621 H   0  0  0  0  0  0  0  0  0  0  0  0
  152.0311  142.0536  159.8141 H   0  0  0  0  0  0  0  0  0  0  0  0
  151.4336  142.3770  155.8362 H   0  0  0  0  0  0  0  0  0  0  0  0
  151.0885  140.8340  156.5715 H   0  0  0  0  0  0  0  0  0  0  0  0
  148.5848  140.4486  157.3369 H   0  0  0  0  0  0  0  0  0  0  0  0
  148.4861  142.0543  158.0348 H   0  0  0  0  0  0  0  0  0  0  0  0
  146.2425  141.2404  157.2751 H   0  0  0  0  0  0  0  0  0  0  0  0
  146.7042  142.7068  156.4324 H   0  0  0  0  0  0  0  0  0  0  0  0
  147.4930  142.5438  154.1848 H   0  0  0  0  0  0  0  0  0  0  0  0
  146.8696  141.3849  152.3325 H   0  0  0  0  0  0  0  0  0  0  0  0
  148.3769  140.5195  152.4923 H   0  0  0  0  0  0  0  0  0  0  0  0
  146.2437  139.3972  154.1200 H   0  0  0  0  0  0  0  0  0  0  0  0
  145.3872  137.6698  153.7211 H   0  0  0  0  0  0  0  0  0  0  0  0
  143.6408  133.5101  151.1283 H   0  0  0  0  0  0  0  0  0  0  0  0
  149.8377  141.7204  154.0554 H   0  0  0  0  0  0  0  0  0  0  0  0
  149.3977  140.2426  154.8946 H   0  0  0  0  0  0  0  0  0  0  0  0
  149.1872  142.9571  155.9485 H   0  0  0  0  0  0  0  0  0  0  0  0
  1  2  1  0  0  0  0
  1 21  1  0  0  0  0
  1 22  1  0  0  0  0
  1 23  1  0  0  0  0
  2  3  1  0  0  0  0
  2  4  1  0  0  0  0
  2 24  1  0  0  0  0
  3 25  1  0  0  0  0
  3 26  1  0  0  0  0
  3 27  1  0  0  0  0
  4  5  1  0  0  0  0
  4 28  1  0  0  0  0
  4 29  1  0  0  0  0
  5 20  1  0  0  0  0
  5  6  1  0  0  0  0
  5 42  1  0  0  0  0
  6  7  1  0  0  0  0
  6 30  1  0  0  0  0
  6 31  1  0  0  0  0
  7  8  1  0  0  0  0
  7 32  1  0  0  0  0
  7 33  1  0  0  0  0
  8  9  1  0  0  0  0
  9 10  1  0  0  0  0
  9 20  1  0  0  0  0
  9 34  1  0  0  0  0
 10 11  1  0  0  0  0
 10 35  1  0  0  0  0
 10 36  1  0  0  0  0
 11 12  1  0  0  0  0
 11 37  1  0  0  0  0
 12 13  2  0  0  0  0
 12 14  1  0  0  0  0
 14 15  1  0  0  0  0
 14 38  1  0  0  0  0
 15 19  1  0  0  0  0
 15 16  2  0  0  0  0
 16 17  1  0  0  0  0
 17 18  2  0  0  0  0
 18 19  1  0  0  0  0
 18 39  1  0  0  0  0
 20 40  1  0  0  0  0
 20 41  1  0  0  0  0
M  CHG  1   5   1
M  END
> <s_m_source_file>
AV-unprocessed.smi

> <i_m_source_file_index>
2021

> <i_lp_mmshare_version>
43012

> <i_f3d_flags>
0

> <s_epik_input>
W0NIM11bQ0hdKFtDSDNdKVtDSDJdTjFbQ0gyXVtDSDJdT1tDQEhdKFtDSDJdMSlbQ0gyXVtOSF1DKD1PKVtOSF1jMm5uW2NIXXMy

> <s_epik_cmdline>
J2VwaWtfcHl0aG9uJywgJy1waCcsICc3LjAnLCAnLXRuJywgJzgnLCAnLW1hJywgJzIwMCcsICctbWV0YWxfYmluZGluZycsICctaW1hZScsICc8aW5maWxlLm1hZT4nLCAnLW9tYWUnLCAnPG91dGZpbGUubWFlPic=

> <r_lp_tautomer_probability>
1

> <r_epik_Ionization_Penalty>
0.102019

> <r_epik_Ionization_Penalty_Charging>
0.098413

> <r_epik_Ionization_Penalty_Neutral>
0.00360555

> <r_epik_State_Penalty>
0.0884988

> <r_epik_Charging_Adjusted_Penalty>
0.186912

> <i_epik_Tot_Q>
1

> <i_epik_Tot_abs_Q>
1

> <r_epik_Metal_State_Penalty>
0.454709

> <b_epik_Metal_Only>
0

> <s_lp_Force_Field>
OPLS_2005

> <r_lp_Energy>
16.3226

> <b_lp_Chiralities_Consistent>
1

> <s_lp_Variant>
AV-unprocessed.smi:2021-4

> <Gold.Version>
5.8.1

> <Gold.Id.Protein>
6NUR|6NUR_protein|mol2

> <Gold.PLP.Fitness>
40.8669

> <Gold.PLP.PLP>
-34.6306

> <Gold.PLP.part.hbond>
-2.7223

> <Gold.PLP.part.metal>
0.0000

> <Gold.PLP.part.buried>
-6.6495

> <Gold.PLP.part.nonpolar>
-27.8186

> <Gold.PLP.part.repulsive>
1.8823

> <Gold.PLP.ligand.clash>
0.0000

> <Gold.PLP.ligand.torsion>
1.3829

> <Gold.PLP.Chemscore.Hbond>
2.9920

> <Gold.PLP.Chemscore.CHOScore>
0.0000

> <Gold.PLP.Chemscore.Metal>
0.0000

> <Gold.Chemscore.Hbonds>
donor molecule, donor type, donor heavy atom, donor atom, acceptor molecule, acceptor atom, score
      L1  H     5    42       P1  8028  2.00
      P1  H  7954  7966       L1    13  1.00

> <Gold.PLP.Chemscore.Internal.Correction>
0.0261

> <Gold.Rescore>
     Score         DG    S(hbond)    S(metal)    S(lipo)     H(rot)  DE(clash)    DE(int)     intcor
     12.95     -16.05       1.93        0.00      76.53       1.88       0.38       2.72       ----

> <Gold.Chemscore.Fitness>
12.9548

> <Gold.Chemscore.DG>
-16.0521

> <Gold.Chemscore.ZeroCoef>
-5.4800

> <Gold.Chemscore.Hbond>
1.9262

> <Gold.Chemscore.Metal>
0.0000

> <Gold.Chemscore.Lipo>
76.5344

> <Gold.Chemscore.Internal_Hbond>
0.0000

> <Gold.Chemscore.DEClash>
0.3818

> <Gold.Chemscore.DEInternal>
2.7155

> <Gold.Chemscore.Rot>
1.8812

> <Gold.Chemscore.Internal.Correction>
   9.000000E+99

> <Gold.Chemscore.Hbonds>
donor molecule, donor type, donor heavy atom, donor atom, acceptor molecule, acceptor atom, score
      L1  H     5    42       P1  8028  1.00
      P1  H  7954  7966       L1    13  0.95

> <Gold.Chemscore.Hbond.Weighted>
-6.4335

> <Gold.Chemscore.Metal.Weighted>
-0.0000

> <Gold.Chemscore.Lipo.Weighted>
-8.9545

> <Gold.Chemscore.Internal_Hbond.Weighted>
0.0000

> <Gold.Chemscore.DEClash.Weighted>
0.3818

> <Gold.Chemscore.DEInternal.Weighted>
2.7155

> <Gold.Chemscore.Rot.Weighted>
4.8159

> <Gold.Chemscore.Internal.Correction.Weighted>
   9.000000E+99

> <Gold.Protein.RotatedTorsions>
[ 6907 6896 6895 6894 ] final -125.21 input  -60.11 | X-H torsion
[ 7974 7965 7964 7962 ] final  139.57 input  175.53 | X-H torsion
[ 8008 7997 7996 7995 ] final   71.25 input   59.86 | X-H torsion
[ 10167 10162 10161 10158 ] final  158.88 input  -65.29 | X-H torsion
[ 10718 10713 10712 10709 ] final  -43.07 input   66.30 | X-H torsion
[ 10763 10752 10751 10750 ] final  -48.04 input  -60.55 | X-H torsion
[ 11005 11000 10999 10996 ] final -127.16 input  -57.11 | X-H torsion

> <Gold.Protein.ActiveResidues>
 VAL166  LYS551  ARG553  GLY616  TRP617  ASP618  TYR619  PRO620  LYS621  CYS622 
 ASP623  PHE694  ASN695  SER759  ASP760  ASP761  ALA762  ILE779  LEU786  VAL792 
 PHE793  MET794  SER795  GLU796  ALA797  LYS798  CYS799  TRP800  GLU811  SER814 

> <Gold.Protein.RotatedAtoms>
  150.8844  133.7327  159.2922 H   0  0  0  0  0  0  0  0  0  0  0  0  # atno 6907 bound_to 6896
  151.4898  135.1055  159.9810 H   0  0  0  0  0  0  0  0  0  0  0  0  # atno 6908 bound_to 6896
  152.4781  133.8140  159.7074 H   0  0  0  0  0  0  0  0  0  0  0  0  # atno 6909 bound_to 6896
  144.9266  139.5099  143.5638 H   0  0  0  0  0  0  0  0  0  0  0  0  # atno 7974 bound_to 7965
  155.7510  140.3488  155.5150 H   0  0  0  0  0  0  0  0  0  0  0  0  # atno 8008 bound_to 7997
  155.9004  140.1033  157.1375 H   0  0  0  0  0  0  0  0  0  0  0  0  # atno 8009 bound_to 7997
  154.4043  140.1287  156.4416 H   0  0  0  0  0  0  0  0  0  0  0  0  # atno 8010 bound_to 7997
  139.4829  144.4783  151.8480 H   0  0  0  0  0  0  0  0  0  0  0  0  # atno 10167 bound_to 10162
  156.2529  130.4189  149.8629 H   0  0  0  0  0  0  0  0  0  0  0  0  # atno 10718 bound_to 10713
  154.0712  135.6604  153.4824 H   0  0  0  0  0  0  0  0  0  0  0  0  # atno 10763 bound_to 10752
  153.0390  135.5157  154.7565 H   0  0  0  0  0  0  0  0  0  0  0  0  # atno 10764 bound_to 10752
  154.6631  135.3018  154.9808 H   0  0  0  0  0  0  0  0  0  0  0  0  # atno 10765 bound_to 10752
  140.9622  134.0920  157.3956 H   0  0  0  0  0  0  0  0  0  0  0  0  # atno 11005 bound_to 11000
  146.3229  139.8186  142.8931 LP  0  0  0  0  0  0  0  0  0  0  0  0  # atno 17320 bound_to 7965
  145.3209  141.0243  143.3501 LP  0  0  0  0  0  0  0  0  0  0  0  0  # atno 17321 bound_to 7965
  140.4257  144.2184  150.5887 LP  0  0  0  0  0  0  0  0  0  0  0  0  # atno 17342 bound_to 10162
  140.4830  143.2373  151.8928 LP  0  0  0  0  0  0  0  0  0  0  0  0  # atno 17343 bound_to 10162
  156.6171  130.8611  151.3467 LP  0  0  0  0  0  0  0  0  0  0  0  0  # atno 17370 bound_to 10713
  157.7221  130.9573  150.1482 LP  0  0  0  0  0  0  0  0  0  0  0  0  # atno 17371 bound_to 10713
  139.8882  135.0096  156.6606 LP  0  0  0  0  0  0  0  0  0  0  0  0  # atno 17394 bound_to 11000
  140.7451  133.8945  155.8306 LP  0  0  0  0  0  0  0  0  0  0  0  0  # atno 17395 bound_to 11000

$$$$
