AV-unprocessed.smi:3234|AV-procd|sdf|12353|dock3
  -GOLD-   2272018213D 1   1.00000     0.00000
 Structure written by MMmdl.
 38 40  0  0  0  0  0  0  0  0  3 V2000
  145.3705  138.1241  153.8877 O   0  0  0  0  0  0  0  0  0  0  0  0
  146.4337  137.6560  153.4826 C   0  0  0  0  0  0  0  0  0  0  0  0
  147.6127  138.3022  153.4450 N   0  0  0  0  0  0  0  0  0  0  0  0
  147.9332  139.6277  153.8534 C   0  0  0  0  0  0  0  0  0  0  0  0
  146.9299  140.6097  153.6915 C   0  0  0  0  0  0  0  0  0  0  0  0
  147.1898  141.9431  154.0679 C   0  0  0  0  0  0  0  0  0  0  0  0
  148.3954  142.2748  154.5765 N   0  3  0  0  0  0  0  0  0  0  0  0
  149.3882  141.3756  154.7444 C   0  0  0  0  0  0  0  0  0  0  0  0
  149.1874  140.0271  154.3846 C   0  0  0  0  0  0  0  0  0  0  0  0
  146.5503  136.4075  153.0078 N   0  0  0  0  0  0  0  0  0  0  0  0
  145.4553  135.4469  152.9131 C   0  0  1  0  0  0  0  0  0  0  0  0
  144.4037  135.8211  151.8695 C   0  0  0  0  0  0  0  0  0  0  0  0
  143.8080  134.4737  151.4262 C   0  0  0  0  0  0  0  0  0  0  0  0
  144.6792  133.4116  151.9831 N   0  3  1  0  0  0  0  0  0  0  0  0
  144.9040  132.2697  151.0719 C   0  0  0  0  0  0  0  0  0  0  0  0
  145.1432  132.6792  149.6387 C   0  0  0  0  0  0  0  0  0  0  0  0
  143.8102  132.0901  150.0467 C   0  0  0  0  0  0  0  0  0  0  0  0
  145.9170  134.0700  152.4364 C   0  0  0  0  0  0  0  0  0  0  0  0
  148.3808  137.7831  153.0452 H   0  0  0  0  0  0  0  0  0  0  0  0
  145.9643  140.3474  153.2832 H   0  0  0  0  0  0  0  0  0  0  0  0
  146.4752  142.7481  153.9764 H   0  0  0  0  0  0  0  0  0  0  0  0
  150.3107  141.7596  155.1552 H   0  0  0  0  0  0  0  0  0  0  0  0
  150.0056  139.3378  154.5198 H   0  0  0  0  0  0  0  0  0  0  0  0
  147.4566  136.1006  152.6851 H   0  0  0  0  0  0  0  0  0  0  0  0
  144.9656  135.3485  153.8845 H   0  0  0  0  0  0  0  0  0  0  0  0
  143.6497  136.5027  152.2646 H   0  0  0  0  0  0  0  0  0  0  0  0
  144.8745  136.3075  151.0135 H   0  0  0  0  0  0  0  0  0  0  0  0
  142.7962  134.3400  151.8098 H   0  0  0  0  0  0  0  0  0  0  0  0
  143.7577  134.4226  150.3372 H   0  0  0  0  0  0  0  0  0  0  0  0
  145.4156  131.4052  151.4922 H   0  0  0  0  0  0  0  0  0  0  0  0
  145.1724  133.7419  149.4043 H   0  0  0  0  0  0  0  0  0  0  0  0
  145.8034  132.0532  149.0417 H   0  0  0  0  0  0  0  0  0  0  0  0
  143.5917  131.0759  149.7181 H   0  0  0  0  0  0  0  0  0  0  0  0
  142.9542  132.7620  150.0822 H   0  0  0  0  0  0  0  0  0  0  0  0
  146.6115  134.1687  151.5999 H   0  0  0  0  0  0  0  0  0  0  0  0
  146.4089  133.4945  153.2215 H   0  0  0  0  0  0  0  0  0  0  0  0
  144.2171  133.0629  152.8109 H   0  0  0  0  0  0  0  0  0  0  0  0
  148.5646  143.2457  154.8420 H   0  0  0  0  0  0  0  0  0  0  0  0
  1  2  2  0  0  0  0
  2  3  1  0  0  0  0
  2 10  1  0  0  0  0
  3  4  1  0  0  0  0
  3 19  1  0  0  0  0
  4  9  1  0  0  0  0
  4  5  2  0  0  0  0
  5  6  1  0  0  0  0
  5 20  1  0  0  0  0
  6  7  2  0  0  0  0
  6 21  1  0  0  0  0
  7  8  1  0  0  0  0
  7 38  1  0  0  0  0
  8  9  2  0  0  0  0
  8 22  1  0  0  0  0
  9 23  1  0  0  0  0
 10 11  1  0  0  0  0
 10 24  1  0  0  0  0
 11 18  1  0  0  0  0
 11 12  1  0  0  0  0
 11 25  1  0  0  0  0
 12 13  1  0  0  0  0
 12 26  1  0  0  0  0
 12 27  1  0  0  0  0
 13 14  1  0  0  0  0
 13 28  1  0  0  0  0
 13 29  1  0  0  0  0
 14 15  1  0  0  0  0
 14 18  1  0  0  0  0
 14 37  1  0  0  0  0
 15 17  1  0  0  0  0
 15 16  1  0  0  0  0
 15 30  1  0  0  0  0
 16 17  1  0  0  0  0
 16 31  1  0  0  0  0
 16 32  1  0  0  0  0
 17 33  1  0  0  0  0
 17 34  1  0  0  0  0
 18 35  1  0  0  0  0
 18 36  1  0  0  0  0
M  CHG  1   7   1
M  CHG  1  14   1
M  END
> <s_m_source_file>
AV-unprocessed.smi

> <i_m_source_file_index>
3234

> <i_lp_mmshare_version>
43012

> <i_f3d_flags>
0

> <s_epik_input>
W2NIXTFbY0hdbltjSF1bY0hdYzFbTkhdQyg9TylbTkhdW0NAQEhdMltDSDJdW0NIMl1OKFtDSDJdMilbQ0hdM1tDSDJdW0NIMl0z

> <s_epik_cmdline>
J2VwaWtfcHl0aG9uJywgJy1waCcsICc3LjAnLCAnLXRuJywgJzgnLCAnLW1hJywgJzIwMCcsICctbWV0YWxfYmluZGluZycsICctaW1hZScsICc8aW5maWxlLm1hZT4nLCAnLW9tYWUnLCAnPG91dGZpbGUubWFlPic=

> <r_epik_Ionization_Penalty>
1.14489

> <r_epik_Ionization_Penalty_Charging>
1.14487

> <r_epik_Ionization_Penalty_Neutral>
1.95212e-05

> <r_epik_State_Penalty>
1.205

> <r_epik_Charging_Adjusted_Penalty>
2.34987

> <i_epik_Tot_Q>
2

> <i_epik_Tot_abs_Q>
2

> <r_epik_Metal_State_Penalty>
1.28709

> <b_epik_Metal_Only>
0

> <s_lp_Force_Field>
OPLS_2005

> <r_lp_Energy>
48.5757

> <b_lp_Chiralities_Consistent>
1

> <s_lp_Variant>
AV-unprocessed.smi:3234-6

> <Gold.Version>
5.8.1

> <Gold.Id.Protein>
6NUR|6NUR_protein|mol2

> <Gold.PLP.Fitness>
43.5477

> <Gold.PLP.PLP>
-32.2071

> <Gold.PLP.part.hbond>
-3.0000

> <Gold.PLP.part.metal>
0.0000

> <Gold.PLP.part.buried>
-4.2215

> <Gold.PLP.part.nonpolar>
-25.8008

> <Gold.PLP.part.repulsive>
0.3950

> <Gold.PLP.ligand.clash>
0.0000

> <Gold.PLP.ligand.torsion>
0.9025

> <Gold.PLP.Chemscore.Hbond>
3.9600

> <Gold.PLP.Chemscore.CHOScore>
0.0000

> <Gold.PLP.Chemscore.Metal>
0.0000

> <Gold.Chemscore.Hbonds>
donor molecule, donor type, donor heavy atom, donor atom, acceptor molecule, acceptor atom, score
      L1  H     3    19       P1  7948  0.94
      L1  H     7    38       P1  8028  2.00
      L1  H    10    24       P1  7948  1.00

> <Gold.PLP.Chemscore.Internal.Correction>
1.2655

> <Gold.Rescore>
     Score         DG    S(hbond)    S(metal)    S(lipo)     H(rot)  DE(clash)    DE(int)     intcor
     19.52     -21.73       2.93        0.00      82.05       1.22       0.10       2.10       ----

> <Gold.Chemscore.Fitness>
19.5236

> <Gold.Chemscore.DG>
-21.7252

> <Gold.Chemscore.ZeroCoef>
-5.4800

> <Gold.Chemscore.Hbond>
2.9284

> <Gold.Chemscore.Metal>
0.0000

> <Gold.Chemscore.Lipo>
82.0484

> <Gold.Chemscore.Internal_Hbond>
0.0000

> <Gold.Chemscore.DEClash>
0.1004

> <Gold.Chemscore.DEInternal>
2.1012

> <Gold.Chemscore.Rot>
1.2248

> <Gold.Chemscore.Internal.Correction>
   9.000000E+99

> <Gold.Chemscore.Hbonds>
donor molecule, donor type, donor heavy atom, donor atom, acceptor molecule, acceptor atom, score
      L1  H     3    19       P1  7948  0.87
      L1  H     7    38       P1  8028  1.00
      L1  H    10    24       P1  7948  0.98

> <Gold.Chemscore.Hbond.Weighted>
-9.7810

> <Gold.Chemscore.Metal.Weighted>
-0.0000

> <Gold.Chemscore.Lipo.Weighted>
-9.5997

> <Gold.Chemscore.Internal_Hbond.Weighted>
0.0000

> <Gold.Chemscore.DEClash.Weighted>
0.1004

> <Gold.Chemscore.DEInternal.Weighted>
2.1012

> <Gold.Chemscore.Rot.Weighted>
3.1355

> <Gold.Chemscore.Internal.Correction.Weighted>
   9.000000E+99

> <Gold.Protein.RotatedTorsions>
[ 6907 6896 6895 6894 ] final  158.01 input  -60.11 | X-H torsion
[ 7974 7965 7964 7962 ] final  172.26 input  175.53 | X-H torsion
[ 8008 7997 7996 7995 ] final   64.04 input   59.86 | X-H torsion
[ 10167 10162 10161 10158 ] final -100.57 input  -65.29 | X-H torsion
[ 10718 10713 10712 10709 ] final  -20.21 input   66.30 | X-H torsion
[ 10763 10752 10751 10750 ] final  171.48 input  -60.55 | X-H torsion
[ 11005 11000 10999 10996 ] final -107.47 input  -57.11 | X-H torsion

> <Gold.Protein.ActiveResidues>
 VAL166  LYS551  ARG553  GLY616  TRP617  ASP618  TYR619  PRO620  LYS621  CYS622 
 ASP623  PHE694  ASN695  SER759  ASP760  ASP761  ALA762  ILE779  LEU786  VAL792 
 PHE793  MET794  SER795  GLU796  ALA797  LYS798  CYS799  TRP800  GLU811  SER814 

> <Gold.Protein.RotatedAtoms>
  152.0067  133.3846  159.4203 H   0  0  0  0  0  0  0  0  0  0  0  0  # atno 6907 bound_to 6896
  150.6904  134.3774  159.5028 H   0  0  0  0  0  0  0  0  0  0  0  0  # atno 6908 bound_to 6896
  152.1529  134.8973  160.0597 H   0  0  0  0  0  0  0  0  0  0  0  0  # atno 6909 bound_to 6896
  144.7273  139.9472  143.6430 H   0  0  0  0  0  0  0  0  0  0  0  0  # atno 7974 bound_to 7965
  155.6397  140.3496  155.4710 H   0  0  0  0  0  0  0  0  0  0  0  0  # atno 8008 bound_to 7997
  155.9936  140.1199  157.0638 H   0  0  0  0  0  0  0  0  0  0  0  0  # atno 8009 bound_to 7997
  154.4226  140.1114  156.5586 H   0  0  0  0  0  0  0  0  0  0  0  0  # atno 8010 bound_to 7997
  140.2504  143.3476  152.0719 H   0  0  0  0  0  0  0  0  0  0  0  0  # atno 10167 bound_to 10162
  156.5351  130.4664  149.6527 H   0  0  0  0  0  0  0  0  0  0  0  0  # atno 10718 bound_to 10713
  154.4124  135.2756  155.2028 H   0  0  0  0  0  0  0  0  0  0  0  0  # atno 10763 bound_to 10752
  154.4008  135.6045  153.5899 H   0  0  0  0  0  0  0  0  0  0  0  0  # atno 10764 bound_to 10752
  152.9831  135.5926  154.4408 H   0  0  0  0  0  0  0  0  0  0  0  0  # atno 10765 bound_to 10752
  141.0952  133.8984  157.1980 H   0  0  0  0  0  0  0  0  0  0  0  0  # atno 11005 bound_to 11000
  146.0739  139.3728  143.0506 LP  0  0  0  0  0  0  0  0  0  0  0  0  # atno 17320 bound_to 7965
  145.7931  140.9805  143.1038 LP  0  0  0  0  0  0  0  0  0  0  0  0  # atno 17321 bound_to 7965
  139.5048  144.6782  151.6075 LP  0  0  0  0  0  0  0  0  0  0  0  0  # atno 17342 bound_to 10162
  140.6044  143.9550  150.6409 LP  0  0  0  0  0  0  0  0  0  0  0  0  # atno 17343 bound_to 10162
  156.3024  130.7184  151.2058 LP  0  0  0  0  0  0  0  0  0  0  0  0  # atno 17370 bound_to 10713
  157.7415  131.0503  150.5091 LP  0  0  0  0  0  0  0  0  0  0  0  0  # atno 17371 bound_to 10713
  139.9787  135.0105  156.9696 LP  0  0  0  0  0  0  0  0  0  0  0  0  # atno 17394 bound_to 11000
  140.5157  134.0958  155.7280 LP  0  0  0  0  0  0  0  0  0  0  0  0  # atno 17395 bound_to 11000

$$$$
