AV-unprocessed.smi:1911|AV-procd|sdf|7742|dock3
  -GOLD-   22720 9483D 1   1.00000     0.00000
 Structure written by MMmdl.
 53 55  0  0  0  0  0  0  0  0  3 V2000
  143.0165  132.7596  148.8539 N   0  0  0  0  0  0  0  0  0  0  0  0
  144.1300  132.6577  149.5827 C   0  0  0  0  0  0  0  0  0  0  0  0
  145.1937  132.2685  149.1038 O   0  0  0  0  0  0  0  0  0  0  0  0
  144.0343  133.0687  151.0554 C   0  0  0  0  0  0  0  0  0  0  0  0
  144.9091  134.2215  151.3908 N   0  3  2  0  0  0  0  0  0  0  0  0
  144.7959  134.6465  152.8117 C   0  0  0  0  0  0  0  0  0  0  0  0
  145.8231  135.7403  153.1458 C   0  0  0  0  0  0  0  0  0  0  0  0
  145.6752  136.9505  152.2052 C   0  0  1  0  0  0  0  0  0  0  0  0
  146.7228  137.9352  152.4617 N   0  0  0  0  0  0  0  0  0  0  0  0
  147.0636  138.4021  153.6718 C   0  0  0  0  0  0  0  0  0  0  0  0
  146.5057  138.0543  154.7119 O   0  0  0  0  0  0  0  0  0  0  0  0
  148.0697  139.2900  153.5848 N   0  0  0  0  0  0  0  0  0  0  0  0
  148.7390  139.9911  154.6258 C   0  0  0  0  0  0  0  0  0  0  0  0
  149.1141  139.4196  155.8674 C   0  0  0  0  0  0  0  0  0  0  0  0
  149.7904  140.2082  156.8210 C   0  0  0  0  0  0  0  0  0  0  0  0
  150.0932  141.5591  156.5308 C   0  0  0  0  0  0  0  0  0  0  0  0
  150.7729  142.4013  157.4311 N   0  0  0  0  0  0  0  0  0  0  0  0
  151.4510  141.8823  158.6118 C   0  0  0  0  0  0  0  0  0  0  0  0
  152.5728  142.8826  158.9133 C   0  0  0  0  0  0  0  0  0  0  0  0
  152.1138  144.1719  158.2316 C   0  0  0  0  0  0  0  0  0  0  0  0
  151.3495  143.6667  157.0083 C   0  0  0  0  0  0  0  0  0  0  0  0
  149.7271  142.0573  155.3261 N   0  3  0  0  0  0  0  0  0  0  0  0
  149.0781  141.3384  154.3852 C   0  0  0  0  0  0  0  0  0  0  0  0
  145.7466  136.4793  150.7436 C   0  0  0  0  0  0  0  0  0  0  0  0
  144.7217  135.3666  150.4641 C   0  0  0  0  0  0  0  0  0  0  0  0
  143.0332  132.5013  147.8775 H   0  0  0  0  0  0  0  0  0  0  0  0
  142.1614  133.0945  149.2740 H   0  0  0  0  0  0  0  0  0  0  0  0
  142.9917  133.3338  151.2365 H   0  0  0  0  0  0  0  0  0  0  0  0
  144.2609  132.2235  151.7078 H   0  0  0  0  0  0  0  0  0  0  0  0
  143.7856  135.0108  153.0048 H   0  0  0  0  0  0  0  0  0  0  0  0
  144.9547  133.7950  153.4739 H   0  0  0  0  0  0  0  0  0  0  0  0
  145.7001  136.0513  154.1839 H   0  0  0  0  0  0  0  0  0  0  0  0
  146.8298  135.3269  153.0646 H   0  0  0  0  0  0  0  0  0  0  0  0
  144.6992  137.4123  152.3680 H   0  0  0  0  0  0  0  0  0  0  0  0
  147.2297  138.2798  151.6591 H   0  0  0  0  0  0  0  0  0  0  0  0
  148.3762  139.5166  152.6499 H   0  0  0  0  0  0  0  0  0  0  0  0
  148.9125  138.3887  156.1101 H   0  0  0  0  0  0  0  0  0  0  0  0
  150.0738  139.7617  157.7625 H   0  0  0  0  0  0  0  0  0  0  0  0
  150.7378  141.8419  159.4356 H   0  0  0  0  0  0  0  0  0  0  0  0
  151.8523  140.8800  158.4573 H   0  0  0  0  0  0  0  0  0  0  0  0
  152.7538  143.0065  159.9813 H   0  0  0  0  0  0  0  0  0  0  0  0
  153.5013  142.5404  158.4543 H   0  0  0  0  0  0  0  0  0  0  0  0
  151.4375  144.7159  158.8926 H   0  0  0  0  0  0  0  0  0  0  0  0
  152.9390  144.8358  157.9725 H   0  0  0  0  0  0  0  0  0  0  0  0
  152.0298  143.4951  156.1731 H   0  0  0  0  0  0  0  0  0  0  0  0
  150.5837  144.3761  156.6936 H   0  0  0  0  0  0  0  0  0  0  0  0
  148.8489  141.8659  153.4703 H   0  0  0  0  0  0  0  0  0  0  0  0
  145.5700  137.3193  150.0706 H   0  0  0  0  0  0  0  0  0  0  0  0
  146.7488  136.1098  150.5206 H   0  0  0  0  0  0  0  0  0  0  0  0
  144.8343  135.0293  149.4330 H   0  0  0  0  0  0  0  0  0  0  0  0
  143.7063  135.7542  150.5628 H   0  0  0  0  0  0  0  0  0  0  0  0
  145.8566  133.8981  151.2543 H   0  0  0  0  0  0  0  0  0  0  0  0
  149.9542  143.0294  155.1168 H   0  0  0  0  0  0  0  0  0  0  0  0
  1  2  1  0  0  0  0
  1 26  1  0  0  0  0
  1 27  1  0  0  0  0
  2  3  2  0  0  0  0
  2  4  1  0  0  0  0
  4  5  1  0  0  0  0
  4 28  1  0  0  0  0
  4 29  1  0  0  0  0
  5 25  1  0  0  0  0
  5  6  1  0  0  0  0
  5 52  1  0  0  0  0
  6  7  1  0  0  0  0
  6 30  1  0  0  0  0
  6 31  1  0  0  0  0
  7  8  1  0  0  0  0
  7 32  1  0  0  0  0
  7 33  1  0  0  0  0
  8  9  1  0  0  0  0
  8 24  1  0  0  0  0
  8 34  1  0  0  0  0
  9 10  1  0  0  0  0
  9 35  1  0  0  0  0
 10 11  2  0  0  0  0
 10 12  1  0  0  0  0
 12 13  1  0  0  0  0
 12 36  1  0  0  0  0
 13 23  1  0  0  0  0
 13 14  2  0  0  0  0
 14 15  1  0  0  0  0
 14 37  1  0  0  0  0
 15 16  2  0  0  0  0
 15 38  1  0  0  0  0
 16 17  1  0  0  0  0
 16 22  1  0  0  0  0
 17 21  1  0  0  0  0
 17 18  1  0  0  0  0
 18 19  1  0  0  0  0
 18 39  1  0  0  0  0
 18 40  1  0  0  0  0
 19 20  1  0  0  0  0
 19 41  1  0  0  0  0
 19 42  1  0  0  0  0
 20 21  1  0  0  0  0
 20 43  1  0  0  0  0
 20 44  1  0  0  0  0
 21 45  1  0  0  0  0
 21 46  1  0  0  0  0
 22 23  2  0  0  0  0
 22 53  1  0  0  0  0
 23 47  1  0  0  0  0
 24 25  1  0  0  0  0
 24 48  1  0  0  0  0
 24 49  1  0  0  0  0
 25 50  1  0  0  0  0
 25 51  1  0  0  0  0
M  CHG  1   5   1
M  CHG  1  22   1
M  END
> <s_m_source_file>
AV-unprocessed.smi

> <i_m_source_file_index>
1911

> <i_lp_mmshare_version>
43012

> <i_f3d_flags>
0

> <s_epik_input>
W05IMl1DKD1PKVtDSDJdTjFbQ0gyXVtDSDJdW0NIXShbQ0gyXVtDSDJdMSlbTkhdQyg9TylbTkhdYzJbY0hdW2NIXWMobltjSF0yKU4zW0NIMl1bQ0gyXVtDSDJdW0NIMl0z

> <s_epik_cmdline>
J2VwaWtfcHl0aG9uJywgJy1waCcsICc3LjAnLCAnLXRuJywgJzgnLCAnLW1hJywgJzIwMCcsICctbWV0YWxfYmluZGluZycsICctaW1hZScsICc8aW5maWxlLm1hZT4nLCAnLW9tYWUnLCAnPG91dGZpbGUubWFlPic=

> <r_lp_tautomer_probability>
0.999994

> <r_epik_Ionization_Penalty>
2.11361

> <r_epik_Ionization_Penalty_Charging>
2.11355

> <r_epik_Ionization_Penalty_Neutral>
5.99226e-05

> <r_epik_State_Penalty>
2.13444

> <r_epik_Charging_Adjusted_Penalty>
4.24799

> <i_epik_Tot_Q>
2

> <i_epik_Tot_abs_Q>
2

> <r_epik_Metal_State_Penalty>
2.23538

> <b_epik_Metal_Only>
0

> <s_lp_Force_Field>
OPLS_2005

> <r_lp_Energy>
45.5026

> <b_lp_Chiralities_Consistent>
1

> <s_lp_Variant>
AV-unprocessed.smi:1911-5

> <Gold.Version>
5.8.1

> <Gold.Id.Protein>
6NUR|6NUR_protein|mol2

> <Gold.PLP.Fitness>
53.6296

> <Gold.PLP.PLP>
-45.0480

> <Gold.PLP.part.hbond>
-4.1680

> <Gold.PLP.part.metal>
0.0000

> <Gold.PLP.part.buried>
-4.8040

> <Gold.PLP.part.nonpolar>
-37.3896

> <Gold.PLP.part.repulsive>
0.9956

> <Gold.PLP.ligand.clash>
0.0000

> <Gold.PLP.ligand.torsion>
0.5301

> <Gold.PLP.Chemscore.Hbond>
3.1440

> <Gold.PLP.Chemscore.CHOScore>
0.0000

> <Gold.PLP.Chemscore.Metal>
0.0000

> <Gold.Chemscore.Hbonds>
donor molecule, donor type, donor heavy atom, donor atom, acceptor molecule, acceptor atom, score
      L1  H     1    27       P1 10186  0.99
      L1  H    12    36       P1  7957  1.00
      L1  H    22    53       P1  8028  1.04

> <Gold.PLP.Chemscore.Internal.Correction>
0.2098

> <Gold.Rescore>
     Score         DG    S(hbond)    S(metal)    S(lipo)     H(rot)  DE(clash)    DE(int)     intcor
     17.84     -20.45       2.47        0.00      99.66       1.93       0.74       1.88       ----

> <Gold.Chemscore.Fitness>
17.8362

> <Gold.Chemscore.DG>
-20.4493

> <Gold.Chemscore.ZeroCoef>
-5.4800

> <Gold.Chemscore.Hbond>
2.4670

> <Gold.Chemscore.Metal>
0.0000

> <Gold.Chemscore.Lipo>
99.6609

> <Gold.Chemscore.Internal_Hbond>
0.0000

> <Gold.Chemscore.DEClash>
0.7367

> <Gold.Chemscore.DEInternal>
1.8764

> <Gold.Chemscore.Rot>
1.9261

> <Gold.Chemscore.Internal.Correction>
   9.000000E+99

> <Gold.Chemscore.Hbonds>
donor molecule, donor type, donor heavy atom, donor atom, acceptor molecule, acceptor atom, score
      L1  H     1    27       P1 10186  0.94
      L1  H    12    36       P1  7957  0.96
      L1  H    22    53       P1  8028  0.50

> <Gold.Chemscore.Hbond.Weighted>
-8.2396

> <Gold.Chemscore.Metal.Weighted>
-0.0000

> <Gold.Chemscore.Lipo.Weighted>
-11.6603

> <Gold.Chemscore.Internal_Hbond.Weighted>
0.0000

> <Gold.Chemscore.DEClash.Weighted>
0.7367

> <Gold.Chemscore.DEInternal.Weighted>
1.8764

> <Gold.Chemscore.Rot.Weighted>
4.9307

> <Gold.Chemscore.Internal.Correction.Weighted>
   9.000000E+99

> <Gold.Protein.RotatedTorsions>
[ 6907 6896 6895 6894 ] final    9.51 input  -60.11 | X-H torsion
[ 7974 7965 7964 7962 ] final  -55.40 input  175.53 | X-H torsion
[ 8008 7997 7996 7995 ] final  -52.37 input   59.86 | X-H torsion
[ 10167 10162 10161 10158 ] final  -42.05 input  -65.29 | X-H torsion
[ 10718 10713 10712 10709 ] final   39.99 input   66.30 | X-H torsion
[ 10763 10752 10751 10750 ] final   88.45 input  -60.55 | X-H torsion
[ 11005 11000 10999 10996 ] final   67.29 input  -57.11 | X-H torsion

> <Gold.Protein.ActiveResidues>
 VAL166  LYS551  ARG553  GLY616  TRP617  ASP618  TYR619  PRO620  LYS621  CYS622 
 ASP623  PHE694  ASN695  SER759  ASP760  ASP761  ALA762  ILE779  LEU786  VAL792 
 PHE793  MET794  SER795  GLU796  ALA797  LYS798  CYS799  TRP800  GLU811  SER814 

> <Gold.Protein.RotatedAtoms>
  151.7233  135.0890  160.0287 H   0  0  0  0  0  0  0  0  0  0  0  0  # atno 6907 bound_to 6896
  152.3588  133.6266  159.6008 H   0  0  0  0  0  0  0  0  0  0  0  0  # atno 6908 bound_to 6896
  150.7590  133.9373  159.3487 H   0  0  0  0  0  0  0  0  0  0  0  0  # atno 6909 bound_to 6896
  145.8746  140.8190  142.9870 H   0  0  0  0  0  0  0  0  0  0  0  0  # atno 7974 bound_to 7965
  154.4105  140.1225  156.4981 H   0  0  0  0  0  0  0  0  0  0  0  0  # atno 8008 bound_to 7997
  155.6923  140.3495  155.4879 H   0  0  0  0  0  0  0  0  0  0  0  0  # atno 8009 bound_to 7997
  155.9458  140.1095  157.1008 H   0  0  0  0  0  0  0  0  0  0  0  0  # atno 8010 bound_to 7997
  140.6982  143.3060  151.3154 H   0  0  0  0  0  0  0  0  0  0  0  0  # atno 10167 bound_to 10162
  157.3770  130.7732  149.7163 H   0  0  0  0  0  0  0  0  0  0  0  0  # atno 10718 bound_to 10713
  153.1770  135.4506  154.9978 H   0  0  0  0  0  0  0  0  0  0  0  0  # atno 10763 bound_to 10752
  154.8005  135.3254  154.7565 H   0  0  0  0  0  0  0  0  0  0  0  0  # atno 10764 bound_to 10752
  153.8034  135.6961  153.4907 H   0  0  0  0  0  0  0  0  0  0  0  0  # atno 10765 bound_to 10752
  139.9779  134.6791  156.0318 H   0  0  0  0  0  0  0  0  0  0  0  0  # atno 11005 bound_to 11000
  144.6726  140.1291  143.7445 LP  0  0  0  0  0  0  0  0  0  0  0  0  # atno 17320 bound_to 7965
  145.9096  139.2479  143.1445 LP  0  0  0  0  0  0  0  0  0  0  0  0  # atno 17321 bound_to 7965
  139.6465  144.0441  152.2595 LP  0  0  0  0  0  0  0  0  0  0  0  0  # atno 17342 bound_to 10162
  139.9964  144.6325  150.7769 LP  0  0  0  0  0  0  0  0  0  0  0  0  # atno 17343 bound_to 10162
  155.9767  130.4072  150.3759 LP  0  0  0  0  0  0  0  0  0  0  0  0  # atno 17370 bound_to 10713
  157.1858  131.0403  151.2725 LP  0  0  0  0  0  0  0  0  0  0  0  0  # atno 17371 bound_to 10713
  141.1455  133.6557  156.3854 LP  0  0  0  0  0  0  0  0  0  0  0  0  # atno 17394 bound_to 11000
  140.5156  134.6353  157.5300 LP  0  0  0  0  0  0  0  0  0  0  0  0  # atno 17395 bound_to 11000

$$$$
