AV-unprocessed.smi:3083|AV-procd|sdf|11747|dock7
  -GOLD-   2272017143D 1   1.00000     0.00000
 Structure written by MMmdl.
 28 29  0  0  0  0  0  0  0  0  2 V2000
  151.2204  144.0727  157.4485 N   0  3  0  0  0  0  0  0  0  0  0  0
  151.0003  142.6201  157.5751 C   0  0  1  0  0  0  0  0  0  0  0  0
  150.8527  141.9830  156.1806 C   0  0  0  0  0  0  0  0  0  0  0  0
  150.6382  140.4646  156.2766 C   0  0  0  0  0  0  0  0  0  0  0  0
  151.7740  139.7923  157.0624 C   0  0  0  0  0  0  0  0  0  0  0  0
  151.9321  140.4195  158.4563 C   0  0  0  0  0  0  0  0  0  0  0  0
  152.1477  141.9448  158.3708 C   0  0  2  0  0  0  0  0  0  0  0  0
  152.3179  142.5105  159.7041 N   0  0  0  0  0  0  0  0  0  0  0  0
  153.1496  142.0704  160.7133 C   0  0  0  0  0  0  0  0  0  0  0  0
  152.9539  142.8860  161.7906 C   0  0  0  0  0  0  0  0  0  0  0  0
  151.9574  143.7989  161.3470 C   0  0  0  0  0  0  0  0  0  0  0  0
  151.5751  143.5685  160.1014 N   0  0  0  0  0  0  0  0  0  0  0  0
  151.1669  144.5050  158.3596 H   0  0  0  0  0  0  0  0  0  0  0  0
  150.5096  144.4647  156.8470 H   0  0  0  0  0  0  0  0  0  0  0  0
  150.0592  142.4839  158.1100 H   0  0  0  0  0  0  0  0  0  0  0  0
  150.0158  142.4363  155.6477 H   0  0  0  0  0  0  0  0  0  0  0  0
  151.7439  142.1848  155.5841 H   0  0  0  0  0  0  0  0  0  0  0  0
  149.6844  140.2595  156.7644 H   0  0  0  0  0  0  0  0  0  0  0  0
  150.5731  140.0346  155.2767 H   0  0  0  0  0  0  0  0  0  0  0  0
  151.5789  138.7234  157.1562 H   0  0  0  0  0  0  0  0  0  0  0  0
  152.7092  139.8880  156.5094 H   0  0  0  0  0  0  0  0  0  0  0  0
  151.0442  140.2017  159.0518 H   0  0  0  0  0  0  0  0  0  0  0  0
  152.7709  139.9520  158.9735 H   0  0  0  0  0  0  0  0  0  0  0  0
  153.0806  142.1187  157.8312 H   0  0  0  0  0  0  0  0  0  0  0  0
  153.8052  141.2216  160.5837 H   0  0  0  0  0  0  0  0  0  0  0  0
  153.4421  142.8332  162.7526 H   0  0  0  0  0  0  0  0  0  0  0  0
  151.5018  144.6143  161.8895 H   0  0  0  0  0  0  0  0  0  0  0  0
  152.1313  144.2421  157.0466 H   0  0  0  0  0  0  0  0  0  0  0  0
  1  2  1  0  0  0  0
  1 13  1  0  0  0  0
  1 14  1  0  0  0  0
  1 28  1  0  0  0  0
  2  7  1  0  0  0  0
  2  3  1  0  0  0  0
  2 15  1  0  0  0  0
  3  4  1  0  0  0  0
  3 16  1  0  0  0  0
  3 17  1  0  0  0  0
  4  5  1  0  0  0  0
  4 18  1  0  0  0  0
  4 19  1  0  0  0  0
  5  6  1  0  0  0  0
  5 20  1  0  0  0  0
  5 21  1  0  0  0  0
  6  7  1  0  0  0  0
  6 22  1  0  0  0  0
  6 23  1  0  0  0  0
  7  8  1  0  0  0  0
  7 24  1  0  0  0  0
  8 12  1  0  0  0  0
  8  9  1  0  0  0  0
  9 10  2  0  0  0  0
  9 25  1  0  0  0  0
 10 11  1  0  0  0  0
 10 26  1  0  0  0  0
 11 12  2  0  0  0  0
 11 27  1  0  0  0  0
M  CHG  1   1   1
M  END
> <s_m_source_file>
AV-unprocessed.smi

> <i_m_source_file_index>
3083

> <i_lp_mmshare_version>
43012

> <i_f3d_flags>
0

> <s_epik_input>
W05IMl1bQ0BASF0xW0NIMl1bQ0gyXVtDSDJdW0NIMl1bQ0BIXTFuMltjSF1bY0hdW2NIXW4y

> <s_epik_cmdline>
J2VwaWtfcHl0aG9uJywgJy1waCcsICc3LjAnLCAnLXRuJywgJzgnLCAnLW1hJywgJzIwMCcsICctbWV0YWxfYmluZGluZycsICctaW1hZScsICc8aW5maWxlLm1hZT4nLCAnLW9tYWUnLCAnPG91dGZpbGUubWFlPic=

> <r_lp_tautomer_probability>
1

> <r_epik_Ionization_Penalty>
0.00385053

> <r_epik_Ionization_Penalty_Charging>
0.0038389

> <r_epik_Ionization_Penalty_Neutral>
1.16305e-05

> <r_epik_State_Penalty>
-0

> <r_epik_Charging_Adjusted_Penalty>
0.0038389

> <i_epik_Tot_Q>
1

> <i_epik_Tot_abs_Q>
1

> <r_epik_Metal_State_Penalty>
-0

> <b_epik_Metal_Only>
0

> <s_lp_Force_Field>
OPLS_2005

> <r_lp_Energy>
13.574

> <b_lp_Chiralities_Consistent>
1

> <s_lp_Variant>
AV-unprocessed.smi:3083-4

> <Gold.Version>
5.8.1

> <Gold.Id.Protein>
6NUR|6NUR_protein|mol2

> <Gold.PLP.Fitness>
35.9746

> <Gold.PLP.PLP>
-30.1921

> <Gold.PLP.part.hbond>
-1.0000

> <Gold.PLP.part.metal>
0.0000

> <Gold.PLP.part.buried>
-5.0126

> <Gold.PLP.part.nonpolar>
-24.1250

> <Gold.PLP.part.repulsive>
0.0729

> <Gold.PLP.ligand.clash>
0.0000

> <Gold.PLP.ligand.torsion>
0.1229

> <Gold.PLP.Chemscore.Hbond>
2.0000

> <Gold.PLP.Chemscore.CHOScore>
0.0000

> <Gold.PLP.Chemscore.Metal>
0.0000

> <Gold.Chemscore.Hbonds>
donor molecule, donor type, donor heavy atom, donor atom, acceptor molecule, acceptor atom, score
      L1  H     1    14       P1  8028  2.00

> <Gold.PLP.Chemscore.Internal.Correction>
0.0283

> <Gold.Rescore>
     Score         DG    S(hbond)    S(metal)    S(lipo)     H(rot)  DE(clash)    DE(int)     intcor
     14.27     -15.70       0.99        0.00      81.06       1.00       0.01       1.42       ----

> <Gold.Chemscore.Fitness>
14.2703

> <Gold.Chemscore.DG>
-15.7002

> <Gold.Chemscore.ZeroCoef>
-5.4800

> <Gold.Chemscore.Hbond>
0.9870

> <Gold.Chemscore.Metal>
0.0000

> <Gold.Chemscore.Lipo>
81.0571

> <Gold.Chemscore.Internal_Hbond>
0.0000

> <Gold.Chemscore.DEClash>
0.0101

> <Gold.Chemscore.DEInternal>
1.4198

> <Gold.Chemscore.Rot>
1.0000

> <Gold.Chemscore.Internal.Correction>
   9.000000E+99

> <Gold.Chemscore.Hbonds>
donor molecule, donor type, donor heavy atom, donor atom, acceptor molecule, acceptor atom, score
      L1  H     1    14       P1  8028  0.90

> <Gold.Chemscore.Hbond.Weighted>
-3.2965

> <Gold.Chemscore.Metal.Weighted>
-0.0000

> <Gold.Chemscore.Lipo.Weighted>
-9.4837

> <Gold.Chemscore.Internal_Hbond.Weighted>
0.0000

> <Gold.Chemscore.DEClash.Weighted>
0.0101

> <Gold.Chemscore.DEInternal.Weighted>
1.4198

> <Gold.Chemscore.Rot.Weighted>
2.5600

> <Gold.Chemscore.Internal.Correction.Weighted>
   9.000000E+99

> <Gold.Protein.RotatedTorsions>
[ 6907 6896 6895 6894 ] final  -45.48 input  -60.11 | X-H torsion
[ 7974 7965 7964 7962 ] final -138.09 input  175.53 | X-H torsion
[ 8008 7997 7996 7995 ] final -172.22 input   59.86 | X-H torsion
[ 10167 10162 10161 10158 ] final -116.29 input  -65.29 | X-H torsion
[ 10718 10713 10712 10709 ] final -106.06 input   66.30 | X-H torsion
[ 10763 10752 10751 10750 ] final   11.12 input  -60.55 | X-H torsion
[ 11005 11000 10999 10996 ] final  -98.07 input  -57.11 | X-H torsion

> <Gold.Protein.ActiveResidues>
 VAL166  LYS551  ARG553  GLY616  TRP617  ASP618  TYR619  PRO620  LYS621  CYS622 
 ASP623  PHE694  ASN695  SER759  ASP760  ASP761  ALA762  ILE779  LEU786  VAL792 
 PHE793  MET794  SER795  GLU796  ALA797  LYS798  CYS799  TRP800  GLU811  SER814 

> <Gold.Protein.RotatedAtoms>
  150.9215  134.8632  159.7491 H   0  0  0  0  0  0  0  0  0  0  0  0  # atno 6907 bound_to 6896
  152.4995  134.4211  159.9491 H   0  0  0  0  0  0  0  0  0  0  0  0  # atno 6908 bound_to 6896
  151.4245  133.3648  159.2795 H   0  0  0  0  0  0  0  0  0  0  0  0  # atno 6909 bound_to 6896
  144.8787  140.6476  143.5220 H   0  0  0  0  0  0  0  0  0  0  0  0  # atno 7974 bound_to 7965
  155.9418  140.1110  157.1049 H   0  0  0  0  0  0  0  0  0  0  0  0  # atno 8008 bound_to 7997
  154.4091  140.1217  156.5003 H   0  0  0  0  0  0  0  0  0  0  0  0  # atno 8009 bound_to 7997
  155.6952  140.3472  155.4912 H   0  0  0  0  0  0  0  0  0  0  0  0  # atno 8010 bound_to 7997
  140.0808  143.4790  152.1927 H   0  0  0  0  0  0  0  0  0  0  0  0  # atno 10167 bound_to 10162
  156.0373  130.5594  150.7627 H   0  0  0  0  0  0  0  0  0  0  0  0  # atno 10718 bound_to 10713
  153.1959  135.6849  153.8292 H   0  0  0  0  0  0  0  0  0  0  0  0  # atno 10763 bound_to 10752
  153.7575  135.3214  155.3332 H   0  0  0  0  0  0  0  0  0  0  0  0  # atno 10764 bound_to 10752
  154.8144  135.4695  154.0703 H   0  0  0  0  0  0  0  0  0  0  0  0  # atno 10765 bound_to 10752
  141.1357  133.8218  157.0791 H   0  0  0  0  0  0  0  0  0  0  0  0  # atno 11005 bound_to 11000
  145.3994  139.1600  143.4186 LP  0  0  0  0  0  0  0  0  0  0  0  0  # atno 17320 bound_to 7965
  146.2980  140.4089  142.8714 LP  0  0  0  0  0  0  0  0  0  0  0  0  # atno 17321 bound_to 7965
  139.5781  144.7497  151.3712 LP  0  0  0  0  0  0  0  0  0  0  0  0  # atno 17342 bound_to 10162
  140.7079  143.7467  150.7514 LP  0  0  0  0  0  0  0  0  0  0  0  0  # atno 17343 bound_to 10162
  157.5142  131.0927  151.0160 LP  0  0  0  0  0  0  0  0  0  0  0  0  # atno 17370 bound_to 10713
  157.0508  130.5786  149.5370 LP  0  0  0  0  0  0  0  0  0  0  0  0  # atno 17371 bound_to 10713
  140.0463  134.9829  157.1055 LP  0  0  0  0  0  0  0  0  0  0  0  0  # atno 17394 bound_to 11000
  140.4058  134.2034  155.7163 LP  0  0  0  0  0  0  0  0  0  0  0  0  # atno 17395 bound_to 11000

$$$$
