AV-unprocessed.smi:601|AV-procd|sdf|3032|dock6
  -GOLD-   2262023543D 1   1.00000     0.00000
 Structure written by MMmdl.
 50 51  0  0  0  0  0  0  0  0  1 V2000
  147.3913  136.8792  158.6948 C   0  0  0  0  0  0  0  0  0  0  0  0
  148.3078  136.9995  159.9173 C   0  0  0  0  0  0  0  0  0  0  0  0
  149.7957  136.9910  159.5398 C   0  0  0  0  0  0  0  0  0  0  0  0
  150.1960  138.2154  158.6972 C   0  0  0  0  0  0  0  0  0  0  0  0
  151.6290  138.2126  158.3665 N   0  0  0  0  0  0  0  0  0  0  0  0
  152.0853  137.6050  157.2397 C   0  0  0  0  0  0  0  0  0  0  0  0
  153.2905  137.5042  157.0008 O   0  0  0  0  0  0  0  0  0  0  0  0
  151.0669  137.0643  156.2023 C   0  0  1  0  0  0  0  0  0  0  0  0
  150.1119  138.1193  155.6284 C   0  0  0  0  0  0  0  0  0  0  0  0
  150.8724  138.7252  154.4553 C   0  0  0  0  0  0  0  0  0  0  0  0
  152.0189  137.7427  154.1988 C   0  0  0  0  0  0  0  0  0  0  0  0
  151.7406  136.6210  155.0298 O   0  0  0  0  0  0  0  0  0  0  0  0
  152.4936  138.8256  159.2909 C   0  0  0  0  0  0  0  0  0  0  0  0
  152.6390  140.1832  159.3441 C   0  0  0  0  0  0  0  0  0  0  0  0
  151.9077  140.9982  158.4921 N   0  0  0  0  0  0  0  0  0  0  0  0
  153.5186  140.7922  160.2441 N   0  0  0  0  0  0  0  0  0  0  0  0
  153.7006  142.2269  160.3440 C   0  0  0  0  0  0  0  0  0  0  0  0
  153.2795  142.7840  161.7142 C   0  0  0  0  0  0  0  0  0  0  0  0
  152.5761  144.1398  161.6000 C   0  0  0  0  0  0  0  0  0  0  0  0
  154.3263  139.9987  161.0942 C   0  0  0  0  0  0  0  0  0  0  0  0
  155.1487  140.4663  161.8825 O   0  0  0  0  0  0  0  0  0  0  0  0
  154.1700  138.6196  161.0118 N   0  0  0  0  0  0  0  0  0  0  0  0
  153.2963  137.9523  160.1572 C   0  0  0  0  0  0  0  0  0  0  0  0
  153.2567  136.7226  160.1726 O   0  0  0  0  0  0  0  0  0  0  0  0
  154.7436  138.0528  161.6195 H   0  0  0  0  0  0  0  0  0  0  0  0
  146.3425  136.8911  158.9921 H   0  0  0  0  0  0  0  0  0  0  0  0
  147.5733  135.9486  158.1563 H   0  0  0  0  0  0  0  0  0  0  0  0
  147.5503  137.7053  158.0013 H   0  0  0  0  0  0  0  0  0  0  0  0
  148.0714  137.9185  160.4550 H   0  0  0  0  0  0  0  0  0  0  0  0
  148.0997  136.1779  160.6035 H   0  0  0  0  0  0  0  0  0  0  0  0
  150.3959  136.9534  160.4493 H   0  0  0  0  0  0  0  0  0  0  0  0
  150.0200  136.0789  158.9860 H   0  0  0  0  0  0  0  0  0  0  0  0
  149.6062  138.2247  157.7791 H   0  0  0  0  0  0  0  0  0  0  0  0
  149.9328  139.1364  159.2203 H   0  0  0  0  0  0  0  0  0  0  0  0
  150.4948  136.2480  156.6439 H   0  0  0  0  0  0  0  0  0  0  0  0
  149.2103  137.6264  155.2632 H   0  0  0  0  0  0  0  0  0  0  0  0
  149.7950  138.8674  156.3563 H   0  0  0  0  0  0  0  0  0  0  0  0
  150.2261  138.8305  153.5835 H   0  0  0  0  0  0  0  0  0  0  0  0
  151.2640  139.7125  154.7034 H   0  0  0  0  0  0  0  0  0  0  0  0
  152.0852  137.4436  153.1527 H   0  0  0  0  0  0  0  0  0  0  0  0
  152.9759  138.1809  154.4860 H   0  0  0  0  0  0  0  0  0  0  0  0
  151.2577  140.6178  157.8192 H   0  0  0  0  0  0  0  0  0  0  0  0
  152.0362  141.9997  158.4734 H   0  0  0  0  0  0  0  0  0  0  0  0
  154.7504  142.4309  160.1354 H   0  0  0  0  0  0  0  0  0  0  0  0
  153.1549  142.6971  159.5238 H   0  0  0  0  0  0  0  0  0  0  0  0
  152.6154  142.0784  162.2142 H   0  0  0  0  0  0  0  0  0  0  0  0
  154.1564  142.8878  162.3543 H   0  0  0  0  0  0  0  0  0  0  0  0
  152.2900  144.5131  162.5835 H   0  0  0  0  0  0  0  0  0  0  0  0
  151.6711  144.0629  160.9966 H   0  0  0  0  0  0  0  0  0  0  0  0
  153.2266  144.8829  161.1377 H   0  0  0  0  0  0  0  0  0  0  0  0
  1  2  1  0  0  0  0
  1 26  1  0  0  0  0
  1 27  1  0  0  0  0
  1 28  1  0  0  0  0
  2  3  1  0  0  0  0
  2 29  1  0  0  0  0
  2 30  1  0  0  0  0
  3  4  1  0  0  0  0
  3 31  1  0  0  0  0
  3 32  1  0  0  0  0
  4  5  1  0  0  0  0
  4 33  1  0  0  0  0
  4 34  1  0  0  0  0
  5  6  1  0  0  0  0
  5 13  1  0  0  0  0
  6  7  2  0  0  0  0
  6  8  1  0  0  0  0
  8 12  1  0  0  0  0
  8  9  1  0  0  0  0
  8 35  1  0  0  0  0
  9 10  1  0  0  0  0
  9 36  1  0  0  0  0
  9 37  1  0  0  0  0
 10 11  1  0  0  0  0
 10 38  1  0  0  0  0
 10 39  1  0  0  0  0
 11 12  1  0  0  0  0
 11 40  1  0  0  0  0
 11 41  1  0  0  0  0
 13 23  1  0  0  0  0
 13 14  2  0  0  0  0
 14 15  1  0  0  0  0
 14 16  1  0  0  0  0
 15 42  1  0  0  0  0
 15 43  1  0  0  0  0
 16 17  1  0  0  0  0
 16 20  1  0  0  0  0
 17 18  1  0  0  0  0
 17 44  1  0  0  0  0
 17 45  1  0  0  0  0
 18 19  1  0  0  0  0
 18 46  1  0  0  0  0
 18 47  1  0  0  0  0
 19 48  1  0  0  0  0
 19 49  1  0  0  0  0
 19 50  1  0  0  0  0
 20 21  2  0  0  0  0
 20 22  1  0  0  0  0
 22 25  1  0  0  0  0
 22 23  1  0  0  0  0
 23 24  2  0  0  0  0
M  END
> <s_m_source_file>
AV-unprocessed.smi

> <i_m_source_file_index>
601

> <i_lp_mmshare_version>
43012

> <i_f3d_flags>
0

> <s_epik_input>
TzFbQ0gyXVtDSDJdW0NIMl1bQ0BIXTFDKD1PKU4oW0NIMl1bQ0gyXVtDSDJdW0NIM10pYzJjKFtOSDJdKW4oW0NIMl1bQ0gyXVtDSDNdKWMoPU8pW25IXWMyPU8=

> <s_epik_cmdline>
J2VwaWtfcHl0aG9uJywgJy1waCcsICc3LjAnLCAnLXRuJywgJzgnLCAnLW1hJywgJzIwMCcsICctbWV0YWxfYmluZGluZycsICctaW1hZScsICc8aW5maWxlLm1hZT4nLCAnLW9tYWUnLCAnPG91dGZpbGUubWFlPic=

> <r_lp_tautomer_probability>
1

> <r_epik_Ionization_Penalty>
6.19718e-05

> <r_epik_Ionization_Penalty_Charging>
2.78773e-05

> <r_epik_Ionization_Penalty_Neutral>
3.40944e-05

> <r_epik_State_Penalty>
-0

> <r_epik_Charging_Adjusted_Penalty>
2.78773e-05

> <i_epik_Tot_Q>
0

> <i_epik_Tot_abs_Q>
0

> <r_epik_Metal_State_Penalty>
0.0271358

> <b_epik_Metal_Only>
0

> <s_lp_Force_Field>
OPLS_2005

> <r_lp_Energy>
41.2463

> <b_lp_Chiralities_Consistent>
1

> <s_lp_Variant>
AV-unprocessed.smi:601-2

> <Gold.Version>
5.8.1

> <Gold.Id.Protein>
6NUR|6NUR_protein|mol2

> <Gold.PLP.Fitness>
44.7767

> <Gold.PLP.PLP>
-40.6645

> <Gold.PLP.part.hbond>
-2.5864

> <Gold.PLP.part.metal>
0.0000

> <Gold.PLP.part.buried>
-7.5635

> <Gold.PLP.part.nonpolar>
-31.1249

> <Gold.PLP.part.repulsive>
0.2611

> <Gold.PLP.ligand.clash>
0.0000

> <Gold.PLP.ligand.torsion>
2.1437

> <Gold.PLP.Chemscore.Hbond>
1.9913

> <Gold.PLP.Chemscore.CHOScore>
0.0000

> <Gold.PLP.Chemscore.Metal>
0.0000

> <Gold.Chemscore.Hbonds>
donor molecule, donor type, donor heavy atom, donor atom, acceptor molecule, acceptor atom, score
      P1  H  6896  6909       L1    24  0.86
      P1  H 10752 10764       L1    12  1.00

> <Gold.PLP.Chemscore.Internal.Correction>
2.4259

> <Gold.Rescore>
     Score         DG    S(hbond)    S(metal)    S(lipo)     H(rot)  DE(clash)    DE(int)     intcor
     12.78     -15.83       1.80        0.00      79.89       1.96       0.15       2.90       ----

> <Gold.Chemscore.Fitness>
12.7805

> <Gold.Chemscore.DG>
-15.8338

> <Gold.Chemscore.ZeroCoef>
-5.4800

> <Gold.Chemscore.Hbond>
1.8039

> <Gold.Chemscore.Metal>
0.0000

> <Gold.Chemscore.Lipo>
79.8901

> <Gold.Chemscore.Internal_Hbond>
0.0000

> <Gold.Chemscore.DEClash>
0.1496

> <Gold.Chemscore.DEInternal>
2.9036

> <Gold.Chemscore.Rot>
1.9603

> <Gold.Chemscore.Internal.Correction>
   9.000000E+99

> <Gold.Chemscore.Hbonds>
donor molecule, donor type, donor heavy atom, donor atom, acceptor molecule, acceptor atom, score
      P1  H  6896  6909       L1    24  0.84
      P1  H 10752 10764       L1    12  0.54

> <Gold.Chemscore.Hbond.Weighted>
-6.0251

> <Gold.Chemscore.Metal.Weighted>
-0.0000

> <Gold.Chemscore.Lipo.Weighted>
-9.3471

> <Gold.Chemscore.Internal_Hbond.Weighted>
0.0000

> <Gold.Chemscore.DEClash.Weighted>
0.1496

> <Gold.Chemscore.DEInternal.Weighted>
2.9036

> <Gold.Chemscore.Rot.Weighted>
5.0185

> <Gold.Chemscore.Internal.Correction.Weighted>
   9.000000E+99

> <Gold.Protein.RotatedTorsions>
[ 6907 6896 6895 6894 ] final  142.56 input  -60.11 | X-H torsion
[ 7974 7965 7964 7962 ] final  -70.22 input  175.53 | X-H torsion
[ 8008 7997 7996 7995 ] final  124.73 input   59.86 | X-H torsion
[ 10167 10162 10161 10158 ] final  169.93 input  -65.29 | X-H torsion
[ 10718 10713 10712 10709 ] final  121.22 input   66.30 | X-H torsion
[ 10763 10752 10751 10750 ] final  -47.37 input  -60.55 | X-H torsion
[ 11005 11000 10999 10996 ] final   99.55 input  -57.11 | X-H torsion

> <Gold.Protein.ActiveResidues>
 VAL166  LYS551  ARG553  GLY616  TRP617  ASP618  TYR619  PRO620  LYS621  CYS622 
 ASP623  PHE694  ASN695  SER759  ASP760  ASP761  ALA762  ILE779  LEU786  VAL792 
 PHE793  MET794  SER795  GLU796  ALA797  LYS798  CYS799  TRP800  GLU811  SER814 

> <Gold.Protein.RotatedAtoms>
  152.2172  133.4956  159.5142 H   0  0  0  0  0  0  0  0  0  0  0  0  # atno 6907 bound_to 6896
  150.7004  134.1390  159.4107 H   0  0  0  0  0  0  0  0  0  0  0  0  # atno 6908 bound_to 6896
  151.9310  135.0256  160.0580 H   0  0  0  0  0  0  0  0  0  0  0  0  # atno 6909 bound_to 6896
  145.6938  140.9143  143.0767 H   0  0  0  0  0  0  0  0  0  0  0  0  # atno 7974 bound_to 7965
  156.2811  140.2733  156.1836 H   0  0  0  0  0  0  0  0  0  0  0  0  # atno 8008 bound_to 7997
  155.0531  140.0386  157.2568 H   0  0  0  0  0  0  0  0  0  0  0  0  # atno 8009 bound_to 7997
  154.7179  140.2682  155.6574 H   0  0  0  0  0  0  0  0  0  0  0  0  # atno 8010 bound_to 7997
  139.5005  144.3653  151.9782 H   0  0  0  0  0  0  0  0  0  0  0  0  # atno 10167 bound_to 10162
  157.5834  131.1072  150.8143 H   0  0  0  0  0  0  0  0  0  0  0  0  # atno 10718 bound_to 10713
  154.0602  135.6619  153.4811 H   0  0  0  0  0  0  0  0  0  0  0  0  # atno 10763 bound_to 10752
  153.0429  135.5133  154.7666 H   0  0  0  0  0  0  0  0  0  0  0  0  # atno 10764 bound_to 10752
  154.6700  135.3028  154.9721 H   0  0  0  0  0  0  0  0  0  0  0  0  # atno 10765 bound_to 10752
  139.8771  134.9100  156.4622 H   0  0  0  0  0  0  0  0  0  0  0  0  # atno 11005 bound_to 11000
  144.6989  139.8857  143.7450 LP  0  0  0  0  0  0  0  0  0  0  0  0  # atno 17320 bound_to 7965
  146.0858  139.3847  143.0436 LP  0  0  0  0  0  0  0  0  0  0  0  0  # atno 17321 bound_to 7965
  140.3089  144.3561  150.6039 LP  0  0  0  0  0  0  0  0  0  0  0  0  # atno 17342 bound_to 10162
  140.5815  143.2172  151.7420 LP  0  0  0  0  0  0  0  0  0  0  0  0  # atno 17343 bound_to 10162
  156.8583  130.5104  149.5306 LP  0  0  0  0  0  0  0  0  0  0  0  0  # atno 17370 bound_to 10713
  156.0881  130.5874  150.9684 LP  0  0  0  0  0  0  0  0  0  0  0  0  # atno 17371 bound_to 10713
  140.8856  133.7886  155.9514 LP  0  0  0  0  0  0  0  0  0  0  0  0  # atno 17394 bound_to 11000
  140.8808  134.2613  157.5145 LP  0  0  0  0  0  0  0  0  0  0  0  0  # atno 17395 bound_to 11000

$$$$
