AV-unprocessed.smi:228|AV-procd|sdf|1745|dock2
  -GOLD-   2262020253D 1   1.00000     0.00000
 Structure written by MMmdl.
 59 62  0  0  0  0  0  0  0  0  1 V2000
  151.4238  133.4350  156.1764 C   0  0  0  0  0  0  0  0  0  0  0  0
  150.0086  133.4807  155.8204 N   0  0  0  0  0  0  0  0  0  0  0  0
  149.2825  134.7265  156.0570 C   0  0  0  0  0  0  0  0  0  0  0  0
  149.9823  135.6304  157.0979 C   0  0  2  0  0  0  0  0  0  0  0  0
  149.6776  135.1056  158.3747 O   0  0  0  0  0  0  0  0  0  0  0  0
  149.4763  137.0900  157.0442 C   0  0  0  0  0  0  0  0  0  0  0  0
  149.8762  137.8530  155.8602 N   0  0  0  0  0  0  0  0  0  0  0  0
  151.3236  137.8699  155.6594 C   0  0  0  0  0  0  0  0  0  0  0  0
  151.7250  138.7055  154.4310 C   0  0  0  0  0  0  0  0  0  0  0  0
  151.2133  140.0278  154.5606 O   0  0  0  0  0  0  0  0  0  0  0  0
  149.7975  140.0546  154.7076 C   0  0  0  0  0  0  0  0  0  0  0  0
  149.3938  139.2281  155.9405 C   0  0  0  0  0  0  0  0  0  0  0  0
  149.5536  132.6488  154.8465 C   0  0  0  0  0  0  0  0  0  0  0  0
  150.1813  131.4592  154.6462 N   0  0  0  0  0  0  0  0  0  0  0  0
  149.7722  130.6298  153.6827 C   0  0  0  0  0  0  0  0  0  0  0  0
  148.7659  130.7848  152.8219 N   0  0  0  0  0  0  0  0  0  0  0  0
  148.1119  131.9633  153.0291 C   0  0  0  0  0  0  0  0  0  0  0  0
  148.4401  132.9463  154.0067 C   0  0  0  0  0  0  0  0  0  0  0  0
  147.5545  134.0128  153.9115 N   0  0  0  0  0  0  0  0  0  0  0  0
  146.7684  133.6918  152.9213 C   0  0  0  0  0  0  0  0  0  0  0  0
  147.0080  132.4594  152.3542 N   0  0  0  0  0  0  0  0  0  0  0  0
  146.3256  131.8717  151.2314 C   0  0  0  0  0  0  0  0  0  0  0  0
  146.0546  132.6743  149.9513 C   0  0  0  0  0  0  0  0  0  0  0  0
  144.5850  132.8780  150.3786 C   0  0  0  0  0  0  0  0  0  0  0  0
  144.3295  134.2131  151.1102 C   0  0  0  0  0  0  0  0  0  0  0  0
  143.0911  134.2268  151.7898 O   0  0  0  0  0  0  0  0  0  0  0  0
  143.5639  132.7202  149.2377 C   0  0  0  0  0  0  0  0  0  0  0  0
  142.2899  132.3381  149.7140 O   0  0  0  0  0  0  0  0  0  0  0  0
  144.8104  131.6394  151.2727 C   0  0  0  0  0  0  0  0  0  0  0  0
  151.7505  132.4072  156.3399 H   0  0  0  0  0  0  0  0  0  0  0  0
  151.6097  133.9931  157.0942 H   0  0  0  0  0  0  0  0  0  0  0  0
  152.0341  133.8736  155.3862 H   0  0  0  0  0  0  0  0  0  0  0  0
  149.2350  135.2366  155.0946 H   0  0  0  0  0  0  0  0  0  0  0  0
  148.2381  134.5521  156.3178 H   0  0  0  0  0  0  0  0  0  0  0  0
  151.0636  135.6093  156.9534 H   0  0  0  0  0  0  0  0  0  0  0  0
  148.7378  135.0384  158.4529 H   0  0  0  0  0  0  0  0  0  0  0  0
  148.3862  137.0590  157.0448 H   0  0  0  0  0  0  0  0  0  0  0  0
  149.7497  137.6240  157.9560 H   0  0  0  0  0  0  0  0  0  0  0  0
  151.8158  138.2709  156.5466 H   0  0  0  0  0  0  0  0  0  0  0  0
  151.6971  136.8552  155.5248 H   0  0  0  0  0  0  0  0  0  0  0  0
  152.8103  138.7505  154.3411 H   0  0  0  0  0  0  0  0  0  0  0  0
  151.3464  138.2506  153.5144 H   0  0  0  0  0  0  0  0  0  0  0  0
  149.4701  141.0882  154.8198 H   0  0  0  0  0  0  0  0  0  0  0  0
  149.3232  139.6632  153.8064 H   0  0  0  0  0  0  0  0  0  0  0  0
  148.3076  139.2352  156.0369 H   0  0  0  0  0  0  0  0  0  0  0  0
  149.7890  139.7066  156.8381 H   0  0  0  0  0  0  0  0  0  0  0  0
  150.3318  129.7111  153.5866 H   0  0  0  0  0  0  0  0  0  0  0  0
  145.9848  134.3543  152.5852 H   0  0  0  0  0  0  0  0  0  0  0  0
  146.8611  130.9470  151.0132 H   0  0  0  0  0  0  0  0  0  0  0  0
  146.6209  133.5985  149.8405 H   0  0  0  0  0  0  0  0  0  0  0  0
  146.1582  132.0574  149.0570 H   0  0  0  0  0  0  0  0  0  0  0  0
  145.1057  134.4112  151.8491 H   0  0  0  0  0  0  0  0  0  0  0  0
  144.3553  135.0527  150.4152 H   0  0  0  0  0  0  0  0  0  0  0  0
  142.3966  134.2569  151.1499 H   0  0  0  0  0  0  0  0  0  0  0  0
  143.4648  133.6424  148.6645 H   0  0  0  0  0  0  0  0  0  0  0  0
  143.8878  131.9551  148.5313 H   0  0  0  0  0  0  0  0  0  0  0  0
  141.8062  133.1179  149.9395 H   0  0  0  0  0  0  0  0  0  0  0  0
  144.5243  130.7074  150.7821 H   0  0  0  0  0  0  0  0  0  0  0  0
  144.3520  131.7089  152.2591 H   0  0  0  0  0  0  0  0  0  0  0  0
  1  2  1  0  0  0  0
  1 30  1  0  0  0  0
  1 31  1  0  0  0  0
  1 32  1  0  0  0  0
  2  3  1  0  0  0  0
  2 13  1  0  0  0  0
  3  4  1  0  0  0  0
  3 33  1  0  0  0  0
  3 34  1  0  0  0  0
  4  5  1  0  0  0  0
  4  6  1  0  0  0  0
  4 35  1  0  0  0  0
  5 36  1  0  0  0  0
  6  7  1  0  0  0  0
  6 37  1  0  0  0  0
  6 38  1  0  0  0  0
  7 12  1  0  0  0  0
  7  8  1  0  0  0  0
  8  9  1  0  0  0  0
  8 39  1  0  0  0  0
  8 40  1  0  0  0  0
  9 10  1  0  0  0  0
  9 41  1  0  0  0  0
  9 42  1  0  0  0  0
 10 11  1  0  0  0  0
 11 12  1  0  0  0  0
 11 43  1  0  0  0  0
 11 44  1  0  0  0  0
 12 45  1  0  0  0  0
 12 46  1  0  0  0  0
 13 18  1  0  0  0  0
 13 14  2  0  0  0  0
 14 15  1  0  0  0  0
 15 16  2  0  0  0  0
 15 47  1  0  0  0  0
 16 17  1  0  0  0  0
 17 21  1  0  0  0  0
 17 18  2  0  0  0  0
 18 19  1  0  0  0  0
 19 20  2  0  0  0  0
 20 21  1  0  0  0  0
 20 48  1  0  0  0  0
 21 22  1  0  0  0  0
 22 29  1  0  0  0  0
 22 23  1  0  0  0  0
 22 49  1  0  0  0  0
 23 24  1  0  0  0  0
 23 50  1  0  0  0  0
 23 51  1  0  0  0  0
 24 25  1  0  0  0  0
 24 27  1  0  0  0  0
 24 29  1  0  0  0  0
 25 26  1  0  0  0  0
 25 52  1  0  0  0  0
 25 53  1  0  0  0  0
 26 54  1  0  0  0  0
 27 28  1  0  0  0  0
 27 55  1  0  0  0  0
 27 56  1  0  0  0  0
 28 57  1  0  0  0  0
 29 58  1  0  0  0  0
 29 59  1  0  0  0  0
M  END
> <s_m_source_file>
AV-unprocessed.smi

> <i_m_source_file_index>
228

> <i_lp_mmshare_version>
43012

> <i_f3d_flags>
0

> <s_epik_input>
W0NIMl0xW0NIMl1PW0NIMl1bQ0gyXU4xW0NIMl1bQ0BASF0oW09IXSlbQ0gyXU4oW0NIM10pYyhuW2NIXW4yKWMoYzIzKW5bY0hdbjNbQ0hdKFtDSDJdNClbQ0gyXUM0KFtDSDJdW09IXSlbQ0gyXVtPSF0=

> <s_epik_cmdline>
J2VwaWtfcHl0aG9uJywgJy1waCcsICc3LjAnLCAnLXRuJywgJzgnLCAnLW1hJywgJzIwMCcsICctbWV0YWxfYmluZGluZycsICctaW1hZScsICc8aW5maWxlLm1hZT4nLCAnLW9tYWUnLCAnPG91dGZpbGUubWFlPic=

> <r_lp_tautomer_probability>
1

> <r_epik_Ionization_Penalty>
0.423559

> <r_epik_Ionization_Penalty_Charging>
0

> <r_epik_Ionization_Penalty_Neutral>
0.423559

> <r_epik_State_Penalty>
0.438466

> <r_epik_Charging_Adjusted_Penalty>
0.438466

> <i_epik_Tot_Q>
0

> <i_epik_Tot_abs_Q>
0

> <r_epik_Metal_State_Penalty>
0.436601

> <b_epik_Metal_Only>
0

> <s_lp_Force_Field>
OPLS_2005

> <r_lp_Energy>
66.0814

> <b_lp_Chiralities_Consistent>
1

> <s_lp_Variant>
AV-unprocessed.smi:228-3

> <Gold.Version>
5.8.1

> <Gold.Id.Protein>
6NUR|6NUR_protein|mol2

> <Gold.PLP.Fitness>
55.3025

> <Gold.PLP.PLP>
-43.8920

> <Gold.PLP.part.hbond>
-4.9511

> <Gold.PLP.part.metal>
0.0000

> <Gold.PLP.part.buried>
-6.1373

> <Gold.PLP.part.nonpolar>
-35.2668

> <Gold.PLP.part.repulsive>
1.6198

> <Gold.PLP.ligand.clash>
0.0000

> <Gold.PLP.ligand.torsion>
0.9767

> <Gold.PLP.Chemscore.Hbond>
4.0000

> <Gold.PLP.Chemscore.CHOScore>
0.0000

> <Gold.PLP.Chemscore.Metal>
0.0000

> <Gold.Chemscore.Hbonds>
donor molecule, donor type, donor heavy atom, donor atom, acceptor molecule, acceptor atom, score
      L1  H    26    54       P1 10186  0.64
      L1  H    28    57       P1 10186  1.00
      P1  H  6896  6908       L1     5  0.94
      P1  H  7989  7998       L1    10  0.71

> <Gold.PLP.Chemscore.Internal.Correction>
1.3640

> <Gold.Rescore>
     Score         DG    S(hbond)    S(metal)    S(lipo)     H(rot)  DE(clash)    DE(int)     intcor
     10.87     -16.00       3.28        0.00      98.08       4.66       2.76       2.37       ----

> <Gold.Chemscore.Fitness>
10.8691

> <Gold.Chemscore.DG>
-15.9959

> <Gold.Chemscore.ZeroCoef>
-5.4800

> <Gold.Chemscore.Hbond>
3.2846

> <Gold.Chemscore.Metal>
0.0000

> <Gold.Chemscore.Lipo>
98.0774

> <Gold.Chemscore.Internal_Hbond>
0.0000

> <Gold.Chemscore.DEClash>
2.7613

> <Gold.Chemscore.DEInternal>
2.3656

> <Gold.Chemscore.Rot>
4.6600

> <Gold.Chemscore.Internal.Correction>
   9.000000E+99

> <Gold.Chemscore.Hbonds>
donor molecule, donor type, donor heavy atom, donor atom, acceptor molecule, acceptor atom, score
      L1  H    26    54       P1 10186  0.09
      L1  H    28    57       P1 10186  0.93
      P1  H  6896  6908       L1     5  0.90
      P1  H  7989  7998       L1    10  0.48

> <Gold.Chemscore.Hbond.Weighted>
-10.9705

> <Gold.Chemscore.Metal.Weighted>
-0.0000

> <Gold.Chemscore.Lipo.Weighted>
-11.4751

> <Gold.Chemscore.Internal_Hbond.Weighted>
0.0000

> <Gold.Chemscore.DEClash.Weighted>
2.7613

> <Gold.Chemscore.DEInternal.Weighted>
2.3656

> <Gold.Chemscore.Rot.Weighted>
11.9297

> <Gold.Chemscore.Internal.Correction.Weighted>
   9.000000E+99

> <Gold.Protein.RotatedTorsions>
[ 6907 6896 6895 6894 ] final -179.94 input  -60.11 | X-H torsion
[ 7974 7965 7964 7962 ] final  153.97 input  175.53 | X-H torsion
[ 8008 7997 7996 7995 ] final  -35.27 input   59.86 | X-H torsion
[ 10167 10162 10161 10158 ] final  -41.19 input  -65.29 | X-H torsion
[ 10718 10713 10712 10709 ] final  -88.82 input   66.30 | X-H torsion
[ 10763 10752 10751 10750 ] final -109.19 input  -60.55 | X-H torsion
[ 11005 11000 10999 10996 ] final    6.39 input  -57.11 | X-H torsion

> <Gold.Protein.ActiveResidues>
 VAL166  LYS551  ARG553  GLY616  TRP617  ASP618  TYR619  PRO620  LYS621  CYS622 
 ASP623  PHE694  ASN695  SER759  ASP760  ASP761  ALA762  ILE779  LEU786  VAL792 
 PHE793  MET794  SER795  GLU796  ALA797  LYS798  CYS799  TRP800  GLU811  SER814 

> <Gold.Protein.RotatedAtoms>
  151.6616  133.3317  159.3174 H   0  0  0  0  0  0  0  0  0  0  0  0  # atno 6907 bound_to 6896
  150.7911  134.6939  159.6521 H   0  0  0  0  0  0  0  0  0  0  0  0  # atno 6908 bound_to 6896
  152.3990  134.6321  160.0129 H   0  0  0  0  0  0  0  0  0  0  0  0  # atno 6909 bound_to 6896
  144.8119  139.6871  143.6138 H   0  0  0  0  0  0  0  0  0  0  0  0  # atno 7974 bound_to 7965
  154.4099  140.1661  156.2185 H   0  0  0  0  0  0  0  0  0  0  0  0  # atno 8008 bound_to 7997
  155.9384  140.3410  155.6284 H   0  0  0  0  0  0  0  0  0  0  0  0  # atno 8009 bound_to 7997
  155.7020  140.0746  157.2397 H   0  0  0  0  0  0  0  0  0  0  0  0  # atno 8010 bound_to 7997
  140.7010  143.3109  151.3031 H   0  0  0  0  0  0  0  0  0  0  0  0  # atno 10167 bound_to 10162
  155.9983  130.4849  150.5077 H   0  0  0  0  0  0  0  0  0  0  0  0  # atno 10718 bound_to 10713
  154.8179  135.4610  154.0695 H   0  0  0  0  0  0  0  0  0  0  0  0  # atno 10763 bound_to 10752
  153.2073  135.6877  153.8164 H   0  0  0  0  0  0  0  0  0  0  0  0  # atno 10764 bound_to 10752
  153.7628  135.3281  155.3316 H   0  0  0  0  0  0  0  0  0  0  0  0  # atno 10765 bound_to 10752
  140.5600  134.0202  155.7968 H   0  0  0  0  0  0  0  0  0  0  0  0  # atno 11005 bound_to 11000
  146.2419  139.6018  142.9486 LP  0  0  0  0  0  0  0  0  0  0  0  0  # atno 17320 bound_to 7965
  145.5303  141.0427  143.2386 LP  0  0  0  0  0  0  0  0  0  0  0  0  # atno 17321 bound_to 7965
  139.6531  144.0325  152.2641 LP  0  0  0  0  0  0  0  0  0  0  0  0  # atno 17342 bound_to 10162
  139.9868  144.6390  150.7850 LP  0  0  0  0  0  0  0  0  0  0  0  0  # atno 17343 bound_to 10162
  157.3054  131.0653  151.2039 LP  0  0  0  0  0  0  0  0  0  0  0  0  # atno 17370 bound_to 10713
  157.3003  130.6840  149.6161 LP  0  0  0  0  0  0  0  0  0  0  0  0  # atno 17371 bound_to 10713
  141.1120  133.9601  157.2892 LP  0  0  0  0  0  0  0  0  0  0  0  0  # atno 17394 bound_to 11000
  139.9412  135.0190  156.8715 LP  0  0  0  0  0  0  0  0  0  0  0  0  # atno 17395 bound_to 11000

$$$$
