#       Name:                AV-unprocessed.smi:3181
#       Creating user name   scv26
#       Creation time:       Fri Mar 27 17:58:13 2020


#       File generated by GOLD software.
#

@<TRIPOS>MOLECULE
AV-unprocessed.smi:3181
    44    45     1
SMALL
NO_CHARGES


@<TRIPOS>ATOM
      1 ****        -1.9291  -2.1788  -1.8311 C.3            1 S1                 0.0000
      2 ****        -1.5049  -1.3527  -0.6054 C.3            1 S1                 0.0000
      3 ****        -2.0027  -1.9666   0.7214 C.3            1 S1                 0.0000
      4 ****        -3.4450  -2.1236   0.7675 N.pl3          1 S1                 0.0000
      5 ****        -4.1989  -3.2236   0.8070 C.2            1 S1                 0.0000
      6 ****        -5.5007  -2.9782   0.8512 N.2            1 S1                 0.0000
      7 ****        -5.4766  -1.6122   0.8438 C.2            1 S1                 0.0000
      8 ****        -4.2684  -1.0499   0.7980 N.2            1 S1                 0.0000
      9 ****        -0.0299  -1.2244  -0.5839 N.4            1 S1                 1.0000
     10 ****         0.5066   0.1513  -0.4686 C.3            1 S1                 0.0000
     11 ****         0.2434   0.7572   0.9226 C.3            1 S1                 0.0000
     12 ****         0.8561   2.1599   1.0403 C.3            1 S1                 0.0000
     13 ****         2.3694   2.1632   0.7432 C.3            1 S1                 0.0000
     14 ****         2.9276   3.5905   0.8873 C.3            1 S1                 0.0000
     15 ****         2.6520   1.5416  -0.6498 C.3            1 S1                 0.0000
     16 ****         4.1540   1.4601  -0.9774 C.3            1 S1                 0.0000
     17 ****         2.0172   0.1398  -0.7584 C.3            1 S1                 0.0000
     18 ****        -3.0141  -2.2257  -1.9268 H              1 S1                 0.0000
     19 ****        -1.5556  -3.2016  -1.7703 H              1 S1                 0.0000
     20 ****        -1.5446  -1.7386  -2.7518 H              1 S1                 0.0000
     21 ****        -1.9461  -0.3612  -0.7191 H              1 S1                 0.0000
     22 ****        -1.5480  -2.9462   0.8757 H              1 S1                 0.0000
     23 ****        -1.7038  -1.3507   1.5700 H              1 S1                 0.0000
     24 ****        -3.7895  -4.2232   0.7999 H              1 S1                 0.0000
     25 ****        -6.3758  -1.0148   0.8737 H              1 S1                 0.0000
     26 ****         0.3421  -1.7908   0.1651 H              1 S1                 0.0000
     27 ****         0.0221   0.7687  -1.2272 H              1 S1                 0.0000
     28 ****        -0.8276   0.8241   1.1151 H              1 S1                 0.0000
     29 ****         0.6589   0.1104   1.6966 H              1 S1                 0.0000
     30 ****         0.3449   2.8352   0.3525 H              1 S1                 0.0000
     31 ****         0.6730   2.5490   2.0428 H              1 S1                 0.0000
     32 ****         2.8566   1.5431   1.4974 H              1 S1                 0.0000
     33 ****         2.5309   4.2520   0.1166 H              1 S1                 0.0000
     34 ****         4.0150   3.6094   0.8193 H              1 S1                 0.0000
     35 ****         2.6654   4.0170   1.8560 H              1 S1                 0.0000
     36 ****         2.1862   2.1758  -1.4058 H              1 S1                 0.0000
     37 ****         4.6971   0.9004  -0.2151 H              1 S1                 0.0000
     38 ****         4.6065   2.4483  -1.0546 H              1 S1                 0.0000
     39 ****         4.3199   0.9630  -1.9337 H              1 S1                 0.0000
     40 ****         2.5174  -0.5390  -0.0656 H              1 S1                 0.0000
     41 ****         2.1904  -0.2619  -1.7578 H              1 S1                 0.0000
     42 ****         0.3098  -1.5977  -1.4587 H              1 S1                 0.0000
     43 ****        -6.2756  -3.6096   0.8812 LP             1 S1                 0.0000
     44 ****        -4.0305  -0.0786   0.7885 LP             1 S1                 0.0000
@<TRIPOS>BOND
    1    1    2 1     
    2    1   18 1     
    3    1   19 1     
    4    1   20 1     
    5    2    3 1     
    6    2    9 1     
    7    2   21 1     
    8    3    4 1     
    9    3   22 1     
   10    3   23 1     
   11    4    8 1     
   12    4    5 1     
   13    5    6 2     
   14    5   24 1     
   15    6    7 1     
   16    7    8 2     
   17    7   25 1     
   18    9   10 1     
   19    9   26 1     
   20    9   42 1     
   21   10   17 1     
   22   10   11 1     
   23   10   27 1     
   24   11   12 1     
   25   11   28 1     
   26   11   29 1     
   27   12   13 1     
   28   12   30 1     
   29   12   31 1     
   30   13   14 1     
   31   13   15 1     
   32   13   32 1     
   33   14   33 1     
   34   14   34 1     
   35   14   35 1     
   36   15   16 1     
   37   15   17 1     
   38   15   36 1     
   39   16   37 1     
   40   16   38 1     
   41   16   39 1     
   42   17   40 1     
   43   17   41 1     
   44    6   43 1     
   45    8   44 1     
@<TRIPOS>SUBSTRUCTURE
      1 S1             1
@<TRIPOS>SET
LONE_PAIRS      STATIC     ATOMS    <user>   **** ""
2 43 44
DONOR_HYDROGENS      STATIC     ATOMS    <user>   **** ""
2 26 42
ATOM$BLUE        STATIC     ATOMS    COLORGROUP SYSTEM
2 43 44
ATOM$RED        STATIC     ATOMS    COLORGROUP SYSTEM
2 26 42
