AV-unprocessed.smi:160|AV-procd|sdf|1349|dock1
  -GOLD-   2262019 53D 1   1.00000     0.00000
 Structure written by MMmdl.
 29 30  0  0  0  0  0  0  0  0  1 V2000
  150.4915  134.3668  157.0088 N   0  0  0  0  0  0  0  0  0  0  0  0
  150.3303  135.6685  157.2691 C   0  0  0  0  0  0  0  0  0  0  0  0
  149.9380  136.0784  158.3605 O   0  0  0  0  0  0  0  0  0  0  0  0
  150.6518  136.6149  156.1457 C   0  0  0  0  0  0  0  0  0  0  0  0
  151.2546  136.1753  155.0019 N   0  0  0  0  0  0  0  0  0  0  0  0
  151.3327  137.3293  154.3518 C   0  0  0  0  0  0  0  0  0  0  0  0
  150.8153  138.3702  155.0125 N   0  0  0  0  0  0  0  0  0  0  0  0
  150.7697  139.8180  154.6145 C   0  0  2  0  0  0  0  0  0  0  0  0
  151.3632  140.5681  155.6251 O   0  0  0  0  0  0  0  0  0  0  0  0
  150.3876  140.9117  156.6008 C   0  0  1  0  0  0  0  0  0  0  0  0
  150.8390  142.1659  157.3648 C   0  0  0  0  0  0  0  0  0  0  0  0
  150.9972  143.2488  156.4729 O   0  0  0  0  0  0  0  0  0  0  0  0
  149.1103  141.1307  155.7699 C   0  0  2  0  0  0  0  0  0  0  0  0
  147.9908  140.6260  156.4705 O   0  0  0  0  0  0  0  0  0  0  0  0
  149.3293  140.3372  154.4769 C   0  0  1  0  0  0  0  0  0  0  0  0
  149.1985  141.1767  153.3473 O   0  0  0  0  0  0  0  0  0  0  0  0
  150.3701  137.9169  156.2126 N   0  0  0  0  0  0  0  0  0  0  0  0
  151.3494  139.8570  153.6911 H   0  0  0  0  0  0  0  0  0  0  0  0
  150.2555  140.0741  157.2879 H   0  0  0  0  0  0  0  0  0  0  0  0
  148.9618  142.1909  155.5578 H   0  0  0  0  0  0  0  0  0  0  0  0
  148.6312  139.5075  154.3546 H   0  0  0  0  0  0  0  0  0  0  0  0
  150.2900  133.6816  157.7220 H   0  0  0  0  0  0  0  0  0  0  0  0
  150.8131  134.0775  156.0963 H   0  0  0  0  0  0  0  0  0  0  0  0
  151.7792  137.4190  153.3723 H   0  0  0  0  0  0  0  0  0  0  0  0
  150.1346  142.4239  158.1563 H   0  0  0  0  0  0  0  0  0  0  0  0
  151.8062  141.9888  157.8364 H   0  0  0  0  0  0  0  0  0  0  0  0
  150.1413  143.5330  156.1906 H   0  0  0  0  0  0  0  0  0  0  0  0
  148.3004  140.0390  157.1435 H   0  0  0  0  0  0  0  0  0  0  0  0
  148.9896  140.6408  152.5976 H   0  0  0  0  0  0  0  0  0  0  0  0
  1  2  1  0  0  0  0
  1 22  1  0  0  0  0
  1 23  1  0  0  0  0
  2  3  2  0  0  0  0
  2  4  1  0  0  0  0
  4 17  2  0  0  0  0
  4  5  1  0  0  0  0
  5  6  2  0  0  0  0
  6  7  1  0  0  0  0
  6 24  1  0  0  0  0
  7  8  1  0  0  0  0
  7 17  1  0  0  0  0
  8 18  1  0  0  0  0
  8 15  1  0  0  0  0
  8  9  1  0  0  0  0
  9 10  1  0  0  0  0
 10 19  1  0  0  0  0
 10 11  1  0  0  0  0
 10 13  1  0  0  0  0
 11 12  1  0  0  0  0
 11 25  1  0  0  0  0
 11 26  1  0  0  0  0
 12 27  1  0  0  0  0
 13 20  1  0  0  0  0
 13 14  1  0  0  0  0
 13 15  1  0  0  0  0
 14 28  1  0  0  0  0
 15 21  1  0  0  0  0
 15 16  1  0  0  0  0
 16 29  1  0  0  0  0
M  END
> <s_m_source_file>
AV-unprocessed.smi

> <i_m_source_file_index>
160

> <i_lp_mmshare_version>
43012

> <i_f3d_flags>
0

> <s_epik_input>
W05IMl1DKD1PKWMxbltjSF1uKG4xKVtDQEBIXTJPW0NASF0oW0NIMl1bT0hdKVtDQEBIXShbT0hdKVtDQEhdMltPSF0=

> <s_epik_cmdline>
J2VwaWtfcHl0aG9uJywgJy1waCcsICc3LjAnLCAnLXRuJywgJzgnLCAnLW1hJywgJzIwMCcsICctbWV0YWxfYmluZGluZycsICctaW1hZScsICc8aW5maWxlLm1hZT4nLCAnLW9tYWUnLCAnPG91dGZpbGUubWFlPic=

> <r_lp_tautomer_probability>
1

> <r_epik_Ionization_Penalty>
1.06932e-05

> <r_epik_Ionization_Penalty_Charging>
0

> <r_epik_Ionization_Penalty_Neutral>
1.06932e-05

> <r_epik_State_Penalty>
-0

> <r_epik_Charging_Adjusted_Penalty>
0

> <i_epik_Tot_Q>
0

> <i_epik_Tot_abs_Q>
0

> <r_epik_Metal_State_Penalty>
0.0142097

> <b_epik_Metal_Only>
0

> <s_epik_Chemistry_Notes>
This compound contains an acetal/aminal-like group ( X-CH(R)-Y where X, Y are N, S, or O) that may be acid/base labile, releasing an aldehyde.

> <s_lp_Force_Field>
OPLS_2005

> <r_lp_Energy>
33.3091

> <b_lp_Chiralities_Consistent>
1

> <s_lp_Variant>
AV-unprocessed.smi:160-7

> <Gold.Version>
5.8.1

> <Gold.Id.Protein>
6NUR|6NUR_protein|mol2

> <Gold.PLP.Fitness>
39.2932

> <Gold.PLP.PLP>
-24.2152

> <Gold.PLP.part.hbond>
-6.9631

> <Gold.PLP.part.metal>
0.0000

> <Gold.PLP.part.buried>
-0.3800

> <Gold.PLP.part.nonpolar>
-18.4772

> <Gold.PLP.part.repulsive>
0.3171

> <Gold.PLP.ligand.clash>
0.0000

> <Gold.PLP.ligand.torsion>
0.1010

> <Gold.PLP.Chemscore.Hbond>
4.2975

> <Gold.PLP.Chemscore.CHOScore>
0.7843

> <Gold.PLP.Chemscore.Metal>
0.0000

> <Gold.Chemscore.Hbonds>
donor molecule, donor type, donor heavy atom, donor atom, acceptor molecule, acceptor atom, score
      L1  H    12    27       P1  8028  1.00
      L1  H    16    29       P1  7957  0.86
      P1  H  6896  6908       L1     3  1.00
      P1  H  8011  8017       L1    16  0.55
      P1  H 10752 10764       L1     5  0.70
      L1  C     6    24       P1  7949  0.87

> <Gold.PLP.Chemscore.Internal.Correction>
0.0348

> <Gold.Rescore>
     Score         DG    S(hbond)    S(metal)    S(lipo)     H(rot)  DE(clash)    DE(int)     intcor
      7.32      -9.92       3.58        0.00      24.51       4.06       1.47       1.14       ----

> <Gold.Chemscore.Fitness>
7.3160

> <Gold.Chemscore.DG>
-9.9247

> <Gold.Chemscore.ZeroCoef>
-5.4800

> <Gold.Chemscore.Hbond>
3.5840

> <Gold.Chemscore.Metal>
0.0000

> <Gold.Chemscore.Lipo>
24.5111

> <Gold.Chemscore.Internal_Hbond>
0.0000

> <Gold.Chemscore.DEClash>
1.4733

> <Gold.Chemscore.DEInternal>
1.1354

> <Gold.Chemscore.Rot>
4.0600

> <Gold.Chemscore.Internal.Correction>
   9.000000E+99

> <Gold.Chemscore.Hbonds>
donor molecule, donor type, donor heavy atom, donor atom, acceptor molecule, acceptor atom, score
      L1  H    12    27       P1  8028  0.98
      L1  H    16    29       P1  7957  0.85
      P1  H  6896  6908       L1     3  0.32
      P1  H  8011  8017       L1    16  0.03
      P1  H 10752 10764       L1     5  0.07

> <Gold.Chemscore.Hbond.Weighted>
-11.9705

> <Gold.Chemscore.Metal.Weighted>
-0.0000

> <Gold.Chemscore.Lipo.Weighted>
-2.8678

> <Gold.Chemscore.Internal_Hbond.Weighted>
0.0000

> <Gold.Chemscore.DEClash.Weighted>
1.4733

> <Gold.Chemscore.DEInternal.Weighted>
1.1354

> <Gold.Chemscore.Rot.Weighted>
10.3936

> <Gold.Chemscore.Internal.Correction.Weighted>
   9.000000E+99

> <Gold.Protein.RotatedTorsions>
[ 6907 6896 6895 6894 ] final -179.02 input  -60.11 | X-H torsion
[ 7974 7965 7964 7962 ] final  143.26 input  175.53 | X-H torsion
[ 8008 7997 7996 7995 ] final   90.18 input   59.86 | X-H torsion
[ 10167 10162 10161 10158 ] final   91.38 input  -65.29 | X-H torsion
[ 10718 10713 10712 10709 ] final   38.63 input   66.30 | X-H torsion
[ 10763 10752 10751 10750 ] final  -67.65 input  -60.55 | X-H torsion
[ 11005 11000 10999 10996 ] final  119.72 input  -57.11 | X-H torsion

> <Gold.Protein.ActiveResidues>
 VAL166  LYS551  ARG553  GLY616  TRP617  ASP618  TYR619  PRO620  LYS621  CYS622 
 ASP623  PHE694  ASN695  SER759  ASP760  ASP761  ALA762  ILE779  LEU786  VAL792 
 PHE793  MET794  SER795  GLU796  ALA797  LYS798  CYS799  TRP800  GLU811  SER814 

> <Gold.Protein.RotatedAtoms>
  151.6467  133.3323  159.3142 H   0  0  0  0  0  0  0  0  0  0  0  0  # atno 6907 bound_to 6896
  150.7981  134.7059  159.6585 H   0  0  0  0  0  0  0  0  0  0  0  0  # atno 6908 bound_to 6896
  152.4070  134.6194  160.0098 H   0  0  0  0  0  0  0  0  0  0  0  0  # atno 6909 bound_to 6896
  144.8936  139.5523  143.5787 H   0  0  0  0  0  0  0  0  0  0  0  0  # atno 7974 bound_to 7965
  156.0088  140.3352  155.6920 H   0  0  0  0  0  0  0  0  0  0  0  0  # atno 8008 bound_to 7997
  155.6186  140.0673  157.2702 H   0  0  0  0  0  0  0  0  0  0  0  0  # atno 8009 bound_to 7997
  154.4274  140.1780  156.1336 H   0  0  0  0  0  0  0  0  0  0  0  0  # atno 8010 bound_to 7997
  139.8380  144.6655  150.9318 H   0  0  0  0  0  0  0  0  0  0  0  0  # atno 10167 bound_to 10162
  157.3611  130.7650  149.7048 H   0  0  0  0  0  0  0  0  0  0  0  0  # atno 10718 bound_to 10713
  154.3776  135.6081  153.5773 H   0  0  0  0  0  0  0  0  0  0  0  0  # atno 10763 bound_to 10752
  152.9789  135.5853  154.4448 H   0  0  0  0  0  0  0  0  0  0  0  0  # atno 10764 bound_to 10752
  154.4212  135.2846  155.1952 H   0  0  0  0  0  0  0  0  0  0  0  0  # atno 10765 bound_to 10752
  139.9157  134.9630  156.7698 H   0  0  0  0  0  0  0  0  0  0  0  0  # atno 11005 bound_to 11000
  146.3068  139.7608  142.9050 LP  0  0  0  0  0  0  0  0  0  0  0  0  # atno 17320 bound_to 7965
  145.3739  141.0347  143.3215 LP  0  0  0  0  0  0  0  0  0  0  0  0  # atno 17321 bound_to 7965
  140.7801  143.3939  151.1264 LP  0  0  0  0  0  0  0  0  0  0  0  0  # atno 17342 bound_to 10162
  139.7587  143.8668  152.3095 LP  0  0  0  0  0  0  0  0  0  0  0  0  # atno 17343 bound_to 10162
  155.9737  130.4113  150.3976 LP  0  0  0  0  0  0  0  0  0  0  0  0  # atno 17370 bound_to 10713
  157.2054  131.0448  151.2628 LP  0  0  0  0  0  0  0  0  0  0  0  0  # atno 17371 bound_to 10713
  140.6630  133.9628  155.7815 LP  0  0  0  0  0  0  0  0  0  0  0  0  # atno 17394 bound_to 11000
  141.0630  134.0318  157.3632 LP  0  0  0  0  0  0  0  0  0  0  0  0  # atno 17395 bound_to 11000

$$$$
