AV-unprocessed.smi:763|AV-procd|sdf|3641|dock10
  -GOLD-   22720 1 43D 1   1.00000     0.00000
 Structure written by MMmdl.
 43 44  0  0  0  0  0  0  0  0  2 V2000
  147.5682  136.8925  163.2599 C   0  0  0  0  0  0  0  0  0  0  0  0
  148.3215  136.8873  162.0601 O   0  0  0  0  0  0  0  0  0  0  0  0
  147.6663  136.1931  161.0115 C   0  0  0  0  0  0  0  0  0  0  0  0
  148.6419  136.0061  159.8466 C   0  0  0  0  0  0  0  0  0  0  0  0
  149.2105  137.2715  159.5273 O   0  0  0  0  0  0  0  0  0  0  0  0
  148.6871  137.9940  158.4704 C   0  0  0  0  0  0  0  0  0  0  0  0
  147.4808  137.6153  157.9765 N   0  0  0  0  0  0  0  0  0  0  0  0
  146.9603  138.3108  156.9471 C   0  0  0  0  0  0  0  0  0  0  0  0
  147.6084  139.4101  156.3606 C   0  0  0  0  0  0  0  0  0  0  0  0
  148.8580  139.7984  156.8761 C   0  0  0  0  0  0  0  0  0  0  0  0
  149.4318  139.0866  157.9582 C   0  0  0  0  0  0  0  0  0  0  0  0
  150.6212  139.4035  158.4970 N   0  5  0  0  0  0  0  0  0  0  0  0
  151.8219  140.2159  157.7768 S   0  0  0  0  0  0  0  0  0  0  0  0
  153.1402  139.7070  158.1863 O   0  0  0  0  0  0  0  0  0  0  0  0
  151.5814  140.3671  156.3334 O   0  0  0  0  0  0  0  0  0  0  0  0
  151.6405  141.9105  158.5251 C   0  0  1  0  0  0  0  0  0  0  0  0
  152.8933  142.2660  159.3541 C   0  0  0  0  0  0  0  0  0  0  0  0
  152.7858  143.6639  159.9816 C   0  0  0  0  0  0  0  0  0  0  0  0
  152.5156  144.7296  158.9099 C   0  0  0  0  0  0  0  0  0  0  0  0
  151.2408  144.4003  158.1202 C   0  0  0  0  0  0  0  0  0  0  0  0
  151.3164  143.0039  157.4745 C   0  0  2  0  0  0  0  0  0  0  0  0
  150.0718  142.7562  156.8529 O   0  0  0  0  0  0  0  0  0  0  0  0
  148.1126  137.4350  164.0327 H   0  0  0  0  0  0  0  0  0  0  0  0
  147.3939  135.8779  163.6205 H   0  0  0  0  0  0  0  0  0  0  0  0
  146.6047  137.3841  163.1185 H   0  0  0  0  0  0  0  0  0  0  0  0
  147.3201  135.2206  161.3654 H   0  0  0  0  0  0  0  0  0  0  0  0
  146.7916  136.7538  160.6780 H   0  0  0  0  0  0  0  0  0  0  0  0
  149.4217  135.2973  160.1293 H   0  0  0  0  0  0  0  0  0  0  0  0
  148.1103  135.6013  158.9839 H   0  0  0  0  0  0  0  0  0  0  0  0
  145.9995  137.9809  156.5806 H   0  0  0  0  0  0  0  0  0  0  0  0
  147.1600  139.9438  155.5359 H   0  0  0  0  0  0  0  0  0  0  0  0
  149.3618  140.6435  156.4309 H   0  0  0  0  0  0  0  0  0  0  0  0
  150.7996  141.8402  159.2160 H   0  0  0  0  0  0  0  0  0  0  0  0
  153.0465  141.5266  160.1403 H   0  0  0  0  0  0  0  0  0  0  0  0
  153.7801  142.2276  158.7208 H   0  0  0  0  0  0  0  0  0  0  0  0
  151.9835  143.6738  160.7205 H   0  0  0  0  0  0  0  0  0  0  0  0
  153.7047  143.9012  160.5184 H   0  0  0  0  0  0  0  0  0  0  0  0
  152.4203  145.7103  159.3764 H   0  0  0  0  0  0  0  0  0  0  0  0
  153.3649  144.7900  158.2283 H   0  0  0  0  0  0  0  0  0  0  0  0
  150.3818  144.4510  158.7909 H   0  0  0  0  0  0  0  0  0  0  0  0
  151.0779  145.1579  157.3527 H   0  0  0  0  0  0  0  0  0  0  0  0
  152.0860  143.0173  156.7024 H   0  0  0  0  0  0  0  0  0  0  0  0
  149.7203  143.5822  156.5537 H   0  0  0  0  0  0  0  0  0  0  0  0
  1  2  1  0  0  0  0
  1 23  1  0  0  0  0
  1 24  1  0  0  0  0
  1 25  1  0  0  0  0
  2  3  1  0  0  0  0
  3  4  1  0  0  0  0
  3 26  1  0  0  0  0
  3 27  1  0  0  0  0
  4  5  1  0  0  0  0
  4 28  1  0  0  0  0
  4 29  1  0  0  0  0
  5  6  1  0  0  0  0
  6 11  1  0  0  0  0
  6  7  2  0  0  0  0
  7  8  1  0  0  0  0
  8  9  2  0  0  0  0
  8 30  1  0  0  0  0
  9 10  1  0  0  0  0
  9 31  1  0  0  0  0
 10 11  2  0  0  0  0
 10 32  1  0  0  0  0
 11 12  1  0  0  0  0
 12 13  1  0  0  0  0
 13 14  2  0  0  0  0
 13 15  2  0  0  0  0
 13 16  1  0  0  0  0
 16 21  1  0  0  0  0
 16 17  1  0  0  0  0
 16 33  1  0  0  0  0
 17 18  1  0  0  0  0
 17 34  1  0  0  0  0
 17 35  1  0  0  0  0
 18 19  1  0  0  0  0
 18 36  1  0  0  0  0
 18 37  1  0  0  0  0
 19 20  1  0  0  0  0
 19 38  1  0  0  0  0
 19 39  1  0  0  0  0
 20 21  1  0  0  0  0
 20 40  1  0  0  0  0
 20 41  1  0  0  0  0
 21 22  1  0  0  0  0
 21 42  1  0  0  0  0
 22 43  1  0  0  0  0
M  CHG  1  12  -1
M  END
> <s_m_source_file>
AV-unprocessed.smi

> <i_m_source_file_index>
763

> <i_lp_mmshare_version>
43012

> <i_f3d_flags>
0

> <s_epik_input>
W0NIM11PW0NIMl1bQ0gyXU9jMW5bY0hdW2NIXVtjSF1jMVtOSF1TKD1PKSg9TylbQ0BASF0yW0NIMl1bQ0gyXVtDSDJdW0NIMl1bQ0BIXTJbT0hd

> <s_epik_cmdline>
J2VwaWtfcHl0aG9uJywgJy1waCcsICc3LjAnLCAnLXRuJywgJzgnLCAnLW1hJywgJzIwMCcsICctbWV0YWxfYmluZGluZycsICctaW1hZScsICc8aW5maWxlLm1hZT4nLCAnLW9tYWUnLCAnPG91dGZpbGUubWFlPic=

> <r_epik_Ionization_Penalty>
0.985866

> <r_epik_Ionization_Penalty_Charging>
0.984689

> <r_epik_Ionization_Penalty_Neutral>
0.00117669

> <r_epik_State_Penalty>
1.03185

> <r_epik_Charging_Adjusted_Penalty>
2.01654

> <i_epik_Tot_Q>
-1

> <i_epik_Tot_abs_Q>
1

> <r_epik_Metal_State_Penalty>
0.379327

> <b_epik_Metal_Only>
0

> <s_lp_Force_Field>
OPLS_2005

> <r_lp_Energy>
12.3321

> <b_lp_Chiralities_Consistent>
1

> <s_lp_Variant>
AV-unprocessed.smi:763-8

> <Gold.Version>
5.8.1

> <Gold.Id.Protein>
6NUR|6NUR_protein|mol2

> <Gold.PLP.Fitness>
46.8321

> <Gold.PLP.PLP>
-39.0436

> <Gold.PLP.part.hbond>
-3.6841

> <Gold.PLP.part.metal>
0.0000

> <Gold.PLP.part.buried>
-5.8915

> <Gold.PLP.part.nonpolar>
-30.0511

> <Gold.PLP.part.repulsive>
0.0000

> <Gold.PLP.ligand.clash>
0.0000

> <Gold.PLP.ligand.torsion>
1.1553

> <Gold.PLP.Chemscore.Hbond>
3.0000

> <Gold.PLP.Chemscore.CHOScore>
0.0000

> <Gold.PLP.Chemscore.Metal>
0.0000

> <Gold.Chemscore.Hbonds>
donor molecule, donor type, donor heavy atom, donor atom, acceptor molecule, acceptor atom, score
      L1  H    22    43       P1  8028  1.00
      P1  H  6931  6943       L1     2  1.00
      P1  H  7997  8008       L1    14  1.00

> <Gold.PLP.Chemscore.Internal.Correction>
1.0991

> <Gold.Rescore>
     Score         DG    S(hbond)    S(metal)    S(lipo)     H(rot)  DE(clash)    DE(int)     intcor
     17.90     -20.62       2.90        0.00      97.98       2.35       0.01       2.71       ----

> <Gold.Chemscore.Fitness>
17.9047

> <Gold.Chemscore.DG>
-20.6203

> <Gold.Chemscore.ZeroCoef>
-5.4800

> <Gold.Chemscore.Hbond>
2.9027

> <Gold.Chemscore.Metal>
0.0000

> <Gold.Chemscore.Lipo>
97.9779

> <Gold.Chemscore.Internal_Hbond>
0.0000

> <Gold.Chemscore.DEClash>
0.0095

> <Gold.Chemscore.DEInternal>
2.7062

> <Gold.Chemscore.Rot>
2.3509

> <Gold.Chemscore.Internal.Correction>
   9.000000E+99

> <Gold.Chemscore.Hbonds>
donor molecule, donor type, donor heavy atom, donor atom, acceptor molecule, acceptor atom, score
      L1  H    22    43       P1  8028  1.00
      P1  H  6931  6943       L1     2  0.61
      P1  H  7997  8008       L1    14  0.96

> <Gold.Chemscore.Hbond.Weighted>
-9.6952

> <Gold.Chemscore.Metal.Weighted>
-0.0000

> <Gold.Chemscore.Lipo.Weighted>
-11.4634

> <Gold.Chemscore.Internal_Hbond.Weighted>
0.0000

> <Gold.Chemscore.DEClash.Weighted>
0.0095

> <Gold.Chemscore.DEInternal.Weighted>
2.7062

> <Gold.Chemscore.Rot.Weighted>
6.0182

> <Gold.Chemscore.Internal.Correction.Weighted>
   9.000000E+99

> <Gold.Protein.RotatedTorsions>
[ 6907 6896 6895 6894 ] final  -27.10 input  -60.11 | X-H torsion
[ 7974 7965 7964 7962 ] final  163.87 input  175.53 | X-H torsion
[ 8008 7997 7996 7995 ] final  -89.89 input   59.86 | X-H torsion
[ 10167 10162 10161 10158 ] final   93.74 input  -65.29 | X-H torsion
[ 10718 10713 10712 10709 ] final   -5.07 input   66.30 | X-H torsion
[ 10763 10752 10751 10750 ] final -106.30 input  -60.55 | X-H torsion
[ 11005 11000 10999 10996 ] final  127.51 input  -57.11 | X-H torsion

> <Gold.Protein.ActiveResidues>
 VAL166  LYS551  ARG553  GLY616  TRP617  ASP618  TYR619  PRO620  LYS621  CYS622 
 ASP623  PHE694  ASN695  SER759  ASP760  ASP761  ALA762  ILE779  LEU786  VAL792 
 PHE793  MET794  SER795  GLU796  ALA797  LYS798  CYS799  TRP800  GLU811  SER814 

> <Gold.Protein.RotatedAtoms>
  151.1517  135.0230  159.8670 H   0  0  0  0  0  0  0  0  0  0  0  0  # atno 6907 bound_to 6896
  152.5452  134.1381  159.8477 H   0  0  0  0  0  0  0  0  0  0  0  0  # atno 6908 bound_to 6896
  151.1467  133.4889  159.2628 H   0  0  0  0  0  0  0  0  0  0  0  0  # atno 6909 bound_to 6896
  144.7570  139.8244  143.6346 H   0  0  0  0  0  0  0  0  0  0  0  0  # atno 7974 bound_to 7965
  154.6919  140.0536  157.0372 H   0  0  0  0  0  0  0  0  0  0  0  0  # atno 8008 bound_to 7997
  155.0804  140.3209  155.4584 H   0  0  0  0  0  0  0  0  0  0  0  0  # atno 8009 bound_to 7997
  156.2731  140.2066  156.5932 H   0  0  0  0  0  0  0  0  0  0  0  0  # atno 8010 bound_to 7997
  139.8151  144.6756  150.9590 H   0  0  0  0  0  0  0  0  0  0  0  0  # atno 10167 bound_to 10162
  156.7519  130.5242  149.5802 H   0  0  0  0  0  0  0  0  0  0  0  0  # atno 10718 bound_to 10713
  154.8003  135.4717  154.0260 H   0  0  0  0  0  0  0  0  0  0  0  0  # atno 10763 bound_to 10752
  153.1771  135.6834  153.8536 H   0  0  0  0  0  0  0  0  0  0  0  0  # atno 10764 bound_to 10752
  153.8099  135.3218  155.3377 H   0  0  0  0  0  0  0  0  0  0  0  0  # atno 10765 bound_to 10752
  139.9511  134.9621  156.8866 H   0  0  0  0  0  0  0  0  0  0  0  0  # atno 11005 bound_to 11000
  146.1592  139.4700  142.9999 LP  0  0  0  0  0  0  0  0  0  0  0  0  # atno 17320 bound_to 7965
  145.6745  141.0208  143.1640 LP  0  0  0  0  0  0  0  0  0  0  0  0  # atno 17321 bound_to 7965
  140.7816  143.4147  151.0937 LP  0  0  0  0  0  0  0  0  0  0  0  0  # atno 17342 bound_to 10162
  139.7811  143.8354  152.3137 LP  0  0  0  0  0  0  0  0  0  0  0  0  # atno 17343 bound_to 10162
  156.1395  130.6235  151.0448 LP  0  0  0  0  0  0  0  0  0  0  0  0  # atno 17370 bound_to 10713
  157.6773  131.0847  150.7461 LP  0  0  0  0  0  0  0  0  0  0  0  0  # atno 17371 bound_to 10713
  140.5716  134.0438  155.7432 LP  0  0  0  0  0  0  0  0  0  0  0  0  # atno 17394 bound_to 11000
  141.1174  133.9517  157.2795 LP  0  0  0  0  0  0  0  0  0  0  0  0  # atno 17395 bound_to 11000

$$$$
