AV-unprocessed.smi:2610|AV-procd|sdf|10208|dock4
  -GOLD-   2272014213D 1   1.00000     0.00000
 Structure written by MMmdl.
 45 47  0  0  0  0  0  0  0  0  1 V2000
  152.4494  143.2018  161.4269 C   0  0  0  0  0  0  0  0  0  0  0  0
  153.1840  142.6727  160.1905 C   0  0  0  0  0  0  0  0  0  0  0  0
  152.2709  142.5767  158.9604 C   0  0  0  0  0  0  0  0  0  0  0  0
  151.2305  141.4542  159.0853 C   0  0  0  0  0  0  0  0  0  0  0  0
  150.2597  141.4439  157.9417 C   0  0  0  0  0  0  0  0  0  0  0  0
  148.9769  141.7596  158.1213 N   0  0  0  0  0  0  0  0  0  0  0  0
  148.4681  141.7106  156.8397 C   0  0  0  0  0  0  0  0  0  0  0  0
  147.1600  141.9543  156.3638 C   0  0  0  0  0  0  0  0  0  0  0  0
  146.8732  141.8643  154.9863 C   0  0  0  0  0  0  0  0  0  0  0  0
  147.8889  141.5333  154.0668 C   0  0  0  0  0  0  0  0  0  0  0  0
  149.1981  141.2840  154.5207 C   0  0  0  0  0  0  0  0  0  0  0  0
  149.4790  141.3653  155.8985 C   0  0  0  0  0  0  0  0  0  0  0  0
  150.6296  141.1756  156.6616 N   0  0  0  0  0  0  0  0  0  0  0  0
  151.9508  140.8067  156.1575 C   0  0  0  0  0  0  0  0  0  0  0  0
  152.1311  139.2953  155.8488 C   0  0  0  0  0  0  0  0  0  0  0  0
  153.4043  139.1054  155.2582 O   0  0  0  0  0  0  0  0  0  0  0  0
  152.0544  138.4082  157.1102 C   0  0  0  0  0  0  0  0  0  0  0  0
  152.0264  136.9086  156.7650 C   0  0  0  0  0  0  0  0  0  0  0  0
  150.9515  136.6330  155.8753 O   0  0  0  0  0  0  0  0  0  0  0  0
  151.0845  137.3038  154.6283 C   0  0  0  0  0  0  0  0  0  0  0  0
  151.0595  138.8280  154.8425 C   0  0  0  0  0  0  0  0  0  0  0  0
  153.1230  143.2635  162.2818 H   0  0  0  0  0  0  0  0  0  0  0  0
  151.6206  142.5490  161.7023 H   0  0  0  0  0  0  0  0  0  0  0  0
  152.0462  144.1991  161.2488 H   0  0  0  0  0  0  0  0  0  0  0  0
  154.0289  143.3257  159.9691 H   0  0  0  0  0  0  0  0  0  0  0  0
  153.6027  141.6906  160.4134 H   0  0  0  0  0  0  0  0  0  0  0  0
  151.7621  143.5298  158.8096 H   0  0  0  0  0  0  0  0  0  0  0  0
  152.8800  142.4080  158.0714 H   0  0  0  0  0  0  0  0  0  0  0  0
  151.7297  140.4908  159.1680 H   0  0  0  0  0  0  0  0  0  0  0  0
  150.6691  141.5776  160.0123 H   0  0  0  0  0  0  0  0  0  0  0  0
  146.3769  142.2155  157.0601 H   0  0  0  0  0  0  0  0  0  0  0  0
  145.8704  142.0551  154.6329 H   0  0  0  0  0  0  0  0  0  0  0  0
  147.6627  141.4717  153.0123 H   0  0  0  0  0  0  0  0  0  0  0  0
  149.9762  141.0349  153.8154 H   0  0  0  0  0  0  0  0  0  0  0  0
  152.1377  141.3887  155.2542 H   0  0  0  0  0  0  0  0  0  0  0  0
  152.7045  141.1382  156.8720 H   0  0  0  0  0  0  0  0  0  0  0  0
  153.4480  138.2258  154.9156 H   0  0  0  0  0  0  0  0  0  0  0  0
  152.8881  138.6131  157.7825 H   0  0  0  0  0  0  0  0  0  0  0  0
  151.1447  138.6459  157.6616 H   0  0  0  0  0  0  0  0  0  0  0  0
  152.9712  136.5874  156.3240 H   0  0  0  0  0  0  0  0  0  0  0  0
  151.8881  136.3215  157.6730 H   0  0  0  0  0  0  0  0  0  0  0  0
  152.0029  136.9906  154.1295 H   0  0  0  0  0  0  0  0  0  0  0  0
  150.2588  137.0061  153.9819 H   0  0  0  0  0  0  0  0  0  0  0  0
  150.0716  139.1075  155.2114 H   0  0  0  0  0  0  0  0  0  0  0  0
  151.1833  139.3401  153.8872 H   0  0  0  0  0  0  0  0  0  0  0  0
  1  2  1  0  0  0  0
  1 22  1  0  0  0  0
  1 23  1  0  0  0  0
  1 24  1  0  0  0  0
  2  3  1  0  0  0  0
  2 25  1  0  0  0  0
  2 26  1  0  0  0  0
  3  4  1  0  0  0  0
  3 27  1  0  0  0  0
  3 28  1  0  0  0  0
  4  5  1  0  0  0  0
  4 29  1  0  0  0  0
  4 30  1  0  0  0  0
  5 13  1  0  0  0  0
  5  6  2  0  0  0  0
  6  7  1  0  0  0  0
  7 12  2  0  0  0  0
  7  8  1  0  0  0  0
  8  9  2  0  0  0  0
  8 31  1  0  0  0  0
  9 10  1  0  0  0  0
  9 32  1  0  0  0  0
 10 11  2  0  0  0  0
 10 33  1  0  0  0  0
 11 12  1  0  0  0  0
 11 34  1  0  0  0  0
 12 13  1  0  0  0  0
 13 14  1  0  0  0  0
 14 15  1  0  0  0  0
 14 35  1  0  0  0  0
 14 36  1  0  0  0  0
 15 21  1  0  0  0  0
 15 16  1  0  0  0  0
 15 17  1  0  0  0  0
 16 37  1  0  0  0  0
 17 18  1  0  0  0  0
 17 38  1  0  0  0  0
 17 39  1  0  0  0  0
 18 19  1  0  0  0  0
 18 40  1  0  0  0  0
 18 41  1  0  0  0  0
 19 20  1  0  0  0  0
 20 21  1  0  0  0  0
 20 42  1  0  0  0  0
 20 43  1  0  0  0  0
 21 44  1  0  0  0  0
 21 45  1  0  0  0  0
M  END
> <s_m_source_file>
AV-unprocessed.smi

> <i_m_source_file_index>
2610

> <i_lp_mmshare_version>
43012

> <i_f3d_flags>
0

> <s_epik_input>
W0NIM11bQ0gyXVtDSDJdW0NIMl1jKG4xKW4oYyhjMTIpW2NIXVtjSF1bY0hdW2NIXTIpW0NIMl1DMyhbT0hdKVtDSDJdW0NIMl1PW0NIMl1bQ0gyXTM=

> <s_epik_cmdline>
J2VwaWtfcHl0aG9uJywgJy1waCcsICc3LjAnLCAnLXRuJywgJzgnLCAnLW1hJywgJzIwMCcsICctbWV0YWxfYmluZGluZycsICctaW1hZScsICc8aW5maWxlLm1hZT4nLCAnLW9tYWUnLCAnPG91dGZpbGUubWFlPic=

> <r_epik_Ionization_Penalty>
0.224246

> <r_epik_Ionization_Penalty_Charging>
0

> <r_epik_Ionization_Penalty_Neutral>
0.224246

> <r_epik_State_Penalty>
0.214696

> <r_epik_Charging_Adjusted_Penalty>
0.214696

> <i_epik_Tot_Q>
0

> <i_epik_Tot_abs_Q>
0

> <r_epik_Metal_State_Penalty>
0.000258695

> <b_epik_Metal_Only>
0

> <s_lp_Force_Field>
OPLS_2005

> <r_lp_Energy>
13.1565

> <b_lp_Chiralities_Consistent>
1

> <s_lp_Variant>
AV-unprocessed.smi:2610-1

> <Gold.Version>
5.8.1

> <Gold.Id.Protein>
6NUR|6NUR_protein|mol2

> <Gold.PLP.Fitness>
43.7572

> <Gold.PLP.PLP>
-41.1705

> <Gold.PLP.part.hbond>
-1.0000

> <Gold.PLP.part.metal>
0.0000

> <Gold.PLP.part.buried>
-4.8188

> <Gold.PLP.part.nonpolar>
-35.7978

> <Gold.PLP.part.repulsive>
0.1696

> <Gold.PLP.ligand.clash>
0.0000

> <Gold.PLP.ligand.torsion>
0.3626

> <Gold.PLP.Chemscore.Hbond>
1.0000

> <Gold.PLP.Chemscore.CHOScore>
0.0000

> <Gold.PLP.Chemscore.Metal>
0.0000

> <Gold.Chemscore.Hbonds>
donor molecule, donor type, donor heavy atom, donor atom, acceptor molecule, acceptor atom, score
      P1  H  7997  8010       L1    16  1.00

> <Gold.PLP.Chemscore.Internal.Correction>
0.3119

> <Gold.Rescore>
     Score         DG    S(hbond)    S(metal)    S(lipo)     H(rot)  DE(clash)    DE(int)     intcor
     16.36     -16.87       0.97        0.00     111.46       1.91       0.16       0.35       ----

> <Gold.Chemscore.Fitness>
16.3584

> <Gold.Chemscore.DG>
-16.8702

> <Gold.Chemscore.ZeroCoef>
-5.4800

> <Gold.Chemscore.Hbond>
0.9665

> <Gold.Chemscore.Metal>
0.0000

> <Gold.Chemscore.Lipo>
111.4624

> <Gold.Chemscore.Internal_Hbond>
0.0000

> <Gold.Chemscore.DEClash>
0.1634

> <Gold.Chemscore.DEInternal>
0.3484

> <Gold.Chemscore.Rot>
1.9059

> <Gold.Chemscore.Internal.Correction>
   9.000000E+99

> <Gold.Chemscore.Hbonds>
donor molecule, donor type, donor heavy atom, donor atom, acceptor molecule, acceptor atom, score
      P1  H  7997  8010       L1    16  0.64

> <Gold.Chemscore.Hbond.Weighted>
-3.2281

> <Gold.Chemscore.Metal.Weighted>
-0.0000

> <Gold.Chemscore.Lipo.Weighted>
-13.0411

> <Gold.Chemscore.Internal_Hbond.Weighted>
0.0000

> <Gold.Chemscore.DEClash.Weighted>
0.1634

> <Gold.Chemscore.DEInternal.Weighted>
0.3484

> <Gold.Chemscore.Rot.Weighted>
4.8790

> <Gold.Chemscore.Internal.Correction.Weighted>
   9.000000E+99

> <Gold.Protein.RotatedTorsions>
[ 6907 6896 6895 6894 ] final -130.63 input  -60.11 | X-H torsion
[ 7974 7965 7964 7962 ] final   23.56 input  175.53 | X-H torsion
[ 8008 7997 7996 7995 ] final  100.61 input   59.86 | X-H torsion
[ 10167 10162 10161 10158 ] final -126.66 input  -65.29 | X-H torsion
[ 10718 10713 10712 10709 ] final  -29.72 input   66.30 | X-H torsion
[ 10763 10752 10751 10750 ] final   66.98 input  -60.55 | X-H torsion
[ 11005 11000 10999 10996 ] final -146.48 input  -57.11 | X-H torsion

> <Gold.Protein.ActiveResidues>
 VAL166  LYS551  ARG553  GLY616  TRP617  ASP618  TYR619  PRO620  LYS621  CYS622 
 ASP623  PHE694  ASN695  SER759  ASP760  ASP761  ALA762  ILE779  LEU786  VAL792 
 PHE793  MET794  SER795  GLU796  ALA797  LYS798  CYS799  TRP800  GLU811  SER814 

> <Gold.Protein.RotatedAtoms>
  150.9419  133.6647  159.2788 H   0  0  0  0  0  0  0  0  0  0  0  0  # atno 6907 bound_to 6896
  151.4033  135.0973  159.9572 H   0  0  0  0  0  0  0  0  0  0  0  0  # atno 6908 bound_to 6896
  152.5073  133.8908  159.7447 H   0  0  0  0  0  0  0  0  0  0  0  0  # atno 6909 bound_to 6896
  146.1979  139.7728  142.8784 H   0  0  0  0  0  0  0  0  0  0  0  0  # atno 7974 bound_to 7965
  156.1220  140.3210  155.8222 H   0  0  0  0  0  0  0  0  0  0  0  0  # atno 8008 bound_to 7997
  155.4487  140.0531  157.3020 H   0  0  0  0  0  0  0  0  0  0  0  0  # atno 8009 bound_to 7997
  154.4834  140.2063  155.9724 H   0  0  0  0  0  0  0  0  0  0  0  0  # atno 8010 bound_to 7997
  139.9691  143.5865  152.2419 H   0  0  0  0  0  0  0  0  0  0  0  0  # atno 10167 bound_to 10162
  156.4089  130.4404  149.7267 H   0  0  0  0  0  0  0  0  0  0  0  0  # atno 10718 bound_to 10713
  153.0165  135.5300  154.6908 H   0  0  0  0  0  0  0  0  0  0  0  0  # atno 10763 bound_to 10752
  154.6043  135.2871  155.0503 H   0  0  0  0  0  0  0  0  0  0  0  0  # atno 10764 bound_to 10752
  154.1549  135.6557  153.5024 H   0  0  0  0  0  0  0  0  0  0  0  0  # atno 10765 bound_to 10752
  140.7815  134.3073  157.5044 H   0  0  0  0  0  0  0  0  0  0  0  0  # atno 11005 bound_to 11000
  145.3584  141.0321  143.3299 LP  0  0  0  0  0  0  0  0  0  0  0  0  # atno 17320 bound_to 7965
  144.8619  139.5165  143.6808 LP  0  0  0  0  0  0  0  0  0  0  0  0  # atno 17321 bound_to 7965
  139.6495  144.7660  151.2177 LP  0  0  0  0  0  0  0  0  0  0  0  0  # atno 17342 bound_to 10162
  140.7528  143.6184  150.8537 LP  0  0  0  0  0  0  0  0  0  0  0  0  # atno 17343 bound_to 10162
  156.4253  130.7788  151.2807 LP  0  0  0  0  0  0  0  0  0  0  0  0  # atno 17370 bound_to 10713
  157.7506  131.0170  150.3569 LP  0  0  0  0  0  0  0  0  0  0  0  0  # atno 17371 bound_to 10713
  139.8742  134.9321  156.3546 LP  0  0  0  0  0  0  0  0  0  0  0  0  # atno 17394 bound_to 11000
  140.9478  133.7471  156.0231 LP  0  0  0  0  0  0  0  0  0  0  0  0  # atno 17395 bound_to 11000

$$$$
