AV-unprocessed.smi:1747|AV-procd|sdf|7035|dock5
  -GOLD-   22720 8253D 1   1.00000     0.00000
 Structure written by MMmdl.
 40 41  0  0  0  0  0  0  0  0  1 V2000
  148.5778  133.3288  155.3666 C   0  0  0  0  0  0  0  0  0  0  0  0
  149.0514  134.1565  156.5635 C   0  0  0  0  0  0  0  0  0  0  0  0
  149.2843  133.5649  157.6177 O   0  0  0  0  0  0  0  0  0  0  0  0
  149.1948  135.4970  156.4284 N   0  0  0  0  0  0  0  0  0  0  0  0
  149.6660  136.4152  157.4774 C   0  0  0  0  0  0  0  0  0  0  0  0
  150.9881  137.0629  157.0205 C   0  0  0  0  0  0  0  0  0  0  0  0
  150.7562  137.7760  155.7493 N   0  0  0  0  0  0  0  0  0  0  0  0
  150.8397  139.1156  155.5460 C   0  0  0  0  0  0  0  0  0  0  0  0
  150.6088  139.6523  154.4615 O   0  0  0  0  0  0  0  0  0  0  0  0
  151.2099  139.8248  156.6231 N   0  0  0  0  0  0  0  0  0  0  0  0
  151.4195  141.2670  156.6465 C   0  0  0  0  0  0  0  0  0  0  0  0
  150.3931  141.9793  157.5459 C   0  0  0  0  0  0  0  0  0  0  0  0
  151.0159  142.9085  158.5487 C   0  0  0  0  0  0  0  0  0  0  0  0
  151.6732  144.0837  158.2826 C   0  0  0  0  0  0  0  0  0  0  0  0
  152.2705  144.8386  159.7349 S   0  0  0  0  0  0  0  0  0  0  0  0
  151.5947  143.5088  160.6671 C   0  0  0  0  0  0  0  0  0  0  0  0
  151.7068  143.4118  162.1498 C   0  0  0  0  0  0  0  0  0  0  0  0
  150.9775  142.5970  159.9123 N   0  0  0  0  0  0  0  0  0  0  0  0
  150.2933  136.8531  154.7016 C   0  0  0  0  0  0  0  0  0  0  0  0
  148.9732  136.1965  155.1536 C   0  0  0  0  0  0  0  0  0  0  0  0
  147.5935  133.6592  155.0338 H   0  0  0  0  0  0  0  0  0  0  0  0
  148.5003  132.2747  155.6353 H   0  0  0  0  0  0  0  0  0  0  0  0
  149.2806  133.4094  154.5367 H   0  0  0  0  0  0  0  0  0  0  0  0
  148.9095  137.1840  157.6432 H   0  0  0  0  0  0  0  0  0  0  0  0
  149.8150  135.9368  158.4438 H   0  0  0  0  0  0  0  0  0  0  0  0
  151.3753  137.6918  157.8219 H   0  0  0  0  0  0  0  0  0  0  0  0
  151.7470  136.2947  156.8637 H   0  0  0  0  0  0  0  0  0  0  0  0
  151.3872  139.3251  157.4828 H   0  0  0  0  0  0  0  0  0  0  0  0
  152.4272  141.4684  157.0135 H   0  0  0  0  0  0  0  0  0  0  0  0
  151.3645  141.6633  155.6317 H   0  0  0  0  0  0  0  0  0  0  0  0
  149.6917  142.5286  156.9171 H   0  0  0  0  0  0  0  0  0  0  0  0
  149.7936  141.2293  158.0637 H   0  0  0  0  0  0  0  0  0  0  0  0
  151.8476  144.5463  157.3224 H   0  0  0  0  0  0  0  0  0  0  0  0
  151.1466  142.5536  162.5223 H   0  0  0  0  0  0  0  0  0  0  0  0
  151.3115  144.3154  162.6138 H   0  0  0  0  0  0  0  0  0  0  0  0
  152.7522  143.2977  162.4365 H   0  0  0  0  0  0  0  0  0  0  0  0
  150.1427  137.3451  153.7399 H   0  0  0  0  0  0  0  0  0  0  0  0
  151.0554  136.0912  154.5307 H   0  0  0  0  0  0  0  0  0  0  0  0
  148.6098  135.5356  154.3657 H   0  0  0  0  0  0  0  0  0  0  0  0
  148.2008  136.9548  155.2894 H   0  0  0  0  0  0  0  0  0  0  0  0
  1  2  1  0  0  0  0
  1 21  1  0  0  0  0
  1 22  1  0  0  0  0
  1 23  1  0  0  0  0
  2  3  2  0  0  0  0
  2  4  1  0  0  0  0
  4 20  1  0  0  0  0
  4  5  1  0  0  0  0
  5  6  1  0  0  0  0
  5 24  1  0  0  0  0
  5 25  1  0  0  0  0
  6  7  1  0  0  0  0
  6 26  1  0  0  0  0
  6 27  1  0  0  0  0
  7  8  1  0  0  0  0
  7 19  1  0  0  0  0
  8  9  2  0  0  0  0
  8 10  1  0  0  0  0
 10 11  1  0  0  0  0
 10 28  1  0  0  0  0
 11 12  1  0  0  0  0
 11 29  1  0  0  0  0
 11 30  1  0  0  0  0
 12 13  1  0  0  0  0
 12 31  1  0  0  0  0
 12 32  1  0  0  0  0
 13 18  1  0  0  0  0
 13 14  2  0  0  0  0
 14 15  1  0  0  0  0
 14 33  1  0  0  0  0
 15 16  1  0  0  0  0
 16 17  1  0  0  0  0
 16 18  2  0  0  0  0
 17 34  1  0  0  0  0
 17 35  1  0  0  0  0
 17 36  1  0  0  0  0
 19 20  1  0  0  0  0
 19 37  1  0  0  0  0
 19 38  1  0  0  0  0
 20 39  1  0  0  0  0
 20 40  1  0  0  0  0
M  END
> <s_m_source_file>
AV-unprocessed.smi

> <i_m_source_file_index>
1747

> <i_lp_mmshare_version>
43012

> <i_f3d_flags>
0

> <s_epik_input>
W0NIM11DKD1PKU4xW0NIMl1bQ0gyXU4oW0NIMl1bQ0gyXTEpQyg9TylbTkhdW0NIMl1bQ0gyXWMyW2NIXXNjKG4yKVtDSDNd

> <s_epik_cmdline>
J2VwaWtfcHl0aG9uJywgJy1waCcsICc3LjAnLCAnLXRuJywgJzgnLCAnLW1hJywgJzIwMCcsICctbWV0YWxfYmluZGluZycsICctaW1hZScsICc8aW5maWxlLm1hZT4nLCAnLW9tYWUnLCAnPG91dGZpbGUubWFlPic=

> <r_epik_Ionization_Penalty>
0.00199956

> <r_epik_Ionization_Penalty_Charging>
0

> <r_epik_Ionization_Penalty_Neutral>
0.00199956

> <r_epik_State_Penalty>
0.00133382

> <r_epik_Charging_Adjusted_Penalty>
0.00133382

> <i_epik_Tot_Q>
0

> <i_epik_Tot_abs_Q>
0

> <r_epik_Metal_State_Penalty>
-0

> <b_epik_Metal_Only>
0

> <s_lp_Force_Field>
OPLS_2005

> <r_lp_Energy>
44.3218

> <b_lp_Chiralities_Consistent>
1

> <s_lp_Variant>
AV-unprocessed.smi:1747-1

> <Gold.Version>
5.8.1

> <Gold.Id.Protein>
6NUR|6NUR_protein|mol2

> <Gold.PLP.Fitness>
45.4251

> <Gold.PLP.PLP>
-39.0135

> <Gold.PLP.part.hbond>
-2.0774

> <Gold.PLP.part.metal>
0.0000

> <Gold.PLP.part.buried>
-5.9772

> <Gold.PLP.part.nonpolar>
-30.9896

> <Gold.PLP.part.repulsive>
0.2657

> <Gold.PLP.ligand.clash>
0.0000

> <Gold.PLP.ligand.torsion>
0.4448

> <Gold.PLP.Chemscore.Hbond>
1.4480

> <Gold.PLP.Chemscore.CHOScore>
0.9791

> <Gold.PLP.Chemscore.Metal>
0.0000

> <Gold.Chemscore.Hbonds>
donor molecule, donor type, donor heavy atom, donor atom, acceptor molecule, acceptor atom, score
      P1  H  7989  7998       L1     9  1.00

> <Gold.PLP.Chemscore.Internal.Correction>
0.0199

> <Gold.Rescore>
     Score         DG    S(hbond)    S(metal)    S(lipo)     H(rot)  DE(clash)    DE(int)     intcor
     16.39     -18.26       1.32        0.00     101.82       1.38       1.45       0.42       ----

> <Gold.Chemscore.Fitness>
16.3884

> <Gold.Chemscore.DG>
-18.2622

> <Gold.Chemscore.ZeroCoef>
-5.4800

> <Gold.Chemscore.Hbond>
1.3169

> <Gold.Chemscore.Metal>
0.0000

> <Gold.Chemscore.Lipo>
101.8208

> <Gold.Chemscore.Internal_Hbond>
0.0000

> <Gold.Chemscore.DEClash>
1.4517

> <Gold.Chemscore.DEInternal>
0.4220

> <Gold.Chemscore.Rot>
1.3786

> <Gold.Chemscore.Internal.Correction>
   9.000000E+99

> <Gold.Chemscore.Hbonds>
donor molecule, donor type, donor heavy atom, donor atom, acceptor molecule, acceptor atom, score
      P1  H  7989  7998       L1     9  1.00

> <Gold.Chemscore.Hbond.Weighted>
-4.3983

> <Gold.Chemscore.Metal.Weighted>
-0.0000

> <Gold.Chemscore.Lipo.Weighted>
-11.9130

> <Gold.Chemscore.Internal_Hbond.Weighted>
0.0000

> <Gold.Chemscore.DEClash.Weighted>
1.4517

> <Gold.Chemscore.DEInternal.Weighted>
0.4220

> <Gold.Chemscore.Rot.Weighted>
3.5291

> <Gold.Chemscore.Internal.Correction.Weighted>
   9.000000E+99

> <Gold.Protein.RotatedTorsions>
[ 6907 6896 6895 6894 ] final -179.57 input  -60.11 | X-H torsion
[ 7974 7965 7964 7962 ] final -135.99 input  175.53 | X-H torsion
[ 8008 7997 7996 7995 ] final    8.94 input   59.86 | X-H torsion
[ 10167 10162 10161 10158 ] final  173.87 input  -65.29 | X-H torsion
[ 10718 10713 10712 10709 ] final   93.62 input   66.30 | X-H torsion
[ 10763 10752 10751 10750 ] final  -39.14 input  -60.55 | X-H torsion
[ 11005 11000 10999 10996 ] final   86.16 input  -57.11 | X-H torsion

> <Gold.Protein.ActiveResidues>
 VAL166  LYS551  ARG553  GLY616  TRP617  ASP618  TYR619  PRO620  LYS621  CYS622 
 ASP623  PHE694  ASN695  SER759  ASP760  ASP761  ALA762  ILE779  LEU786  VAL792 
 PHE793  MET794  SER795  GLU796  ALA797  LYS798  CYS799  TRP800  GLU811  SER814 

> <Gold.Protein.RotatedAtoms>
  151.6556  133.3319  159.3161 H   0  0  0  0  0  0  0  0  0  0  0  0  # atno 6907 bound_to 6896
  150.7939  134.6987  159.6547 H   0  0  0  0  0  0  0  0  0  0  0  0  # atno 6908 bound_to 6896
  152.4023  134.6270  160.0117 H   0  0  0  0  0  0  0  0  0  0  0  0  # atno 6909 bound_to 6896
  144.8965  140.6714  143.5112 H   0  0  0  0  0  0  0  0  0  0  0  0  # atno 7974 bound_to 7965
  154.7735  140.2806  155.6119 H   0  0  0  0  0  0  0  0  0  0  0  0  # atno 8008 bound_to 7997
  156.2938  140.2637  156.2470 H   0  0  0  0  0  0  0  0  0  0  0  0  # atno 8009 bound_to 7997
  154.9871  140.0374  157.2293 H   0  0  0  0  0  0  0  0  0  0  0  0  # atno 8010 bound_to 7997
  139.5123  144.3211  152.0202 H   0  0  0  0  0  0  0  0  0  0  0  0  # atno 10167 bound_to 10162
  157.6953  131.0484  150.4061 H   0  0  0  0  0  0  0  0  0  0  0  0  # atno 10718 bound_to 10713
  153.9245  135.6778  153.4747 H   0  0  0  0  0  0  0  0  0  0  0  0  # atno 10763 bound_to 10752
  153.1011  135.4827  154.8866 H   0  0  0  0  0  0  0  0  0  0  0  0  # atno 10764 bound_to 10752
  154.7460  135.3172  154.8600 H   0  0  0  0  0  0  0  0  0  0  0  0  # atno 10765 bound_to 10752
  139.8952  134.8336  156.2682 H   0  0  0  0  0  0  0  0  0  0  0  0  # atno 11005 bound_to 11000
  145.3690  139.1663  143.4342 LP  0  0  0  0  0  0  0  0  0  0  0  0  # atno 17320 bound_to 7965
  146.3084  140.3760  142.8679 LP  0  0  0  0  0  0  0  0  0  0  0  0  # atno 17321 bound_to 7965
  140.2653  144.4023  150.6171 LP  0  0  0  0  0  0  0  0  0  0  0  0  # atno 17342 bound_to 10162
  140.6128  143.2170  151.6852 LP  0  0  0  0  0  0  0  0  0  0  0  0  # atno 17343 bound_to 10162
  156.4450  130.3999  149.6672 LP  0  0  0  0  0  0  0  0  0  0  0  0  # atno 17370 bound_to 10713
  156.3842  130.7594  151.2590 LP  0  0  0  0  0  0  0  0  0  0  0  0  # atno 17371 bound_to 10713
  141.0118  133.7091  156.1124 LP  0  0  0  0  0  0  0  0  0  0  0  0  # atno 17394 bound_to 11000
  140.7357  134.4206  157.5561 LP  0  0  0  0  0  0  0  0  0  0  0  0  # atno 17395 bound_to 11000

$$$$
