AV-unprocessed.smi:758|AV-procd|sdf|3618|dock2
  -GOLD-   22720 1 13D 1   1.00000     0.00000
 Structure written by MMmdl.
 47 48  0  0  0  0  0  0  0  0  1 V2000
  148.1591  135.2287  155.3016 C   0  0  0  0  0  0  0  0  0  0  0  0
  149.2946  136.1630  155.7743 C   0  0  0  0  0  0  0  0  0  0  0  0
  149.1227  136.4100  157.2897 C   0  0  0  0  0  0  0  0  0  0  0  0
  150.6402  135.4255  155.5928 C   0  0  0  0  0  0  0  0  0  0  0  0
  149.3102  137.5242  154.9942 C   0  0  2  0  0  0  0  0  0  0  0  0
  150.4543  138.4856  155.4109 C   0  0  0  0  0  0  0  0  0  0  0  0
  150.4660  139.7826  154.5799 C   0  0  0  0  0  0  0  0  0  0  0  0
  149.1160  140.5306  154.6141 C   0  0  2  0  0  0  0  0  0  0  0  0
  149.2105  141.5641  153.6517 O   0  0  0  0  0  0  0  0  0  0  0  0
  148.8788  141.2222  155.9829 C   0  0  0  0  0  0  0  0  0  0  0  0
  149.7643  142.3651  156.1981 N   0  0  0  0  0  0  0  0  0  0  0  0
  150.8119  142.4050  157.0371 C   0  0  0  0  0  0  0  0  0  0  0  0
  151.1671  141.4542  157.7332 O   0  0  0  0  0  0  0  0  0  0  0  0
  151.5746  143.7285  157.1098 C   0  0  0  0  0  0  0  0  0  0  0  0
  151.4605  144.3299  158.4260 N   0  0  0  0  0  0  0  0  0  0  0  0
  150.7650  145.3914  158.8387 C   0  0  0  0  0  0  0  0  0  0  0  0
  150.9074  145.6563  160.1297 N   0  0  0  0  0  0  0  0  0  0  0  0
  151.7628  144.6487  160.4761 C   0  0  0  0  0  0  0  0  0  0  0  0
  152.1255  143.8256  159.4921 N   0  0  0  0  0  0  0  0  0  0  0  0
  147.9955  139.5637  154.1713 C   0  0  0  0  0  0  0  0  0  0  0  0
  147.9603  138.2871  155.0271 C   0  0  0  0  0  0  0  0  0  0  0  0
  148.1597  134.2970  155.8685 H   0  0  0  0  0  0  0  0  0  0  0  0
  148.2621  134.9574  154.2513 H   0  0  0  0  0  0  0  0  0  0  0  0
  147.1759  135.6794  155.4331 H   0  0  0  0  0  0  0  0  0  0  0  0
  148.1320  136.7925  157.5345 H   0  0  0  0  0  0  0  0  0  0  0  0
  149.8586  137.1225  157.6640 H   0  0  0  0  0  0  0  0  0  0  0  0
  149.2444  135.4876  157.8588 H   0  0  0  0  0  0  0  0  0  0  0  0
  150.6925  134.5356  156.2213 H   0  0  0  0  0  0  0  0  0  0  0  0
  151.4838  136.0621  155.8618 H   0  0  0  0  0  0  0  0  0  0  0  0
  150.7919  135.0862  154.5687 H   0  0  0  0  0  0  0  0  0  0  0  0
  149.4935  137.2741  153.9478 H   0  0  0  0  0  0  0  0  0  0  0  0
  150.3804  138.7305  156.4693 H   0  0  0  0  0  0  0  0  0  0  0  0
  151.4239  138.0075  155.2802 H   0  0  0  0  0  0  0  0  0  0  0  0
  151.2695  140.4340  154.9259 H   0  0  0  0  0  0  0  0  0  0  0  0
  150.7128  139.5237  153.5486 H   0  0  0  0  0  0  0  0  0  0  0  0
  149.2948  141.1708  152.7965 H   0  0  0  0  0  0  0  0  0  0  0  0
  147.8394  141.5372  156.0714 H   0  0  0  0  0  0  0  0  0  0  0  0
  149.0352  140.5129  156.7966 H   0  0  0  0  0  0  0  0  0  0  0  0
  149.5471  143.2022  155.6770 H   0  0  0  0  0  0  0  0  0  0  0  0
  152.6296  143.5658  156.8850 H   0  0  0  0  0  0  0  0  0  0  0  0
  151.1906  144.4233  156.3611 H   0  0  0  0  0  0  0  0  0  0  0  0
  150.1446  145.9832  158.1817 H   0  0  0  0  0  0  0  0  0  0  0  0
  152.1296  144.5177  161.4836 H   0  0  0  0  0  0  0  0  0  0  0  0
  147.0213  140.0522  154.1896 H   0  0  0  0  0  0  0  0  0  0  0  0
  148.1563  139.2755  153.1314 H   0  0  0  0  0  0  0  0  0  0  0  0
  147.1512  137.6612  154.6543 H   0  0  0  0  0  0  0  0  0  0  0  0
  147.6964  138.5508  156.0503 H   0  0  0  0  0  0  0  0  0  0  0  0
  1  2  1  0  0  0  0
  1 22  1  0  0  0  0
  1 23  1  0  0  0  0
  1 24  1  0  0  0  0
  2  3  1  0  0  0  0
  2  4  1  0  0  0  0
  2  5  1  0  0  0  0
  3 25  1  0  0  0  0
  3 26  1  0  0  0  0
  3 27  1  0  0  0  0
  4 28  1  0  0  0  0
  4 29  1  0  0  0  0
  4 30  1  0  0  0  0
  5 21  1  0  0  0  0
  5  6  1  0  0  0  0
  5 31  1  0  0  0  0
  6  7  1  0  0  0  0
  6 32  1  0  0  0  0
  6 33  1  0  0  0  0
  7  8  1  0  0  0  0
  7 34  1  0  0  0  0
  7 35  1  0  0  0  0
  8  9  1  0  0  0  0
  8 10  1  0  0  0  0
  8 20  1  0  0  0  0
  9 36  1  0  0  0  0
 10 11  1  0  0  0  0
 10 37  1  0  0  0  0
 10 38  1  0  0  0  0
 11 12  1  0  0  0  0
 11 39  1  0  0  0  0
 12 13  2  0  0  0  0
 12 14  1  0  0  0  0
 14 15  1  0  0  0  0
 14 40  1  0  0  0  0
 14 41  1  0  0  0  0
 15 19  1  0  0  0  0
 15 16  1  0  0  0  0
 16 17  2  0  0  0  0
 16 42  1  0  0  0  0
 17 18  1  0  0  0  0
 18 19  2  0  0  0  0
 18 43  1  0  0  0  0
 20 21  1  0  0  0  0
 20 44  1  0  0  0  0
 20 45  1  0  0  0  0
 21 46  1  0  0  0  0
 21 47  1  0  0  0  0
M  END
> <s_m_source_file>
AV-unprocessed.smi

> <i_m_source_file_index>
758

> <i_lp_mmshare_version>
43012

> <i_f3d_flags>
0

> <s_epik_input>
W0NIM11DKFtDSDNdKShbQ0gzXSlbQ0BASF0oW0NIMl1bQ0gyXTEpW0NIMl1bQ0gyXVtDQEBdMShbT0hdKVtDSDJdW05IXUMoPU8pW0NIMl1uMltjSF1uW2NIXW4y

> <s_epik_cmdline>
J2VwaWtfcHl0aG9uJywgJy1waCcsICc3LjAnLCAnLXRuJywgJzgnLCAnLW1hJywgJzIwMCcsICctbWV0YWxfYmluZGluZycsICctaW1hZScsICc8aW5maWxlLm1hZT4nLCAnLW9tYWUnLCAnPG91dGZpbGUubWFlPic=

> <r_lp_tautomer_probability>
1

> <r_epik_Ionization_Penalty>
1.04836e-05

> <r_epik_Ionization_Penalty_Charging>
0

> <r_epik_Ionization_Penalty_Neutral>
1.04836e-05

> <r_epik_State_Penalty>
-0

> <r_epik_Charging_Adjusted_Penalty>
0

> <i_epik_Tot_Q>
0

> <i_epik_Tot_abs_Q>
0

> <r_epik_Metal_State_Penalty>
-0

> <b_epik_Metal_Only>
0

> <s_lp_Force_Field>
OPLS_2005

> <r_lp_Energy>
24.1988

> <b_lp_Chiralities_Consistent>
1

> <s_lp_Variant>
AV-unprocessed.smi:758-2

> <Gold.Version>
5.8.1

> <Gold.Id.Protein>
6NUR|6NUR_protein|mol2

> <Gold.PLP.Fitness>
42.3110

> <Gold.PLP.PLP>
-34.0451

> <Gold.PLP.part.hbond>
-4.2393

> <Gold.PLP.part.metal>
0.0000

> <Gold.PLP.part.buried>
-4.3460

> <Gold.PLP.part.nonpolar>
-26.6164

> <Gold.PLP.part.repulsive>
0.3340

> <Gold.PLP.ligand.clash>
0.0000

> <Gold.PLP.ligand.torsion>
0.4023

> <Gold.PLP.Chemscore.Hbond>
2.0000

> <Gold.PLP.Chemscore.CHOScore>
1.0000

> <Gold.PLP.Chemscore.Metal>
0.0000

> <Gold.Chemscore.Hbonds>
donor molecule, donor type, donor heavy atom, donor atom, acceptor molecule, acceptor atom, score
      L1  H     9    36       P1  7957  1.00
      L1  H    11    39       P1  8028  0.98
      L1  C    16    42       P1  8029  1.00

> <Gold.PLP.Chemscore.Internal.Correction>
0.0704

> <Gold.Rescore>
     Score         DG    S(hbond)    S(metal)    S(lipo)     H(rot)  DE(clash)    DE(int)     intcor
     10.35     -11.17       1.98        0.00      61.44       3.17       0.35       0.47       ----

> <Gold.Chemscore.Fitness>
10.3546

> <Gold.Chemscore.DG>
-11.1664

> <Gold.Chemscore.ZeroCoef>
-5.4800

> <Gold.Chemscore.Hbond>
1.9773

> <Gold.Chemscore.Metal>
0.0000

> <Gold.Chemscore.Lipo>
61.4356

> <Gold.Chemscore.Internal_Hbond>
0.0000

> <Gold.Chemscore.DEClash>
0.3465

> <Gold.Chemscore.DEInternal>
0.4653

> <Gold.Chemscore.Rot>
3.1663

> <Gold.Chemscore.Internal.Correction>
   9.000000E+99

> <Gold.Chemscore.Hbonds>
donor molecule, donor type, donor heavy atom, donor atom, acceptor molecule, acceptor atom, score
      L1  H     9    36       P1  7957  0.96
      L1  H    11    39       P1  8028  0.93

> <Gold.Chemscore.Hbond.Weighted>
-6.6040

> <Gold.Chemscore.Metal.Weighted>
-0.0000

> <Gold.Chemscore.Lipo.Weighted>
-7.1880

> <Gold.Chemscore.Internal_Hbond.Weighted>
0.0000

> <Gold.Chemscore.DEClash.Weighted>
0.3465

> <Gold.Chemscore.DEInternal.Weighted>
0.4653

> <Gold.Chemscore.Rot.Weighted>
8.1056

> <Gold.Chemscore.Internal.Correction.Weighted>
   9.000000E+99

> <Gold.Protein.RotatedTorsions>
[ 6907 6896 6895 6894 ] final  166.52 input  -60.11 | X-H torsion
[ 7974 7965 7964 7962 ] final  -26.29 input  175.53 | X-H torsion
[ 8008 7997 7996 7995 ] final -145.68 input   59.86 | X-H torsion
[ 10167 10162 10161 10158 ] final   96.65 input  -65.29 | X-H torsion
[ 10718 10713 10712 10709 ] final -135.82 input   66.30 | X-H torsion
[ 10763 10752 10751 10750 ] final  -44.59 input  -60.55 | X-H torsion
[ 11005 11000 10999 10996 ] final  126.89 input  -57.11 | X-H torsion

> <Gold.Protein.ActiveResidues>
 VAL166  LYS551  ARG553  GLY616  TRP617  ASP618  TYR619  PRO620  LYS621  CYS622 
 ASP623  PHE694  ASN695  SER759  ASP760  ASP761  ALA762  ILE779  LEU786  VAL792 
 PHE793  MET794  SER795  GLU796  ALA797  LYS798  CYS799  TRP800  GLU811  SER814 

> <Gold.Protein.RotatedAtoms>
  151.8777  133.3488  159.3755 H   0  0  0  0  0  0  0  0  0  0  0  0  # atno 6907 bound_to 6896
  150.7136  134.5050  159.5589 H   0  0  0  0  0  0  0  0  0  0  0  0  # atno 6908 bound_to 6896
  152.2595  134.8049  160.0484 H   0  0  0  0  0  0  0  0  0  0  0  0  # atno 6909 bound_to 6896
  146.1435  140.5000  142.8642 H   0  0  0  0  0  0  0  0  0  0  0  0  # atno 7974 bound_to 7965
  155.5471  140.0613  157.2858 H   0  0  0  0  0  0  0  0  0  0  0  0  # atno 8008 bound_to 7997
  154.4433  140.1909  156.0693 H   0  0  0  0  0  0  0  0  0  0  0  0  # atno 8009 bound_to 7997
  156.0543  140.3280  155.7391 H   0  0  0  0  0  0  0  0  0  0  0  0  # atno 8010 bound_to 7997
  139.7874  144.6865  150.9938 H   0  0  0  0  0  0  0  0  0  0  0  0  # atno 10167 bound_to 10162
  156.2703  130.7262  151.1226 H   0  0  0  0  0  0  0  0  0  0  0  0  # atno 10718 bound_to 10713
  154.0146  135.6677  153.4768 H   0  0  0  0  0  0  0  0  0  0  0  0  # atno 10763 bound_to 10752
  153.0606  135.5030  154.8080 H   0  0  0  0  0  0  0  0  0  0  0  0  # atno 10764 bound_to 10752
  154.6975  135.3072  154.9354 H   0  0  0  0  0  0  0  0  0  0  0  0  # atno 10765 bound_to 10752
  139.9479  134.9627  156.8774 H   0  0  0  0  0  0  0  0  0  0  0  0  # atno 11005 bound_to 11000
  144.7819  140.5858  143.6599 LP  0  0  0  0  0  0  0  0  0  0  0  0  # atno 17320 bound_to 7965
  145.4992  139.1484  143.3667 LP  0  0  0  0  0  0  0  0  0  0  0  0  # atno 17321 bound_to 7965
  140.7820  143.4417  151.0542 LP  0  0  0  0  0  0  0  0  0  0  0  0  # atno 17342 bound_to 10162
  139.8095  143.7971  152.3170 LP  0  0  0  0  0  0  0  0  0  0  0  0  # atno 17343 bound_to 10162
  157.7281  131.0634  150.5833 LP  0  0  0  0  0  0  0  0  0  0  0  0  # atno 17370 bound_to 10713
  156.5929  130.4334  149.5929 LP  0  0  0  0  0  0  0  0  0  0  0  0  # atno 17371 bound_to 10713
  140.5789  134.0371  155.7457 LP  0  0  0  0  0  0  0  0  0  0  0  0  # atno 17394 bound_to 11000
  141.1135  133.9578  157.2867 LP  0  0  0  0  0  0  0  0  0  0  0  0  # atno 17395 bound_to 11000

$$$$
