#       Name:                AV-unprocessed.smi:2080
#       Creating user name   scv26
#       Creation time:       Fri Mar 27 11:19:29 2020


#       File generated by GOLD software.
#

@<TRIPOS>MOLECULE
AV-unprocessed.smi:2080
    56    58     1
SMALL
NO_CHARGES


@<TRIPOS>ATOM
      1 ****         1.0798   0.5490  -0.1924 O.2            1 S1                 0.0000
      2 ****         0.6875  -0.4627  -0.7736 C.2            1 S1                 0.0000
      3 ****         1.4951  -1.4750  -1.1206 N.am           1 S1                 0.0000
      4 ****         2.9287  -1.5265  -0.8573 C.3            1 S1                 0.0000
      5 ****         3.2216  -1.9392   0.5965 C.3            1 S1                 0.0000
      6 ****         4.7079  -2.0579   0.8902 C.2            1 S1                 0.0000
      7 ****         5.3003  -3.2521   1.0859 C.2            1 S1                 0.0000
      8 ****         6.7683  -3.4303   1.4304 C.3            1 S1                 0.0000
      9 ****         7.4217  -2.1188   1.8968 C.3            1 S1                 0.0000
     10 ****         7.0063  -0.9455   1.0013 C.3            1 S1                 0.0000
     11 ****         5.4799  -0.7473   1.0032 C.3            1 S1                 0.0000
     12 ****        -0.5790  -0.6951  -1.1591 N.am           1 S1                 0.0000
     13 ****        -1.7276   0.1154  -0.9509 C.ar           1 S1                 0.0000
     14 ****        -1.8447   1.0824   0.0740 C.ar           1 S1                 0.0000
     15 ****        -3.0441   1.8100   0.1920 C.ar           1 S1                 0.0000
     16 ****        -4.1035   1.5516  -0.7093 C.ar           1 S1                 0.0000
     17 ****        -5.3141   2.2712  -0.6076 N.3            1 S1                 0.0000
     18 ****        -5.9407   2.2757   0.7119 C.3            1 S1                 0.0000
     19 ****        -7.0592   3.3307   0.7710 C.3            1 S1                 0.0000
     20 ****        -7.9895   3.1085  -0.2834 O.3            1 S1                 0.0000
     21 ****        -7.3760   3.2216  -1.5629 C.3            1 S1                 0.0000
     22 ****        -6.2735   2.1588  -1.7045 C.3            1 S1                 0.0000
     23 ****        -3.9897   0.6184  -1.6862 N.ar           1 S1                 0.0000
     24 ****        -2.8394  -0.0787  -1.7940 C.ar           1 S1                 0.0000
     25 ****         1.0912  -2.2662  -1.6005 H              1 S1                 0.0000
     26 ****         3.3723  -2.2489  -1.5431 H              1 S1                 0.0000
     27 ****         3.3775  -0.5607  -1.0925 H              1 S1                 0.0000
     28 ****         2.7890  -1.2213   1.2944 H              1 S1                 0.0000
     29 ****         2.7377  -2.8947   0.8031 H              1 S1                 0.0000
     30 ****         4.7227  -4.1602   0.9926 H              1 S1                 0.0000
     31 ****         6.8660  -4.1889   2.2071 H              1 S1                 0.0000
     32 ****         7.2785  -3.8130   0.5462 H              1 S1                 0.0000
     33 ****         7.1228  -1.9075   2.9245 H              1 S1                 0.0000
     34 ****         8.5068  -2.2254   1.9061 H              1 S1                 0.0000
     35 ****         7.5004  -0.0286   1.3235 H              1 S1                 0.0000
     36 ****         7.3460  -1.1365  -0.0175 H              1 S1                 0.0000
     37 ****         5.2072  -0.0761   0.1895 H              1 S1                 0.0000
     38 ****         5.1713  -0.2577   1.9273 H              1 S1                 0.0000
     39 ****        -0.7311  -1.5285  -1.7083 H              1 S1                 0.0000
     40 ****        -1.0490   1.2734   0.7768 H              1 S1                 0.0000
     41 ****        -3.1316   2.5611   0.9626 H              1 S1                 0.0000
     42 ****        -6.3526   1.2851   0.9084 H              1 S1                 0.0000
     43 ****        -5.2196   2.4804   1.5017 H              1 S1                 0.0000
     44 ****        -7.5839   3.2677   1.7244 H              1 S1                 0.0000
     45 ****        -6.6472   4.3387   0.7009 H              1 S1                 0.0000
     46 ****        -8.1333   3.0811  -2.3342 H              1 S1                 0.0000
     47 ****        -6.9683   4.2250  -1.6959 H              1 S1                 0.0000
     48 ****        -5.7692   2.2884  -2.6630 H              1 S1                 0.0000
     49 ****        -6.7136   1.1607  -1.6985 H              1 S1                 0.0000
     50 ****        -2.8062  -0.8135  -2.5852 H              1 S1                 0.0000
     51 ****         2.0463   0.6462   0.0449 LP             1 S1                 0.0000
     52 ****         0.4320   1.2737   0.0424 LP             1 S1                 0.0000
     53 ****        -4.9531   3.1950  -0.7356 LP             1 S1                 0.0000
     54 ****        -8.7232   3.7846  -0.2155 LP             1 S1                 0.0000
     55 ****        -8.3729   2.1899  -0.1885 LP             1 S1                 0.0000
     56 ****        -4.7468   0.4493  -2.3173 LP             1 S1                 0.0000
@<TRIPOS>BOND
    1    1    2 2     
    2    2    3 am    
    3    2   12 am    
    4    3    4 1     
    5    3   25 1     
    6    4    5 1     
    7    4   26 1     
    8    4   27 1     
    9    5    6 1     
   10    5   28 1     
   11    5   29 1     
   12    6   11 1     
   13    6    7 2     
   14    7    8 1     
   15    7   30 1     
   16    8    9 1     
   17    8   31 1     
   18    8   32 1     
   19    9   10 1     
   20    9   33 1     
   21    9   34 1     
   22   10   11 1     
   23   10   35 1     
   24   10   36 1     
   25   11   37 1     
   26   11   38 1     
   27   12   13 1     
   28   12   39 1     
   29   13   24 ar    
   30   13   14 ar    
   31   14   15 ar    
   32   14   40 1     
   33   15   16 ar    
   34   15   41 1     
   35   16   17 1     
   36   16   23 ar    
   37   17   22 1     
   38   17   18 1     
   39   18   19 1     
   40   18   42 1     
   41   18   43 1     
   42   19   20 1     
   43   19   44 1     
   44   19   45 1     
   45   20   21 1     
   46   21   22 1     
   47   21   46 1     
   48   21   47 1     
   49   22   48 1     
   50   22   49 1     
   51   23   24 ar    
   52   24   50 1     
   53    1   51 1     
   54    1   52 1     
   55   17   53 1     
   56   20   54 1     
   57   20   55 1     
   58   23   56 1     
@<TRIPOS>SUBSTRUCTURE
      1 S1             1
@<TRIPOS>SET
LONE_PAIRS      STATIC     ATOMS    <user>   **** ""
6 51 52 53 54 55 56
DONOR_HYDROGENS      STATIC     ATOMS    <user>   **** ""
2 25 39
ATOM$BLUE        STATIC     ATOMS    COLORGROUP SYSTEM
6 51 52 53 54 55 56
ATOM$RED        STATIC     ATOMS    COLORGROUP SYSTEM
2 25 39
