AV-unprocessed.smi:2428|AV-procd|sdf|9580|dock6
  -GOLD-   2272013213D 1   1.00000     0.00000
 Structure written by MMmdl.
 30 31  0  0  0  0  0  0  0  0  1 V2000
  152.2521  144.8006  158.3115 F   0  0  0  0  0  0  0  0  0  0  0  0
  151.6424  144.0229  159.2064 C   0  0  0  0  0  0  0  0  0  0  0  0
  152.3632  144.0271  160.3282 F   0  0  0  0  0  0  0  0  0  0  0  0
  150.4394  144.5320  159.4689 F   0  0  0  0  0  0  0  0  0  0  0  0
  151.4823  142.6184  158.6478 C   0  0  0  0  0  0  0  0  0  0  0  0
  152.0577  141.5158  159.3117 C   0  0  0  0  0  0  0  0  0  0  0  0
  151.8951  140.2274  158.7670 C   0  0  0  0  0  0  0  0  0  0  0  0
  151.1597  140.0818  157.5724 C   0  0  0  0  0  0  0  0  0  0  0  0
  151.0014  138.7953  157.0367 N   0  0  0  0  0  0  0  0  0  0  0  0
  151.2833  137.6075  157.8339 C   0  0  0  0  0  0  0  0  0  0  0  0
  151.6848  136.4035  156.9656 C   0  0  2  0  0  0  0  0  0  0  0  0
  150.7852  136.2053  155.7488 C   0  0  0  0  0  0  0  0  0  0  0  0
  150.9790  134.7373  155.4082 C   0  0  0  0  0  0  0  0  0  0  0  0
  151.5220  134.1259  156.7034 C   0  0  0  0  0  0  0  0  0  0  0  0
  151.5021  135.1786  157.6583 O   0  0  0  0  0  0  0  0  0  0  0  0
  150.6141  141.1383  156.9249 N   0  0  0  0  0  0  0  0  0  0  0  0
  150.7720  142.3708  157.4531 C   0  0  0  0  0  0  0  0  0  0  0  0
  152.6165  141.6541  160.2256 H   0  0  0  0  0  0  0  0  0  0  0  0
  152.3264  139.3693  159.2618 H   0  0  0  0  0  0  0  0  0  0  0  0
  150.9904  138.6934  156.0323 H   0  0  0  0  0  0  0  0  0  0  0  0
  152.0352  137.8091  158.5974 H   0  0  0  0  0  0  0  0  0  0  0  0
  150.3666  137.3657  158.3720 H   0  0  0  0  0  0  0  0  0  0  0  0
  152.7247  136.4879  156.6436 H   0  0  0  0  0  0  0  0  0  0  0  0
  149.7435  136.3837  156.0191 H   0  0  0  0  0  0  0  0  0  0  0  0
  151.0381  136.8706  154.9230 H   0  0  0  0  0  0  0  0  0  0  0  0
  150.0433  134.2740  155.0943 H   0  0  0  0  0  0  0  0  0  0  0  0
  151.7020  134.6156  154.6011 H   0  0  0  0  0  0  0  0  0  0  0  0
  150.9241  133.2824  157.0489 H   0  0  0  0  0  0  0  0  0  0  0  0
  152.5479  133.7822  156.5650 H   0  0  0  0  0  0  0  0  0  0  0  0
  150.3176  143.1779  156.8982 H   0  0  0  0  0  0  0  0  0  0  0  0
  1  2  1  0  0  0  0
  2  3  1  0  0  0  0
  2  4  1  0  0  0  0
  2  5  1  0  0  0  0
  5 17  1  0  0  0  0
  5  6  2  0  0  0  0
  6  7  1  0  0  0  0
  6 18  1  0  0  0  0
  7  8  2  0  0  0  0
  7 19  1  0  0  0  0
  8  9  1  0  0  0  0
  8 16  1  0  0  0  0
  9 10  1  0  0  0  0
  9 20  1  0  0  0  0
 10 11  1  0  0  0  0
 10 21  1  0  0  0  0
 10 22  1  0  0  0  0
 11 15  1  0  0  0  0
 11 12  1  0  0  0  0
 11 23  1  0  0  0  0
 12 13  1  0  0  0  0
 12 24  1  0  0  0  0
 12 25  1  0  0  0  0
 13 14  1  0  0  0  0
 13 26  1  0  0  0  0
 13 27  1  0  0  0  0
 14 15  1  0  0  0  0
 14 28  1  0  0  0  0
 14 29  1  0  0  0  0
 16 17  2  0  0  0  0
 17 30  1  0  0  0  0
M  END
> <s_m_source_file>
AV-unprocessed.smi

> <i_m_source_file_index>
2428

> <i_lp_mmshare_version>
43012

> <i_f3d_flags>
0

> <s_epik_input>
RkMoRikoRiljMVtjSF1bY0hdYyhuW2NIXTEpW05IXVtDSDJdW0NAQEhdMltDSDJdW0NIMl1bQ0gyXU8y

> <s_epik_cmdline>
J2VwaWtfcHl0aG9uJywgJy1waCcsICc3LjAnLCAnLXRuJywgJzgnLCAnLW1hJywgJzIwMCcsICctbWV0YWxfYmluZGluZycsICctaW1hZScsICc8aW5maWxlLm1hZT4nLCAnLW9tYWUnLCAnPG91dGZpbGUubWFlPic=

> <r_lp_tautomer_probability>
1

> <r_epik_Ionization_Penalty>
0.000819842

> <r_epik_Ionization_Penalty_Charging>
0

> <r_epik_Ionization_Penalty_Neutral>
0.000819842

> <r_epik_State_Penalty>
0.000527207

> <r_epik_Charging_Adjusted_Penalty>
0.000527207

> <i_epik_Tot_Q>
0

> <i_epik_Tot_abs_Q>
0

> <r_epik_Metal_State_Penalty>
-0

> <b_epik_Metal_Only>
0

> <s_lp_Force_Field>
OPLS_2005

> <r_lp_Energy>
19.3564

> <b_lp_Chiralities_Consistent>
1

> <s_lp_Variant>
AV-unprocessed.smi:2428-1

> <Gold.Version>
5.8.1

> <Gold.Id.Protein>
6NUR|6NUR_protein|mol2

> <Gold.PLP.Fitness>
35.6363

> <Gold.PLP.PLP>
-33.3643

> <Gold.PLP.part.hbond>
-1.0000

> <Gold.PLP.part.metal>
0.0000

> <Gold.PLP.part.buried>
-5.4732

> <Gold.PLP.part.nonpolar>
-27.6807

> <Gold.PLP.part.repulsive>
0.0520

> <Gold.PLP.ligand.clash>
0.8545

> <Gold.PLP.ligand.torsion>
0.3819

> <Gold.PLP.Chemscore.Hbond>
0.2860

> <Gold.PLP.Chemscore.CHOScore>
1.0000

> <Gold.PLP.Chemscore.Metal>
0.0000

> <Gold.Chemscore.Hbonds>
donor molecule, donor type, donor heavy atom, donor atom, acceptor molecule, acceptor atom, score
      P1  H  6896  6907       L1    15  0.01
      L1  C    17    30       P1  8028  1.00

> <Gold.PLP.Chemscore.Internal.Correction>
0.0324

> <Gold.Rescore>
     Score         DG    S(hbond)    S(metal)    S(lipo)     H(rot)  DE(clash)    DE(int)     intcor
     10.07     -10.72       0.00        0.00      72.16       1.25       0.02       0.63       ----

> <Gold.Chemscore.Fitness>
10.0662

> <Gold.Chemscore.DG>
-10.7187

> <Gold.Chemscore.ZeroCoef>
-5.4800

> <Gold.Chemscore.Hbond>
0.0000

> <Gold.Chemscore.Metal>
0.0000

> <Gold.Chemscore.Lipo>
72.1560

> <Gold.Chemscore.Internal_Hbond>
0.0000

> <Gold.Chemscore.DEClash>
0.0228

> <Gold.Chemscore.DEInternal>
0.6297

> <Gold.Chemscore.Rot>
1.2514

> <Gold.Chemscore.Internal.Correction>
   9.000000E+99

> <Gold.Chemscore.Hbonds>
donor molecule, donor type, donor heavy atom, donor atom, acceptor molecule, acceptor atom, score
      P1  H  6896  6907       L1    15  0.04

> <Gold.Chemscore.Hbond.Weighted>
-0.0000

> <Gold.Chemscore.Metal.Weighted>
-0.0000

> <Gold.Chemscore.Lipo.Weighted>
-8.4423

> <Gold.Chemscore.Internal_Hbond.Weighted>
0.0000

> <Gold.Chemscore.DEClash.Weighted>
0.0228

> <Gold.Chemscore.DEInternal.Weighted>
0.6297

> <Gold.Chemscore.Rot.Weighted>
3.2036

> <Gold.Chemscore.Internal.Correction.Weighted>
   9.000000E+99

> <Gold.Protein.RotatedTorsions>
[ 6907 6896 6895 6894 ] final  -68.97 input  -60.11 | X-H torsion
[ 7974 7965 7964 7962 ] final  167.69 input  175.53 | X-H torsion
[ 8008 7997 7996 7995 ] final   77.06 input   59.86 | X-H torsion
[ 10167 10162 10161 10158 ] final  154.96 input  -65.29 | X-H torsion
[ 10718 10713 10712 10709 ] final -147.45 input   66.30 | X-H torsion
[ 10763 10752 10751 10750 ] final   -1.42 input  -60.55 | X-H torsion
[ 11005 11000 10999 10996 ] final  148.37 input  -57.11 | X-H torsion

> <Gold.Protein.ActiveResidues>
 VAL166  LYS551  ARG553  GLY616  TRP617  ASP618  TYR619  PRO620  LYS621  CYS622 
 ASP623  PHE694  ASN695  SER759  ASP760  ASP761  ALA762  ILE779  LEU786  VAL792 
 PHE793  MET794  SER795  GLU796  ALA797  LYS798  CYS799  TRP800  GLU811  SER814 

> <Gold.Protein.RotatedAtoms>
  150.7329  134.5663  159.5867 H   0  0  0  0  0  0  0  0  0  0  0  0  # atno 6907 bound_to 6896
  152.3113  134.7490  160.0344 H   0  0  0  0  0  0  0  0  0  0  0  0  # atno 6908 bound_to 6896
  151.8037  133.3337  159.3571 H   0  0  0  0  0  0  0  0  0  0  0  0  # atno 6909 bound_to 6896
  144.7415  139.8798  143.6395 H   0  0  0  0  0  0  0  0  0  0  0  0  # atno 7974 bound_to 7965
  155.8362  140.3464  155.5603 H   0  0  0  0  0  0  0  0  0  0  0  0  # atno 8008 bound_to 7997
  155.8189  140.0910  157.1880 H   0  0  0  0  0  0  0  0  0  0  0  0  # atno 8009 bound_to 7997
  154.4004  140.1434  156.3464 H   0  0  0  0  0  0  0  0  0  0  0  0  # atno 8010 bound_to 7997
  139.4822  144.5140  151.7980 H   0  0  0  0  0  0  0  0  0  0  0  0  # atno 10167 bound_to 10162
  156.4077  130.7966  151.2181 H   0  0  0  0  0  0  0  0  0  0  0  0  # atno 10718 bound_to 10713
  153.3446  135.6982  153.6839 H   0  0  0  0  0  0  0  0  0  0  0  0  # atno 10763 bound_to 10752
  153.5590  135.3538  155.2792 H   0  0  0  0  0  0  0  0  0  0  0  0  # atno 10764 bound_to 10752
  154.8643  135.4244  154.2667 H   0  0  0  0  0  0  0  0  0  0  0  0  # atno 10765 bound_to 10752
  140.0954  134.9016  157.1715 H   0  0  0  0  0  0  0  0  0  0  0  0  # atno 11005 bound_to 11000
  146.1220  139.4239  143.0222 LP  0  0  0  0  0  0  0  0  0  0  0  0  # atno 17320 bound_to 7965
  145.7291  141.0048  143.1361 LP  0  0  0  0  0  0  0  0  0  0  0  0  # atno 17321 bound_to 7965
  140.4647  144.1672  150.5910 LP  0  0  0  0  0  0  0  0  0  0  0  0  # atno 17342 bound_to 10162
  140.4447  143.2511  151.9427 LP  0  0  0  0  0  0  0  0  0  0  0  0  # atno 17343 bound_to 10162
  157.7506  131.0267  150.3974 LP  0  0  0  0  0  0  0  0  0  0  0  0  # atno 17370 bound_to 10713
  156.4266  130.3963  149.6789 LP  0  0  0  0  0  0  0  0  0  0  0  0  # atno 17371 bound_to 10713
  140.3294  134.2827  155.7231 LP  0  0  0  0  0  0  0  0  0  0  0  0  # atno 17394 bound_to 11000
  141.2090  133.7761  157.0022 LP  0  0  0  0  0  0  0  0  0  0  0  0  # atno 17395 bound_to 11000

$$$$
