AV-unprocessed.smi:2158|AV-procd|sdf|8789|dock4
  -GOLD-   2272011563D 1   1.00000     0.00000
 Structure written by MMmdl.
 30 30  0  0  0  0  0  0  0  0  2 V2000
  153.3830  143.3270  163.1369 C   0  0  0  0  0  0  0  0  0  0  0  0
  152.6388  142.5636  162.0313 C   0  0  0  0  0  0  0  0  0  0  0  0
  153.1165  142.9138  160.6094 C   0  0  2  0  0  0  0  0  0  0  0  0
  152.4278  144.1785  160.0734 C   0  0  0  0  0  0  0  0  0  0  0  0
  152.8721  141.7923  159.7058 N   0  0  0  0  0  0  0  0  0  0  0  0
  151.6807  141.4485  159.1933 C   0  0  0  0  0  0  0  0  0  0  0  0
  150.6312  142.0327  159.4663 O   0  0  0  0  0  0  0  0  0  0  0  0
  151.6747  140.2389  158.2501 C   0  0  0  0  0  0  0  0  0  0  0  0
  150.9594  140.5094  156.9932 N   0  0  0  0  0  0  0  0  0  0  0  0
  149.6667  141.0558  157.0789 C   0  0  0  0  0  0  0  0  0  0  0  0
  148.9423  141.3415  155.9802 C   0  0  0  0  0  0  0  0  0  0  0  0
  149.5312  141.0693  154.6748 C   0  0  0  0  0  0  0  0  0  0  0  0
  148.8821  141.3197  153.6610 O   0  0  0  0  0  0  0  0  0  0  0  0
  150.7903  140.5423  154.6439 N   0  5  0  0  0  0  0  0  0  0  0  0
  151.5167  140.2598  155.7696 C   0  0  0  0  0  0  0  0  0  0  0  0
  152.6534  139.7876  155.7194 O   0  0  0  0  0  0  0  0  0  0  0  0
  152.9780  143.0785  164.1179 H   0  0  0  0  0  0  0  0  0  0  0  0
  153.2888  144.4047  163.0018 H   0  0  0  0  0  0  0  0  0  0  0  0
  154.4458  143.0837  163.1486 H   0  0  0  0  0  0  0  0  0  0  0  0
  152.7414  141.4914  162.2029 H   0  0  0  0  0  0  0  0  0  0  0  0
  151.5737  142.7827  162.1149 H   0  0  0  0  0  0  0  0  0  0  0  0
  154.1898  143.1074  160.6596 H   0  0  0  0  0  0  0  0  0  0  0  0
  152.6163  145.0330  160.7237 H   0  0  0  0  0  0  0  0  0  0  0  0
  151.3478  144.0438  160.0055 H   0  0  0  0  0  0  0  0  0  0  0  0
  152.7950  144.4369  159.0795 H   0  0  0  0  0  0  0  0  0  0  0  0
  153.6775  141.2514  159.4257 H   0  0  0  0  0  0  0  0  0  0  0  0
  152.6976  139.9203  158.0392 H   0  0  0  0  0  0  0  0  0  0  0  0
  151.2174  139.4008  158.7771 H   0  0  0  0  0  0  0  0  0  0  0  0
  149.3077  141.2334  158.0820 H   0  0  0  0  0  0  0  0  0  0  0  0
  147.9520  141.7645  156.0627 H   0  0  0  0  0  0  0  0  0  0  0  0
  1  2  1  0  0  0  0
  1 17  1  0  0  0  0
  1 18  1  0  0  0  0
  1 19  1  0  0  0  0
  2  3  1  0  0  0  0
  2 20  1  0  0  0  0
  2 21  1  0  0  0  0
  3  4  1  0  0  0  0
  3  5  1  0  0  0  0
  3 22  1  0  0  0  0
  4 23  1  0  0  0  0
  4 24  1  0  0  0  0
  4 25  1  0  0  0  0
  5  6  1  0  0  0  0
  5 26  1  0  0  0  0
  6  7  2  0  0  0  0
  6  8  1  0  0  0  0
  8  9  1  0  0  0  0
  8 27  1  0  0  0  0
  8 28  1  0  0  0  0
  9 15  1  0  0  0  0
  9 10  1  0  0  0  0
 10 11  2  0  0  0  0
 10 29  1  0  0  0  0
 11 12  1  0  0  0  0
 11 30  1  0  0  0  0
 12 13  2  0  0  0  0
 12 14  1  0  0  0  0
 14 15  1  0  0  0  0
 15 16  2  0  0  0  0
M  CHG  1  14  -1
M  END
> <s_m_source_file>
AV-unprocessed.smi

> <i_m_source_file_index>
2158

> <i_lp_mmshare_version>
43012

> <i_f3d_flags>
0

> <s_epik_input>
W0NIM11bQ0gyXVtDQEhdKFtDSDNdKVtOSF1DKD1PKVtDSDJdbjFbY0hdW2NIXWMoPU8pW25IXWMxPU8=

> <s_epik_cmdline>
J2VwaWtfcHl0aG9uJywgJy1waCcsICc3LjAnLCAnLXRuJywgJzgnLCAnLW1hJywgJzIwMCcsICctbWV0YWxfYmluZGluZycsICctaW1hZScsICc8aW5maWxlLm1hZT4nLCAnLW9tYWUnLCAnPG91dGZpbGUubWFlPic=

> <r_lp_tautomer_probability>
0.999537

> <r_epik_Ionization_Penalty>
3.08395

> <r_epik_Ionization_Penalty_Charging>
2.76809e-08

> <r_epik_Ionization_Penalty_Neutral>
3.08395

> <r_epik_State_Penalty>
3.08299

> <r_epik_Charging_Adjusted_Penalty>
3.08299

> <i_epik_Tot_Q>
-1

> <i_epik_Tot_abs_Q>
1

> <r_epik_Metal_State_Penalty>
0.460296

> <b_epik_Metal_Only>
1

> <s_lp_Force_Field>
OPLS_2005

> <r_lp_Energy>
12.2606

> <b_lp_Chiralities_Consistent>
1

> <s_lp_Variant>
AV-unprocessed.smi:2158-3

> <Gold.Version>
5.8.1

> <Gold.Id.Protein>
6NUR|6NUR_protein|mol2

> <Gold.PLP.Fitness>
41.2865

> <Gold.PLP.PLP>
-34.0414

> <Gold.PLP.part.hbond>
-4.0013

> <Gold.PLP.part.metal>
0.0000

> <Gold.PLP.part.buried>
-5.2026

> <Gold.PLP.part.nonpolar>
-25.4507

> <Gold.PLP.part.repulsive>
1.6019

> <Gold.PLP.ligand.clash>
0.0000

> <Gold.PLP.ligand.torsion>
0.6324

> <Gold.PLP.Chemscore.Hbond>
2.8320

> <Gold.PLP.Chemscore.CHOScore>
0.0000

> <Gold.PLP.Chemscore.Metal>
0.0000

> <Gold.Chemscore.Hbonds>
donor molecule, donor type, donor heavy atom, donor atom, acceptor molecule, acceptor atom, score
      P1  H  7989  7998       L1    14  0.81
      P1  H  7997  8010       L1    16  1.00
      P1  H  8011  8017       L1    13  0.85

> <Gold.PLP.Chemscore.Internal.Correction>
0.0140

> <Gold.Rescore>
     Score         DG    S(hbond)    S(metal)    S(lipo)     H(rot)  DE(clash)    DE(int)     intcor
     12.80     -15.95       2.51        0.00      60.43       1.94       0.27       2.88       ----

> <Gold.Chemscore.Fitness>
12.8010

> <Gold.Chemscore.DG>
-15.9495

> <Gold.Chemscore.ZeroCoef>
-5.4800

> <Gold.Chemscore.Hbond>
2.5086

> <Gold.Chemscore.Metal>
0.0000

> <Gold.Chemscore.Lipo>
60.4255

> <Gold.Chemscore.Internal_Hbond>
0.0000

> <Gold.Chemscore.DEClash>
0.2659

> <Gold.Chemscore.DEInternal>
2.8826

> <Gold.Chemscore.Rot>
1.9449

> <Gold.Chemscore.Internal.Correction>
   9.000000E+99

> <Gold.Chemscore.Hbonds>
donor molecule, donor type, donor heavy atom, donor atom, acceptor molecule, acceptor atom, score
      P1  H  7989  7998       L1    14  0.62
      P1  H  7997  8010       L1    16  1.00
      P1  H  8011  8017       L1    13  0.78

> <Gold.Chemscore.Hbond.Weighted>
-8.3788

> <Gold.Chemscore.Metal.Weighted>
-0.0000

> <Gold.Chemscore.Lipo.Weighted>
-7.0698

> <Gold.Chemscore.Internal_Hbond.Weighted>
0.0000

> <Gold.Chemscore.DEClash.Weighted>
0.2659

> <Gold.Chemscore.DEInternal.Weighted>
2.8826

> <Gold.Chemscore.Rot.Weighted>
4.9791

> <Gold.Chemscore.Internal.Correction.Weighted>
   9.000000E+99

> <Gold.Protein.RotatedTorsions>
[ 6907 6896 6895 6894 ] final  -80.12 input  -60.11 | X-H torsion
[ 7974 7965 7964 7962 ] final  122.67 input  175.53 | X-H torsion
[ 8008 7997 7996 7995 ] final   76.30 input   59.86 | X-H torsion
[ 10167 10162 10161 10158 ] final  -94.04 input  -65.29 | X-H torsion
[ 10718 10713 10712 10709 ] final  126.82 input   66.30 | X-H torsion
[ 10763 10752 10751 10750 ] final  126.21 input  -60.55 | X-H torsion
[ 11005 11000 10999 10996 ] final -122.34 input  -57.11 | X-H torsion

> <Gold.Protein.ActiveResidues>
 VAL166  LYS551  ARG553  GLY616  TRP617  ASP618  TYR619  PRO620  LYS621  CYS622 
 ASP623  PHE694  ASN695  SER759  ASP760  ASP761  ALA762  ILE779  LEU786  VAL792 
 PHE793  MET794  SER795  GLU796  ALA797  LYS798  CYS799  TRP800  GLU811  SER814 

> <Gold.Protein.RotatedAtoms>
  150.6936  134.4018  159.5121 H   0  0  0  0  0  0  0  0  0  0  0  0  # atno 6907 bound_to 6896
  152.1790  134.8767  160.0537 H   0  0  0  0  0  0  0  0  0  0  0  0  # atno 6908 bound_to 6896
  151.9765  133.3708  159.4128 H   0  0  0  0  0  0  0  0  0  0  0  0  # atno 6909 bound_to 6896
  145.1048  139.3493  143.4793 H   0  0  0  0  0  0  0  0  0  0  0  0  # atno 7974 bound_to 7965
  155.8253  140.3468  155.5539 H   0  0  0  0  0  0  0  0  0  0  0  0  # atno 8008 bound_to 7997
  155.8299  140.0925  157.1819 H   0  0  0  0  0  0  0  0  0  0  0  0  # atno 8009 bound_to 7997
  154.4004  140.1414  156.3589 H   0  0  0  0  0  0  0  0  0  0  0  0  # atno 8010 bound_to 7997
  140.3185  143.3063  152.0072 H   0  0  0  0  0  0  0  0  0  0  0  0  # atno 10167 bound_to 10162
  157.5386  131.1097  150.8895 H   0  0  0  0  0  0  0  0  0  0  0  0  # atno 10718 bound_to 10713
  153.6897  135.3301  155.3199 H   0  0  0  0  0  0  0  0  0  0  0  0  # atno 10763 bound_to 10752
  154.8443  135.4428  154.1521 H   0  0  0  0  0  0  0  0  0  0  0  0  # atno 10764 bound_to 10752
  153.2560  135.6986  153.7706 H   0  0  0  0  0  0  0  0  0  0  0  0  # atno 10765 bound_to 10752
  141.0003  134.0413  157.3546 H   0  0  0  0  0  0  0  0  0  0  0  0  # atno 11005 bound_to 11000
  146.3528  140.0941  142.8611 LP  0  0  0  0  0  0  0  0  0  0  0  0  # atno 17320 bound_to 7965
  145.0914  140.9287  143.4767 LP  0  0  0  0  0  0  0  0  0  0  0  0  # atno 17321 bound_to 7965
  139.4879  144.6329  151.7033 LP  0  0  0  0  0  0  0  0  0  0  0  0  # atno 17342 bound_to 10162
  140.5504  144.0434  150.6125 LP  0  0  0  0  0  0  0  0  0  0  0  0  # atno 17343 bound_to 10162
  156.9455  130.5400  149.5281 LP  0  0  0  0  0  0  0  0  0  0  0  0  # atno 17370 bound_to 10713
  156.0478  130.5552  150.8921 LP  0  0  0  0  0  0  0  0  0  0  0  0  # atno 17371 bound_to 10713
  139.9035  135.0172  156.7380 LP  0  0  0  0  0  0  0  0  0  0  0  0  # atno 17394 bound_to 11000
  140.6900  133.9398  155.7960 LP  0  0  0  0  0  0  0  0  0  0  0  0  # atno 17395 bound_to 11000

$$$$
