AV-unprocessed.smi:263|AV-procd|sdf|2004|dock3
  -GOLD-   2262021203D 1   1.00000     0.00000
 Structure written by MMmdl.
 57 61  0  0  0  0  0  0  0  0  1 V2000
  149.7609  143.0366  157.8700 O   0  0  0  0  0  0  0  0  0  0  0  0
  151.0777  142.7523  157.4310 C   0  0  0  0  0  0  0  0  0  0  0  0
  150.9924  142.2269  155.9761 C   0  0  0  0  0  0  0  0  0  0  0  0
  150.4572  140.8792  155.8615 N   0  0  0  0  0  0  0  0  0  0  0  0
  149.2107  140.4521  156.2607 C   0  0  0  0  0  0  0  0  0  0  0  0
  148.9617  139.1887  156.0504 N   0  0  0  0  0  0  0  0  0  0  0  0
  150.1307  138.7029  155.4762 C   0  0  0  0  0  0  0  0  0  0  0  0
  150.5466  137.4259  155.0043 C   0  0  0  0  0  0  0  0  0  0  0  0
  149.7550  136.3259  155.0752 N   0  0  0  0  0  0  0  0  0  0  0  0
  148.3432  136.6100  155.3233 C   0  0  0  0  0  0  0  0  0  0  0  0
  147.4670  135.3955  154.9714 C   0  0  0  0  0  0  0  0  0  0  0  0
  147.9480  134.1041  155.6750 C   0  0  1  0  0  0  0  0  0  0  0  0
  147.7199  134.2676  157.0635 O   0  0  0  0  0  0  0  0  0  0  0  0
  147.1298  132.8603  155.2548 C   0  0  0  0  0  0  0  0  0  0  0  0
  147.4524  132.3830  153.8295 C   0  0  0  0  0  0  0  0  0  0  0  0
  148.9564  132.1291  153.6625 C   0  0  0  0  0  0  0  0  0  0  0  0
  149.7700  133.3830  154.0132 C   0  0  0  0  0  0  0  0  0  0  0  0
  149.4693  133.8819  155.4444 C   0  0  1  0  0  0  0  0  0  0  0  0
  150.2823  135.1524  155.7743 C   0  0  0  0  0  0  0  0  0  0  0  0
  151.7946  137.3326  154.4714 N   0  0  0  0  0  0  0  0  0  0  0  0
  152.5872  138.4070  154.4152 C   0  0  0  0  0  0  0  0  0  0  0  0
  152.3361  139.6516  154.8253 N   0  0  0  0  0  0  0  0  0  0  0  0
  151.0809  139.7554  155.3484 C   0  0  0  0  0  0  0  0  0  0  0  0
  151.9010  144.0551  157.4811 C   0  0  0  0  0  0  0  0  0  0  0  0
  152.1581  144.5249  158.9238 C   0  0  0  0  0  0  0  0  0  0  0  0
  152.7880  143.4879  159.6658 O   0  0  0  0  0  0  0  0  0  0  0  0
  151.9713  142.3301  159.7897 C   0  0  0  0  0  0  0  0  0  0  0  0
  151.6974  141.7236  158.4018 C   0  0  0  0  0  0  0  0  0  0  0  0
  149.4418  143.7905  157.3978 H   0  0  0  0  0  0  0  0  0  0  0  0
  150.3800  142.8925  155.3662 H   0  0  0  0  0  0  0  0  0  0  0  0
  151.9843  142.2304  155.5220 H   0  0  0  0  0  0  0  0  0  0  0  0
  148.4841  141.1136  156.7100 H   0  0  0  0  0  0  0  0  0  0  0  0
  148.2193  136.8681  156.3758 H   0  0  0  0  0  0  0  0  0  0  0  0
  148.0026  137.4735  154.7531 H   0  0  0  0  0  0  0  0  0  0  0  0
  146.4276  135.6045  155.2280 H   0  0  0  0  0  0  0  0  0  0  0  0
  147.4866  135.2634  153.8900 H   0  0  0  0  0  0  0  0  0  0  0  0
  147.8586  133.4359  157.4902 H   0  0  0  0  0  0  0  0  0  0  0  0
  147.3403  132.0392  155.9421 H   0  0  0  0  0  0  0  0  0  0  0  0
  146.0615  133.0611  155.3450 H   0  0  0  0  0  0  0  0  0  0  0  0
  146.8982  131.4692  153.6134 H   0  0  0  0  0  0  0  0  0  0  0  0
  147.1185  133.1206  153.0997 H   0  0  0  0  0  0  0  0  0  0  0  0
  149.2622  131.3023  154.3050 H   0  0  0  0  0  0  0  0  0  0  0  0
  149.1700  131.8220  152.6385 H   0  0  0  0  0  0  0  0  0  0  0  0
  150.8335  133.1636  153.9148 H   0  0  0  0  0  0  0  0  0  0  0  0
  149.5555  134.1665  153.2857 H   0  0  0  0  0  0  0  0  0  0  0  0
  149.8046  133.0951  156.1224 H   0  0  0  0  0  0  0  0  0  0  0  0
  151.3291  134.9946  155.5108 H   0  0  0  0  0  0  0  0  0  0  0  0
  150.2523  135.3415  156.8483 H   0  0  0  0  0  0  0  0  0  0  0  0
  153.5634  138.2452  153.9824 H   0  0  0  0  0  0  0  0  0  0  0  0
  152.8653  143.8899  156.9983 H   0  0  0  0  0  0  0  0  0  0  0  0
  151.4063  144.8439  156.9129 H   0  0  0  0  0  0  0  0  0  0  0  0
  152.8109  145.3979  158.9199 H   0  0  0  0  0  0  0  0  0  0  0  0
  151.2303  144.8276  159.4117 H   0  0  0  0  0  0  0  0  0  0  0  0
  152.4866  141.6033  160.4174 H   0  0  0  0  0  0  0  0  0  0  0  0
  151.0405  142.5817  160.3002 H   0  0  0  0  0  0  0  0  0  0  0  0
  151.0524  140.8503  158.5075 H   0  0  0  0  0  0  0  0  0  0  0  0
  152.6394  141.3613  157.9887 H   0  0  0  0  0  0  0  0  0  0  0  0
  1  2  1  0  0  0  0
  1 29  1  0  0  0  0
  2 28  1  0  0  0  0
  2  3  1  0  0  0  0
  2 24  1  0  0  0  0
  3  4  1  0  0  0  0
  3 30  1  0  0  0  0
  3 31  1  0  0  0  0
  4 23  1  0  0  0  0
  4  5  1  0  0  0  0
  5  6  2  0  0  0  0
  5 32  1  0  0  0  0
  6  7  1  0  0  0  0
  7 23  2  0  0  0  0
  7  8  1  0  0  0  0
  8  9  1  0  0  0  0
  8 20  2  0  0  0  0
  9 19  1  0  0  0  0
  9 10  1  0  0  0  0
 10 11  1  0  0  0  0
 10 33  1  0  0  0  0
 10 34  1  0  0  0  0
 11 12  1  0  0  0  0
 11 35  1  0  0  0  0
 11 36  1  0  0  0  0
 12 18  1  0  0  0  0
 12 13  1  0  0  0  0
 12 14  1  0  0  0  0
 13 37  1  0  0  0  0
 14 15  1  0  0  0  0
 14 38  1  0  0  0  0
 14 39  1  0  0  0  0
 15 16  1  0  0  0  0
 15 40  1  0  0  0  0
 15 41  1  0  0  0  0
 16 17  1  0  0  0  0
 16 42  1  0  0  0  0
 16 43  1  0  0  0  0
 17 18  1  0  0  0  0
 17 44  1  0  0  0  0
 17 45  1  0  0  0  0
 18 19  1  0  0  0  0
 18 46  1  0  0  0  0
 19 47  1  0  0  0  0
 19 48  1  0  0  0  0
 20 21  1  0  0  0  0
 21 22  2  0  0  0  0
 21 49  1  0  0  0  0
 22 23  1  0  0  0  0
 24 25  1  0  0  0  0
 24 50  1  0  0  0  0
 24 51  1  0  0  0  0
 25 26  1  0  0  0  0
 25 52  1  0  0  0  0
 25 53  1  0  0  0  0
 26 27  1  0  0  0  0
 27 28  1  0  0  0  0
 27 54  1  0  0  0  0
 27 55  1  0  0  0  0
 28 56  1  0  0  0  0
 28 57  1  0  0  0  0
M  END
> <s_m_source_file>
AV-unprocessed.smi

> <i_m_source_file_index>
263

> <i_lp_mmshare_version>
43012

> <i_f3d_flags>
0

> <s_epik_input>
W0NIMl0xW0NIMl1PW0NIMl1bQ0gyXUMxKFtPSF0pW0NIMl1uKFtjSF1uMiljKGMyMyluW2NIXW5jM04oW0NIMl1bQ0gyXTQpW0NIMl1bQ0BASF0oW0NAXTQ1W09IXSlbQ0gyXVtDSDJdW0NIMl1bQ0gyXTU=

> <s_epik_cmdline>
J2VwaWtfcHl0aG9uJywgJy1waCcsICc3LjAnLCAnLXRuJywgJzgnLCAnLW1hJywgJzIwMCcsICctbWV0YWxfYmluZGluZycsICctaW1hZScsICc8aW5maWxlLm1hZT4nLCAnLW9tYWUnLCAnPG91dGZpbGUubWFlPic=

> <r_lp_tautomer_probability>
1

> <r_epik_Ionization_Penalty>
0.00747493

> <r_epik_Ionization_Penalty_Charging>
0

> <r_epik_Ionization_Penalty_Neutral>
0.00747493

> <r_epik_State_Penalty>
0.00549307

> <r_epik_Charging_Adjusted_Penalty>
0.00549307

> <i_epik_Tot_Q>
0

> <i_epik_Tot_abs_Q>
0

> <r_epik_Metal_State_Penalty>
-0

> <b_epik_Metal_Only>
0

> <s_lp_Force_Field>
OPLS_2005

> <r_lp_Energy>
40.0531

> <b_lp_Chiralities_Consistent>
1

> <s_lp_Variant>
AV-unprocessed.smi:263-2

> <Gold.Version>
5.8.1

> <Gold.Id.Protein>
6NUR|6NUR_protein|mol2

> <Gold.PLP.Fitness>
50.5461

> <Gold.PLP.PLP>
-44.6410

> <Gold.PLP.part.hbond>
-3.0000

> <Gold.PLP.part.metal>
0.0000

> <Gold.PLP.part.buried>
-8.4273

> <Gold.PLP.part.nonpolar>
-33.3194

> <Gold.PLP.part.repulsive>
0.3465

> <Gold.PLP.ligand.clash>
0.0107

> <Gold.PLP.ligand.torsion>
0.3330

> <Gold.PLP.Chemscore.Hbond>
2.0697

> <Gold.PLP.Chemscore.CHOScore>
0.0000

> <Gold.PLP.Chemscore.Metal>
0.0000

> <Gold.Chemscore.Hbonds>
donor molecule, donor type, donor heavy atom, donor atom, acceptor molecule, acceptor atom, score
      L1  H     1    29       P1  8028  1.00
      P1  H  7989  7998       L1    22  0.18
      P1  H 10752 10763       L1    20  0.87

> <Gold.PLP.Chemscore.Internal.Correction>
0.3726

> <Gold.Rescore>
     Score         DG    S(hbond)    S(metal)    S(lipo)     H(rot)  DE(clash)    DE(int)     intcor
     11.95     -14.86       1.28        0.00     100.87       2.62       1.06       1.84       ----

> <Gold.Chemscore.Fitness>
11.9532

> <Gold.Chemscore.DG>
-14.8583

> <Gold.Chemscore.ZeroCoef>
-5.4800

> <Gold.Chemscore.Hbond>
1.2849

> <Gold.Chemscore.Metal>
0.0000

> <Gold.Chemscore.Lipo>
100.8747

> <Gold.Chemscore.Internal_Hbond>
0.0000

> <Gold.Chemscore.DEClash>
1.0622

> <Gold.Chemscore.DEInternal>
1.8430

> <Gold.Chemscore.Rot>
2.6232

> <Gold.Chemscore.Internal.Correction>
   9.000000E+99

> <Gold.Chemscore.Hbonds>
donor molecule, donor type, donor heavy atom, donor atom, acceptor molecule, acceptor atom, score
      L1  H     1    29       P1  8028  0.41
      P1  H 10752 10763       L1    20  0.49

> <Gold.Chemscore.Hbond.Weighted>
-4.2915

> <Gold.Chemscore.Metal.Weighted>
-0.0000

> <Gold.Chemscore.Lipo.Weighted>
-11.8023

> <Gold.Chemscore.Internal_Hbond.Weighted>
0.0000

> <Gold.Chemscore.DEClash.Weighted>
1.0622

> <Gold.Chemscore.DEInternal.Weighted>
1.8430

> <Gold.Chemscore.Rot.Weighted>
6.7155

> <Gold.Chemscore.Internal.Correction.Weighted>
   9.000000E+99

> <Gold.Protein.RotatedTorsions>
[ 6907 6896 6895 6894 ] final  115.08 input  -60.11 | X-H torsion
[ 7974 7965 7964 7962 ] final -139.09 input  175.53 | X-H torsion
[ 8008 7997 7996 7995 ] final  131.73 input   59.86 | X-H torsion
[ 10167 10162 10161 10158 ] final   14.65 input  -65.29 | X-H torsion
[ 10718 10713 10712 10709 ] final -141.62 input   66.30 | X-H torsion
[ 10763 10752 10751 10750 ] final   31.27 input  -60.55 | X-H torsion
[ 11005 11000 10999 10996 ] final  -82.10 input  -57.11 | X-H torsion

> <Gold.Protein.ActiveResidues>
 VAL166  LYS551  ARG553  GLY616  TRP617  ASP618  TYR619  PRO620  LYS621  CYS622 
 ASP623  PHE694  ASN695  SER759  ASP760  ASP761  ALA762  ILE779  LEU786  VAL792 
 PHE793  MET794  SER795  GLU796  ALA797  LYS798  CYS799  TRP800  GLU811  SER814 

> <Gold.Protein.RotatedAtoms>
  152.4764  133.8148  159.7021 H   0  0  0  0  0  0  0  0  0  0  0  0  # atno 6907 bound_to 6896
  150.8783  133.7398  159.2946 H   0  0  0  0  0  0  0  0  0  0  0  0  # atno 6908 bound_to 6896
  151.4910  135.1061  159.9855 H   0  0  0  0  0  0  0  0  0  0  0  0  # atno 6909 bound_to 6896
  144.8705  140.6360  143.5270 H   0  0  0  0  0  0  0  0  0  0  0  0  # atno 7974 bound_to 7965
  156.2974  140.2564  156.2974 H   0  0  0  0  0  0  0  0  0  0  0  0  # atno 8008 bound_to 7997
  154.9451  140.0395  157.2135 H   0  0  0  0  0  0  0  0  0  0  0  0  # atno 8009 bound_to 7997
  154.8089  140.2841  155.5871 H   0  0  0  0  0  0  0  0  0  0  0  0  # atno 8010 bound_to 7997
  140.5921  143.8774  150.6883 H   0  0  0  0  0  0  0  0  0  0  0  0  # atno 10167 bound_to 10162
  156.3362  130.7612  151.1740 H   0  0  0  0  0  0  0  0  0  0  0  0  # atno 10718 bound_to 10713
  153.0325  135.6443  154.1173 H   0  0  0  0  0  0  0  0  0  0  0  0  # atno 10763 bound_to 10752
  154.0893  135.2867  155.3276 H   0  0  0  0  0  0  0  0  0  0  0  0  # atno 10764 bound_to 10752
  154.6475  135.5437  153.7926 H   0  0  0  0  0  0  0  0  0  0  0  0  # atno 10765 bound_to 10752
  141.1664  133.7228  156.8521 H   0  0  0  0  0  0  0  0  0  0  0  0  # atno 11005 bound_to 11000
  145.4139  139.1575  143.4111 LP  0  0  0  0  0  0  0  0  0  0  0  0  # atno 17320 bound_to 7965
  146.2927  140.4245  142.8733 LP  0  0  0  0  0  0  0  0  0  0  0  0  # atno 17321 bound_to 7965
  140.2300  143.3743  152.1574 LP  0  0  0  0  0  0  0  0  0  0  0  0  # atno 17342 bound_to 10162
  139.5234  144.7071  151.5320 LP  0  0  0  0  0  0  0  0  0  0  0  0  # atno 17343 bound_to 10162
  157.7439  131.0467  150.4909 LP  0  0  0  0  0  0  0  0  0  0  0  0  # atno 17370 bound_to 10713
  156.5082  130.4133  149.6315 LP  0  0  0  0  0  0  0  0  0  0  0  0  # atno 17371 bound_to 10713
  140.1908  134.8967  157.3058 LP  0  0  0  0  0  0  0  0  0  0  0  0  # atno 17394 bound_to 11000
  140.2292  134.3930  155.7529 LP  0  0  0  0  0  0  0  0  0  0  0  0  # atno 17395 bound_to 11000

$$$$
