AV-unprocessed.smi:1|AV-procd|sdf|2|dock1
  -GOLD-   2262015 83D 1   1.00000     0.00000
 Structure written by MMmdl.
 57 62  0  0  0  0  0  0  0  0  1 V2000
  153.7926  140.0145  159.8281 O   0  0  0  0  0  0  0  0  0  0  0  0
  152.8337  140.7081  159.4880 C   0  0  0  0  0  0  0  0  0  0  0  0
  151.9854  140.3574  158.3626 N   0  0  0  0  0  0  0  0  0  0  0  0
  152.0448  139.2522  157.5830 C   0  0  0  0  0  0  0  0  0  0  0  0
  152.8986  139.1465  156.5306 N   0  0  0  0  0  0  0  0  0  0  0  0
  152.9171  138.0357  155.7884 C   0  0  0  0  0  0  0  0  0  0  0  0
  152.1815  136.9305  155.9243 N   0  0  0  0  0  0  0  0  0  0  0  0
  151.3257  137.0263  156.9817 C   0  0  0  0  0  0  0  0  0  0  0  0
  151.1993  138.1445  157.8521 C   0  0  0  0  0  0  0  0  0  0  0  0
  150.2296  137.8852  158.8124 N   0  0  0  0  0  0  0  0  0  0  0  0
  149.8104  136.6825  158.5219 C   0  0  0  0  0  0  0  0  0  0  0  0
  150.4182  136.0924  157.4364 N   0  0  0  0  0  0  0  0  0  0  0  0
  150.1569  134.7381  156.8700 C   0  0  1  0  0  0  0  0  0  0  0  0
  149.0970  134.8085  155.9740 O   0  0  0  0  0  0  0  0  0  0  0  0
  149.2333  133.7612  155.0140 C   0  0  1  0  0  0  0  0  0  0  0  0
  148.8887  134.3061  153.6197 C   0  0  0  0  0  0  0  0  0  0  0  0
  147.5678  133.9274  153.2651 O   0  0  0  0  0  0  0  0  0  0  0  0
  147.3152  132.6928  152.7931 C   0  0  0  0  0  0  0  0  0  0  0  0
  147.9998  131.7036  153.0625 O   0  0  0  0  0  0  0  0  0  0  0  0
  146.1079  132.6479  151.9193 C   0  0  0  0  0  0  0  0  0  0  0  0
  145.6253  133.8441  151.3400 C   0  0  0  0  0  0  0  0  0  0  0  0
  144.4967  133.8283  150.4976 C   0  0  0  0  0  0  0  0  0  0  0  0
  143.8353  132.6161  150.2269 C   0  0  0  0  0  0  0  0  0  0  0  0
  144.3017  131.4200  150.8023 C   0  0  0  0  0  0  0  0  0  0  0  0
  145.4294  131.4345  151.6457 C   0  0  0  0  0  0  0  0  0  0  0  0
  150.6668  133.2169  155.1494 C   0  0  2  0  0  0  0  0  0  0  0  0
  150.6502  131.9563  155.7987 O   0  0  0  0  0  0  0  0  0  0  0  0
  151.8677  131.9277  156.9431 S   0  0  0  0  0  0  0  0  0  0  0  0
  151.2630  131.6275  158.2498 O   0  0  0  0  0  0  0  0  0  0  0  0
  152.9971  131.1602  156.3969 O   0  0  0  0  0  0  0  0  0  0  0  0
  152.2746  133.5476  156.9132 O   0  0  0  0  0  0  0  0  0  0  0  0
  151.3543  134.2246  156.0770 C   0  0  2  0  0  0  0  0  0  0  0  0
  152.5264  142.0138  160.1618 C   0  0  0  0  0  0  0  0  0  0  0  0
  151.8207  143.0197  159.4642 C   0  0  0  0  0  0  0  0  0  0  0  0
  151.5400  144.2536  160.0832 C   0  0  0  0  0  0  0  0  0  0  0  0
  151.9692  144.4948  161.4018 C   0  0  0  0  0  0  0  0  0  0  0  0
  152.6834  143.5027  162.0998 C   0  0  0  0  0  0  0  0  0  0  0  0
  152.9644  142.2682  161.4821 C   0  0  0  0  0  0  0  0  0  0  0  0
  151.2570  141.0191  158.1368 H   0  0  0  0  0  0  0  0  0  0  0  0
  153.6226  138.0318  154.9705 H   0  0  0  0  0  0  0  0  0  0  0  0
  149.0428  136.1874  159.0989 H   0  0  0  0  0  0  0  0  0  0  0  0
  149.8880  134.1076  157.7190 H   0  0  0  0  0  0  0  0  0  0  0  0
  148.5164  132.9798  155.2694 H   0  0  0  0  0  0  0  0  0  0  0  0
  148.9572  135.3945  153.6170 H   0  0  0  0  0  0  0  0  0  0  0  0
  149.6054  133.9307  152.8880 H   0  0  0  0  0  0  0  0  0  0  0  0
  146.1199  134.7859  151.5297 H   0  0  0  0  0  0  0  0  0  0  0  0
  144.1391  134.7474  150.0574 H   0  0  0  0  0  0  0  0  0  0  0  0
  142.9709  132.6043  149.5795 H   0  0  0  0  0  0  0  0  0  0  0  0
  143.7950  130.4887  150.5966 H   0  0  0  0  0  0  0  0  0  0  0  0
  145.7619  130.4986  152.0696 H   0  0  0  0  0  0  0  0  0  0  0  0
  151.1860  133.1145  154.1956 H   0  0  0  0  0  0  0  0  0  0  0  0
  151.8186  135.0338  155.5132 H   0  0  0  0  0  0  0  0  0  0  0  0
  151.4847  142.8501  158.4514 H   0  0  0  0  0  0  0  0  0  0  0  0
  150.9957  145.0155  159.5449 H   0  0  0  0  0  0  0  0  0  0  0  0
  151.7540  145.4410  161.8758 H   0  0  0  0  0  0  0  0  0  0  0  0
  153.0185  143.6898  163.1093 H   0  0  0  0  0  0  0  0  0  0  0  0
  153.5219  141.5243  162.0325 H   0  0  0  0  0  0  0  0  0  0  0  0
  1  2  2  0  0  0  0
  2  3  1  0  0  0  0
  2 33  1  0  0  0  0
  3  4  1  0  0  0  0
  3 39  1  0  0  0  0
  4  9  1  0  0  0  0
  4  5  2  0  0  0  0
  5  6  1  0  0  0  0
  6  7  2  0  0  0  0
  6 40  1  0  0  0  0
  7  8  1  0  0  0  0
  8 12  1  0  0  0  0
  8  9  2  0  0  0  0
  9 10  1  0  0  0  0
 10 11  2  0  0  0  0
 11 12  1  0  0  0  0
 11 41  1  0  0  0  0
 12 13  1  0  0  0  0
 13 32  1  0  0  0  0
 13 14  1  0  0  0  0
 13 42  1  0  0  0  0
 14 15  1  0  0  0  0
 15 16  1  0  0  0  0
 15 26  1  0  0  0  0
 15 43  1  0  0  0  0
 16 17  1  0  0  0  0
 16 44  1  0  0  0  0
 16 45  1  0  0  0  0
 17 18  1  0  0  0  0
 18 19  2  0  0  0  0
 18 20  1  0  0  0  0
 20 25  1  0  0  0  0
 20 21  2  0  0  0  0
 21 22  1  0  0  0  0
 21 46  1  0  0  0  0
 22 23  2  0  0  0  0
 22 47  1  0  0  0  0
 23 24  1  0  0  0  0
 23 48  1  0  0  0  0
 24 25  2  0  0  0  0
 24 49  1  0  0  0  0
 25 50  1  0  0  0  0
 26 32  1  0  0  0  0
 26 27  1  0  0  0  0
 26 51  1  0  0  0  0
 27 28  1  0  0  0  0
 28 29  2  0  0  0  0
 28 30  2  0  0  0  0
 28 31  1  0  0  0  0
 31 32  1  0  0  0  0
 32 52  1  0  0  0  0
 33 38  1  0  0  0  0
 33 34  2  0  0  0  0
 34 35  1  0  0  0  0
 34 53  1  0  0  0  0
 35 36  2  0  0  0  0
 35 54  1  0  0  0  0
 36 37  1  0  0  0  0
 36 55  1  0  0  0  0
 37 38  2  0  0  0  0
 37 56  1  0  0  0  0
 38 57  1  0  0  0  0
M  END
> <s_m_source_file>
AV-unprocessed.smi

> <i_m_source_file_index>
1

> <i_lp_mmshare_version>
43012

> <i_f3d_flags>
0

> <s_epik_input>
W2NIXTFbY0hdW2NIXVtjSF1bY0hdYzFDKD1PKVtOSF1jKG5bY0hdbjIpYyhjMjMpbltjSF1uM1tDQEBIXShbQ0BIXShbQ0BIXTQ1KU9TKE81KSg9Tyk9TylPW0NASF00W0NIMl1PQyg9TyljNltjSF1bY0hdW2NIXVtjSF1bY0hdNg==

> <s_epik_cmdline>
J2VwaWtfcHl0aG9uJywgJy1waCcsICc3LjAnLCAnLXRuJywgJzgnLCAnLW1hJywgJzIwMCcsICctbWV0YWxfYmluZGluZycsICctaW1hZScsICc8aW5maWxlLm1hZT4nLCAnLW9tYWUnLCAnPG91dGZpbGUubWFlPic=

> <r_lp_tautomer_probability>
1

> <r_epik_Ionization_Penalty>
0.00195722

> <r_epik_Ionization_Penalty_Charging>
0

> <r_epik_Ionization_Penalty_Neutral>
0.00195722

> <r_epik_State_Penalty>
0.00633741

> <r_epik_Charging_Adjusted_Penalty>
0.00633741

> <i_epik_Tot_Q>
0

> <i_epik_Tot_abs_Q>
0

> <r_epik_Metal_State_Penalty>
0.341185

> <b_epik_Metal_Only>
0

> <s_epik_Chemistry_Notes>
This compound has an ester and may undergo hydrolysis at high or low pH. This compound contains an acetal/aminal-like group ( X-CH(R)-Y where X, Y are N, S, or O) that may be acid/base labile, releasing an aldehyde.

> <s_lp_Force_Field>
OPLS_2005

> <r_lp_Energy>
43.8604

> <b_lp_Chiralities_Consistent>
1

> <s_lp_Variant>
AV-unprocessed.smi:1-2

> <Gold.Version>
5.8.1

> <Gold.Id.Protein>
6NUR|6NUR_protein|mol2

> <Gold.PLP.Fitness>
59.3722

> <Gold.PLP.PLP>
-56.3278

> <Gold.PLP.part.hbond>
-4.0000

> <Gold.PLP.part.metal>
0.0000

> <Gold.PLP.part.buried>
-5.9042

> <Gold.PLP.part.nonpolar>
-47.2048

> <Gold.PLP.part.repulsive>
1.2063

> <Gold.PLP.ligand.clash>
0.0000

> <Gold.PLP.ligand.torsion>
2.8510

> <Gold.PLP.Chemscore.Hbond>
2.8000

> <Gold.PLP.Chemscore.CHOScore>
0.0000

> <Gold.PLP.Chemscore.Metal>
0.0000

> <Gold.Chemscore.Hbonds>
donor molecule, donor type, donor heavy atom, donor atom, acceptor molecule, acceptor atom, score
      P1  H  6896  6909       L1    29  1.00
      P1  H  7997  8009       L1     5  1.00
      P1  H 10752 10765       L1     7  0.93

> <Gold.PLP.Chemscore.Internal.Correction>
0.3465

> <Gold.Rescore>
     Score         DG    S(hbond)    S(metal)    S(lipo)     H(rot)  DE(clash)    DE(int)     intcor
     15.66     -21.58       1.61        0.00     138.38       2.13       1.72       4.20       ----

> <Gold.Chemscore.Fitness>
15.6599

> <Gold.Chemscore.DG>
-21.5830

> <Gold.Chemscore.ZeroCoef>
-5.4800

> <Gold.Chemscore.Hbond>
1.6089

> <Gold.Chemscore.Metal>
0.0000

> <Gold.Chemscore.Lipo>
138.3826

> <Gold.Chemscore.Internal_Hbond>
0.0000

> <Gold.Chemscore.DEClash>
1.7184

> <Gold.Chemscore.DEInternal>
4.2046

> <Gold.Chemscore.Rot>
2.1333

> <Gold.Chemscore.Internal.Correction>
   9.000000E+99

> <Gold.Chemscore.Hbonds>
donor molecule, donor type, donor heavy atom, donor atom, acceptor molecule, acceptor atom, score
      P1  H  6896  6909       L1    29  0.34
      P1  H  7997  8009       L1     5  0.83
      P1  H 10752 10765       L1     7  0.50

> <Gold.Chemscore.Hbond.Weighted>
-5.3736

> <Gold.Chemscore.Metal.Weighted>
-0.0000

> <Gold.Chemscore.Lipo.Weighted>
-16.1908

> <Gold.Chemscore.Internal_Hbond.Weighted>
0.0000

> <Gold.Chemscore.DEClash.Weighted>
1.7184

> <Gold.Chemscore.DEInternal.Weighted>
4.2046

> <Gold.Chemscore.Rot.Weighted>
5.4614

> <Gold.Chemscore.Internal.Correction.Weighted>
   9.000000E+99

> <Gold.Protein.RotatedTorsions>
[ 6907 6896 6895 6894 ] final  -61.60 input  -60.11 | X-H torsion
[ 7974 7965 7964 7962 ] final  -86.87 input  175.53 | X-H torsion
[ 8008 7997 7996 7995 ] final  172.92 input   59.86 | X-H torsion
[ 10167 10162 10161 10158 ] final -134.01 input  -65.29 | X-H torsion
[ 10718 10713 10712 10709 ] final   16.06 input   66.30 | X-H torsion
[ 10763 10752 10751 10750 ] final -144.61 input  -60.55 | X-H torsion
[ 11005 11000 10999 10996 ] final  161.55 input  -57.11 | X-H torsion

> <Gold.Protein.ActiveResidues>
 VAL166  LYS551  ARG553  GLY616  TRP617  ASP618  TYR619  PRO620  LYS621  CYS622 
 ASP623  PHE694  ASN695  SER759  ASP760  ASP761  ALA762  ILE779  LEU786  VAL792 
 PHE793  MET794  SER795  GLU796  ALA797  LYS798  CYS799  TRP800  GLU811  SER814 

> <Gold.Protein.RotatedAtoms>
  150.7773  134.6683  159.6377 H   0  0  0  0  0  0  0  0  0  0  0  0  # atno 6907 bound_to 6896
  152.3847  134.6532  160.0139 H   0  0  0  0  0  0  0  0  0  0  0  0  # atno 6908 bound_to 6896
  151.6851  133.3275  159.3265 H   0  0  0  0  0  0  0  0  0  0  0  0  # atno 6909 bound_to 6896
  145.4742  140.9559  143.1900 H   0  0  0  0  0  0  0  0  0  0  0  0  # atno 7974 bound_to 7965
  156.1126  140.1473  156.9317 H   0  0  0  0  0  0  0  0  0  0  0  0  # atno 8008 bound_to 7997
  154.4778  140.0889  156.7347 H   0  0  0  0  0  0  0  0  0  0  0  0  # atno 8009 bound_to 7997
  155.4569  140.3437  155.4310 H   0  0  0  0  0  0  0  0  0  0  0  0  # atno 8010 bound_to 7997
  139.8924  143.6706  152.2610 H   0  0  0  0  0  0  0  0  0  0  0  0  # atno 10167 bound_to 10162
  157.0625  130.6314  149.5789 H   0  0  0  0  0  0  0  0  0  0  0  0  # atno 10718 bound_to 10713
  154.8420  135.3436  154.6373 H   0  0  0  0  0  0  0  0  0  0  0  0  # atno 10763 bound_to 10752
  153.6983  135.6971  153.5075 H   0  0  0  0  0  0  0  0  0  0  0  0  # atno 10764 bound_to 10752
  153.2542  135.4343  155.0783 H   0  0  0  0  0  0  0  0  0  0  0  0  # atno 10765 bound_to 10752
  140.2169  134.8225  157.3180 H   0  0  0  0  0  0  0  0  0  0  0  0  # atno 11005 bound_to 11000
  144.7927  139.6295  143.7106 LP  0  0  0  0  0  0  0  0  0  0  0  0  # atno 17320 bound_to 7965
  146.2379  139.5942  142.9511 LP  0  0  0  0  0  0  0  0  0  0  0  0  # atno 17321 bound_to 7965
  139.7098  144.7622  151.1132 LP  0  0  0  0  0  0  0  0  0  0  0  0  # atno 17342 bound_to 10162
  140.7724  143.5346  150.9383 LP  0  0  0  0  0  0  0  0  0  0  0  0  # atno 17343 bound_to 10162
  155.9974  130.5046  150.7533 LP  0  0  0  0  0  0  0  0  0  0  0  0  # atno 17370 bound_to 10713
  157.4943  131.0913  151.0389 LP  0  0  0  0  0  0  0  0  0  0  0  0  # atno 17371 bound_to 10713
  140.1891  134.4394  155.7726 LP  0  0  0  0  0  0  0  0  0  0  0  0  # atno 17394 bound_to 11000
  141.2224  133.7018  156.7996 LP  0  0  0  0  0  0  0  0  0  0  0  0  # atno 17395 bound_to 11000

$$$$
