AV-unprocessed.smi:3136|AV-procd|sdf|11948|dock2
  -GOLD-   2272017343D 1   1.00000     0.00000
 Structure written by MMmdl.
 40 40  0  0  0  0  0  0  0  0  2 V2000
  146.0423  143.1510  154.1686 C   0  0  0  0  0  0  0  0  0  0  0  0
  146.3737  141.8361  154.8868 C   0  0  0  0  0  0  0  0  0  0  0  0
  146.2680  140.6918  153.9885 N   0  0  0  0  0  0  0  0  0  0  0  0
  147.2917  139.9145  153.6036 C   0  0  0  0  0  0  0  0  0  0  0  0
  148.4513  140.0919  153.9779 O   0  0  0  0  0  0  0  0  0  0  0  0
  146.9393  138.7687  152.6487 C   0  0  0  0  0  0  0  0  0  0  0  0
  145.9483  137.7529  153.2446 C   0  0  0  0  0  0  0  0  0  0  0  0
  146.3951  136.3676  152.9866 N   0  3  0  0  0  0  0  0  0  0  0  0
  145.5241  135.5756  152.0872 C   0  0  2  0  0  0  0  0  0  0  0  0
  144.0462  135.9718  152.2919 C   0  0  0  0  0  0  0  0  0  0  0  0
  145.7771  134.0604  152.3133 C   0  0  2  0  0  0  0  0  0  0  0  0
  147.2769  133.7053  152.3162 C   0  0  0  0  0  0  0  0  0  0  0  0
  145.0724  133.2307  151.3437 N   0  0  0  0  0  0  0  0  0  0  0  0
  145.6000  132.3027  150.4691 C   0  0  0  0  0  0  0  0  0  0  0  0
  144.5613  131.7757  149.7567 C   0  0  0  0  0  0  0  0  0  0  0  0
  143.4208  132.4547  150.2682 C   0  0  0  0  0  0  0  0  0  0  0  0
  143.7293  133.3250  151.2159 N   0  0  0  0  0  0  0  0  0  0  0  0
  146.0827  143.9911  154.8621 H   0  0  0  0  0  0  0  0  0  0  0  0
  145.0405  143.1244  153.7384 H   0  0  0  0  0  0  0  0  0  0  0  0
  146.7491  143.3538  153.3634 H   0  0  0  0  0  0  0  0  0  0  0  0
  147.3713  141.8834  155.3261 H   0  0  0  0  0  0  0  0  0  0  0  0
  145.6786  141.6840  155.7127 H   0  0  0  0  0  0  0  0  0  0  0  0
  145.3472  140.4774  153.6339 H   0  0  0  0  0  0  0  0  0  0  0  0
  146.5229  139.1966  151.7357 H   0  0  0  0  0  0  0  0  0  0  0  0
  147.8630  138.2613  152.3669 H   0  0  0  0  0  0  0  0  0  0  0  0
  145.8531  137.9144  154.3183 H   0  0  0  0  0  0  0  0  0  0  0  0
  144.9592  137.8938  152.8061 H   0  0  0  0  0  0  0  0  0  0  0  0
  147.3048  136.4262  152.5513 H   0  0  0  0  0  0  0  0  0  0  0  0
  145.7989  135.8091  151.0573 H   0  0  0  0  0  0  0  0  0  0  0  0
  143.3867  135.4516  151.5972 H   0  0  0  0  0  0  0  0  0  0  0  0
  143.8850  137.0367  152.1284 H   0  0  0  0  0  0  0  0  0  0  0  0
  143.7122  135.7377  153.3033 H   0  0  0  0  0  0  0  0  0  0  0  0
  145.3764  133.7974  153.2940 H   0  0  0  0  0  0  0  0  0  0  0  0
  147.8092  134.2124  153.1210 H   0  0  0  0  0  0  0  0  0  0  0  0
  147.7561  133.9831  151.3768 H   0  0  0  0  0  0  0  0  0  0  0  0
  147.4240  132.6341  152.4579 H   0  0  0  0  0  0  0  0  0  0  0  0
  146.6591  132.0948  150.4264 H   0  0  0  0  0  0  0  0  0  0  0  0
  144.6086  131.0210  148.9857 H   0  0  0  0  0  0  0  0  0  0  0  0
  142.3857  132.3420  149.9810 H   0  0  0  0  0  0  0  0  0  0  0  0
  146.4919  135.8765  153.8639 H   0  0  0  0  0  0  0  0  0  0  0  0
  1  2  1  0  0  0  0
  1 18  1  0  0  0  0
  1 19  1  0  0  0  0
  1 20  1  0  0  0  0
  2  3  1  0  0  0  0
  2 21  1  0  0  0  0
  2 22  1  0  0  0  0
  3  4  1  0  0  0  0
  3 23  1  0  0  0  0
  4  5  2  0  0  0  0
  4  6  1  0  0  0  0
  6  7  1  0  0  0  0
  6 24  1  0  0  0  0
  6 25  1  0  0  0  0
  7  8  1  0  0  0  0
  7 26  1  0  0  0  0
  7 27  1  0  0  0  0
  8  9  1  0  0  0  0
  8 28  1  0  0  0  0
  8 40  1  0  0  0  0
  9 10  1  0  0  0  0
  9 11  1  0  0  0  0
  9 29  1  0  0  0  0
 10 30  1  0  0  0  0
 10 31  1  0  0  0  0
 10 32  1  0  0  0  0
 11 12  1  0  0  0  0
 11 13  1  0  0  0  0
 11 33  1  0  0  0  0
 12 34  1  0  0  0  0
 12 35  1  0  0  0  0
 12 36  1  0  0  0  0
 13 17  1  0  0  0  0
 13 14  1  0  0  0  0
 14 15  2  0  0  0  0
 14 37  1  0  0  0  0
 15 16  1  0  0  0  0
 15 38  1  0  0  0  0
 16 17  2  0  0  0  0
 16 39  1  0  0  0  0
M  CHG  1   8   1
M  END
> <s_m_source_file>
AV-unprocessed.smi

> <i_m_source_file_index>
3136

> <i_lp_mmshare_version>
43012

> <i_f3d_flags>
0

> <s_epik_input>
W0NIM11bQ0gyXVtOSF1DKD1PKVtDSDJdW0NIMl1bTkhdW0NASF0oW0NIM10pW0NASF0oW0NIM10pbjFbY0hdW2NIXVtjSF1uMQ==

> <s_epik_cmdline>
J2VwaWtfcHl0aG9uJywgJy1waCcsICc3LjAnLCAnLXRuJywgJzgnLCAnLW1hJywgJzIwMCcsICctbWV0YWxfYmluZGluZycsICctaW1hZScsICc8aW5maWxlLm1hZT4nLCAnLW9tYWUnLCAnPG91dGZpbGUubWFlPic=

> <r_lp_tautomer_probability>
1

> <r_epik_Ionization_Penalty>
0.00463447

> <r_epik_Ionization_Penalty_Charging>
0.00462393

> <r_epik_Ionization_Penalty_Neutral>
1.05394e-05

> <r_epik_State_Penalty>
-0

> <r_epik_Charging_Adjusted_Penalty>
0.00462393

> <i_epik_Tot_Q>
1

> <i_epik_Tot_abs_Q>
1

> <r_epik_Metal_State_Penalty>
-0

> <b_epik_Metal_Only>
0

> <s_lp_Force_Field>
OPLS_2005

> <r_lp_Energy>
10.4266

> <b_lp_Chiralities_Consistent>
1

> <s_lp_Variant>
AV-unprocessed.smi:3136-1

> <Gold.Version>
5.8.1

> <Gold.Id.Protein>
6NUR|6NUR_protein|mol2

> <Gold.PLP.Fitness>
45.5490

> <Gold.PLP.PLP>
-30.9394

> <Gold.PLP.part.hbond>
-2.0000

> <Gold.PLP.part.metal>
0.0000

> <Gold.PLP.part.buried>
-2.5723

> <Gold.PLP.part.nonpolar>
-28.2129

> <Gold.PLP.part.repulsive>
1.4200

> <Gold.PLP.ligand.clash>
0.0000

> <Gold.PLP.ligand.torsion>
1.0463

> <Gold.PLP.Chemscore.Hbond>
3.0000

> <Gold.PLP.Chemscore.CHOScore>
2.5091

> <Gold.PLP.Chemscore.Metal>
0.0000

> <Gold.Chemscore.Hbonds>
donor molecule, donor type, donor heavy atom, donor atom, acceptor molecule, acceptor atom, score
      L1  H     3    23       P1 10175  1.00
      L1  H     8    28       P1  7948  2.00
      L1  C    14    37       P1 10747  0.76
      L1  C    16    39       P1 10186  0.79
      L1  C    16    39       P1 10952  0.93

> <Gold.PLP.Chemscore.Internal.Correction>
0.1749

> <Gold.Rescore>
     Score         DG    S(hbond)    S(metal)    S(lipo)     H(rot)  DE(clash)    DE(int)     intcor
     12.33     -14.76       1.99        0.00      73.04       2.32       0.08       2.35       ----

> <Gold.Chemscore.Fitness>
12.3290

> <Gold.Chemscore.DG>
-14.7594

> <Gold.Chemscore.ZeroCoef>
-5.4800

> <Gold.Chemscore.Hbond>
1.9947

> <Gold.Chemscore.Metal>
0.0000

> <Gold.Chemscore.Lipo>
73.0391

> <Gold.Chemscore.Internal_Hbond>
0.0000

> <Gold.Chemscore.DEClash>
0.0823

> <Gold.Chemscore.DEInternal>
2.3481

> <Gold.Chemscore.Rot>
2.3159

> <Gold.Chemscore.Internal.Correction>
   9.000000E+99

> <Gold.Chemscore.Hbonds>
donor molecule, donor type, donor heavy atom, donor atom, acceptor molecule, acceptor atom, score
      L1  H     3    23       P1 10175  0.92
      L1  H     8    28       P1  7948  1.00

> <Gold.Chemscore.Hbond.Weighted>
-6.6624

> <Gold.Chemscore.Metal.Weighted>
-0.0000

> <Gold.Chemscore.Lipo.Weighted>
-8.5456

> <Gold.Chemscore.Internal_Hbond.Weighted>
0.0000

> <Gold.Chemscore.DEClash.Weighted>
0.0823

> <Gold.Chemscore.DEInternal.Weighted>
2.3481

> <Gold.Chemscore.Rot.Weighted>
5.9286

> <Gold.Chemscore.Internal.Correction.Weighted>
   9.000000E+99

> <Gold.Protein.RotatedTorsions>
[ 6907 6896 6895 6894 ] final -132.24 input  -60.11 | X-H torsion
[ 7974 7965 7964 7962 ] final  145.21 input  175.53 | X-H torsion
[ 8008 7997 7996 7995 ] final  101.54 input   59.86 | X-H torsion
[ 10167 10162 10161 10158 ] final   93.20 input  -65.29 | X-H torsion
[ 10718 10713 10712 10709 ] final  -63.78 input   66.30 | X-H torsion
[ 10763 10752 10751 10750 ] final   50.60 input  -60.55 | X-H torsion
[ 11005 11000 10999 10996 ] final  159.57 input  -57.11 | X-H torsion

> <Gold.Protein.ActiveResidues>
 VAL166  LYS551  ARG553  GLY616  TRP617  ASP618  TYR619  PRO620  LYS621  CYS622 
 ASP623  PHE694  ASN695  SER759  ASP760  ASP761  ALA762  ILE779  LEU786  VAL792 
 PHE793  MET794  SER795  GLU796  ALA797  LYS798  CYS799  TRP800  GLU811  SER814 

> <Gold.Protein.RotatedAtoms>
  150.9601  133.6454  159.2755 H   0  0  0  0  0  0  0  0  0  0  0  0  # atno 6907 bound_to 6896
  151.3780  135.0933  159.9496 H   0  0  0  0  0  0  0  0  0  0  0  0  # atno 6908 bound_to 6896
  152.5144  133.9142  159.7557 H   0  0  0  0  0  0  0  0  0  0  0  0  # atno 6909 bound_to 6896
  144.8771  139.5755  143.5860 H   0  0  0  0  0  0  0  0  0  0  0  0  # atno 7974 bound_to 7965
  156.1309  140.3196  155.8347 H   0  0  0  0  0  0  0  0  0  0  0  0  # atno 8008 bound_to 7997
  155.4334  140.0520  157.3034 H   0  0  0  0  0  0  0  0  0  0  0  0  # atno 8009 bound_to 7997
  154.4898  140.2087  155.9586 H   0  0  0  0  0  0  0  0  0  0  0  0  # atno 8010 bound_to 7997
  139.8202  144.6734  150.9528 H   0  0  0  0  0  0  0  0  0  0  0  0  # atno 10167 bound_to 10162
  156.0769  130.4225  150.1326 H   0  0  0  0  0  0  0  0  0  0  0  0  # atno 10718 bound_to 10713
  152.9784  135.5873  154.4279 H   0  0  0  0  0  0  0  0  0  0  0  0  # atno 10763 bound_to 10752
  154.3896  135.2767  155.2165 H   0  0  0  0  0  0  0  0  0  0  0  0  # atno 10764 bound_to 10752
  154.4043  135.6096  153.5969 H   0  0  0  0  0  0  0  0  0  0  0  0  # atno 10765 bound_to 10752
  140.1974  134.8363  157.2980 H   0  0  0  0  0  0  0  0  0  0  0  0  # atno 11005 bound_to 11000
  146.2970  139.7308  142.9119 LP  0  0  0  0  0  0  0  0  0  0  0  0  # atno 17320 bound_to 7965
  145.4022  141.0386  143.3064 LP  0  0  0  0  0  0  0  0  0  0  0  0  # atno 17321 bound_to 7965
  140.7813  143.4099  151.1010 LP  0  0  0  0  0  0  0  0  0  0  0  0  # atno 17342 bound_to 10162
  139.7759  143.8425  152.3129 LP  0  0  0  0  0  0  0  0  0  0  0  0  # atno 17343 bound_to 10162
  156.9366  130.9731  151.3524 LP  0  0  0  0  0  0  0  0  0  0  0  0  # atno 17370 bound_to 10713
  157.5869  130.8416  149.8602 LP  0  0  0  0  0  0  0  0  0  0  0  0  # atno 17371 bound_to 10713
  140.2092  134.4160  155.7622 LP  0  0  0  0  0  0  0  0  0  0  0  0  # atno 17394 bound_to 11000
  141.2227  133.7110  156.8310 LP  0  0  0  0  0  0  0  0  0  0  0  0  # atno 17395 bound_to 11000

$$$$
