AV-unprocessed.smi:1987|AV-procd|sdf|8054|dock1
  -GOLD-   2272010253D 1   1.00000     0.00000
 Structure written by MMmdl.
 37 39  0  0  0  0  0  0  0  0  2 V2000
  151.2628  135.2665  155.8822 O   0  0  0  0  0  0  0  0  0  0  0  0
  150.5281  135.6828  154.9873 C   0  0  0  0  0  0  0  0  0  0  0  0
  150.3784  137.1847  154.7519 C   0  0  0  0  0  0  0  0  0  0  0  0
  151.6394  137.8531  155.0157 N   0  0  0  0  0  0  0  0  0  0  0  0
  151.9583  139.1489  155.0280 C   0  0  0  0  0  0  0  0  0  0  0  0
  153.2495  139.3317  155.2594 N   0  0  0  0  0  0  0  0  0  0  0  0
  153.7306  138.0409  155.4018 N   0  0  0  0  0  0  0  0  0  0  0  0
  152.7801  137.1592  155.2583 N   0  0  0  0  0  0  0  0  0  0  0  0
  149.7791  134.8854  154.2107 N   0  0  0  0  0  0  0  0  0  0  0  0
  149.5864  133.4549  154.4138 C   0  0  0  0  0  0  0  0  0  0  0  0
  148.1483  133.0256  154.0583 C   0  0  2  0  0  0  0  0  0  0  0  0
  147.9485  131.5156  153.9482 C   0  0  0  0  0  0  0  0  0  0  0  0
  146.6968  131.3621  153.0730 C   0  0  0  0  0  0  0  0  0  0  0  0
  146.4976  132.6547  152.3760 N   0  3  2  0  0  0  0  0  0  0  0  0
  146.2266  132.5340  150.9281 C   0  0  0  0  0  0  0  0  0  0  0  0
  145.0762  133.3923  150.4583 C   0  0  0  0  0  0  0  0  0  0  0  0
  144.8944  131.8974  150.6130 C   0  0  0  0  0  0  0  0  0  0  0  0
  147.6510  133.5171  152.6975 C   0  0  0  0  0  0  0  0  0  0  0  0
  150.0838  137.3783  153.7197 H   0  0  0  0  0  0  0  0  0  0  0  0
  149.6024  137.5981  155.3980 H   0  0  0  0  0  0  0  0  0  0  0  0
  151.2552  139.9493  154.8506 H   0  0  0  0  0  0  0  0  0  0  0  0
  149.2236  135.3201  153.4876 H   0  0  0  0  0  0  0  0  0  0  0  0
  150.3031  132.9298  153.7817 H   0  0  0  0  0  0  0  0  0  0  0  0
  149.8238  133.1855  155.4444 H   0  0  0  0  0  0  0  0  0  0  0  0
  147.4648  133.3992  154.8227 H   0  0  0  0  0  0  0  0  0  0  0  0
  148.8020  131.0611  153.4428 H   0  0  0  0  0  0  0  0  0  0  0  0
  147.8431  131.0333  154.9206 H   0  0  0  0  0  0  0  0  0  0  0  0
  146.8099  130.5306  152.3756 H   0  0  0  0  0  0  0  0  0  0  0  0
  145.8165  131.1620  153.6845 H   0  0  0  0  0  0  0  0  0  0  0  0
  147.0884  132.3650  150.2844 H   0  0  0  0  0  0  0  0  0  0  0  0
  144.5844  134.0377  151.1844 H   0  0  0  0  0  0  0  0  0  0  0  0
  145.1249  133.7863  149.4451 H   0  0  0  0  0  0  0  0  0  0  0  0
  144.8237  131.3073  149.7014 H   0  0  0  0  0  0  0  0  0  0  0  0
  144.2816  131.5478  151.4420 H   0  0  0  0  0  0  0  0  0  0  0  0
  147.3647  134.5694  152.7081 H   0  0  0  0  0  0  0  0  0  0  0  0
  148.4315  133.3866  151.9457 H   0  0  0  0  0  0  0  0  0  0  0  0
  145.6894  133.0852  152.8024 H   0  0  0  0  0  0  0  0  0  0  0  0
  1  2  2  0  0  0  0
  2  3  1  0  0  0  0
  2  9  1  0  0  0  0
  3  4  1  0  0  0  0
  3 19  1  0  0  0  0
  3 20  1  0  0  0  0
  4  8  1  0  0  0  0
  4  5  1  0  0  0  0
  5  6  2  0  0  0  0
  5 21  1  0  0  0  0
  6  7  1  0  0  0  0
  7  8  2  0  0  0  0
  9 10  1  0  0  0  0
  9 22  1  0  0  0  0
 10 11  1  0  0  0  0
 10 23  1  0  0  0  0
 10 24  1  0  0  0  0
 11 18  1  0  0  0  0
 11 12  1  0  0  0  0
 11 25  1  0  0  0  0
 12 13  1  0  0  0  0
 12 26  1  0  0  0  0
 12 27  1  0  0  0  0
 13 14  1  0  0  0  0
 13 28  1  0  0  0  0
 13 29  1  0  0  0  0
 14 15  1  0  0  0  0
 14 18  1  0  0  0  0
 14 37  1  0  0  0  0
 15 17  1  0  0  0  0
 15 16  1  0  0  0  0
 15 30  1  0  0  0  0
 16 17  1  0  0  0  0
 16 31  1  0  0  0  0
 16 32  1  0  0  0  0
 17 33  1  0  0  0  0
 17 34  1  0  0  0  0
 18 35  1  0  0  0  0
 18 36  1  0  0  0  0
M  CHG  1  14   1
M  END
> <s_m_source_file>
AV-unprocessed.smi

> <i_m_source_file_index>
1987

> <i_lp_mmshare_version>
43012

> <i_f3d_flags>
0

> <s_epik_input>
bjFubltjSF1uMVtDSDJdQyg9TylbTkhdW0NIMl1bQ0BASF0yW0NIMl1bQ0gyXU4oW0NIMl0yKVtDSF0zW0NIMl1bQ0gyXTM=

> <s_epik_cmdline>
J2VwaWtfcHl0aG9uJywgJy1waCcsICc3LjAnLCAnLXRuJywgJzgnLCAnLW1hJywgJzIwMCcsICctbWV0YWxfYmluZGluZycsICctaW1hZScsICc8aW5maWxlLm1hZT4nLCAnLW9tYWUnLCAnPG91dGZpbGUubWFlPic=

> <r_lp_tautomer_probability>
1

> <r_epik_Ionization_Penalty>
0.000242849

> <r_epik_Ionization_Penalty_Charging>
0.000241326

> <r_epik_Ionization_Penalty_Neutral>
1.52322e-06

> <r_epik_State_Penalty>
-0

> <r_epik_Charging_Adjusted_Penalty>
0.000241326

> <i_epik_Tot_Q>
1

> <i_epik_Tot_abs_Q>
1

> <r_epik_Metal_State_Penalty>
-0

> <b_epik_Metal_Only>
0

> <s_lp_Force_Field>
OPLS_2005

> <r_lp_Energy>
37.5939

> <b_lp_Chiralities_Consistent>
1

> <s_lp_Variant>
AV-unprocessed.smi:1987-1

> <Gold.Version>
5.8.1

> <Gold.Id.Protein>
6NUR|6NUR_protein|mol2

> <Gold.PLP.Fitness>
41.2564

> <Gold.PLP.PLP>
-33.5444

> <Gold.PLP.part.hbond>
-5.7310

> <Gold.PLP.part.metal>
0.0000

> <Gold.PLP.part.buried>
-3.1028

> <Gold.PLP.part.nonpolar>
-25.3595

> <Gold.PLP.part.repulsive>
0.1317

> <Gold.PLP.ligand.clash>
0.0000

> <Gold.PLP.ligand.torsion>
1.3091

> <Gold.PLP.Chemscore.Hbond>
3.0000

> <Gold.PLP.Chemscore.CHOScore>
0.0000

> <Gold.PLP.Chemscore.Metal>
0.0000

> <Gold.Chemscore.Hbonds>
donor molecule, donor type, donor heavy atom, donor atom, acceptor molecule, acceptor atom, score
      L1  H     9    22       P1  7948  1.00
      P1  H  7997  8009       L1     6  1.00
      P1  H 10752 10764       L1     1  0.96

> <Gold.PLP.Chemscore.Internal.Correction>
1.3301

> <Gold.Rescore>
     Score         DG    S(hbond)    S(metal)    S(lipo)     H(rot)  DE(clash)    DE(int)     intcor
      8.19     -11.29       1.92        0.00      52.19       2.62       0.14       2.96       ----

> <Gold.Chemscore.Fitness>
8.1928

> <Gold.Chemscore.DG>
-11.2935

> <Gold.Chemscore.ZeroCoef>
-5.4800

> <Gold.Chemscore.Hbond>
1.9239

> <Gold.Chemscore.Metal>
0.0000

> <Gold.Chemscore.Lipo>
52.1885

> <Gold.Chemscore.Internal_Hbond>
0.0000

> <Gold.Chemscore.DEClash>
0.1363

> <Gold.Chemscore.DEInternal>
2.9644

> <Gold.Chemscore.Rot>
2.6244

> <Gold.Chemscore.Internal.Correction>
   9.000000E+99

> <Gold.Chemscore.Hbonds>
donor molecule, donor type, donor heavy atom, donor atom, acceptor molecule, acceptor atom, score
      L1  H     9    22       P1  7948  0.29
      P1  H  7997  8009       L1     6  0.30
      P1  H 10752 10764       L1     8  0.43

> <Gold.Chemscore.Hbond.Weighted>
-6.4260

> <Gold.Chemscore.Metal.Weighted>
-0.0000

> <Gold.Chemscore.Lipo.Weighted>
-6.1061

> <Gold.Chemscore.Internal_Hbond.Weighted>
0.0000

> <Gold.Chemscore.DEClash.Weighted>
0.1363

> <Gold.Chemscore.DEInternal.Weighted>
2.9644

> <Gold.Chemscore.Rot.Weighted>
6.7186

> <Gold.Chemscore.Internal.Correction.Weighted>
   9.000000E+99

> <Gold.Protein.RotatedTorsions>
[ 6907 6896 6895 6894 ] final -150.22 input  -60.11 | X-H torsion
[ 7974 7965 7964 7962 ] final  -18.58 input  175.53 | X-H torsion
[ 8008 7997 7996 7995 ] final -131.09 input   59.86 | X-H torsion
[ 10167 10162 10161 10158 ] final -148.93 input  -65.29 | X-H torsion
[ 10718 10713 10712 10709 ] final  -14.03 input   66.30 | X-H torsion
[ 10763 10752 10751 10750 ] final  -30.35 input  -60.55 | X-H torsion
[ 11005 11000 10999 10996 ] final  -74.93 input  -57.11 | X-H torsion

> <Gold.Protein.ActiveResidues>
 VAL166  LYS551  ARG553  GLY616  TRP617  ASP618  TYR619  PRO620  LYS621  CYS622 
 ASP623  PHE694  ASN695  SER759  ASP760  ASP761  ALA762  ILE779  LEU786  VAL792 
 PHE793  MET794  SER795  GLU796  ALA797  LYS798  CYS799  TRP800  GLU811  SER814 

> <Gold.Protein.RotatedAtoms>
  151.1954  133.4642  159.2595 H   0  0  0  0  0  0  0  0  0  0  0  0  # atno 6907 bound_to 6896
  151.1122  135.0033  159.8509 H   0  0  0  0  0  0  0  0  0  0  0  0  # atno 6908 bound_to 6896
  152.5451  134.1872  159.8712 H   0  0  0  0  0  0  0  0  0  0  0  0  # atno 6909 bound_to 6896
  146.1885  140.3941  142.8467 H   0  0  0  0  0  0  0  0  0  0  0  0  # atno 7974 bound_to 7965
  155.3065  140.0455  157.3032 H   0  0  0  0  0  0  0  0  0  0  0  0  # atno 8008 bound_to 7997
  154.5457  140.2302  155.8534 H   0  0  0  0  0  0  0  0  0  0  0  0  # atno 8009 bound_to 7997
  156.1922  140.3048  155.9361 H   0  0  0  0  0  0  0  0  0  0  0  0  # atno 8010 bound_to 7997
  139.7488  143.8550  152.2581 H   0  0  0  0  0  0  0  0  0  0  0  0  # atno 10167 bound_to 10162
  156.6218  130.4877  149.6162 H   0  0  0  0  0  0  0  0  0  0  0  0  # atno 10718 bound_to 10713
  153.7795  135.6906  153.4891 H   0  0  0  0  0  0  0  0  0  0  0  0  # atno 10763 bound_to 10752
  153.1821  135.4502  155.0040 H   0  0  0  0  0  0  0  0  0  0  0  0  # atno 10764 bound_to 10752
  154.8087  135.3368  154.7298 H   0  0  0  0  0  0  0  0  0  0  0  0  # atno 10765 bound_to 10752
  141.1640  133.6928  156.7440 H   0  0  0  0  0  0  0  0  0  0  0  0  # atno 11005 bound_to 11000
  144.8441  140.6903  143.6210 LP  0  0  0  0  0  0  0  0  0  0  0  0  # atno 17320 bound_to 7965
  145.3866  139.1625  143.4252 LP  0  0  0  0  0  0  0  0  0  0  0  0  # atno 17321 bound_to 7965
  139.8522  144.7158  150.9200 LP  0  0  0  0  0  0  0  0  0  0  0  0  # atno 17342 bound_to 10162
  140.7795  143.3889  151.1345 LP  0  0  0  0  0  0  0  0  0  0  0  0  # atno 17343 bound_to 10162
  156.2306  130.6792  151.1459 LP  0  0  0  0  0  0  0  0  0  0  0  0  # atno 17370 bound_to 10713
  157.7225  131.0672  150.6073 LP  0  0  0  0  0  0  0  0  0  0  0  0  # atno 17371 bound_to 10713
  140.2653  134.8434  157.3797 LP  0  0  0  0  0  0  0  0  0  0  0  0  # atno 17394 bound_to 11000
  140.1572  134.4775  155.7920 LP  0  0  0  0  0  0  0  0  0  0  0  0  # atno 17395 bound_to 11000

$$$$
