AV-unprocessed.smi:3307|AV-procd|sdf|12707|dock6
  -GOLD-   2272019 43D 1   1.00000     0.00000
 Structure written by MMmdl.
 31 32  0  0  0  0  0  0  0  0  2 V2000
  153.2590  141.8981  161.9302 C   0  0  0  0  0  0  0  0  0  0  0  0
  152.7436  142.8421  160.8844 C   0  0  0  0  0  0  0  0  0  0  0  0
  153.1396  142.9508  159.5221 C   0  0  0  0  0  0  0  0  0  0  0  0
  152.3631  143.9586  159.0239 C   0  0  0  0  0  0  0  0  0  0  0  0
  152.3112  144.5442  157.6512 C   0  0  0  0  0  0  0  0  0  0  0  0
  151.5613  144.3975  160.0624 N   0  0  0  0  0  0  0  0  0  0  0  0
  150.5519  145.4440  160.0635 C   0  0  0  0  0  0  0  0  0  0  0  0
  149.1204  144.8801  160.1347 C   0  0  1  0  0  0  0  0  0  0  0  0
  148.6596  144.4399  161.5282 C   0  0  0  0  0  0  0  0  0  0  0  0
  147.1414  144.5097  161.4189 C   0  0  0  0  0  0  0  0  0  0  0  0
  146.9085  145.7258  160.5196 C   0  0  0  0  0  0  0  0  0  0  0  0
  148.1178  145.8653  159.6828 N   0  3  0  0  0  0  0  0  0  0  0  0
  151.7987  143.7117  161.2012 N   0  0  0  0  0  0  0  0  0  0  0  0
  154.0490  141.2613  161.5317 H   0  0  0  0  0  0  0  0  0  0  0  0
  152.4648  141.2487  162.2991 H   0  0  0  0  0  0  0  0  0  0  0  0
  153.6698  142.4412  162.7817 H   0  0  0  0  0  0  0  0  0  0  0  0
  153.8832  142.3751  158.9909 H   0  0  0  0  0  0  0  0  0  0  0  0
  153.0264  144.0523  156.9918 H   0  0  0  0  0  0  0  0  0  0  0  0
  152.5537  145.6068  157.6718 H   0  0  0  0  0  0  0  0  0  0  0  0
  151.3197  144.4284  157.2143 H   0  0  0  0  0  0  0  0  0  0  0  0
  150.7386  146.1072  160.9099 H   0  0  0  0  0  0  0  0  0  0  0  0
  150.6769  146.0502  159.1659 H   0  0  0  0  0  0  0  0  0  0  0  0
  149.0383  144.0220  159.4662 H   0  0  0  0  0  0  0  0  0  0  0  0
  149.0200  143.4471  161.8005 H   0  0  0  0  0  0  0  0  0  0  0  0
  149.0075  145.1448  162.2850 H   0  0  0  0  0  0  0  0  0  0  0  0
  146.7657  143.6096  160.9304 H   0  0  0  0  0  0  0  0  0  0  0  0
  146.6487  144.5976  162.3876 H   0  0  0  0  0  0  0  0  0  0  0  0
  146.0116  145.6220  159.9087 H   0  0  0  0  0  0  0  0  0  0  0  0
  146.8030  146.6279  161.1229 H   0  0  0  0  0  0  0  0  0  0  0  0
  148.4853  146.7982  159.8038 H   0  0  0  0  0  0  0  0  0  0  0  0
  147.8985  145.7110  158.7090 H   0  0  0  0  0  0  0  0  0  0  0  0
  1  2  1  0  0  0  0
  1 14  1  0  0  0  0
  1 15  1  0  0  0  0
  1 16  1  0  0  0  0
  2 13  2  0  0  0  0
  2  3  1  0  0  0  0
  3  4  2  0  0  0  0
  3 17  1  0  0  0  0
  4  5  1  0  0  0  0
  4  6  1  0  0  0  0
  5 18  1  0  0  0  0
  5 19  1  0  0  0  0
  5 20  1  0  0  0  0
  6  7  1  0  0  0  0
  6 13  1  0  0  0  0
  7  8  1  0  0  0  0
  7 21  1  0  0  0  0
  7 22  1  0  0  0  0
  8 12  1  0  0  0  0
  8  9  1  0  0  0  0
  8 23  1  0  0  0  0
  9 10  1  0  0  0  0
  9 24  1  0  0  0  0
  9 25  1  0  0  0  0
 10 11  1  0  0  0  0
 10 26  1  0  0  0  0
 10 27  1  0  0  0  0
 11 12  1  0  0  0  0
 11 28  1  0  0  0  0
 11 29  1  0  0  0  0
 12 30  1  0  0  0  0
 12 31  1  0  0  0  0
M  CHG  1  12   1
M  END
> <s_m_source_file>
AV-unprocessed.smi

> <i_m_source_file_index>
3307

> <i_lp_mmshare_version>
43012

> <i_f3d_flags>
0

> <s_epik_input>
W0NIM11jMVtjSF1jKFtDSDNdKW4objEpW0NIMl1bQ0BASF0yW0NIMl1bQ0gyXVtDSDJdW05IXTI=

> <s_epik_cmdline>
J2VwaWtfcHl0aG9uJywgJy1waCcsICc3LjAnLCAnLXRuJywgJzgnLCAnLW1hJywgJzIwMCcsICctbWV0YWxfYmluZGluZycsICctaW1hZScsICc8aW5maWxlLm1hZT4nLCAnLW9tYWUnLCAnPG91dGZpbGUubWFlPic=

> <r_lp_tautomer_probability>
1

> <r_epik_Ionization_Penalty>
0.000974324

> <r_epik_Ionization_Penalty_Charging>
0.000863359

> <r_epik_Ionization_Penalty_Neutral>
0.000110964

> <r_epik_State_Penalty>
-0

> <r_epik_Charging_Adjusted_Penalty>
0.000863359

> <i_epik_Tot_Q>
1

> <i_epik_Tot_abs_Q>
1

> <r_epik_Metal_State_Penalty>
-0

> <b_epik_Metal_Only>
0

> <s_lp_Force_Field>
OPLS_2005

> <r_lp_Energy>
22.7328

> <b_lp_Chiralities_Consistent>
1

> <s_lp_Variant>
AV-unprocessed.smi:3307-2

> <Gold.Version>
5.8.1

> <Gold.Id.Protein>
6NUR|6NUR_protein|mol2

> <Gold.PLP.Fitness>
40.6129

> <Gold.PLP.PLP>
-35.2772

> <Gold.PLP.part.hbond>
-0.7377

> <Gold.PLP.part.metal>
0.0000

> <Gold.PLP.part.buried>
-2.3398

> <Gold.PLP.part.nonpolar>
-34.2505

> <Gold.PLP.part.repulsive>
1.6262

> <Gold.PLP.ligand.clash>
0.0000

> <Gold.PLP.ligand.torsion>
0.3082

> <Gold.PLP.Chemscore.Hbond>
1.9840

> <Gold.PLP.Chemscore.CHOScore>
0.0000

> <Gold.PLP.Chemscore.Metal>
0.0000

> <Gold.Chemscore.Hbonds>
donor molecule, donor type, donor heavy atom, donor atom, acceptor molecule, acceptor atom, score
      L1  H    12    31       P1  8029  1.56

> <Gold.PLP.Chemscore.Internal.Correction>
0.0001

> <Gold.Rescore>
     Score         DG    S(hbond)    S(metal)    S(lipo)     H(rot)  DE(clash)    DE(int)     intcor
     14.88     -17.36       0.98        0.00      99.17       1.16       2.25       0.23       ----

> <Gold.Chemscore.Fitness>
14.8826

> <Gold.Chemscore.DG>
-17.3647

> <Gold.Chemscore.ZeroCoef>
-5.4800

> <Gold.Chemscore.Hbond>
0.9755

> <Gold.Chemscore.Metal>
0.0000

> <Gold.Chemscore.Lipo>
99.1746

> <Gold.Chemscore.Internal_Hbond>
0.0000

> <Gold.Chemscore.DEClash>
2.2520

> <Gold.Chemscore.DEInternal>
0.2301

> <Gold.Chemscore.Rot>
1.1628

> <Gold.Chemscore.Internal.Correction>
   9.000000E+99

> <Gold.Chemscore.Hbonds>
donor molecule, donor type, donor heavy atom, donor atom, acceptor molecule, acceptor atom, score
      L1  H    12    31       P1  8029  0.76

> <Gold.Chemscore.Hbond.Weighted>
-3.2581

> <Gold.Chemscore.Metal.Weighted>
-0.0000

> <Gold.Chemscore.Lipo.Weighted>
-11.6034

> <Gold.Chemscore.Internal_Hbond.Weighted>
0.0000

> <Gold.Chemscore.DEClash.Weighted>
2.2520

> <Gold.Chemscore.DEInternal.Weighted>
0.2301

> <Gold.Chemscore.Rot.Weighted>
2.9768

> <Gold.Chemscore.Internal.Correction.Weighted>
   9.000000E+99

> <Gold.Protein.RotatedTorsions>
[ 6907 6896 6895 6894 ] final  -98.78 input  -60.11 | X-H torsion
[ 7974 7965 7964 7962 ] final -130.96 input  175.53 | X-H torsion
[ 8008 7997 7996 7995 ] final  -69.18 input   59.86 | X-H torsion
[ 10167 10162 10161 10158 ] final  -51.80 input  -65.29 | X-H torsion
[ 10718 10713 10712 10709 ] final  -20.80 input   66.30 | X-H torsion
[ 10763 10752 10751 10750 ] final  176.72 input  -60.55 | X-H torsion
[ 11005 11000 10999 10996 ] final -130.74 input  -57.11 | X-H torsion

> <Gold.Protein.ActiveResidues>
 VAL166  LYS551  ARG553  GLY616  TRP617  ASP618  TYR619  PRO620  LYS621  CYS622 
 ASP623  PHE694  ASN695  SER759  ASP760  ASP761  ALA762  ILE779  LEU786  VAL792 
 PHE793  MET794  SER795  GLU796  ALA797  LYS798  CYS799  TRP800  GLU811  SER814 

> <Gold.Protein.RotatedAtoms>
  150.7058  134.1142  159.4010 H   0  0  0  0  0  0  0  0  0  0  0  0  # atno 6907 bound_to 6896
  151.9128  135.0329  160.0525 H   0  0  0  0  0  0  0  0  0  0  0  0  # atno 6908 bound_to 6896
  152.2321  133.5031  159.5258 H   0  0  0  0  0  0  0  0  0  0  0  0  # atno 6909 bound_to 6896
  144.9425  140.7254  143.4838 H   0  0  0  0  0  0  0  0  0  0  0  0  # atno 7974 bound_to 7965
  154.4920  140.0858  156.7615 H   0  0  0  0  0  0  0  0  0  0  0  0  # atno 8008 bound_to 7997
  155.4207  140.3445  155.4253 H   0  0  0  0  0  0  0  0  0  0  0  0  # atno 8009 bound_to 7997
  156.1343  140.1510  156.9006 H   0  0  0  0  0  0  0  0  0  0  0  0  # atno 8010 bound_to 7997
  140.6570  143.2606  151.4556 H   0  0  0  0  0  0  0  0  0  0  0  0  # atno 10167 bound_to 10162
  156.5269  130.4646  149.6567 H   0  0  0  0  0  0  0  0  0  0  0  0  # atno 10718 bound_to 10713
  154.4849  135.2776  155.1542 H   0  0  0  0  0  0  0  0  0  0  0  0  # atno 10763 bound_to 10752
  154.3237  135.6204  153.5523 H   0  0  0  0  0  0  0  0  0  0  0  0  # atno 10764 bound_to 10752
  152.9880  135.5749  154.5258 H   0  0  0  0  0  0  0  0  0  0  0  0  # atno 10765 bound_to 10752
  140.9319  134.1308  157.4227 H   0  0  0  0  0  0  0  0  0  0  0  0  # atno 11005 bound_to 11000
  145.2970  139.1864  143.4710 LP  0  0  0  0  0  0  0  0  0  0  0  0  # atno 17320 bound_to 7965
  146.3291  140.2955  142.8617 LP  0  0  0  0  0  0  0  0  0  0  0  0  # atno 17321 bound_to 7965
  139.5794  144.1743  152.1948 LP  0  0  0  0  0  0  0  0  0  0  0  0  # atno 17342 bound_to 10162
  140.1064  144.5495  150.6954 LP  0  0  0  0  0  0  0  0  0  0  0  0  # atno 17343 bound_to 10162
  156.3096  130.7222  151.2112 LP  0  0  0  0  0  0  0  0  0  0  0  0  # atno 17370 bound_to 10713
  157.7428  131.0484  150.4996 LP  0  0  0  0  0  0  0  0  0  0  0  0  # atno 17371 bound_to 10713
  139.8798  135.0008  156.6030 LP  0  0  0  0  0  0  0  0  0  0  0  0  # atno 17394 bound_to 11000
  140.7851  133.8628  155.8599 LP  0  0  0  0  0  0  0  0  0  0  0  0  # atno 17395 bound_to 11000

$$$$
