AV-unprocessed.smi:1133|AV-procd|sdf|4855|dock9
  -GOLD-   22720 3423D 1   1.00000     0.00000
 Structure written by MMmdl.
 42 43  0  0  0  0  0  0  0  0  2 V2000
  152.2627  138.7455  157.7714 C   0  0  0  0  0  0  0  0  0  0  0  0
  150.8230  139.2612  157.8265 C   0  0  0  0  0  0  0  0  0  0  0  0
  150.1697  139.0436  158.8471 O   0  0  0  0  0  0  0  0  0  0  0  0
  150.3204  139.9382  156.7661 N   0  0  0  0  0  0  0  0  0  0  0  0
  151.0673  140.1245  155.5170 C   0  0  0  0  0  0  0  0  0  0  0  0
  150.4276  139.2507  154.4228 C   0  0  0  0  0  0  0  0  0  0  0  0
  148.9262  139.5690  154.2542 C   0  0  0  0  0  0  0  0  0  0  0  0
  148.3163  138.5967  153.3522 N   0  0  0  0  0  0  0  0  0  0  0  0
  146.9992  138.3828  153.2268 C   0  0  0  0  0  0  0  0  0  0  0  0
  146.1355  138.9986  153.8524 O   0  0  0  0  0  0  0  0  0  0  0  0
  146.7325  137.4089  152.3451 N   0  0  0  0  0  0  0  0  0  0  0  0
  145.3938  136.9437  152.0039 C   0  0  0  0  0  0  0  0  0  0  0  0
  145.4282  135.8854  150.8882 C   0  0  0  0  0  0  0  0  0  0  0  0
  144.6182  134.7148  151.2266 N   0  0  0  0  0  0  0  0  0  0  0  0
  144.3017  133.6570  150.4138 C   0  0  0  0  0  0  0  0  0  0  0  0
  143.5269  132.8086  151.1622 C   0  0  0  0  0  0  0  0  0  0  0  0
  143.4021  133.3854  152.3982 N   0  3  0  0  0  0  0  0  0  0  0  0
  144.0666  134.5450  152.4351 C   0  0  0  0  0  0  0  0  0  0  0  0
  148.1935  139.5780  155.6163 C   0  0  0  0  0  0  0  0  0  0  0  0
  148.9442  140.4356  156.6500 C   0  0  0  0  0  0  0  0  0  0  0  0
  152.9623  139.5660  157.6090 H   0  0  0  0  0  0  0  0  0  0  0  0
  152.3807  138.0139  156.9718 H   0  0  0  0  0  0  0  0  0  0  0  0
  152.5330  138.2594  158.7094 H   0  0  0  0  0  0  0  0  0  0  0  0
  151.0328  141.1756  155.2268 H   0  0  0  0  0  0  0  0  0  0  0  0
  152.1254  139.8793  155.6165 H   0  0  0  0  0  0  0  0  0  0  0  0
  150.9504  139.3982  153.4770 H   0  0  0  0  0  0  0  0  0  0  0  0
  150.5567  138.1999  154.6874 H   0  0  0  0  0  0  0  0  0  0  0  0
  148.8482  140.5652  153.8143 H   0  0  0  0  0  0  0  0  0  0  0  0
  148.9456  138.0393  152.7927 H   0  0  0  0  0  0  0  0  0  0  0  0
  147.5074  136.9603  151.8785 H   0  0  0  0  0  0  0  0  0  0  0  0
  144.9038  136.5483  152.8953 H   0  0  0  0  0  0  0  0  0  0  0  0
  144.8060  137.8041  151.6824 H   0  0  0  0  0  0  0  0  0  0  0  0
  145.0496  136.2981  149.9522 H   0  0  0  0  0  0  0  0  0  0  0  0
  146.4469  135.5433  150.6989 H   0  0  0  0  0  0  0  0  0  0  0  0
  144.6423  133.5881  149.3907 H   0  0  0  0  0  0  0  0  0  0  0  0
  143.0669  131.8630  150.9143 H   0  0  0  0  0  0  0  0  0  0  0  0
  144.1421  135.2132  153.2747 H   0  0  0  0  0  0  0  0  0  0  0  0
  147.1763  139.9522  155.4953 H   0  0  0  0  0  0  0  0  0  0  0  0
  148.1044  138.5586  155.9957 H   0  0  0  0  0  0  0  0  0  0  0  0
  148.4005  140.4410  157.5936 H   0  0  0  0  0  0  0  0  0  0  0  0
  148.9659  141.4762  156.3232 H   0  0  0  0  0  0  0  0  0  0  0  0
  142.8829  132.9933  153.1736 H   0  0  0  0  0  0  0  0  0  0  0  0
  1  2  1  0  0  0  0
  1 21  1  0  0  0  0
  1 22  1  0  0  0  0
  1 23  1  0  0  0  0
  2  3  2  0  0  0  0
  2  4  1  0  0  0  0
  4 20  1  0  0  0  0
  4  5  1  0  0  0  0
  5  6  1  0  0  0  0
  5 24  1  0  0  0  0
  5 25  1  0  0  0  0
  6  7  1  0  0  0  0
  6 26  1  0  0  0  0
  6 27  1  0  0  0  0
  7  8  1  0  0  0  0
  7 19  1  0  0  0  0
  7 28  1  0  0  0  0
  8  9  1  0  0  0  0
  8 29  1  0  0  0  0
  9 10  2  0  0  0  0
  9 11  1  0  0  0  0
 11 12  1  0  0  0  0
 11 30  1  0  0  0  0
 12 13  1  0  0  0  0
 12 31  1  0  0  0  0
 12 32  1  0  0  0  0
 13 14  1  0  0  0  0
 13 33  1  0  0  0  0
 13 34  1  0  0  0  0
 14 18  1  0  0  0  0
 14 15  1  0  0  0  0
 15 16  2  0  0  0  0
 15 35  1  0  0  0  0
 16 17  1  0  0  0  0
 16 36  1  0  0  0  0
 17 18  2  0  0  0  0
 17 42  1  0  0  0  0
 18 37  1  0  0  0  0
 19 20  1  0  0  0  0
 19 38  1  0  0  0  0
 19 39  1  0  0  0  0
 20 40  1  0  0  0  0
 20 41  1  0  0  0  0
M  CHG  1  17   1
M  END
> <s_m_source_file>
AV-unprocessed.smi

> <i_m_source_file_index>
1133

> <i_lp_mmshare_version>
43012

> <i_f3d_flags>
0

> <s_epik_input>
W0NIM11DKD1PKU4xW0NIMl1bQ0gyXVtDSF0oW0NIMl1bQ0gyXTEpW05IXUMoPU8pW05IXVtDSDJdW0NIMl1uMltjSF1bY0hdbltjSF0y

> <s_epik_cmdline>
J2VwaWtfcHl0aG9uJywgJy1waCcsICc3LjAnLCAnLXRuJywgJzgnLCAnLW1hJywgJzIwMCcsICctbWV0YWxfYmluZGluZycsICctaW1hZScsICc8aW5maWxlLm1hZT4nLCAnLW9tYWUnLCAnPG91dGZpbGUubWFlPic=

> <r_lp_tautomer_probability>
1

> <r_epik_Ionization_Penalty>
0.255167

> <r_epik_Ionization_Penalty_Charging>
0

> <r_epik_Ionization_Penalty_Neutral>
0.255167

> <r_epik_State_Penalty>
0.246616

> <r_epik_Charging_Adjusted_Penalty>
0.246616

> <i_epik_Tot_Q>
1

> <i_epik_Tot_abs_Q>
1

> <r_epik_Metal_State_Penalty>
0.536415

> <b_epik_Metal_Only>
0

> <s_lp_Force_Field>
OPLS_2005

> <r_lp_Energy>
22.8295

> <b_lp_Chiralities_Consistent>
1

> <s_lp_Variant>
AV-unprocessed.smi:1133-1

> <Gold.Version>
5.8.1

> <Gold.Id.Protein>
6NUR|6NUR_protein|mol2

> <Gold.PLP.Fitness>
44.7449

> <Gold.PLP.PLP>
-31.7412

> <Gold.PLP.part.hbond>
-4.3948

> <Gold.PLP.part.metal>
0.0000

> <Gold.PLP.part.buried>
-2.6734

> <Gold.PLP.part.nonpolar>
-25.5836

> <Gold.PLP.part.repulsive>
0.2700

> <Gold.PLP.ligand.clash>
0.0000

> <Gold.PLP.ligand.torsion>
0.6612

> <Gold.PLP.Chemscore.Hbond>
3.7680

> <Gold.PLP.Chemscore.CHOScore>
1.0000

> <Gold.PLP.Chemscore.Metal>
0.0000

> <Gold.Chemscore.Hbonds>
donor molecule, donor type, donor heavy atom, donor atom, acceptor molecule, acceptor atom, score
      L1  H     8    29       P1  7948  0.80
      L1  H    11    30       P1  7948  1.00
      L1  H    17    42       P1 10957  2.00
      L1  C    15    35       P1  7921  0.81

> <Gold.PLP.Chemscore.Internal.Correction>
0.0221

> <Gold.Rescore>
     Score         DG    S(hbond)    S(metal)    S(lipo)     H(rot)  DE(clash)    DE(int)     intcor
     13.72     -16.12       2.72        0.00      58.91       2.08       0.26       2.15       ----

> <Gold.Chemscore.Fitness>
13.7168

> <Gold.Chemscore.DG>
-16.1248

> <Gold.Chemscore.ZeroCoef>
-5.4800

> <Gold.Chemscore.Hbond>
2.7170

> <Gold.Chemscore.Metal>
0.0000

> <Gold.Chemscore.Lipo>
58.9146

> <Gold.Chemscore.Internal_Hbond>
0.0000

> <Gold.Chemscore.DEClash>
0.2615

> <Gold.Chemscore.DEInternal>
2.1465

> <Gold.Chemscore.Rot>
2.0794

> <Gold.Chemscore.Internal.Correction>
   9.000000E+99

> <Gold.Chemscore.Hbonds>
donor molecule, donor type, donor heavy atom, donor atom, acceptor molecule, acceptor atom, score
      L1  H     8    29       P1  7948  0.76
      L1  H    11    30       P1  7948  0.96
      L1  H    17    42       P1 10957  0.60

> <Gold.Chemscore.Hbond.Weighted>
-9.0749

> <Gold.Chemscore.Metal.Weighted>
-0.0000

> <Gold.Chemscore.Lipo.Weighted>
-6.8930

> <Gold.Chemscore.Internal_Hbond.Weighted>
0.0000

> <Gold.Chemscore.DEClash.Weighted>
0.2615

> <Gold.Chemscore.DEInternal.Weighted>
2.1465

> <Gold.Chemscore.Rot.Weighted>
5.3232

> <Gold.Chemscore.Internal.Correction.Weighted>
   9.000000E+99

> <Gold.Protein.RotatedTorsions>
[ 6907 6896 6895 6894 ] final  -54.21 input  -60.11 | X-H torsion
[ 7974 7965 7964 7962 ] final -115.95 input  175.53 | X-H torsion
[ 8008 7997 7996 7995 ] final -105.83 input   59.86 | X-H torsion
[ 10167 10162 10161 10158 ] final   65.76 input  -65.29 | X-H torsion
[ 10718 10713 10712 10709 ] final  -17.44 input   66.30 | X-H torsion
[ 10763 10752 10751 10750 ] final -144.59 input  -60.55 | X-H torsion
[ 11005 11000 10999 10996 ] final  164.77 input  -57.11 | X-H torsion

> <Gold.Protein.ActiveResidues>
 VAL166  LYS551  ARG553  GLY616  TRP617  ASP618  TYR619  PRO620  LYS621  CYS622 
 ASP623  PHE694  ASN695  SER759  ASP760  ASP761  ALA762  ILE779  LEU786  VAL792 
 PHE793  MET794  SER795  GLU796  ALA797  LYS798  CYS799  TRP800  GLU811  SER814 

> <Gold.Protein.RotatedAtoms>
  150.8358  134.7630  159.6891 H   0  0  0  0  0  0  0  0  0  0  0  0  # atno 6907 bound_to 6896
  152.4455  134.5500  159.9874 H   0  0  0  0  0  0  0  0  0  0  0  0  # atno 6908 bound_to 6896
  151.5651  133.3360  159.3014 H   0  0  0  0  0  0  0  0  0  0  0  0  # atno 6909 bound_to 6896
  145.1024  140.8560  143.3918 H   0  0  0  0  0  0  0  0  0  0  0  0  # atno 7974 bound_to 7965
  154.9056  140.0411  157.1917 H   0  0  0  0  0  0  0  0  0  0  0  0  # atno 8008 bound_to 7997
  154.8400  140.2913  155.5644 H   0  0  0  0  0  0  0  0  0  0  0  0  # atno 8009 bound_to 7997
  156.2991  140.2484  156.3341 H   0  0  0  0  0  0  0  0  0  0  0  0  # atno 8010 bound_to 7997
  140.1077  144.4846  150.6997 H   0  0  0  0  0  0  0  0  0  0  0  0  # atno 10167 bound_to 10162
  156.5735  130.4756  149.6352 H   0  0  0  0  0  0  0  0  0  0  0  0  # atno 10718 bound_to 10713
  154.8421  135.3436  154.6370 H   0  0  0  0  0  0  0  0  0  0  0  0  # atno 10763 bound_to 10752
  153.6981  135.6971  153.5075 H   0  0  0  0  0  0  0  0  0  0  0  0  # atno 10764 bound_to 10752
  153.2544  135.4343  155.0785 H   0  0  0  0  0  0  0  0  0  0  0  0  # atno 10765 bound_to 10752
  140.2493  134.7989  157.3487 H   0  0  0  0  0  0  0  0  0  0  0  0  # atno 11005 bound_to 11000
  145.0940  139.2870  143.5720 LP  0  0  0  0  0  0  0  0  0  0  0  0  # atno 17320 bound_to 7965
  146.3529  140.0486  142.8637 LP  0  0  0  0  0  0  0  0  0  0  0  0  # atno 17321 bound_to 7965
  140.6943  143.2394  151.5045 LP  0  0  0  0  0  0  0  0  0  0  0  0  # atno 17342 bound_to 10162
  139.5636  144.2096  152.1730 LP  0  0  0  0  0  0  0  0  0  0  0  0  # atno 17343 bound_to 10162
  156.2694  130.7008  151.1801 LP  0  0  0  0  0  0  0  0  0  0  0  0  # atno 17370 bound_to 10713
  157.7343  131.0583  150.5533 LP  0  0  0  0  0  0  0  0  0  0  0  0  # atno 17371 bound_to 10713
  140.1574  134.4772  155.7918 LP  0  0  0  0  0  0  0  0  0  0  0  0  # atno 17394 bound_to 11000
  141.2203  133.6887  156.7484 LP  0  0  0  0  0  0  0  0  0  0  0  0  # atno 17395 bound_to 11000

$$$$
