#       Name:                AV-unprocessed.smi:1016
#       Creating user name   scv26
#       Creation time:       Fri Mar 27 02:39:40 2020


#       File generated by GOLD software.
#

@<TRIPOS>MOLECULE
AV-unprocessed.smi:1016
    48    49     1
SMALL
NO_CHARGES


@<TRIPOS>ATOM
      1 ****        -4.0140   2.0052  -1.2973 C.3            1 S1                 0.0000
      2 ****        -3.4248   1.5934   0.0191 C.2            1 S1                 0.0000
      3 ****        -3.2478   2.5133   1.1264 C.2            1 S1                 0.0000
      4 ****        -2.7119   2.0634   2.2812 C.2            1 S1                 0.0000
      5 ****        -2.2986   0.6715   2.4456 C.2            1 S1                 0.0000
      6 ****        -1.8027   0.2328   3.4828 O.2            1 S1                 0.0000
      7 ****        -2.5056  -0.0976   1.3353 N.am           1 S1                 0.0000
      8 ****        -2.0998  -1.5126   1.3004 C.3            1 S1                 0.0000
      9 ****        -0.6349  -1.7535   0.8929 C.2            1 S1                 0.0000
     10 ****        -0.1925  -2.8989   0.9585 O.2            1 S1                 0.0000
     11 ****         0.0746  -0.6809   0.4875 N.am           1 S1                 0.0000
     12 ****         1.4660  -0.5133   0.0427 C.3            1 S1                 0.0000
     13 ****         2.0862   0.4862   1.0530 C.2            1 S1                 0.0000
     14 ****         2.7338   0.0225   2.0180 O.co2          1 S1                 0.0000
     15 ****         1.8656   1.7058   0.8759 O.co2          1 S1                -1.0000
     16 ****         2.2942  -1.8359  -0.0318 C.3            1 S1                 0.0000
     17 ****         3.6876  -1.6466  -0.6631 C.3            1 S1                 0.0000
     18 ****         3.5821  -1.0268  -2.0637 C.3            1 S1                 0.0000
     19 ****         2.7972   0.2920  -2.0275 C.3            1 S1                 0.0000
     20 ****         1.4088   0.0974  -1.3871 C.3            1 S1                 0.0000
     21 ****        -3.0653   0.3592   0.1529 N.2            1 S1                 0.0000
     22 ****        -4.2735   3.0641  -1.2997 H              1 S1                 0.0000
     23 ****        -4.9206   1.4385  -1.5112 H              1 S1                 0.0000
     24 ****        -3.3069   1.8330  -2.1093 H              1 S1                 0.0000
     25 ****        -3.5442   3.5463   1.0202 H              1 S1                 0.0000
     26 ****        -2.5796   2.7495   3.1048 H              1 S1                 0.0000
     27 ****        -2.2751  -1.9836   2.2691 H              1 S1                 0.0000
     28 ****        -2.7342  -2.0576   0.5993 H              1 S1                 0.0000
     29 ****        -0.4381   0.1888   0.5107 H              1 S1                 0.0000
     30 ****         2.4019  -2.2925   0.9531 H              1 S1                 0.0000
     31 ****         1.7602  -2.5638  -0.6437 H              1 S1                 0.0000
     32 ****         4.3093  -1.0158  -0.0270 H              1 S1                 0.0000
     33 ****         4.1962  -2.6089  -0.7252 H              1 S1                 0.0000
     34 ****         4.5782  -0.8573  -2.4733 H              1 S1                 0.0000
     35 ****         3.0857  -1.7276  -2.7359 H              1 S1                 0.0000
     36 ****         3.3642   1.0423  -1.4756 H              1 S1                 0.0000
     37 ****         2.6843   0.6806  -3.0398 H              1 S1                 0.0000
     38 ****         0.8222  -0.5609  -2.0299 H              1 S1                 0.0000
     39 ****         0.8724   1.0476  -1.3877 H              1 S1                 0.0000
     40 ****        -1.6652   0.8386   4.2665 LP             1 S1                 0.0000
     41 ****        -1.5372  -0.7295   3.5420 LP             1 S1                 0.0000
     42 ****        -0.7808  -3.6450   1.2704 LP             1 S1                 0.0000
     43 ****         0.7555  -3.0843   0.6999 LP             1 S1                 0.0000
     44 ****         3.1122   0.6389   2.7086 LP             1 S1                 0.0000
     45 ****         2.8730  -0.9645   2.0986 LP             1 S1                 0.0000
     46 ****         2.2156   2.3773   1.5291 LP             1 S1                 0.0000
     47 ****         1.3394   2.0085   0.0812 LP             1 S1                 0.0000
     48 ****        -3.1931  -0.2760  -0.6088 LP             1 S1                 0.0000
@<TRIPOS>BOND
    1    1    2 1     
    2    1   22 1     
    3    1   23 1     
    4    1   24 1     
    5    2   21 2     
    6    2    3 1     
    7    3    4 2     
    8    3   25 1     
    9    4    5 1     
   10    4   26 1     
   11    5    6 2     
   12    5    7 am    
   13    7    8 1     
   14    7   21 1     
   15    8    9 1     
   16    8   27 1     
   17    8   28 1     
   18    9   10 2     
   19    9   11 am    
   20   11   12 1     
   21   11   29 1     
   22   12   20 1     
   23   12   13 1     
   24   12   16 1     
   25   13   14 ar    
   26   13   15 ar    
   27   16   17 1     
   28   16   30 1     
   29   16   31 1     
   30   17   18 1     
   31   17   32 1     
   32   17   33 1     
   33   18   19 1     
   34   18   34 1     
   35   18   35 1     
   36   19   20 1     
   37   19   36 1     
   38   19   37 1     
   39   20   38 1     
   40   20   39 1     
   41    6   40 1     
   42    6   41 1     
   43   10   42 1     
   44   10   43 1     
   45   14   44 1     
   46   14   45 1     
   47   15   46 1     
   48   15   47 1     
   49   21   48 1     
@<TRIPOS>SUBSTRUCTURE
      1 S1             1
@<TRIPOS>SET
LONE_PAIRS      STATIC     ATOMS    <user>   **** ""
9 40 41 42 43 44 45 46 47 48
DONOR_HYDROGENS      STATIC     ATOMS    <user>   **** ""
1 29
ATOM$BLUE        STATIC     ATOMS    COLORGROUP SYSTEM
9 40 41 42 43 44 45 46 47 48
ATOM$RED        STATIC     ATOMS    COLORGROUP SYSTEM
1 29
