AV-unprocessed.smi:669|AV-procd|sdf|3264|dock2
  -GOLD-   22720 0213D 1   1.00000     0.00000
 Structure written by MMmdl.
 37 38  0  0  0  0  0  0  0  0  1 V2000
  151.6199  138.0858  154.4068 C   0  0  0  0  0  0  0  0  0  0  0  0
  150.5202  139.0952  154.5549 C   0  0  0  0  0  0  0  0  0  0  0  0
  149.1303  138.7925  154.2740 C   0  0  0  0  0  0  0  0  0  0  0  0
  148.2009  139.7614  154.4166 C   0  0  0  0  0  0  0  0  0  0  0  0
  148.5559  141.1097  154.8542 C   0  0  0  0  0  0  0  0  0  0  0  0
  147.7326  142.0172  154.9669 O   0  0  0  0  0  0  0  0  0  0  0  0
  149.8858  141.2685  155.1216 N   0  0  0  0  0  0  0  0  0  0  0  0
  150.4201  142.5550  155.5968 C   0  0  0  0  0  0  0  0  0  0  0  0
  150.7048  142.6167  157.1263 C   0  0  1  0  0  0  0  0  0  0  0  0
  149.4713  142.8671  157.7757 O   0  0  0  0  0  0  0  0  0  0  0  0
  151.3309  141.3209  157.7023 C   0  0  0  0  0  0  0  0  0  0  0  0
  151.7333  141.4471  159.1825 C   0  0  0  0  0  0  0  0  0  0  0  0
  152.6708  142.6432  159.4205 C   0  0  2  0  0  0  0  0  0  0  0  0
  153.0756  142.7562  160.8972 C   0  0  0  0  0  0  0  0  0  0  0  0
  152.0117  143.9382  158.9152 C   0  0  0  0  0  0  0  0  0  0  0  0
  151.6159  143.8303  157.4313 C   0  0  0  0  0  0  0  0  0  0  0  0
  150.8452  140.2816  154.9513 N   0  0  0  0  0  0  0  0  0  0  0  0
  151.2353  137.1346  154.0380 H   0  0  0  0  0  0  0  0  0  0  0  0
  152.1077  137.9001  155.3643 H   0  0  0  0  0  0  0  0  0  0  0  0
  152.3761  138.4351  153.7031 H   0  0  0  0  0  0  0  0  0  0  0  0
  148.8502  137.8007  153.9506 H   0  0  0  0  0  0  0  0  0  0  0  0
  147.1664  139.5359  154.2038 H   0  0  0  0  0  0  0  0  0  0  0  0
  151.3530  142.7385  155.0602 H   0  0  0  0  0  0  0  0  0  0  0  0
  149.7721  143.3800  155.2935 H   0  0  0  0  0  0  0  0  0  0  0  0
  149.0301  143.5674  157.3202 H   0  0  0  0  0  0  0  0  0  0  0  0
  150.6429  140.4815  157.5951 H   0  0  0  0  0  0  0  0  0  0  0  0
  152.2179  141.0640  157.1221 H   0  0  0  0  0  0  0  0  0  0  0  0
  150.8389  141.5492  159.7985 H   0  0  0  0  0  0  0  0  0  0  0  0
  152.2200  140.5253  159.5028 H   0  0  0  0  0  0  0  0  0  0  0  0
  153.5811  142.4791  158.8420 H   0  0  0  0  0  0  0  0  0  0  0  0
  152.2072  142.9197  161.5363 H   0  0  0  0  0  0  0  0  0  0  0  0
  153.7644  143.5869  161.0529 H   0  0  0  0  0  0  0  0  0  0  0  0
  153.5734  141.8481  161.2383 H   0  0  0  0  0  0  0  0  0  0  0  0
  151.1317  144.1665  159.5179 H   0  0  0  0  0  0  0  0  0  0  0  0
  152.6955  144.7774  159.0462 H   0  0  0  0  0  0  0  0  0  0  0  0
  152.5295  143.7518  156.8403 H   0  0  0  0  0  0  0  0  0  0  0  0
  151.1322  144.7552  157.1131 H   0  0  0  0  0  0  0  0  0  0  0  0
  1  2  1  0  0  0  0
  1 18  1  0  0  0  0
  1 19  1  0  0  0  0
  1 20  1  0  0  0  0
  2 17  2  0  0  0  0
  2  3  1  0  0  0  0
  3  4  2  0  0  0  0
  3 21  1  0  0  0  0
  4  5  1  0  0  0  0
  4 22  1  0  0  0  0
  5  6  2  0  0  0  0
  5  7  1  0  0  0  0
  7  8  1  0  0  0  0
  7 17  1  0  0  0  0
  8  9  1  0  0  0  0
  8 23  1  0  0  0  0
  8 24  1  0  0  0  0
  9 16  1  0  0  0  0
  9 10  1  0  0  0  0
  9 11  1  0  0  0  0
 10 25  1  0  0  0  0
 11 12  1  0  0  0  0
 11 26  1  0  0  0  0
 11 27  1  0  0  0  0
 12 13  1  0  0  0  0
 12 28  1  0  0  0  0
 12 29  1  0  0  0  0
 13 14  1  0  0  0  0
 13 15  1  0  0  0  0
 13 30  1  0  0  0  0
 14 31  1  0  0  0  0
 14 32  1  0  0  0  0
 14 33  1  0  0  0  0
 15 16  1  0  0  0  0
 15 34  1  0  0  0  0
 15 35  1  0  0  0  0
 16 36  1  0  0  0  0
 16 37  1  0  0  0  0
M  END
> <s_m_source_file>
AV-unprocessed.smi

> <i_m_source_file_index>
669

> <i_lp_mmshare_version>
43012

> <i_f3d_flags>
0

> <s_epik_input>
W0NIM11jMVtjSF1bY0hdYyg9TyluKG4xKVtDSDJdW0NAQF0yKFtPSF0pW0NIMl1bQ0gyXVtDQEBIXShbQ0gzXSlbQ0gyXVtDSDJdMg==

> <s_epik_cmdline>
J2VwaWtfcHl0aG9uJywgJy1waCcsICc3LjAnLCAnLXRuJywgJzgnLCAnLW1hJywgJzIwMCcsICctbWV0YWxfYmluZGluZycsICctaW1hZScsICc8aW5maWxlLm1hZT4nLCAnLW9tYWUnLCAnPG91dGZpbGUubWFlPic=

> <r_lp_tautomer_probability>
1

> <r_epik_Ionization_Penalty>
1.6993e-05

> <r_epik_Ionization_Penalty_Charging>
1.61671e-05

> <r_epik_Ionization_Penalty_Neutral>
8.25878e-07

> <r_epik_State_Penalty>
-0

> <r_epik_Charging_Adjusted_Penalty>
1.61671e-05

> <i_epik_Tot_Q>
0

> <i_epik_Tot_abs_Q>
0

> <r_epik_Metal_State_Penalty>
-0

> <b_epik_Metal_Only>
0

> <s_lp_Force_Field>
OPLS_2005

> <r_lp_Energy>
31.8512

> <b_lp_Chiralities_Consistent>
1

> <s_lp_Variant>
AV-unprocessed.smi:669-2

> <Gold.Version>
5.8.1

> <Gold.Id.Protein>
6NUR|6NUR_protein|mol2

> <Gold.PLP.Fitness>
41.2676

> <Gold.PLP.PLP>
-36.3116

> <Gold.PLP.part.hbond>
-2.0000

> <Gold.PLP.part.metal>
0.0000

> <Gold.PLP.part.buried>
-0.5792

> <Gold.PLP.part.nonpolar>
-33.9594

> <Gold.PLP.part.repulsive>
0.8621

> <Gold.PLP.ligand.clash>
0.0000

> <Gold.PLP.ligand.torsion>
0.5138

> <Gold.PLP.Chemscore.Hbond>
1.9920

> <Gold.PLP.Chemscore.CHOScore>
0.0000

> <Gold.PLP.Chemscore.Metal>
0.0000

> <Gold.Chemscore.Hbonds>
donor molecule, donor type, donor heavy atom, donor atom, acceptor molecule, acceptor atom, score
      L1  H    10    25       P1  8028  0.99
      P1  H  7989  7998       L1    17  1.00

> <Gold.PLP.Chemscore.Internal.Correction>
0.0077

> <Gold.Rescore>
     Score         DG    S(hbond)    S(metal)    S(lipo)     H(rot)  DE(clash)    DE(int)     intcor
     13.67     -16.16       0.72        0.00     106.25       1.62       1.92       0.58       ----

> <Gold.Chemscore.Fitness>
13.6684

> <Gold.Chemscore.DG>
-16.1615

> <Gold.Chemscore.ZeroCoef>
-5.4800

> <Gold.Chemscore.Hbond>
0.7154

> <Gold.Chemscore.Metal>
0.0000

> <Gold.Chemscore.Lipo>
106.2502

> <Gold.Chemscore.Internal_Hbond>
0.0000

> <Gold.Chemscore.DEClash>
1.9171

> <Gold.Chemscore.DEInternal>
0.5760

> <Gold.Chemscore.Rot>
1.6168

> <Gold.Chemscore.Internal.Correction>
   9.000000E+99

> <Gold.Chemscore.Hbonds>
donor molecule, donor type, donor heavy atom, donor atom, acceptor molecule, acceptor atom, score
      L1  H    10    25       P1  8028  0.31
      P1  H  7989  7998       L1    17  0.06

> <Gold.Chemscore.Hbond.Weighted>
-2.3894

> <Gold.Chemscore.Metal.Weighted>
-0.0000

> <Gold.Chemscore.Lipo.Weighted>
-12.4313

> <Gold.Chemscore.Internal_Hbond.Weighted>
0.0000

> <Gold.Chemscore.DEClash.Weighted>
1.9171

> <Gold.Chemscore.DEInternal.Weighted>
0.5760

> <Gold.Chemscore.Rot.Weighted>
4.1391

> <Gold.Chemscore.Internal.Correction.Weighted>
   9.000000E+99

> <Gold.Protein.RotatedTorsions>
[ 6907 6896 6895 6894 ] final  112.30 input  -60.11 | X-H torsion
[ 7974 7965 7964 7962 ] final  -45.07 input  175.53 | X-H torsion
[ 8008 7997 7996 7995 ] final   23.60 input   59.86 | X-H torsion
[ 10167 10162 10161 10158 ] final  -34.13 input  -65.29 | X-H torsion
[ 10718 10713 10712 10709 ] final -171.37 input   66.30 | X-H torsion
[ 10763 10752 10751 10750 ] final  142.79 input  -60.55 | X-H torsion
[ 11005 11000 10999 10996 ] final   65.32 input  -57.11 | X-H torsion

> <Gold.Protein.ActiveResidues>
 VAL166  LYS551  ARG553  GLY616  TRP617  ASP618  TYR619  PRO620  LYS621  CYS622 
 ASP623  PHE694  ASN695  SER759  ASP760  ASP761  ALA762  ILE779  LEU786  VAL792 
 PHE793  MET794  SER795  GLU796  ALA797  LYS798  CYS799  TRP800  GLU811  SER814 

> <Gold.Protein.RotatedAtoms>
  152.4924  133.8535  159.7213 H   0  0  0  0  0  0  0  0  0  0  0  0  # atno 6907 bound_to 6896
  150.9066  133.7041  159.2872 H   0  0  0  0  0  0  0  0  0  0  0  0  # atno 6908 bound_to 6896
  151.4465  135.1029  159.9737 H   0  0  0  0  0  0  0  0  0  0  0  0  # atno 6909 bound_to 6896
  145.9857  140.7235  142.9341 H   0  0  0  0  0  0  0  0  0  0  0  0  # atno 7974 bound_to 7965
  154.9834  140.3105  155.4936 H   0  0  0  0  0  0  0  0  0  0  0  0  # atno 8008 bound_to 7997
  156.2950  140.2262  156.4875 H   0  0  0  0  0  0  0  0  0  0  0  0  # atno 8009 bound_to 7997
  154.7768  140.0448  157.1084 H   0  0  0  0  0  0  0  0  0  0  0  0  # atno 8010 bound_to 7997
  140.7191  143.3570  151.2039 H   0  0  0  0  0  0  0  0  0  0  0  0  # atno 10167 bound_to 10162
  156.7399  130.9338  151.3109 H   0  0  0  0  0  0  0  0  0  0  0  0  # atno 10718 bound_to 10713
  153.9617  135.2959  155.3433 H   0  0  0  0  0  0  0  0  0  0  0  0  # atno 10763 bound_to 10752
  154.7371  135.5041  153.9063 H   0  0  0  0  0  0  0  0  0  0  0  0  # atno 10764 bound_to 10752
  153.0943  135.6717  153.9903 H   0  0  0  0  0  0  0  0  0  0  0  0  # atno 10765 bound_to 10752
  139.9902  134.6604  156.0105 H   0  0  0  0  0  0  0  0  0  0  0  0  # atno 11005 bound_to 11000
  144.6874  140.2984  143.7267 LP  0  0  0  0  0  0  0  0  0  0  0  0  # atno 17320 bound_to 7965
  145.7704  139.1855  143.2216 LP  0  0  0  0  0  0  0  0  0  0  0  0  # atno 17321 bound_to 7965
  139.7114  143.9371  152.2949 LP  0  0  0  0  0  0  0  0  0  0  0  0  # atno 17342 bound_to 10162
  139.9097  144.6863  150.8575 LP  0  0  0  0  0  0  0  0  0  0  0  0  # atno 17343 bound_to 10162
  157.6823  130.9151  150.0298 LP  0  0  0  0  0  0  0  0  0  0  0  0  # atno 17370 bound_to 10713
  156.1472  130.3642  149.9493 LP  0  0  0  0  0  0  0  0  0  0  0  0  # atno 17371 bound_to 10713
  141.1559  133.6543  156.4160 LP  0  0  0  0  0  0  0  0  0  0  0  0  # atno 17394 bound_to 11000
  140.4923  134.6563  157.5216 LP  0  0  0  0  0  0  0  0  0  0  0  0  # atno 17395 bound_to 11000

$$$$
