AV-unprocessed.smi:1762|AV-procd|sdf|7122|dock1
  -GOLD-   22720 8353D 1   1.00000     0.00000
 Structure written by MMmdl.
 52 53  0  0  0  0  0  0  0  0  3 V2000
  150.4151  135.9246  157.4094 C   0  0  0  0  0  0  0  0  0  0  0  0
  149.3324  136.6759  156.6273 C   0  0  1  0  0  0  0  0  0  0  0  0
  149.6840  136.8001  155.1289 C   0  0  0  0  0  0  0  0  0  0  0  0
  148.5852  137.4580  154.3638 N   0  3  2  0  0  0  0  0  0  0  0  0
  148.4864  138.9484  154.5503 C   0  0  1  0  0  0  0  0  0  0  0  0
  149.8511  139.5412  154.9784 C   0  0  0  0  0  0  0  0  0  0  0  0
  150.7201  139.7039  154.1147 O   0  0  0  0  0  0  0  0  0  0  0  0
  149.8904  139.7758  156.3191 N   0  5  0  0  0  0  0  0  0  0  0  0
  150.9245  140.5784  156.9660 C   0  0  0  0  0  0  0  0  0  0  0  0
  150.5551  142.0755  156.8875 C   0  0  0  0  0  0  0  0  0  0  0  0
  151.2076  142.9362  157.9649 C   0  0  0  0  0  0  0  0  0  0  0  0
  151.5732  144.2745  157.6928 C   0  0  0  0  0  0  0  0  0  0  0  0
  152.1777  145.0308  158.7153 C   0  0  0  0  0  0  0  0  0  0  0  0
  152.3987  144.4256  159.9671 C   0  0  0  0  0  0  0  0  0  0  0  0
  152.0066  143.0835  160.1404 C   0  0  0  0  0  0  0  0  0  0  0  0
  151.4282  142.3486  159.1666 N   0  0  0  0  0  0  0  0  0  0  0  0
  147.8962  139.7151  153.3183 C   0  0  0  0  0  0  0  0  0  0  0  0
  147.4970  141.1778  153.6036 C   0  0  0  0  0  0  0  0  0  0  0  0
  146.7281  138.9674  152.6451 C   0  0  0  0  0  0  0  0  0  0  0  0
  147.3367  136.6809  154.5939 C   0  0  0  0  0  0  0  0  0  0  0  0
  147.0144  136.5756  156.0989 C   0  0  1  0  0  0  0  0  0  0  0  0
  145.7643  135.7289  156.3603 C   0  0  0  0  0  0  0  0  0  0  0  0
  148.1114  135.9545  156.7620 O   0  0  0  0  0  0  0  0  0  0  0  0
  151.3733  136.4409  157.3445 H   0  0  0  0  0  0  0  0  0  0  0  0
  150.5518  134.9136  157.0245 H   0  0  0  0  0  0  0  0  0  0  0  0
  150.1509  135.8472  158.4643 H   0  0  0  0  0  0  0  0  0  0  0  0
  149.2182  137.6636  157.0753 H   0  0  0  0  0  0  0  0  0  0  0  0
  150.6398  137.3072  155.0016 H   0  0  0  0  0  0  0  0  0  0  0  0
  149.8338  135.8029  154.7126 H   0  0  0  0  0  0  0  0  0  0  0  0
  147.7699  139.1107  155.3568 H   0  0  0  0  0  0  0  0  0  0  0  0
  151.0476  140.2979  158.0127 H   0  0  0  0  0  0  0  0  0  0  0  0
  151.8988  140.4290  156.4987 H   0  0  0  0  0  0  0  0  0  0  0  0
  150.8350  142.4732  155.9106 H   0  0  0  0  0  0  0  0  0  0  0  0
  149.4729  142.1923  156.9601 H   0  0  0  0  0  0  0  0  0  0  0  0
  151.3889  144.7131  156.7230 H   0  0  0  0  0  0  0  0  0  0  0  0
  152.4660  146.0571  158.5424 H   0  0  0  0  0  0  0  0  0  0  0  0
  152.8574  144.9763  160.7748 H   0  0  0  0  0  0  0  0  0  0  0  0
  152.1620  142.5868  161.0867 H   0  0  0  0  0  0  0  0  0  0  0  0
  148.6672  139.7379  152.5495 H   0  0  0  0  0  0  0  0  0  0  0  0
  146.6324  141.2412  154.2641 H   0  0  0  0  0  0  0  0  0  0  0  0
  147.2313  141.6914  152.6795 H   0  0  0  0  0  0  0  0  0  0  0  0
  148.3077  141.7415  154.0640 H   0  0  0  0  0  0  0  0  0  0  0  0
  145.8391  138.9436  153.2761 H   0  0  0  0  0  0  0  0  0  0  0  0
  147.0012  137.9371  152.4149 H   0  0  0  0  0  0  0  0  0  0  0  0
  146.4466  139.4477  151.7075 H   0  0  0  0  0  0  0  0  0  0  0  0
  146.4910  137.0721  154.0330 H   0  0  0  0  0  0  0  0  0  0  0  0
  147.4908  135.6777  154.1941 H   0  0  0  0  0  0  0  0  0  0  0  0
  146.8493  137.5677  156.5215 H   0  0  0  0  0  0  0  0  0  0  0  0
  144.8890  136.1616  155.8750 H   0  0  0  0  0  0  0  0  0  0  0  0
  145.5542  135.6641  157.4281 H   0  0  0  0  0  0  0  0  0  0  0  0
  145.8884  134.7132  155.9833 H   0  0  0  0  0  0  0  0  0  0  0  0
  148.8154  137.3424  153.3870 H   0  0  0  0  0  0  0  0  0  0  0  0
  1  2  1  0  0  0  0
  1 24  1  0  0  0  0
  1 25  1  0  0  0  0
  1 26  1  0  0  0  0
  2 23  1  0  0  0  0
  2  3  1  0  0  0  0
  2 27  1  0  0  0  0
  3  4  1  0  0  0  0
  3 28  1  0  0  0  0
  3 29  1  0  0  0  0
  4  5  1  0  0  0  0
  4 20  1  0  0  0  0
  4 52  1  0  0  0  0
  5  6  1  0  0  0  0
  5 17  1  0  0  0  0
  5 30  1  0  0  0  0
  6  7  2  0  0  0  0
  6  8  1  0  0  0  0
  8  9  1  0  0  0  0
  9 10  1  0  0  0  0
  9 31  1  0  0  0  0
  9 32  1  0  0  0  0
 10 11  1  0  0  0  0
 10 33  1  0  0  0  0
 10 34  1  0  0  0  0
 11 16  1  0  0  0  0
 11 12  2  0  0  0  0
 12 13  1  0  0  0  0
 12 35  1  0  0  0  0
 13 14  2  0  0  0  0
 13 36  1  0  0  0  0
 14 15  1  0  0  0  0
 14 37  1  0  0  0  0
 15 16  2  0  0  0  0
 15 38  1  0  0  0  0
 17 18  1  0  0  0  0
 17 19  1  0  0  0  0
 17 39  1  0  0  0  0
 18 40  1  0  0  0  0
 18 41  1  0  0  0  0
 18 42  1  0  0  0  0
 19 43  1  0  0  0  0
 19 44  1  0  0  0  0
 19 45  1  0  0  0  0
 20 21  1  0  0  0  0
 20 46  1  0  0  0  0
 20 47  1  0  0  0  0
 21 22  1  0  0  0  0
 21 23  1  0  0  0  0
 21 48  1  0  0  0  0
 22 49  1  0  0  0  0
 22 50  1  0  0  0  0
 22 51  1  0  0  0  0
M  CHG  1   4   1
M  CHG  1   8  -1
M  END
> <s_m_source_file>
AV-unprocessed.smi

> <i_m_source_file_index>
1762

> <i_lp_mmshare_version>
43012

> <i_f3d_flags>
0

> <s_epik_input>
W0NIM11bQ0BASF0xW0NIMl1OKFtDSDJdW0NASF0oTzEpW0NIM10pW0NAQEhdKFtDSF0oW0NIM10pW0NIM10pQyg9TylbTkhdW0NIMl1bQ0gyXWMyW2NIXVtjSF1bY0hdW2NIXW4y

> <s_epik_cmdline>
J2VwaWtfcHl0aG9uJywgJy1waCcsICc3LjAnLCAnLXRuJywgJzgnLCAnLW1hJywgJzIwMCcsICctbWV0YWxfYmluZGluZycsICctaW1hZScsICc8aW5maWxlLm1hZT4nLCAnLW9tYWUnLCAnPG91dGZpbGUubWFlPic=

> <r_epik_Ionization_Penalty>
7.82966

> <r_epik_Ionization_Penalty_Charging>
7.7461

> <r_epik_Ionization_Penalty_Neutral>
0.0835571

> <r_epik_State_Penalty>
8.52273

> <r_epik_Charging_Adjusted_Penalty>
16.2688

> <i_epik_Tot_Q>
0

> <i_epik_Tot_abs_Q>
2

> <r_epik_Metal_State_Penalty>
4.47451

> <b_epik_Metal_Only>
1

> <s_lp_Force_Field>
OPLS_2005

> <r_lp_Energy>
22.3574

> <b_lp_Chiralities_Consistent>
1

> <s_lp_Variant>
AV-unprocessed.smi:1762-24

> <Gold.Version>
5.8.1

> <Gold.Id.Protein>
6NUR|6NUR_protein|mol2

> <Gold.PLP.Fitness>
41.0842

> <Gold.PLP.PLP>
-35.3578

> <Gold.PLP.part.hbond>
-2.0000

> <Gold.PLP.part.metal>
0.0000

> <Gold.PLP.part.buried>
-0.6698

> <Gold.PLP.part.nonpolar>
-33.4783

> <Gold.PLP.part.repulsive>
0.1711

> <Gold.PLP.ligand.clash>
0.0000

> <Gold.PLP.ligand.torsion>
1.9516

> <Gold.PLP.Chemscore.Hbond>
3.0000

> <Gold.PLP.Chemscore.CHOScore>
0.0000

> <Gold.PLP.Chemscore.Metal>
0.0000

> <Gold.Chemscore.Hbonds>
donor molecule, donor type, donor heavy atom, donor atom, acceptor molecule, acceptor atom, score
      L1  H     4    52       P1  7948  2.00
      P1  H  7989  7998       L1     7  1.00

> <Gold.PLP.Chemscore.Internal.Correction>
0.6295

> <Gold.Rescore>
     Score         DG    S(hbond)    S(metal)    S(lipo)     H(rot)  DE(clash)    DE(int)     intcor
     18.17     -21.04       1.97        0.00     111.82       1.60       1.13       1.74       ----

> <Gold.Chemscore.Fitness>
18.1724

> <Gold.Chemscore.DG>
-21.0429

> <Gold.Chemscore.ZeroCoef>
-5.4800

> <Gold.Chemscore.Hbond>
1.9699

> <Gold.Chemscore.Metal>
0.0000

> <Gold.Chemscore.Lipo>
111.8155

> <Gold.Chemscore.Internal_Hbond>
0.0000

> <Gold.Chemscore.DEClash>
1.1341

> <Gold.Chemscore.DEInternal>
1.7364

> <Gold.Chemscore.Rot>
1.6012

> <Gold.Chemscore.Internal.Correction>
   9.000000E+99

> <Gold.Chemscore.Hbonds>
donor molecule, donor type, donor heavy atom, donor atom, acceptor molecule, acceptor atom, score
      L1  H     4    52       P1  7948  0.95
      P1  H  7989  7998       L1     7  0.98

> <Gold.Chemscore.Hbond.Weighted>
-6.5795

> <Gold.Chemscore.Metal.Weighted>
-0.0000

> <Gold.Chemscore.Lipo.Weighted>
-13.0824

> <Gold.Chemscore.Internal_Hbond.Weighted>
0.0000

> <Gold.Chemscore.DEClash.Weighted>
1.1341

> <Gold.Chemscore.DEInternal.Weighted>
1.7364

> <Gold.Chemscore.Rot.Weighted>
4.0990

> <Gold.Chemscore.Internal.Correction.Weighted>
   9.000000E+99

> <Gold.Protein.RotatedTorsions>
[ 6907 6896 6895 6894 ] final   99.95 input  -60.11 | X-H torsion
[ 7974 7965 7964 7962 ] final -159.78 input  175.53 | X-H torsion
[ 8008 7997 7996 7995 ] final   27.58 input   59.86 | X-H torsion
[ 10167 10162 10161 10158 ] final  -37.30 input  -65.29 | X-H torsion
[ 10718 10713 10712 10709 ] final -102.86 input   66.30 | X-H torsion
[ 10763 10752 10751 10750 ] final  152.15 input  -60.55 | X-H torsion
[ 11005 11000 10999 10996 ] final -151.41 input  -57.11 | X-H torsion

> <Gold.Protein.ActiveResidues>
 VAL166  LYS551  ARG553  GLY616  TRP617  ASP618  TYR619  PRO620  LYS621  CYS622 
 ASP623  PHE694  ASN695  SER759  ASP760  ASP761  ALA762  ILE779  LEU786  VAL792 
 PHE793  MET794  SER795  GLU796  ALA797  LYS798  CYS799  TRP800  GLU811  SER814 

> <Gold.Protein.RotatedAtoms>
  152.5382  134.0350  159.8041 H   0  0  0  0  0  0  0  0  0  0  0  0  # atno 6907 bound_to 6896
  151.0515  133.5612  159.2649 H   0  0  0  0  0  0  0  0  0  0  0  0  # atno 6908 bound_to 6896
  151.2545  135.0641  159.9128 H   0  0  0  0  0  0  0  0  0  0  0  0  # atno 6909 bound_to 6896
  144.7452  140.3636  143.6091 H   0  0  0  0  0  0  0  0  0  0  0  0  # atno 7974 bound_to 7965
  155.0452  140.3173  155.4711 H   0  0  0  0  0  0  0  0  0  0  0  0  # atno 8008 bound_to 7997
  156.2846  140.2156  156.5520 H   0  0  0  0  0  0  0  0  0  0  0  0  # atno 8009 bound_to 7997
  154.7256  140.0486  157.0668 H   0  0  0  0  0  0  0  0  0  0  0  0  # atno 8010 bound_to 7997
  140.7122  143.3351  151.2480 H   0  0  0  0  0  0  0  0  0  0  0  0  # atno 10167 bound_to 10162
  156.0244  130.5440  150.7170 H   0  0  0  0  0  0  0  0  0  0  0  0  # atno 10718 bound_to 10713
  154.1153  135.2836  155.3221 H   0  0  0  0  0  0  0  0  0  0  0  0  # atno 10763 bound_to 10752
  154.6461  135.5385  153.7849 H   0  0  0  0  0  0  0  0  0  0  0  0  # atno 10764 bound_to 10752
  153.0331  135.6498  154.1310 H   0  0  0  0  0  0  0  0  0  0  0  0  # atno 10765 bound_to 10752
  140.7298  134.3634  157.5168 H   0  0  0  0  0  0  0  0  0  0  0  0  # atno 11005 bound_to 11000
  145.7152  139.1695  143.2516 LP  0  0  0  0  0  0  0  0  0  0  0  0  # atno 17320 bound_to 7965
  146.1318  140.7175  142.9408 LP  0  0  0  0  0  0  0  0  0  0  0  0  # atno 17321 bound_to 7965
  139.6844  143.9799  152.2826 LP  0  0  0  0  0  0  0  0  0  0  0  0  # atno 17342 bound_to 10162
  139.9439  144.6664  150.8238 LP  0  0  0  0  0  0  0  0  0  0  0  0  # atno 17343 bound_to 10162
  157.4795  131.0901  151.0552 LP  0  0  0  0  0  0  0  0  0  0  0  0  # atno 17370 bound_to 10713
  157.0990  130.5974  149.5456 LP  0  0  0  0  0  0  0  0  0  0  0  0  # atno 17371 bound_to 10713
  139.8829  134.9011  156.2802 LP  0  0  0  0  0  0  0  0  0  0  0  0  # atno 17394 bound_to 11000
  140.9931  133.7197  156.0844 LP  0  0  0  0  0  0  0  0  0  0  0  0  # atno 17395 bound_to 11000

$$$$
