AV-unprocessed.smi:114|AV-procd|sdf|1117|dock4
  -GOLD-   2262018233D 1   1.00000     0.00000
 Structure written by MMmdl.
 32 34  0  0  0  0  0  0  0  0  1 V2000
  143.6579  134.3211  155.5418 N   0  0  0  0  0  0  0  0  0  0  0  0
  144.4913  134.9541  154.7040 C   0  0  0  0  0  0  0  0  0  0  0  0
  144.6190  134.4797  153.4432 N   0  0  0  0  0  0  0  0  0  0  0  0
  145.4387  135.0831  152.5744 C   0  0  0  0  0  0  0  0  0  0  0  0
  145.5071  134.5414  151.3357 F   0  0  0  0  0  0  0  0  0  0  0  0
  146.2000  136.1602  152.7931 N   0  0  0  0  0  0  0  0  0  0  0  0
  146.0765  136.6442  154.0627 C   0  0  0  0  0  0  0  0  0  0  0  0
  145.2433  136.0958  155.0752 C   0  0  0  0  0  0  0  0  0  0  0  0
  145.3633  136.8376  156.2416 N   0  0  0  0  0  0  0  0  0  0  0  0
  146.2176  137.7747  155.9293 C   0  0  0  0  0  0  0  0  0  0  0  0
  146.7046  137.7315  154.6408 N   0  0  0  0  0  0  0  0  0  0  0  0
  147.6717  138.6882  154.0132 C   0  0  2  0  0  0  0  0  0  0  0  0
  148.8301  138.7121  154.7942 O   0  0  0  0  0  0  0  0  0  0  0  0
  149.0387  140.0089  155.3520 C   0  0  1  0  0  0  0  0  0  0  0  0
  150.5369  140.2807  155.5762 C   0  0  0  0  0  0  0  0  0  0  0  0
  151.2807  139.8525  154.4553 O   0  0  0  0  0  0  0  0  0  0  0  0
  148.3347  140.9428  154.3591 C   0  0  1  0  0  0  0  0  0  0  0  0
  149.1825  141.2293  153.2572 O   0  0  0  0  0  0  0  0  0  0  0  0
  147.1149  140.1191  153.9580 C   0  0  1  0  0  0  0  0  0  0  0  0
  146.6303  140.4883  152.6802 O   0  0  0  0  0  0  0  0  0  0  0  0
  147.9015  138.2682  153.0330 H   0  0  0  0  0  0  0  0  0  0  0  0
  148.5116  140.0769  156.3035 H   0  0  0  0  0  0  0  0  0  0  0  0
  148.0481  141.8869  154.8237 H   0  0  0  0  0  0  0  0  0  0  0  0
  146.3263  140.2459  154.6997 H   0  0  0  0  0  0  0  0  0  0  0  0
  143.5448  134.6563  156.4877 H   0  0  0  0  0  0  0  0  0  0  0  0
  143.1397  133.5149  155.2236 H   0  0  0  0  0  0  0  0  0  0  0  0
  146.5180  138.5322  156.6388 H   0  0  0  0  0  0  0  0  0  0  0  0
  150.7257  141.3365  155.7735 H   0  0  0  0  0  0  0  0  0  0  0  0
  150.8960  139.7178  156.4382 H   0  0  0  0  0  0  0  0  0  0  0  0
  150.7501  139.2525  153.9539 H   0  0  0  0  0  0  0  0  0  0  0  0
  149.1193  140.5146  152.6417 H   0  0  0  0  0  0  0  0  0  0  0  0
  145.7145  140.2598  152.6308 H   0  0  0  0  0  0  0  0  0  0  0  0
  1  2  1  0  0  0  0
  1 25  1  0  0  0  0
  1 26  1  0  0  0  0
  2  8  1  0  0  0  0
  2  3  2  0  0  0  0
  3  4  1  0  0  0  0
  4  5  1  0  0  0  0
  4  6  2  0  0  0  0
  6  7  1  0  0  0  0
  7 11  1  0  0  0  0
  7  8  2  0  0  0  0
  8  9  1  0  0  0  0
  9 10  2  0  0  0  0
 10 11  1  0  0  0  0
 10 27  1  0  0  0  0
 11 12  1  0  0  0  0
 12 21  1  0  0  0  0
 12 19  1  0  0  0  0
 12 13  1  0  0  0  0
 13 14  1  0  0  0  0
 14 22  1  0  0  0  0
 14 15  1  0  0  0  0
 14 17  1  0  0  0  0
 15 16  1  0  0  0  0
 15 28  1  0  0  0  0
 15 29  1  0  0  0  0
 16 30  1  0  0  0  0
 17 23  1  0  0  0  0
 17 18  1  0  0  0  0
 17 19  1  0  0  0  0
 18 31  1  0  0  0  0
 19 24  1  0  0  0  0
 19 20  1  0  0  0  0
 20 32  1  0  0  0  0
M  END
> <s_m_source_file>
AV-unprocessed.smi

> <i_m_source_file_index>
114

> <i_lp_mmshare_version>
43012

> <i_f3d_flags>
0

> <s_epik_input>
RmMobjEpbmMoW05IMl0pYyhjMTIpbltjSF1uMltDQEBIXTNPW0NASF0oW0NIMl1bT0hdKVtDQEBIXShbT0hdKVtDQEBIXTNbT0hd

> <s_epik_cmdline>
J2VwaWtfcHl0aG9uJywgJy1waCcsICc3LjAnLCAnLXRuJywgJzgnLCAnLW1hJywgJzIwMCcsICctbWV0YWxfYmluZGluZycsICctaW1hZScsICc8aW5maWxlLm1hZT4nLCAnLW9tYWUnLCAnPG91dGZpbGUubWFlPic=

> <r_lp_tautomer_probability>
1

> <r_epik_Ionization_Penalty>
1.13199e-05

> <r_epik_Ionization_Penalty_Charging>
0

> <r_epik_Ionization_Penalty_Neutral>
1.13199e-05

> <r_epik_State_Penalty>
-0

> <r_epik_Charging_Adjusted_Penalty>
0

> <i_epik_Tot_Q>
0

> <i_epik_Tot_abs_Q>
0

> <r_epik_Metal_State_Penalty>
-0

> <b_epik_Metal_Only>
0

> <s_epik_Chemistry_Notes>
This compound contains an acetal/aminal-like group ( X-CH(R)-Y where X, Y are N, S, or O) that may be acid/base labile, releasing an aldehyde.

> <s_lp_Force_Field>
OPLS_2005

> <r_lp_Energy>
42.9568

> <b_lp_Chiralities_Consistent>
1

> <s_lp_Variant>
AV-unprocessed.smi:114-11

> <Gold.Version>
5.8.1

> <Gold.Id.Protein>
6NUR|6NUR_protein|mol2

> <Gold.PLP.Fitness>
34.9166

> <Gold.PLP.PLP>
-20.8584

> <Gold.PLP.part.hbond>
-5.9977

> <Gold.PLP.part.metal>
0.0000

> <Gold.PLP.part.buried>
-5.1504

> <Gold.PLP.part.nonpolar>
-10.6857

> <Gold.PLP.part.repulsive>
0.5932

> <Gold.PLP.ligand.clash>
0.0000

> <Gold.PLP.ligand.torsion>
0.1387

> <Gold.PLP.Chemscore.Hbond>
4.7760

> <Gold.PLP.Chemscore.CHOScore>
0.0000

> <Gold.PLP.Chemscore.Metal>
0.0000

> <Gold.Chemscore.Hbonds>
donor molecule, donor type, donor heavy atom, donor atom, acceptor molecule, acceptor atom, score
      L1  H     1    26       P1 10957  1.00
      L1  H    18    31       P1  7957  0.83
      L1  H    20    32       P1 10175  0.98
      P1  H  7989  7998       L1    16  0.76
      P1  H  8011  8017       L1    18  1.00

> <Gold.PLP.Chemscore.Internal.Correction>
0.0076

> <Gold.Rescore>
     Score         DG    S(hbond)    S(metal)    S(lipo)     H(rot)  DE(clash)    DE(int)     intcor
      9.98     -10.58       3.82        0.00      22.58       4.03       0.37       0.23       ----

> <Gold.Chemscore.Fitness>
9.9846

> <Gold.Chemscore.DG>
-10.5766

> <Gold.Chemscore.ZeroCoef>
-5.4800

> <Gold.Chemscore.Hbond>
3.8221

> <Gold.Chemscore.Metal>
0.0000

> <Gold.Chemscore.Lipo>
22.5788

> <Gold.Chemscore.Internal_Hbond>
0.0000

> <Gold.Chemscore.DEClash>
0.3664

> <Gold.Chemscore.DEInternal>
0.2255

> <Gold.Chemscore.Rot>
4.0277

> <Gold.Chemscore.Internal.Correction>
   9.000000E+99

> <Gold.Chemscore.Hbonds>
donor molecule, donor type, donor heavy atom, donor atom, acceptor molecule, acceptor atom, score
      L1  H     1    26       P1 10957  1.00
      L1  H    18    31       P1  7957  0.83
      L1  H    20    32       P1 10175  0.74
      P1  H  7989  7998       L1    16  0.29
      P1  H  8011  8017       L1    18  0.34

> <Gold.Chemscore.Hbond.Weighted>
-12.7658

> <Gold.Chemscore.Metal.Weighted>
-0.0000

> <Gold.Chemscore.Lipo.Weighted>
-2.6417

> <Gold.Chemscore.Internal_Hbond.Weighted>
0.0000

> <Gold.Chemscore.DEClash.Weighted>
0.3664

> <Gold.Chemscore.DEInternal.Weighted>
0.2255

> <Gold.Chemscore.Rot.Weighted>
10.3110

> <Gold.Chemscore.Internal.Correction.Weighted>
   9.000000E+99

> <Gold.Protein.RotatedTorsions>
[ 6907 6896 6895 6894 ] final   71.10 input  -60.11 | X-H torsion
[ 7974 7965 7964 7962 ] final -126.43 input  175.53 | X-H torsion
[ 8008 7997 7996 7995 ] final  132.13 input   59.86 | X-H torsion
[ 10167 10162 10161 10158 ] final  -76.00 input  -65.29 | X-H torsion
[ 10718 10713 10712 10709 ] final   94.37 input   66.30 | X-H torsion
[ 10763 10752 10751 10750 ] final   -7.85 input  -60.55 | X-H torsion
[ 11005 11000 10999 10996 ] final  163.71 input  -57.11 | X-H torsion

> <Gold.Protein.ActiveResidues>
 VAL166  LYS551  ARG553  GLY616  TRP617  ASP618  TYR619  PRO620  LYS621  CYS622 
 ASP623  PHE694  ASN695  SER759  ASP760  ASP761  ALA762  ILE779  LEU786  VAL792 
 PHE793  MET794  SER795  GLU796  ALA797  LYS798  CYS799  TRP800  GLU811  SER814 

> <Gold.Protein.RotatedAtoms>
  152.4790  134.4770  159.9653 H   0  0  0  0  0  0  0  0  0  0  0  0  # atno 6907 bound_to 6896
  151.4780  133.3547  159.2841 H   0  0  0  0  0  0  0  0  0  0  0  0  # atno 6908 bound_to 6896
  150.8848  134.8270  159.7312 H   0  0  0  0  0  0  0  0  0  0  0  0  # atno 6909 bound_to 6896
  144.9873  140.7698  143.4575 H   0  0  0  0  0  0  0  0  0  0  0  0  # atno 7974 bound_to 7965
  156.2979  140.2554  156.3039 H   0  0  0  0  0  0  0  0  0  0  0  0  # atno 8008 bound_to 7997
  154.9391  140.0396  157.2106 H   0  0  0  0  0  0  0  0  0  0  0  0  # atno 8009 bound_to 7997
  154.8143  140.2849  155.5835 H   0  0  0  0  0  0  0  0  0  0  0  0  # atno 8010 bound_to 7997
  140.4894  143.2383  151.7931 H   0  0  0  0  0  0  0  0  0  0  0  0  # atno 10167 bound_to 10162
  157.6948  131.0510  150.4176 H   0  0  0  0  0  0  0  0  0  0  0  0  # atno 10718 bound_to 10713
  153.4322  135.7012  153.6223 H   0  0  0  0  0  0  0  0  0  0  0  0  # atno 10763 bound_to 10752
  153.4633  135.3731  155.2351 H   0  0  0  0  0  0  0  0  0  0  0  0  # atno 10764 bound_to 10752
  154.8726  135.4025  154.3707 H   0  0  0  0  0  0  0  0  0  0  0  0  # atno 10765 bound_to 10752
  140.2385  134.8069  157.3388 H   0  0  0  0  0  0  0  0  0  0  0  0  # atno 11005 bound_to 11000
  145.2335  139.2104  143.5030 LP  0  0  0  0  0  0  0  0  0  0  0  0  # atno 17320 bound_to 7965
  146.3423  140.2216  142.8591 LP  0  0  0  0  0  0  0  0  0  0  0  0  # atno 17321 bound_to 7965
  139.4848  144.4668  151.9474 LP  0  0  0  0  0  0  0  0  0  0  0  0  # atno 17342 bound_to 10162
  140.3755  144.2802  150.5914 LP  0  0  0  0  0  0  0  0  0  0  0  0  # atno 17343 bound_to 10162
  156.4554  130.4020  149.6609 LP  0  0  0  0  0  0  0  0  0  0  0  0  # atno 17370 bound_to 10713
  156.3744  130.7547  151.2533 LP  0  0  0  0  0  0  0  0  0  0  0  0  # atno 17371 bound_to 10713
  140.1677  134.4648  155.7852 LP  0  0  0  0  0  0  0  0  0  0  0  0  # atno 17394 bound_to 11000
  141.2212  133.6928  156.7654 LP  0  0  0  0  0  0  0  0  0  0  0  0  # atno 17395 bound_to 11000

$$$$
