AV-unprocessed.smi:867|AV-procd|sdf|3997|dock4
  -GOLD-   22720 1473D 1   1.00000     0.00000
 Structure written by MMmdl.
 53 56  0  0  0  0  0  0  0  0  2 V2000
  150.1985  140.2902  154.1324 O   0  0  0  0  0  0  0  0  0  0  0  0
  149.2515  140.9850  154.5025 C   0  0  0  0  0  0  0  0  0  0  0  0
  149.3570  141.8708  155.5084 N   0  0  0  0  0  0  0  0  0  0  0  0
  150.5611  142.1312  156.2939 C   0  0  0  0  0  0  0  0  0  0  0  0
  150.3414  141.8756  157.7974 C   0  0  0  0  0  0  0  0  0  0  0  0
  150.9159  142.9622  158.6894 C   0  0  0  0  0  0  0  0  0  0  0  0
  151.9981  142.6969  159.5540 C   0  0  0  0  0  0  0  0  0  0  0  0
  152.5102  143.7456  160.3415 C   0  0  0  0  0  0  0  0  0  0  0  0
  151.9130  145.0174  160.2346 C   0  0  0  0  0  0  0  0  0  0  0  0
  150.8744  145.2823  159.4135 N   0  0  0  0  0  0  0  0  0  0  0  0
  150.3907  144.2717  158.6598 C   0  0  0  0  0  0  0  0  0  0  0  0
  148.0001  140.8571  153.9968 N   0  0  0  0  0  0  0  0  0  0  0  0
  147.4160  139.6262  153.4492 C   0  0  0  0  0  0  0  0  0  0  0  0
  146.4276  139.0395  154.4748 C   0  0  0  0  0  0  0  0  0  0  0  0
  145.3827  140.0291  154.8679 N   0  3  0  0  0  0  0  0  0  0  0  0
  144.4151  139.4968  155.8698 C   0  0  1  0  0  0  0  0  0  0  0  0
  143.0138  140.1541  155.8168 C   0  0  0  0  0  0  0  0  0  0  0  0
  142.0604  138.9444  155.7892 C   0  0  1  0  0  0  0  0  0  0  0  0
  142.0875  138.3251  154.3817 C   0  0  0  0  0  0  0  0  0  0  0  0
  143.4830  137.6791  154.3287 C   0  0  0  0  0  0  0  0  0  0  0  0
  144.0657  137.9941  155.7243 C   0  0  2  0  0  0  0  0  0  0  0  0
  142.8210  137.9023  156.6005 C   0  0  0  0  0  0  0  0  0  0  0  0
  145.9732  141.3346  155.2809 C   0  0  0  0  0  0  0  0  0  0  0  0
  146.9637  141.8646  154.2299 C   0  0  0  0  0  0  0  0  0  0  0  0
  148.5276  142.3816  155.7734 H   0  0  0  0  0  0  0  0  0  0  0  0
  151.3976  141.5328  155.9293 H   0  0  0  0  0  0  0  0  0  0  0  0
  150.8460  143.1722  156.1407 H   0  0  0  0  0  0  0  0  0  0  0  0
  149.2736  141.7870  158.0007 H   0  0  0  0  0  0  0  0  0  0  0  0
  150.7819  140.9170  158.0747 H   0  0  0  0  0  0  0  0  0  0  0  0
  152.4355  141.7108  159.6075 H   0  0  0  0  0  0  0  0  0  0  0  0
  153.3407  143.5800  161.0114 H   0  0  0  0  0  0  0  0  0  0  0  0
  152.2799  145.8444  160.8244 H   0  0  0  0  0  0  0  0  0  0  0  0
  149.5655  144.5172  158.0077 H   0  0  0  0  0  0  0  0  0  0  0  0
  146.8936  139.8632  152.5212 H   0  0  0  0  0  0  0  0  0  0  0  0
  148.1536  138.8693  153.1827 H   0  0  0  0  0  0  0  0  0  0  0  0
  145.9679  138.1521  154.0409 H   0  0  0  0  0  0  0  0  0  0  0  0
  146.9683  138.7138  155.3650 H   0  0  0  0  0  0  0  0  0  0  0  0
  144.8417  139.6535  156.8628 H   0  0  0  0  0  0  0  0  0  0  0  0
  142.8463  140.7674  156.7030 H   0  0  0  0  0  0  0  0  0  0  0  0
  142.8610  140.7865  154.9416 H   0  0  0  0  0  0  0  0  0  0  0  0
  141.0555  139.1685  156.1482 H   0  0  0  0  0  0  0  0  0  0  0  0
  141.3101  137.5668  154.2771 H   0  0  0  0  0  0  0  0  0  0  0  0
  141.9388  139.0658  153.5950 H   0  0  0  0  0  0  0  0  0  0  0  0
  143.3952  136.6017  154.1833 H   0  0  0  0  0  0  0  0  0  0  0  0
  144.0910  138.0716  153.5136 H   0  0  0  0  0  0  0  0  0  0  0  0
  144.8691  137.3218  156.0273 H   0  0  0  0  0  0  0  0  0  0  0  0
  142.9932  138.2003  157.6363 H   0  0  0  0  0  0  0  0  0  0  0  0
  142.3520  136.9167  156.5861 H   0  0  0  0  0  0  0  0  0  0  0  0
  145.1929  142.0791  155.4345 H   0  0  0  0  0  0  0  0  0  0  0  0
  146.4831  141.2139  156.2382 H   0  0  0  0  0  0  0  0  0  0  0  0
  147.3761  142.8226  154.5507 H   0  0  0  0  0  0  0  0  0  0  0  0
  146.4429  142.0686  153.2930 H   0  0  0  0  0  0  0  0  0  0  0  0
  144.8494  140.2144  154.0303 H   0  0  0  0  0  0  0  0  0  0  0  0
  1  2  2  0  0  0  0
  2  3  1  0  0  0  0
  2 12  1  0  0  0  0
  3  4  1  0  0  0  0
  3 25  1  0  0  0  0
  4  5  1  0  0  0  0
  4 26  1  0  0  0  0
  4 27  1  0  0  0  0
  5  6  1  0  0  0  0
  5 28  1  0  0  0  0
  5 29  1  0  0  0  0
  6 11  1  0  0  0  0
  6  7  2  0  0  0  0
  7  8  1  0  0  0  0
  7 30  1  0  0  0  0
  8  9  2  0  0  0  0
  8 31  1  0  0  0  0
  9 10  1  0  0  0  0
  9 32  1  0  0  0  0
 10 11  2  0  0  0  0
 11 33  1  0  0  0  0
 12 24  1  0  0  0  0
 12 13  1  0  0  0  0
 13 14  1  0  0  0  0
 13 34  1  0  0  0  0
 13 35  1  0  0  0  0
 14 15  1  0  0  0  0
 14 36  1  0  0  0  0
 14 37  1  0  0  0  0
 15 16  1  0  0  0  0
 15 23  1  0  0  0  0
 15 53  1  0  0  0  0
 16 21  1  0  0  0  0
 16 17  1  0  0  0  0
 16 38  1  0  0  0  0
 17 18  1  0  0  0  0
 17 39  1  0  0  0  0
 17 40  1  0  0  0  0
 18 22  1  0  0  0  0
 18 19  1  0  0  0  0
 18 41  1  0  0  0  0
 19 20  1  0  0  0  0
 19 42  1  0  0  0  0
 19 43  1  0  0  0  0
 20 21  1  0  0  0  0
 20 44  1  0  0  0  0
 20 45  1  0  0  0  0
 21 22  1  0  0  0  0
 21 46  1  0  0  0  0
 22 47  1  0  0  0  0
 22 48  1  0  0  0  0
 23 24  1  0  0  0  0
 23 49  1  0  0  0  0
 23 50  1  0  0  0  0
 24 51  1  0  0  0  0
 24 52  1  0  0  0  0
M  CHG  1  15   1
M  END
> <s_m_source_file>
AV-unprocessed.smi

> <i_m_source_file_index>
867

> <i_lp_mmshare_version>
43012

> <i_f3d_flags>
0

> <s_epik_input>
W0NIMl0xW0NIMl1bQ0BASF0oW0NIMl0yKVtDQEBIXShbQ0gyXVtDQEhdMTIpTihbQ0gyXVtDSDJdMylbQ0gyXVtDSDJdTjNDKD1PKVtOSF1bQ0gyXVtDSDJdYzRbY0hdW2NIXVtjSF1uW2NIXTQ=

> <s_epik_cmdline>
J2VwaWtfcHl0aG9uJywgJy1waCcsICc3LjAnLCAnLXRuJywgJzgnLCAnLW1hJywgJzIwMCcsICctbWV0YWxfYmluZGluZycsICctaW1hZScsICc8aW5maWxlLm1hZT4nLCAnLW9tYWUnLCAnPG91dGZpbGUubWFlPic=

> <r_epik_Ionization_Penalty>
0.0161279

> <r_epik_Ionization_Penalty_Charging>
0.00262064

> <r_epik_Ionization_Penalty_Neutral>
0.0135072

> <r_epik_State_Penalty>
0.0104914

> <r_epik_Charging_Adjusted_Penalty>
0.013112

> <i_epik_Tot_Q>
1

> <i_epik_Tot_abs_Q>
1

> <r_epik_Metal_State_Penalty>
0.0102536

> <b_epik_Metal_Only>
0

> <s_lp_Force_Field>
OPLS_2005

> <r_lp_Energy>
96.5484

> <b_lp_Chiralities_Consistent>
1

> <s_lp_Variant>
AV-unprocessed.smi:867-4

> <Gold.Version>
5.8.1

> <Gold.Id.Protein>
6NUR|6NUR_protein|mol2

> <Gold.PLP.Fitness>
47.8205

> <Gold.PLP.PLP>
-38.5501

> <Gold.PLP.part.hbond>
-3.0000

> <Gold.PLP.part.metal>
0.0000

> <Gold.PLP.part.buried>
-5.8974

> <Gold.PLP.part.nonpolar>
-30.7339

> <Gold.PLP.part.repulsive>
1.1456

> <Gold.PLP.ligand.clash>
1.3231

> <Gold.PLP.ligand.torsion>
1.0534

> <Gold.PLP.Chemscore.Hbond>
3.0088

> <Gold.PLP.Chemscore.CHOScore>
1.1872

> <Gold.PLP.Chemscore.Metal>
0.0000

> <Gold.Chemscore.Hbonds>
donor molecule, donor type, donor heavy atom, donor atom, acceptor molecule, acceptor atom, score
      L1  H     3    25       P1  8028  0.04
      L1  H    15    53       P1 10175  2.00
      P1  H  7989  7998       L1     1  0.93
      L1  C    11    33       P1  8028  0.39
      L1  C    11    33       P1  8029  0.64

> <Gold.PLP.Chemscore.Internal.Correction>
0.1125

> <Gold.Rescore>
     Score         DG    S(hbond)    S(metal)    S(lipo)     H(rot)  DE(clash)    DE(int)     intcor
     17.89     -19.10       1.91        0.00      91.87       1.37       0.23       0.98       ----

> <Gold.Chemscore.Fitness>
17.8919

> <Gold.Chemscore.DG>
-19.0990

> <Gold.Chemscore.ZeroCoef>
-5.4800

> <Gold.Chemscore.Hbond>
1.9119

> <Gold.Chemscore.Metal>
0.0000

> <Gold.Chemscore.Lipo>
91.8683

> <Gold.Chemscore.Internal_Hbond>
0.0000

> <Gold.Chemscore.DEClash>
0.2313

> <Gold.Chemscore.DEInternal>
0.9759

> <Gold.Chemscore.Rot>
1.3731

> <Gold.Chemscore.Internal.Correction>
   9.000000E+99

> <Gold.Chemscore.Hbonds>
donor molecule, donor type, donor heavy atom, donor atom, acceptor molecule, acceptor atom, score
      L1  H     3    25       P1  8028  0.05
      L1  H    15    53       P1 10175  0.99
      P1  H  7989  7998       L1     1  0.89

> <Gold.Chemscore.Hbond.Weighted>
-6.3856

> <Gold.Chemscore.Metal.Weighted>
-0.0000

> <Gold.Chemscore.Lipo.Weighted>
-10.7486

> <Gold.Chemscore.Internal_Hbond.Weighted>
0.0000

> <Gold.Chemscore.DEClash.Weighted>
0.2313

> <Gold.Chemscore.DEInternal.Weighted>
0.9759

> <Gold.Chemscore.Rot.Weighted>
3.5152

> <Gold.Chemscore.Internal.Correction.Weighted>
   9.000000E+99

> <Gold.Protein.RotatedTorsions>
[ 6907 6896 6895 6894 ] final  -41.77 input  -60.11 | X-H torsion
[ 7974 7965 7964 7962 ] final   25.93 input  175.53 | X-H torsion
[ 8008 7997 7996 7995 ] final   -7.78 input   59.86 | X-H torsion
[ 10167 10162 10161 10158 ] final  -75.55 input  -65.29 | X-H torsion
[ 10718 10713 10712 10709 ] final   32.82 input   66.30 | X-H torsion
[ 10763 10752 10751 10750 ] final  177.43 input  -60.55 | X-H torsion
[ 11005 11000 10999 10996 ] final   10.64 input  -57.11 | X-H torsion

> <Gold.Protein.ActiveResidues>
 VAL166  LYS551  ARG553  GLY616  TRP617  ASP618  TYR619  PRO620  LYS621  CYS622 
 ASP623  PHE694  ASN695  SER759  ASP760  ASP761  ALA762  ILE779  LEU786  VAL792 
 PHE793  MET794  SER795  GLU796  ALA797  LYS798  CYS799  TRP800  GLU811  SER814 

> <Gold.Protein.RotatedAtoms>
  150.9629  134.9014  159.7741 H   0  0  0  0  0  0  0  0  0  0  0  0  # atno 6907 bound_to 6896
  152.5163  134.3648  159.9307 H   0  0  0  0  0  0  0  0  0  0  0  0  # atno 6908 bound_to 6896
  151.3659  133.3832  159.2729 H   0  0  0  0  0  0  0  0  0  0  0  0  # atno 6909 bound_to 6896
  146.1863  139.7398  142.8864 H   0  0  0  0  0  0  0  0  0  0  0  0  # atno 7974 bound_to 7965
  154.5805  140.2398  155.8061 H   0  0  0  0  0  0  0  0  0  0  0  0  # atno 8008 bound_to 7997
  156.2175  140.3008  155.9830 H   0  0  0  0  0  0  0  0  0  0  0  0  # atno 8009 bound_to 7997
  155.2550  140.0412  157.2981 H   0  0  0  0  0  0  0  0  0  0  0  0  # atno 8010 bound_to 7997
  140.4933  143.2376  151.7871 H   0  0  0  0  0  0  0  0  0  0  0  0  # atno 10167 bound_to 10162
  157.2900  130.7298  149.6605 H   0  0  0  0  0  0  0  0  0  0  0  0  # atno 10718 bound_to 10713
  154.4943  135.2780  155.1471 H   0  0  0  0  0  0  0  0  0  0  0  0  # atno 10763 bound_to 10752
  154.3130  135.6225  153.5477 H   0  0  0  0  0  0  0  0  0  0  0  0  # atno 10764 bound_to 10752
  152.9892  135.5724  154.5372 H   0  0  0  0  0  0  0  0  0  0  0  0  # atno 10765 bound_to 10752
  140.5122  134.0641  155.7821 H   0  0  0  0  0  0  0  0  0  0  0  0  # atno 11005 bound_to 11000
  145.3927  141.0374  143.3115 LP  0  0  0  0  0  0  0  0  0  0  0  0  # atno 17320 bound_to 7965
  144.8404  139.5481  143.6903 LP  0  0  0  0  0  0  0  0  0  0  0  0  # atno 17321 bound_to 7965
  139.4856  144.4620  151.9529 LP  0  0  0  0  0  0  0  0  0  0  0  0  # atno 17342 bound_to 10162
  140.3707  144.2859  150.5920 LP  0  0  0  0  0  0  0  0  0  0  0  0  # atno 17343 bound_to 10162
  155.9667  130.4312  150.4908 LP  0  0  0  0  0  0  0  0  0  0  0  0  # atno 17370 bound_to 10713
  157.2869  131.0618  151.2160 LP  0  0  0  0  0  0  0  0  0  0  0  0  # atno 17371 bound_to 10713
  141.1379  133.9189  157.2391 LP  0  0  0  0  0  0  0  0  0  0  0  0  # atno 17394 bound_to 11000
  139.9653  135.0143  156.9369 LP  0  0  0  0  0  0  0  0  0  0  0  0  # atno 17395 bound_to 11000

$$$$
