AV-unprocessed.smi:2450|AV-procd|sdf|9668|dock7
  -GOLD-   2272013303D 1   1.00000     0.00000
 Structure written by MMmdl.
 42 43  0  0  0  0  0  0  0  0  2 V2000
  152.8085  143.0221  161.1090 C   0  0  0  0  0  0  0  0  0  0  0  0
  152.5324  142.2036  159.8393 C   0  0  0  0  0  0  0  0  0  0  0  0
  151.7226  142.9657  158.7733 C   0  0  1  0  0  0  0  0  0  0  0  0
  152.3711  144.3177  158.4336 C   0  0  0  0  0  0  0  0  0  0  0  0
  151.5872  142.1524  157.5664 N   0  0  0  0  0  0  0  0  0  0  0  0
  150.4383  141.9046  156.9211 C   0  0  0  0  0  0  0  0  0  0  0  0
  149.3513  142.3680  157.2643 O   0  0  0  0  0  0  0  0  0  0  0  0
  150.6427  141.1083  155.8583 N   0  0  0  0  0  0  0  0  0  0  0  0
  149.6937  140.6154  154.9162 C   0  0  0  0  0  0  0  0  0  0  0  0
  148.5878  141.3788  154.4607 C   0  0  0  0  0  0  0  0  0  0  0  0
  147.6821  140.8168  153.5396 C   0  0  0  0  0  0  0  0  0  0  0  0
  147.8866  139.4978  153.0950 C   0  0  0  0  0  0  0  0  0  0  0  0
  148.9378  138.7911  153.5594 N   0  3  0  0  0  0  0  0  0  0  0  0
  149.8379  139.2851  154.4451 C   0  0  0  0  0  0  0  0  0  0  0  0
  150.8986  138.4643  154.8656 N   0  0  0  0  0  0  0  0  0  0  0  0
  152.2331  138.9454  154.5488 C   0  0  0  0  0  0  0  0  0  0  0  0
  153.1814  138.1201  155.4226 C   0  0  0  0  0  0  0  0  0  0  0  0
  152.3066  137.5933  156.5672 C   0  0  0  0  0  0  0  0  0  0  0  0
  150.9095  138.1512  156.2843 C   0  0  0  0  0  0  0  0  0  0  0  0
  153.4242  142.4550  161.8076 H   0  0  0  0  0  0  0  0  0  0  0  0
  151.8862  143.2877  161.6260 H   0  0  0  0  0  0  0  0  0  0  0  0
  153.3390  143.9450  160.8736 H   0  0  0  0  0  0  0  0  0  0  0  0
  153.4872  141.8973  159.4102 H   0  0  0  0  0  0  0  0  0  0  0  0
  152.0141  141.2826  160.1099 H   0  0  0  0  0  0  0  0  0  0  0  0
  150.7293  143.1574  159.1837 H   0  0  0  0  0  0  0  0  0  0  0  0
  152.4675  144.9398  159.3239 H   0  0  0  0  0  0  0  0  0  0  0  0
  151.7738  144.8745  157.7110 H   0  0  0  0  0  0  0  0  0  0  0  0
  153.3677  144.1858  158.0112 H   0  0  0  0  0  0  0  0  0  0  0  0
  152.4337  141.7355  157.2077 H   0  0  0  0  0  0  0  0  0  0  0  0
  151.6056  140.8786  155.6599 H   0  0  0  0  0  0  0  0  0  0  0  0
  148.4047  142.3830  154.8103 H   0  0  0  0  0  0  0  0  0  0  0  0
  146.8386  141.3902  153.1835 H   0  0  0  0  0  0  0  0  0  0  0  0
  147.2427  138.9882  152.3925 H   0  0  0  0  0  0  0  0  0  0  0  0
  152.4537  138.8200  153.4884 H   0  0  0  0  0  0  0  0  0  0  0  0
  152.3292  140.0049  154.7899 H   0  0  0  0  0  0  0  0  0  0  0  0
  153.5915  137.2844  154.8542 H   0  0  0  0  0  0  0  0  0  0  0  0
  154.0186  138.7198  155.7813 H   0  0  0  0  0  0  0  0  0  0  0  0
  152.2900  136.5028  156.5496 H   0  0  0  0  0  0  0  0  0  0  0  0
  152.6716  137.9037  157.5467 H   0  0  0  0  0  0  0  0  0  0  0  0
  150.7376  139.0518  156.8757 H   0  0  0  0  0  0  0  0  0  0  0  0
  150.1308  137.4300  156.5345 H   0  0  0  0  0  0  0  0  0  0  0  0
  149.0608  137.8348  153.2262 H   0  0  0  0  0  0  0  0  0  0  0  0
  1  2  1  0  0  0  0
  1 20  1  0  0  0  0
  1 21  1  0  0  0  0
  1 22  1  0  0  0  0
  2  3  1  0  0  0  0
  2 23  1  0  0  0  0
  2 24  1  0  0  0  0
  3  4  1  0  0  0  0
  3  5  1  0  0  0  0
  3 25  1  0  0  0  0
  4 26  1  0  0  0  0
  4 27  1  0  0  0  0
  4 28  1  0  0  0  0
  5  6  1  0  0  0  0
  5 29  1  0  0  0  0
  6  7  2  0  0  0  0
  6  8  1  0  0  0  0
  8  9  1  0  0  0  0
  8 30  1  0  0  0  0
  9 14  1  0  0  0  0
  9 10  2  0  0  0  0
 10 11  1  0  0  0  0
 10 31  1  0  0  0  0
 11 12  2  0  0  0  0
 11 32  1  0  0  0  0
 12 13  1  0  0  0  0
 12 33  1  0  0  0  0
 13 14  2  0  0  0  0
 13 42  1  0  0  0  0
 14 15  1  0  0  0  0
 15 19  1  0  0  0  0
 15 16  1  0  0  0  0
 16 17  1  0  0  0  0
 16 34  1  0  0  0  0
 16 35  1  0  0  0  0
 17 18  1  0  0  0  0
 17 36  1  0  0  0  0
 17 37  1  0  0  0  0
 18 19  1  0  0  0  0
 18 38  1  0  0  0  0
 18 39  1  0  0  0  0
 19 40  1  0  0  0  0
 19 41  1  0  0  0  0
M  CHG  1  13   1
M  END
> <s_m_source_file>
AV-unprocessed.smi

> <i_m_source_file_index>
2450

> <i_lp_mmshare_version>
43012

> <i_f3d_flags>
0

> <s_epik_input>
W0NIM11bQ0gyXVtDQEhdKFtDSDNdKVtOSF1DKD1PKVtOSF1jMVtjSF1bY0hdW2NIXW5jMU4yW0NIMl1bQ0gyXVtDSDJdW0NIMl0y

> <s_epik_cmdline>
J2VwaWtfcHl0aG9uJywgJy1waCcsICc3LjAnLCAnLXRuJywgJzgnLCAnLW1hJywgJzIwMCcsICctbWV0YWxfYmluZGluZycsICctaW1hZScsICc8aW5maWxlLm1hZT4nLCAnLW9tYWUnLCAnPG91dGZpbGUubWFlPic=

> <r_lp_tautomer_probability>
0.999994

> <r_epik_Ionization_Penalty>
1.08838

> <r_epik_Ionization_Penalty_Charging>
1.08836

> <r_epik_Ionization_Penalty_Neutral>
2.1796e-05

> <r_epik_State_Penalty>
1.14442

> <r_epik_Charging_Adjusted_Penalty>
2.23278

> <i_epik_Tot_Q>
1

> <i_epik_Tot_abs_Q>
1

> <r_epik_Metal_State_Penalty>
1.23344

> <b_epik_Metal_Only>
0

> <s_lp_Force_Field>
OPLS_2005

> <r_lp_Energy>
41.1125

> <b_lp_Chiralities_Consistent>
1

> <s_lp_Variant>
AV-unprocessed.smi:2450-4

> <Gold.Version>
5.8.1

> <Gold.Id.Protein>
6NUR|6NUR_protein|mol2

> <Gold.PLP.Fitness>
39.3474

> <Gold.PLP.PLP>
-34.6717

> <Gold.PLP.part.hbond>
-2.0000

> <Gold.PLP.part.metal>
0.0000

> <Gold.PLP.part.buried>
0.8268

> <Gold.PLP.part.nonpolar>
-34.9556

> <Gold.PLP.part.repulsive>
1.5576

> <Gold.PLP.ligand.clash>
0.4490

> <Gold.PLP.ligand.torsion>
0.4338

> <Gold.PLP.Chemscore.Hbond>
1.9825

> <Gold.PLP.Chemscore.CHOScore>
0.0000

> <Gold.PLP.Chemscore.Metal>
0.0000

> <Gold.Chemscore.Hbonds>
donor molecule, donor type, donor heavy atom, donor atom, acceptor molecule, acceptor atom, score
      L1  H    13    42       P1  7948  1.72

> <Gold.PLP.Chemscore.Internal.Correction>
0.0447

> <Gold.Rescore>
     Score         DG    S(hbond)    S(metal)    S(lipo)     H(rot)  DE(clash)    DE(int)     intcor
     12.96     -16.52       0.98        0.00      95.78       1.34       1.25       2.31       ----

> <Gold.Chemscore.Fitness>
12.9584

> <Gold.Chemscore.DG>
-16.5196

> <Gold.Chemscore.ZeroCoef>
-5.4800

> <Gold.Chemscore.Hbond>
0.9766

> <Gold.Chemscore.Metal>
0.0000

> <Gold.Chemscore.Lipo>
95.7790

> <Gold.Chemscore.Internal_Hbond>
0.0000

> <Gold.Chemscore.DEClash>
1.2547

> <Gold.Chemscore.DEInternal>
2.3065

> <Gold.Chemscore.Rot>
1.3393

> <Gold.Chemscore.Internal.Correction>
   9.000000E+99

> <Gold.Chemscore.Hbonds>
donor molecule, donor type, donor heavy atom, donor atom, acceptor molecule, acceptor atom, score
      L1  H    13    42       P1  7948  0.83

> <Gold.Chemscore.Hbond.Weighted>
-3.2620

> <Gold.Chemscore.Metal.Weighted>
-0.0000

> <Gold.Chemscore.Lipo.Weighted>
-11.2061

> <Gold.Chemscore.Internal_Hbond.Weighted>
0.0000

> <Gold.Chemscore.DEClash.Weighted>
1.2547

> <Gold.Chemscore.DEInternal.Weighted>
2.3065

> <Gold.Chemscore.Rot.Weighted>
3.4285

> <Gold.Chemscore.Internal.Correction.Weighted>
   9.000000E+99

> <Gold.Protein.RotatedTorsions>
[ 6907 6896 6895 6894 ] final  101.17 input  -60.11 | X-H torsion
[ 7974 7965 7964 7962 ] final -137.50 input  175.53 | X-H torsion
[ 8008 7997 7996 7995 ] final -124.68 input   59.86 | X-H torsion
[ 10167 10162 10161 10158 ] final   -9.44 input  -65.29 | X-H torsion
[ 10718 10713 10712 10709 ] final   83.87 input   66.30 | X-H torsion
[ 10763 10752 10751 10750 ] final   58.21 input  -60.55 | X-H torsion
[ 11005 11000 10999 10996 ] final   19.50 input  -57.11 | X-H torsion

> <Gold.Protein.ActiveResidues>
 VAL166  LYS551  ARG553  GLY616  TRP617  ASP618  TYR619  PRO620  LYS621  CYS622 
 ASP623  PHE694  ASN695  SER759  ASP760  ASP761  ALA762  ILE779  LEU786  VAL792 
 PHE793  MET794  SER795  GLU796  ALA797  LYS798  CYS799  TRP800  GLU811  SER814 

> <Gold.Protein.RotatedAtoms>
  152.5355  134.0166  159.7962 H   0  0  0  0  0  0  0  0  0  0  0  0  # atno 6907 bound_to 6896
  151.0360  133.5741  159.2663 H   0  0  0  0  0  0  0  0  0  0  0  0  # atno 6908 bound_to 6896
  151.2728  135.0697  159.9194 H   0  0  0  0  0  0  0  0  0  0  0  0  # atno 6909 bound_to 6896
  144.8836  140.6543  143.5190 H   0  0  0  0  0  0  0  0  0  0  0  0  # atno 7974 bound_to 7965
  155.2009  140.0416  157.2917 H   0  0  0  0  0  0  0  0  0  0  0  0  # atno 8008 bound_to 7997
  154.6075  140.2468  155.7683 H   0  0  0  0  0  0  0  0  0  0  0  0  # atno 8009 bound_to 7997
  156.2359  140.2921  156.0321 H   0  0  0  0  0  0  0  0  0  0  0  0  # atno 8010 bound_to 7997
  140.7087  143.5857  150.8945 H   0  0  0  0  0  0  0  0  0  0  0  0  # atno 10167 bound_to 10162
  157.6887  131.0109  150.2588 H   0  0  0  0  0  0  0  0  0  0  0  0  # atno 10718 bound_to 10713
  152.9866  135.5614  154.5515 H   0  0  0  0  0  0  0  0  0  0  0  0  # atno 10763 bound_to 10752
  154.4951  135.2794  155.1467 H   0  0  0  0  0  0  0  0  0  0  0  0  # atno 10764 bound_to 10752
  154.2920  135.6324  153.5442 H   0  0  0  0  0  0  0  0  0  0  0  0  # atno 10765 bound_to 10752
  140.4130  134.1598  155.7668 H   0  0  0  0  0  0  0  0  0  0  0  0  # atno 11005 bound_to 11000
  145.3909  139.1617  143.4230 LP  0  0  0  0  0  0  0  0  0  0  0  0  # atno 17320 bound_to 7965
  146.3010  140.3998  142.8704 LP  0  0  0  0  0  0  0  0  0  0  0  0  # atno 17321 bound_to 7965
  139.9583  143.6193  152.3009 LP  0  0  0  0  0  0  0  0  0  0  0  0  # atno 17342 bound_to 10162
  139.6736  144.7660  151.1737 LP  0  0  0  0  0  0  0  0  0  0  0  0  # atno 17343 bound_to 10162
  156.3171  130.3780  149.7608 LP  0  0  0  0  0  0  0  0  0  0  0  0  # atno 17370 bound_to 10713
  156.5190  130.8206  151.3197 LP  0  0  0  0  0  0  0  0  0  0  0  0  # atno 17371 bound_to 10713
  141.1814  133.8406  157.1245 LP  0  0  0  0  0  0  0  0  0  0  0  0  # atno 17394 bound_to 11000
  140.0254  134.9926  157.0675 LP  0  0  0  0  0  0  0  0  0  0  0  0  # atno 17395 bound_to 11000

$$$$
