AV-unprocessed.smi:3237|AV-procd|sdf|12368|dock6
  -GOLD-   2272018233D 1   1.00000     0.00000
 Structure written by MMmdl.
 36 38  0  0  0  0  0  0  0  0  3 V2000
  149.2201  133.1184  157.1641 C   0  0  0  0  0  0  0  0  0  0  0  0
  149.9613  134.3539  156.7832 C   0  0  0  0  0  0  0  0  0  0  0  0
  150.4193  134.8309  155.5879 C   0  0  0  0  0  0  0  0  0  0  0  0
  151.0457  136.0559  155.9459 C   0  0  0  0  0  0  0  0  0  0  0  0
  151.6458  136.9107  155.1034 N   0  5  0  0  0  0  0  0  0  0  0  0
  152.2205  138.0401  155.5755 C   0  0  0  0  0  0  0  0  0  0  0  0
  153.4266  138.2354  155.7422 O   0  0  0  0  0  0  0  0  0  0  0  0
  151.3412  139.0069  155.8715 N   0  0  0  0  0  0  0  0  0  0  0  0
  151.6772  140.3265  156.3929 C   0  0  1  0  0  0  0  0  0  0  0  0
  150.7564  141.4483  155.9229 C   0  0  0  0  0  0  0  0  0  0  0  0
  150.9798  142.5294  156.9858 C   0  0  0  0  0  0  0  0  0  0  0  0
  151.3731  141.8282  158.2337 N   0  3  2  0  0  0  0  0  0  0  0  0
  152.5665  142.4093  158.8868 C   0  0  0  0  0  0  0  0  0  0  0  0
  152.4886  142.4133  160.3948 C   0  0  0  0  0  0  0  0  0  0  0  0
  152.2855  143.6983  159.6215 C   0  0  0  0  0  0  0  0  0  0  0  0
  151.5166  140.3920  157.9100 C   0  0  0  0  0  0  0  0  0  0  0  0
  150.9602  136.3082  157.2411 N   0  0  0  0  0  0  0  0  0  0  0  0
  150.2731  135.2174  157.7868 O   0  0  0  0  0  0  0  0  0  0  0  0
  148.5434  132.8115  156.3664 H   0  0  0  0  0  0  0  0  0  0  0  0
  148.6275  133.2794  158.0650 H   0  0  0  0  0  0  0  0  0  0  0  0
  149.9121  132.2985  157.3556 H   0  0  0  0  0  0  0  0  0  0  0  0
  150.3257  134.3753  154.6136 H   0  0  0  0  0  0  0  0  0  0  0  0
  150.3635  138.8037  155.7225 H   0  0  0  0  0  0  0  0  0  0  0  0
  152.7102  140.5712  156.1373 H   0  0  0  0  0  0  0  0  0  0  0  0
  150.9853  141.7938  154.9143 H   0  0  0  0  0  0  0  0  0  0  0  0
  149.7167  141.1173  155.9393 H   0  0  0  0  0  0  0  0  0  0  0  0
  151.7795  143.1971  156.6601 H   0  0  0  0  0  0  0  0  0  0  0  0
  150.0890  143.1378  157.1432 H   0  0  0  0  0  0  0  0  0  0  0  0
  153.5191  142.2544  158.3826 H   0  0  0  0  0  0  0  0  0  0  0  0
  151.6155  141.9658  160.8663 H   0  0  0  0  0  0  0  0  0  0  0  0
  153.4211  142.3044  160.9450 H   0  0  0  0  0  0  0  0  0  0  0  0
  153.0838  144.4366  159.6631 H   0  0  0  0  0  0  0  0  0  0  0  0
  151.2769  144.1060  159.5793 H   0  0  0  0  0  0  0  0  0  0  0  0
  150.5994  139.8874  158.2176 H   0  0  0  0  0  0  0  0  0  0  0  0
  152.3452  139.9170  158.4374 H   0  0  0  0  0  0  0  0  0  0  0  0
  150.6072  141.9066  158.8873 H   0  0  0  0  0  0  0  0  0  0  0  0
  1  2  1  0  0  0  0
  1 19  1  0  0  0  0
  1 20  1  0  0  0  0
  1 21  1  0  0  0  0
  2 18  1  0  0  0  0
  2  3  2  0  0  0  0
  3  4  1  0  0  0  0
  3 22  1  0  0  0  0
  4  5  1  0  0  0  0
  4 17  2  0  0  0  0
  5  6  1  0  0  0  0
  6  7  2  0  0  0  0
  6  8  1  0  0  0  0
  8  9  1  0  0  0  0
  8 23  1  0  0  0  0
  9 16  1  0  0  0  0
  9 10  1  0  0  0  0
  9 24  1  0  0  0  0
 10 11  1  0  0  0  0
 10 25  1  0  0  0  0
 10 26  1  0  0  0  0
 11 12  1  0  0  0  0
 11 27  1  0  0  0  0
 11 28  1  0  0  0  0
 12 13  1  0  0  0  0
 12 16  1  0  0  0  0
 12 36  1  0  0  0  0
 13 15  1  0  0  0  0
 13 14  1  0  0  0  0
 13 29  1  0  0  0  0
 14 15  1  0  0  0  0
 14 30  1  0  0  0  0
 14 31  1  0  0  0  0
 15 32  1  0  0  0  0
 15 33  1  0  0  0  0
 16 34  1  0  0  0  0
 16 35  1  0  0  0  0
 17 18  1  0  0  0  0
M  CHG  1   5  -1
M  CHG  1  12   1
M  END
> <s_m_source_file>
AV-unprocessed.smi

> <i_m_source_file_index>
3237

> <i_lp_mmshare_version>
43012

> <i_f3d_flags>
0

> <s_epik_input>
W0NIM11jMVtjSF1jKG5vMSlbTkhdQyg9TylbTkhdW0NAQEhdMltDSDJdW0NIMl1OKFtDSDJdMilbQ0hdM1tDSDJdW0NIMl0z

> <s_epik_cmdline>
J2VwaWtfcHl0aG9uJywgJy1waCcsICc3LjAnLCAnLXRuJywgJzgnLCAnLW1hJywgJzIwMCcsICctbWV0YWxfYmluZGluZycsICctaW1hZScsICc8aW5maWxlLm1hZT4nLCAnLW9tYWUnLCAnPG91dGZpbGUubWFlPic=

> <r_epik_Ionization_Penalty>
6.08472

> <r_epik_Ionization_Penalty_Charging>
6.08464

> <r_epik_Ionization_Penalty_Neutral>
8.41751e-05

> <r_epik_State_Penalty>
6.08438

> <r_epik_Charging_Adjusted_Penalty>
12.169

> <i_epik_Tot_Q>
0

> <i_epik_Tot_abs_Q>
2

> <r_epik_Metal_State_Penalty>
2.0369

> <b_epik_Metal_Only>
1

> <s_lp_Force_Field>
OPLS_2005

> <r_lp_Energy>
24.4971

> <b_lp_Chiralities_Consistent>
1

> <s_lp_Variant>
AV-unprocessed.smi:3237-6

> <Gold.Version>
5.8.1

> <Gold.Id.Protein>
6NUR|6NUR_protein|mol2

> <Gold.PLP.Fitness>
37.8270

> <Gold.PLP.PLP>
-31.7683

> <Gold.PLP.part.hbond>
-3.1804

> <Gold.PLP.part.metal>
0.0000

> <Gold.PLP.part.buried>
-5.5952

> <Gold.PLP.part.nonpolar>
-24.0730

> <Gold.PLP.part.repulsive>
0.2867

> <Gold.PLP.ligand.clash>
0.0000

> <Gold.PLP.ligand.torsion>
1.6926

> <Gold.PLP.Chemscore.Hbond>
2.7248

> <Gold.PLP.Chemscore.CHOScore>
0.0000

> <Gold.PLP.Chemscore.Metal>
0.0000

> <Gold.Chemscore.Hbonds>
donor molecule, donor type, donor heavy atom, donor atom, acceptor molecule, acceptor atom, score
      P1  H  6896  6907       L1    18  0.67
      P1  H  7997  8008       L1     7  0.37
      P1  H 10752 10763       L1     5  1.76

> <Gold.PLP.Chemscore.Internal.Correction>
1.2695

> <Gold.Rescore>
     Score         DG    S(hbond)    S(metal)    S(lipo)     H(rot)  DE(clash)    DE(int)     intcor
     13.42     -15.14       1.34        0.00      71.59       1.25       0.00       1.72       ----

> <Gold.Chemscore.Fitness>
13.4241

> <Gold.Chemscore.DG>
-15.1436

> <Gold.Chemscore.ZeroCoef>
-5.4800

> <Gold.Chemscore.Hbond>
1.3408

> <Gold.Chemscore.Metal>
0.0000

> <Gold.Chemscore.Lipo>
71.5909

> <Gold.Chemscore.Internal_Hbond>
0.0000

> <Gold.Chemscore.DEClash>
0.0000

> <Gold.Chemscore.DEInternal>
1.7195

> <Gold.Chemscore.Rot>
1.2464

> <Gold.Chemscore.Internal.Correction>
   9.000000E+99

> <Gold.Chemscore.Hbonds>
donor molecule, donor type, donor heavy atom, donor atom, acceptor molecule, acceptor atom, score
      P1  H  6896  6907       L1    18  0.52
      P1  H  7997  8008       L1     7  0.37
      P1  H 10752 10763       L1     5  0.18

> <Gold.Chemscore.Hbond.Weighted>
-4.4783

> <Gold.Chemscore.Metal.Weighted>
-0.0000

> <Gold.Chemscore.Lipo.Weighted>
-8.3761

> <Gold.Chemscore.Internal_Hbond.Weighted>
0.0000

> <Gold.Chemscore.DEClash.Weighted>
0.0000

> <Gold.Chemscore.DEInternal.Weighted>
1.7195

> <Gold.Chemscore.Rot.Weighted>
3.1909

> <Gold.Chemscore.Internal.Correction.Weighted>
   9.000000E+99

> <Gold.Protein.RotatedTorsions>
[ 6907 6896 6895 6894 ] final  -89.60 input  -60.11 | X-H torsion
[ 7974 7965 7964 7962 ] final   97.68 input  175.53 | X-H torsion
[ 8008 7997 7996 7995 ] final  -55.65 input   59.86 | X-H torsion
[ 10167 10162 10161 10158 ] final  -14.90 input  -65.29 | X-H torsion
[ 10718 10713 10712 10709 ] final -175.39 input   66.30 | X-H torsion
[ 10763 10752 10751 10750 ] final   37.31 input  -60.55 | X-H torsion
[ 11005 11000 10999 10996 ] final  174.21 input  -57.11 | X-H torsion

> <Gold.Protein.ActiveResidues>
 VAL166  LYS551  ARG553  GLY616  TRP617  ASP618  TYR619  PRO620  LYS621  CYS622 
 ASP623  PHE694  ASN695  SER759  ASP760  ASP761  ALA762  ILE779  LEU786  VAL792 
 PHE793  MET794  SER795  GLU796  ALA797  LYS798  CYS799  TRP800  GLU811  SER814 

> <Gold.Protein.RotatedAtoms>
  150.6875  134.2562  159.4530 H   0  0  0  0  0  0  0  0  0  0  0  0  # atno 6907 bound_to 6896
  152.0496  134.9659  160.0584 H   0  0  0  0  0  0  0  0  0  0  0  0  # atno 6908 bound_to 6896
  152.1129  133.4276  159.4676 H   0  0  0  0  0  0  0  0  0  0  0  0  # atno 6909 bound_to 6896
  145.4223  139.2320  143.3189 H   0  0  0  0  0  0  0  0  0  0  0  0  # atno 7974 bound_to 7965
  154.4202  140.1148  156.5511 H   0  0  0  0  0  0  0  0  0  0  0  0  # atno 8008 bound_to 7997
  155.6408  140.3496  155.4695 H   0  0  0  0  0  0  0  0  0  0  0  0  # atno 8009 bound_to 7997
  155.9872  140.1172  157.0662 H   0  0  0  0  0  0  0  0  0  0  0  0  # atno 8010 bound_to 7997
  140.7209  143.5273  150.9561 H   0  0  0  0  0  0  0  0  0  0  0  0  # atno 10167 bound_to 10162
  156.7991  130.9546  151.3119 H   0  0  0  0  0  0  0  0  0  0  0  0  # atno 10718 bound_to 10713
  153.0042  135.6281  154.2124 H   0  0  0  0  0  0  0  0  0  0  0  0  # atno 10763 bound_to 10752
  154.1868  135.2810  155.3036 H   0  0  0  0  0  0  0  0  0  0  0  0  # atno 10764 bound_to 10752
  154.5791  135.5653  153.7228 H   0  0  0  0  0  0  0  0  0  0  0  0  # atno 10765 bound_to 10752
  140.3488  134.7213  157.4253 H   0  0  0  0  0  0  0  0  0  0  0  0  # atno 11005 bound_to 11000
  146.2650  140.4949  142.8838 LP  0  0  0  0  0  0  0  0  0  0  0  0  # atno 17320 bound_to 7965
  144.8237  140.6593  143.6336 LP  0  0  0  0  0  0  0  0  0  0  0  0  # atno 17321 bound_to 7965
  139.8992  143.6856  152.3134 LP  0  0  0  0  0  0  0  0  0  0  0  0  # atno 17342 bound_to 10162
  139.7200  144.7604  151.0971 LP  0  0  0  0  0  0  0  0  0  0  0  0  # atno 17343 bound_to 10162
  157.6563  130.8927  149.9735 LP  0  0  0  0  0  0  0  0  0  0  0  0  # atno 17370 bound_to 10713
  156.1112  130.3650  150.0046 LP  0  0  0  0  0  0  0  0  0  0  0  0  # atno 17371 bound_to 10713
  140.0720  134.5849  155.8632 LP  0  0  0  0  0  0  0  0  0  0  0  0  # atno 17394 bound_to 11000
  141.2018  133.6621  156.5970 LP  0  0  0  0  0  0  0  0  0  0  0  0  # atno 17395 bound_to 11000

$$$$
