AV-unprocessed.smi:1512|AV-procd|sdf|6104|dock3
  -GOLD-   22720 6233D 1   1.00000     0.00000
 Structure written by MMmdl.
 44 46  0  0  0  0  0  0  0  0  3 V2000
  147.3965  131.5823  152.8842 C   0  0  0  0  0  0  0  0  0  0  0  0
  146.9221  133.0455  152.8849 C   0  0  2  0  0  0  0  0  0  0  0  0
  147.4404  133.7383  154.0589 N   0  0  0  0  0  0  0  0  0  0  0  0
  148.6854  133.6364  154.5538 C   0  0  0  0  0  0  0  0  0  0  0  0
  149.5171  132.8429  154.1158 O   0  0  0  0  0  0  0  0  0  0  0  0
  149.0811  134.5875  155.6974 C   0  0  0  0  0  0  0  0  0  0  0  0
  149.1930  136.0051  155.3017 N   0  0  0  0  0  0  0  0  0  0  0  0
  147.9977  136.6763  154.9831 C   0  0  0  0  0  0  0  0  0  0  0  0
  147.9891  137.9548  154.5797 C   0  0  0  0  0  0  0  0  0  0  0  0
  149.2519  138.6417  154.4590 C   0  0  0  0  0  0  0  0  0  0  0  0
  150.4135  138.0174  154.7606 C   0  0  0  0  0  0  0  0  0  0  0  0
  151.6453  138.7499  154.5848 N   0  3  0  0  0  0  0  0  0  0  0  0
  152.6775  138.1251  154.3605 O   0  0  0  0  0  0  0  0  0  0  0  0
  151.6125  139.9751  154.6483 O   0  5  0  0  0  0  0  0  0  0  0  0
  150.4158  136.6200  155.2381 C   0  0  0  0  0  0  0  0  0  0  0  0
  151.4471  136.0243  155.5550 O   0  0  0  0  0  0  0  0  0  0  0  0
  145.3786  133.1556  152.8672 C   0  0  2  0  0  0  0  0  0  0  0  0
  144.6780  132.2583  151.8227 C   0  0  0  0  0  0  0  0  0  0  0  0
  143.7326  133.2387  151.1026 C   0  0  2  0  0  0  0  0  0  0  0  0
  144.5618  134.1579  150.1866 C   0  0  0  0  0  0  0  0  0  0  0  0
  145.2705  135.0859  151.1900 C   0  0  0  0  0  0  0  0  0  0  0  0
  144.7812  134.5515  152.5512 C   0  0  1  0  0  0  0  0  0  0  0  0
  143.3362  134.1894  152.2261 C   0  0  0  0  0  0  0  0  0  0  0  0
  147.0275  131.0483  152.0087 H   0  0  0  0  0  0  0  0  0  0  0  0
  147.0470  131.0506  153.7700 H   0  0  0  0  0  0  0  0  0  0  0  0
  148.4850  131.5199  152.8671 H   0  0  0  0  0  0  0  0  0  0  0  0
  147.3175  133.5303  151.9908 H   0  0  0  0  0  0  0  0  0  0  0  0
  146.8209  134.4088  154.4903 H   0  0  0  0  0  0  0  0  0  0  0  0
  148.3509  134.4672  156.4986 H   0  0  0  0  0  0  0  0  0  0  0  0
  150.0259  134.2463  156.1239 H   0  0  0  0  0  0  0  0  0  0  0  0
  147.0962  136.0895  155.0852 H   0  0  0  0  0  0  0  0  0  0  0  0
  147.0620  138.4541  154.3396 H   0  0  0  0  0  0  0  0  0  0  0  0
  149.2577  139.6608  154.1004 H   0  0  0  0  0  0  0  0  0  0  0  0
  145.0152  132.8716  153.8567 H   0  0  0  0  0  0  0  0  0  0  0  0
  145.3740  131.7862  151.1280 H   0  0  0  0  0  0  0  0  0  0  0  0
  144.1167  131.4645  152.3169 H   0  0  0  0  0  0  0  0  0  0  0  0
  142.9005  132.7507  150.5943 H   0  0  0  0  0  0  0  0  0  0  0  0
  145.2655  133.5999  149.5679 H   0  0  0  0  0  0  0  0  0  0  0  0
  143.9159  134.7339  149.5225 H   0  0  0  0  0  0  0  0  0  0  0  0
  146.3550  135.0739  151.0847 H   0  0  0  0  0  0  0  0  0  0  0  0
  144.9442  136.1170  151.0479 H   0  0  0  0  0  0  0  0  0  0  0  0
  144.8892  135.2688  153.3650 H   0  0  0  0  0  0  0  0  0  0  0  0
  142.7419  135.0396  151.8861 H   0  0  0  0  0  0  0  0  0  0  0  0
  142.8155  133.6953  153.0485 H   0  0  0  0  0  0  0  0  0  0  0  0
  1  2  1  0  0  0  0
  1 24  1  0  0  0  0
  1 25  1  0  0  0  0
  1 26  1  0  0  0  0
  2  3  1  0  0  0  0
  2 17  1  0  0  0  0
  2 27  1  0  0  0  0
  3  4  1  0  0  0  0
  3 28  1  0  0  0  0
  4  5  2  0  0  0  0
  4  6  1  0  0  0  0
  6  7  1  0  0  0  0
  6 29  1  0  0  0  0
  6 30  1  0  0  0  0
  7 15  1  0  0  0  0
  7  8  1  0  0  0  0
  8  9  2  0  0  0  0
  8 31  1  0  0  0  0
  9 10  1  0  0  0  0
  9 32  1  0  0  0  0
 10 11  2  0  0  0  0
 10 33  1  0  0  0  0
 11 12  1  0  0  0  0
 11 15  1  0  0  0  0
 12 13  2  0  0  0  0
 12 14  1  0  0  0  0
 15 16  2  0  0  0  0
 17 22  1  0  0  0  0
 17 18  1  0  0  0  0
 17 34  1  0  0  0  0
 18 19  1  0  0  0  0
 18 35  1  0  0  0  0
 18 36  1  0  0  0  0
 19 23  1  0  0  0  0
 19 20  1  0  0  0  0
 19 37  1  0  0  0  0
 20 21  1  0  0  0  0
 20 38  1  0  0  0  0
 20 39  1  0  0  0  0
 21 22  1  0  0  0  0
 21 40  1  0  0  0  0
 21 41  1  0  0  0  0
 22 23  1  0  0  0  0
 22 42  1  0  0  0  0
 23 43  1  0  0  0  0
 23 44  1  0  0  0  0
M  CHG  1  12   1
M  CHG  1  14  -1
M  END
> <s_m_source_file>
AV-unprocessed.smi

> <i_m_source_file_index>
1512

> <i_lp_mmshare_version>
43012

> <i_f3d_flags>
0

> <s_epik_input>
W0NIMl0xW0NIMl1bQ0BIXShbQ0gyXTIpW0NAQEhdKFtDSDJdW0NAQEhdMTIpW0NASF0oW0NIM10pW05IXUMoPU8pW0NIMl1uM1tjSF1bY0hdW2NIXWMoW04rXSg9TylbTy1dKWMzPU8=

> <s_epik_cmdline>
J2VwaWtfcHl0aG9uJywgJy1waCcsICc3LjAnLCAnLXRuJywgJzgnLCAnLW1hJywgJzIwMCcsICctbWV0YWxfYmluZGluZycsICctaW1hZScsICc8aW5maWxlLm1hZT4nLCAnLW9tYWUnLCAnPG91dGZpbGUubWFlPic=

> <r_lp_tautomer_probability>
1

> <r_epik_Ionization_Penalty>
2.17697e-08

> <r_epik_Ionization_Penalty_Charging>
1.42735e-10

> <r_epik_Ionization_Penalty_Neutral>
2.16269e-08

> <r_epik_State_Penalty>
-0

> <r_epik_Charging_Adjusted_Penalty>
1.42735e-10

> <i_epik_Tot_Q>
0

> <i_epik_Tot_abs_Q>
2

> <r_epik_Metal_State_Penalty>
-0

> <b_epik_Metal_Only>
0

> <s_lp_Force_Field>
OPLS_2005

> <r_lp_Energy>
63.3532

> <b_lp_Chiralities_Consistent>
1

> <s_lp_Variant>
AV-unprocessed.smi:1512-5

> <Gold.Version>
5.8.1

> <Gold.Id.Protein>
6NUR|6NUR_protein|mol2

> <Gold.PLP.Fitness>
39.5229

> <Gold.PLP.PLP>
-35.0990

> <Gold.PLP.part.hbond>
-2.9434

> <Gold.PLP.part.metal>
0.0000

> <Gold.PLP.part.buried>
-4.9115

> <Gold.PLP.part.nonpolar>
-27.7184

> <Gold.PLP.part.repulsive>
0.3115

> <Gold.PLP.ligand.clash>
0.0000

> <Gold.PLP.ligand.torsion>
0.8085

> <Gold.PLP.Chemscore.Hbond>
2.0000

> <Gold.PLP.Chemscore.CHOScore>
0.0000

> <Gold.PLP.Chemscore.Metal>
0.0000

> <Gold.Chemscore.Hbonds>
donor molecule, donor type, donor heavy atom, donor atom, acceptor molecule, acceptor atom, score
      P1  H  7989  7998       L1    14  0.80
      P1  H 10752 10764       L1    16  1.00

> <Gold.PLP.Chemscore.Internal.Correction>
0.0408

> <Gold.Rescore>
     Score         DG    S(hbond)    S(metal)    S(lipo)     H(rot)  DE(clash)    DE(int)     intcor
     11.85     -15.71       1.96        0.00      69.72       1.75       0.08       3.78       ----

> <Gold.Chemscore.Fitness>
11.8496

> <Gold.Chemscore.DG>
-15.7088

> <Gold.Chemscore.ZeroCoef>
-5.4800

> <Gold.Chemscore.Hbond>
1.9597

> <Gold.Chemscore.Metal>
0.0000

> <Gold.Chemscore.Lipo>
69.7153

> <Gold.Chemscore.Internal_Hbond>
0.0000

> <Gold.Chemscore.DEClash>
0.0776

> <Gold.Chemscore.DEInternal>
3.7816

> <Gold.Chemscore.Rot>
1.7474

> <Gold.Chemscore.Internal.Correction>
   9.000000E+99

> <Gold.Chemscore.Hbonds>
donor molecule, donor type, donor heavy atom, donor atom, acceptor molecule, acceptor atom, score
      P1  H  7989  7998       L1    14  0.77
      P1  H 10752 10764       L1    16  1.00

> <Gold.Chemscore.Hbond.Weighted>
-6.5454

> <Gold.Chemscore.Metal.Weighted>
-0.0000

> <Gold.Chemscore.Lipo.Weighted>
-8.1567

> <Gold.Chemscore.Internal_Hbond.Weighted>
0.0000

> <Gold.Chemscore.DEClash.Weighted>
0.0776

> <Gold.Chemscore.DEInternal.Weighted>
3.7816

> <Gold.Chemscore.Rot.Weighted>
4.4733

> <Gold.Chemscore.Internal.Correction.Weighted>
   9.000000E+99

> <Gold.Protein.RotatedTorsions>
[ 6907 6896 6895 6894 ] final   90.64 input  -60.11 | X-H torsion
[ 7974 7965 7964 7962 ] final  -36.08 input  175.53 | X-H torsion
[ 8008 7997 7996 7995 ] final -139.16 input   59.86 | X-H torsion
[ 10167 10162 10161 10158 ] final   71.47 input  -65.29 | X-H torsion
[ 10718 10713 10712 10709 ] final -136.84 input   66.30 | X-H torsion
[ 10763 10752 10751 10750 ] final  -42.01 input  -60.55 | X-H torsion
[ 11005 11000 10999 10996 ] final   68.57 input  -57.11 | X-H torsion

> <Gold.Protein.ActiveResidues>
 VAL166  LYS551  ARG553  GLY616  TRP617  ASP618  TYR619  PRO620  LYS621  CYS622 
 ASP623  PHE694  ASN695  SER759  ASP760  ASP761  ALA762  ILE779  LEU786  VAL792 
 PHE793  MET794  SER795  GLU796  ALA797  LYS798  CYS799  TRP800  GLU811  SER814 

> <Gold.Protein.RotatedAtoms>
  152.5446  134.1780  159.8623 H   0  0  0  0  0  0  0  0  0  0  0  0  # atno 6907 bound_to 6896
  151.1784  133.4733  159.2601 H   0  0  0  0  0  0  0  0  0  0  0  0  # atno 6908 bound_to 6896
  151.1203  135.0087  159.8590 H   0  0  0  0  0  0  0  0  0  0  0  0  # atno 6909 bound_to 6896
  146.0692  140.6236  142.8960 H   0  0  0  0  0  0  0  0  0  0  0  0  # atno 7974 bound_to 7965
  155.4403  140.0531  157.3011 H   0  0  0  0  0  0  0  0  0  0  0  0  # atno 8008 bound_to 7997
  154.4821  140.2085  155.9697 H   0  0  0  0  0  0  0  0  0  0  0  0  # atno 8009 bound_to 7997
  156.1221  140.3186  155.8228 H   0  0  0  0  0  0  0  0  0  0  0  0  # atno 8010 bound_to 7997
  140.0458  144.5352  150.7400 H   0  0  0  0  0  0  0  0  0  0  0  0  # atno 10167 bound_to 10162
  156.2815  130.7323  151.1322 H   0  0  0  0  0  0  0  0  0  0  0  0  # atno 10718 bound_to 10713
  153.9719  135.6727  153.4747 H   0  0  0  0  0  0  0  0  0  0  0  0  # atno 10763 bound_to 10752
  153.0789  135.4934  154.8458 H   0  0  0  0  0  0  0  0  0  0  0  0  # atno 10764 bound_to 10752
  154.7214  135.3118  154.9002 H   0  0  0  0  0  0  0  0  0  0  0  0  # atno 10765 bound_to 10752
  139.9704  134.6910  156.0459 H   0  0  0  0  0  0  0  0  0  0  0  0  # atno 11005 bound_to 11000
  144.7221  140.4407  143.7000 LP  0  0  0  0  0  0  0  0  0  0  0  0  # atno 17320 bound_to 7965
  145.6422  139.1552  143.2909 LP  0  0  0  0  0  0  0  0  0  0  0  0  # atno 17321 bound_to 7965
  140.7239  143.2616  151.4185 LP  0  0  0  0  0  0  0  0  0  0  0  0  # atno 17342 bound_to 10162
  139.5985  144.1347  152.2171 LP  0  0  0  0  0  0  0  0  0  0  0  0  # atno 17343 bound_to 10162
  157.7316  131.0607  150.5672 LP  0  0  0  0  0  0  0  0  0  0  0  0  # atno 17370 bound_to 10713
  156.5778  130.4296  149.5991 LP  0  0  0  0  0  0  0  0  0  0  0  0  # atno 17371 bound_to 10713
  141.1383  133.6570  156.3657 LP  0  0  0  0  0  0  0  0  0  0  0  0  # atno 17394 bound_to 11000
  140.5306  134.6216  157.5348 LP  0  0  0  0  0  0  0  0  0  0  0  0  # atno 17395 bound_to 11000

$$$$
