AV-unprocessed.smi:2919|AV-procd|sdf|11192|dock8
  -GOLD-   2272016 83D 1   1.00000     0.00000
 Structure written by MMmdl.
 34 36  0  0  0  0  0  0  0  0  1 V2000
  152.5029  143.7977  161.7205 C   0  0  0  0  0  0  0  0  0  0  0  0
  152.3580  142.6519  160.7346 C   0  0  0  0  0  0  0  0  0  0  0  0
  151.3794  142.8100  159.8166 N   0  0  0  0  0  0  0  0  0  0  0  0
  151.1563  141.8696  158.8974 N   0  0  0  0  0  0  0  0  0  0  0  0
  151.9001  140.7373  158.8633 C   0  0  0  0  0  0  0  0  0  0  0  0
  151.6041  139.7918  157.8638 N   0  0  0  0  0  0  0  0  0  0  0  0
  150.4612  139.9525  156.9712 C   0  0  2  0  0  0  0  0  0  0  0  0
  150.1518  138.6904  156.1553 C   0  0  0  0  0  0  0  0  0  0  0  0
  150.2083  139.2201  154.7172 C   0  0  1  0  0  0  0  0  0  0  0  0
  149.0447  140.1694  154.3999 C   0  0  0  0  0  0  0  0  0  0  0  0
  149.4431  141.4229  155.1785 C   0  0  0  0  0  0  0  0  0  0  0  0
  150.7444  140.9738  155.8562 C   0  0  2  0  0  0  0  0  0  0  0  0
  151.2761  140.1430  154.8366 O   0  0  0  0  0  0  0  0  0  0  0  0
  152.9451  140.5067  159.7955 C   0  0  0  0  0  0  0  0  0  0  0  0
  153.7457  139.2845  159.7539 C   0  0  0  0  0  0  0  0  0  0  0  0
  154.3795  138.3169  159.7212 N   0  0  0  0  0  0  0  0  0  0  0  0
  153.1861  141.5040  160.7738 C   0  0  0  0  0  0  0  0  0  0  0  0
  154.2879  141.3404  161.8177 C   0  0  0  0  0  0  0  0  0  0  0  0
  153.4957  144.2417  161.6459 H   0  0  0  0  0  0  0  0  0  0  0  0
  152.3524  143.4447  162.7408 H   0  0  0  0  0  0  0  0  0  0  0  0
  151.7717  144.5845  161.5297 H   0  0  0  0  0  0  0  0  0  0  0  0
  152.0730  138.8972  157.8780 H   0  0  0  0  0  0  0  0  0  0  0  0
  149.5960  140.2753  157.5525 H   0  0  0  0  0  0  0  0  0  0  0  0
  150.9111  137.9205  156.3008 H   0  0  0  0  0  0  0  0  0  0  0  0
  149.1817  138.2582  156.4027 H   0  0  0  0  0  0  0  0  0  0  0  0
  150.3663  138.4453  153.9667 H   0  0  0  0  0  0  0  0  0  0  0  0
  148.9952  140.3826  153.3315 H   0  0  0  0  0  0  0  0  0  0  0  0
  148.0825  139.7629  154.7134 H   0  0  0  0  0  0  0  0  0  0  0  0
  149.6308  142.2524  154.4958 H   0  0  0  0  0  0  0  0  0  0  0  0
  148.6845  141.7366  155.8965 H   0  0  0  0  0  0  0  0  0  0  0  0
  151.3898  141.8019  156.1519 H   0  0  0  0  0  0  0  0  0  0  0  0
  154.1042  140.4515  162.4220 H   0  0  0  0  0  0  0  0  0  0  0  0
  154.3675  142.1853  162.4993 H   0  0  0  0  0  0  0  0  0  0  0  0
  155.2561  141.2264  161.3288 H   0  0  0  0  0  0  0  0  0  0  0  0
  1  2  1  0  0  0  0
  1 19  1  0  0  0  0
  1 20  1  0  0  0  0
  1 21  1  0  0  0  0
  2 17  1  0  0  0  0
  2  3  2  0  0  0  0
  3  4  1  0  0  0  0
  4  5  2  0  0  0  0
  5  6  1  0  0  0  0
  5 14  1  0  0  0  0
  6  7  1  0  0  0  0
  6 22  1  0  0  0  0
  7 12  1  0  0  0  0
  7  8  1  0  0  0  0
  7 23  1  0  0  0  0
  8  9  1  0  0  0  0
  8 24  1  0  0  0  0
  8 25  1  0  0  0  0
  9 13  1  0  0  0  0
  9 10  1  0  0  0  0
  9 26  1  0  0  0  0
 10 11  1  0  0  0  0
 10 27  1  0  0  0  0
 10 28  1  0  0  0  0
 11 12  1  0  0  0  0
 11 29  1  0  0  0  0
 11 30  1  0  0  0  0
 12 13  1  0  0  0  0
 12 31  1  0  0  0  0
 14 15  1  0  0  0  0
 14 17  2  0  0  0  0
 15 16  3  0  0  0  0
 17 18  1  0  0  0  0
 18 32  1  0  0  0  0
 18 33  1  0  0  0  0
 18 34  1  0  0  0  0
M  END
> <s_m_source_file>
AV-unprocessed.smi

> <i_m_source_file_index>
2919

> <i_lp_mmshare_version>
43012

> <i_f3d_flags>
0

> <s_epik_input>
W0NIM11jMW5uYyhjKEMjTiljMVtDSDNdKVtOSF1bQ0BIXShbQ0gyXVtDQEBIXTIzKVtDQEBIXShPMylbQ0gyXVtDSDJdMg==

> <s_epik_cmdline>
J2VwaWtfcHl0aG9uJywgJy1waCcsICc3LjAnLCAnLXRuJywgJzgnLCAnLW1hJywgJzIwMCcsICctbWV0YWxfYmluZGluZycsICctaW1hZScsICc8aW5maWxlLm1hZT4nLCAnLW9tYWUnLCAnPG91dGZpbGUubWFlPic=

> <r_lp_tautomer_probability>
1

> <r_epik_Ionization_Penalty>
0.00143865

> <r_epik_Ionization_Penalty_Charging>
0

> <r_epik_Ionization_Penalty_Neutral>
0.00143865

> <r_epik_State_Penalty>
-0

> <r_epik_Charging_Adjusted_Penalty>
0

> <i_epik_Tot_Q>
0

> <i_epik_Tot_abs_Q>
0

> <r_epik_Metal_State_Penalty>
-0

> <b_epik_Metal_Only>
0

> <s_lp_Force_Field>
OPLS_2005

> <r_lp_Energy>
49.0133

> <b_lp_Chiralities_Consistent>
1

> <s_lp_Variant>
AV-unprocessed.smi:2919-1

> <Gold.Version>
5.8.1

> <Gold.Id.Protein>
6NUR|6NUR_protein|mol2

> <Gold.PLP.Fitness>
37.2691

> <Gold.PLP.PLP>
-34.6273

> <Gold.PLP.part.hbond>
-1.3626

> <Gold.PLP.part.metal>
0.0000

> <Gold.PLP.part.buried>
-3.5185

> <Gold.PLP.part.nonpolar>
-29.0627

> <Gold.PLP.part.repulsive>
0.1501

> <Gold.PLP.ligand.clash>
0.0000

> <Gold.PLP.ligand.torsion>
0.1890

> <Gold.PLP.Chemscore.Hbond>
1.0000

> <Gold.PLP.Chemscore.CHOScore>
0.0000

> <Gold.PLP.Chemscore.Metal>
0.0000

> <Gold.Chemscore.Hbonds>
donor molecule, donor type, donor heavy atom, donor atom, acceptor molecule, acceptor atom, score
      P1  H  7989  7998       L1    13  1.00

> <Gold.PLP.Chemscore.Internal.Correction>
0.0199

> <Gold.Rescore>
     Score         DG    S(hbond)    S(metal)    S(lipo)     H(rot)  DE(clash)    DE(int)     intcor
     15.82     -16.06       0.97        0.00      84.52       1.00       0.02       0.22       ----

> <Gold.Chemscore.Fitness>
15.8151

> <Gold.Chemscore.DG>
-16.0576

> <Gold.Chemscore.ZeroCoef>
-5.4800

> <Gold.Chemscore.Hbond>
0.9728

> <Gold.Chemscore.Metal>
0.0000

> <Gold.Chemscore.Lipo>
84.5177

> <Gold.Chemscore.Internal_Hbond>
0.0000

> <Gold.Chemscore.DEClash>
0.0202

> <Gold.Chemscore.DEInternal>
0.2223

> <Gold.Chemscore.Rot>
1.0000

> <Gold.Chemscore.Internal.Correction>
   9.000000E+99

> <Gold.Chemscore.Hbonds>
donor molecule, donor type, donor heavy atom, donor atom, acceptor molecule, acceptor atom, score
      P1  H  7989  7998       L1    13  0.77

> <Gold.Chemscore.Hbond.Weighted>
-3.2491

> <Gold.Chemscore.Metal.Weighted>
-0.0000

> <Gold.Chemscore.Lipo.Weighted>
-9.8886

> <Gold.Chemscore.Internal_Hbond.Weighted>
0.0000

> <Gold.Chemscore.DEClash.Weighted>
0.0202

> <Gold.Chemscore.DEInternal.Weighted>
0.2223

> <Gold.Chemscore.Rot.Weighted>
2.5600

> <Gold.Chemscore.Internal.Correction.Weighted>
   9.000000E+99

> <Gold.Protein.RotatedTorsions>
[ 6907 6896 6895 6894 ] final  -90.04 input  -60.11 | X-H torsion
[ 7974 7965 7964 7962 ] final  172.66 input  175.53 | X-H torsion
[ 8008 7997 7996 7995 ] final  107.97 input   59.86 | X-H torsion
[ 10167 10162 10161 10158 ] final -129.16 input  -65.29 | X-H torsion
[ 10718 10713 10712 10709 ] final  -56.52 input   66.30 | X-H torsion
[ 10763 10752 10751 10750 ] final -160.45 input  -60.55 | X-H torsion
[ 11005 11000 10999 10996 ] final  177.82 input  -57.11 | X-H torsion

> <Gold.Protein.ActiveResidues>
 VAL166  LYS551  ARG553  GLY616  TRP617  ASP618  TYR619  PRO620  LYS621  CYS622 
 ASP623  PHE694  ASN695  SER759  ASP760  ASP761  ALA762  ILE779  LEU786  VAL792 
 PHE793  MET794  SER795  GLU796  ALA797  LYS798  CYS799  TRP800  GLU811  SER814 

> <Gold.Protein.RotatedAtoms>
  150.6878  134.2493  159.4503 H   0  0  0  0  0  0  0  0  0  0  0  0  # atno 6907 bound_to 6896
  152.0432  134.9696  160.0583 H   0  0  0  0  0  0  0  0  0  0  0  0  # atno 6908 bound_to 6896
  152.1190  133.4308  159.4703 H   0  0  0  0  0  0  0  0  0  0  0  0  # atno 6909 bound_to 6896
  144.7262  139.9531  143.6432 H   0  0  0  0  0  0  0  0  0  0  0  0  # atno 7974 bound_to 7965
  156.1866  140.3085  155.9251 H   0  0  0  0  0  0  0  0  0  0  0  0  # atno 8008 bound_to 7997
  155.3266  140.0458  157.3058 H   0  0  0  0  0  0  0  0  0  0  0  0  # atno 8009 bound_to 7997
  154.5403  140.2259  155.8662 H   0  0  0  0  0  0  0  0  0  0  0  0  # atno 8010 bound_to 7997
  139.9427  143.6144  152.2499 H   0  0  0  0  0  0  0  0  0  0  0  0  # atno 10167 bound_to 10162
  156.1282  130.4161  150.0316 H   0  0  0  0  0  0  0  0  0  0  0  0  # atno 10718 bound_to 10713
  154.7389  135.3064  154.8763 H   0  0  0  0  0  0  0  0  0  0  0  0  # atno 10763 bound_to 10752
  153.9583  135.6756  153.4749 H   0  0  0  0  0  0  0  0  0  0  0  0  # atno 10764 bound_to 10752
  153.0989  135.4921  154.8755 H   0  0  0  0  0  0  0  0  0  0  0  0  # atno 10765 bound_to 10752
  140.3883  134.6885  157.4492 H   0  0  0  0  0  0  0  0  0  0  0  0  # atno 11005 bound_to 11000
  146.0696  139.3685  143.0531 LP  0  0  0  0  0  0  0  0  0  0  0  0  # atno 17320 bound_to 7965
  145.7986  140.9781  143.1011 LP  0  0  0  0  0  0  0  0  0  0  0  0  # atno 17321 bound_to 7965
  139.6691  144.7661  151.1817 LP  0  0  0  0  0  0  0  0  0  0  0  0  # atno 17342 bound_to 10162
  140.7606  143.5892  150.8814 LP  0  0  0  0  0  0  0  0  0  0  0  0  # atno 17343 bound_to 10162
  156.8236  130.9367  151.3640 LP  0  0  0  0  0  0  0  0  0  0  0  0  # atno 17370 bound_to 10713
  157.6462  130.8846  149.9543 LP  0  0  0  0  0  0  0  0  0  0  0  0  # atno 17371 bound_to 10713
  140.0426  134.6246  155.8962 LP  0  0  0  0  0  0  0  0  0  0  0  0  # atno 17394 bound_to 11000
  141.1900  133.6567  156.5391 LP  0  0  0  0  0  0  0  0  0  0  0  0  # atno 17395 bound_to 11000

$$$$
