AV-unprocessed.smi:1341|AV-procd|sdf|5506|dock3
  -GOLD-   22720 5 93D 1   1.00000     0.00000
 Structure written by MMmdl.
 33 34  0  0  0  0  0  0  0  0  2 V2000
  153.1778  136.9186  161.2314 C   0  0  0  0  0  0  0  0  0  0  0  0
  153.8040  136.3106  160.2101 C   0  0  0  0  0  0  0  0  0  0  0  0
  154.6283  137.0076  159.1459 C   0  0  0  0  0  0  0  0  0  0  0  0
  153.8934  138.0080  158.3788 N   0  5  0  0  0  0  0  0  0  0  0  0
  152.9482  137.7243  157.4349 C   0  0  0  0  0  0  0  0  0  0  0  0
  152.6656  136.6394  156.9143 O   0  0  0  0  0  0  0  0  0  0  0  0
  152.1695  138.9492  157.0127 C   0  0  0  0  0  0  0  0  0  0  0  0
  152.0778  139.9738  157.8983 N   0  0  0  0  0  0  0  0  0  0  0  0
  151.3759  141.0611  157.5640 C   0  0  0  0  0  0  0  0  0  0  0  0
  151.2975  142.0964  158.5043 N   0  0  0  0  0  0  0  0  0  0  0  0
  152.1890  142.1475  159.6616 C   0  0  0  0  0  0  0  0  0  0  0  0
  153.4080  143.0282  159.3304 C   0  0  0  0  0  0  0  0  0  0  0  0
  152.9673  144.3304  158.9490 O   0  0  0  0  0  0  0  0  0  0  0  0
  152.1011  144.3071  157.8156 C   0  0  0  0  0  0  0  0  0  0  0  0
  150.8669  143.4439  158.1336 C   0  0  0  0  0  0  0  0  0  0  0  0
  150.7387  141.2324  156.4003 N   0  0  0  0  0  0  0  0  0  0  0  0
  150.8149  140.2339  155.4968 C   0  0  0  0  0  0  0  0  0  0  0  0
  151.5277  139.0458  155.7487 C   0  0  0  0  0  0  0  0  0  0  0  0
  151.6050  137.8258  154.5228 Cl  0  0  0  0  0  0  0  0  0  0  0  0
  153.2153  137.9892  161.3792 H   0  0  0  0  0  0  0  0  0  0  0  0
  152.6108  136.3398  161.9452 H   0  0  0  0  0  0  0  0  0  0  0  0
  153.7301  135.2369  160.1180 H   0  0  0  0  0  0  0  0  0  0  0  0
  155.4713  137.4681  159.6610 H   0  0  0  0  0  0  0  0  0  0  0  0
  155.0767  136.2406  158.5122 H   0  0  0  0  0  0  0  0  0  0  0  0
  151.6430  142.5770  160.5021 H   0  0  0  0  0  0  0  0  0  0  0  0
  152.5109  141.1592  159.9882 H   0  0  0  0  0  0  0  0  0  0  0  0
  154.0576  143.1157  160.2012 H   0  0  0  0  0  0  0  0  0  0  0  0
  154.0029  142.5846  158.5304 H   0  0  0  0  0  0  0  0  0  0  0  0
  151.7978  145.3271  157.5802 H   0  0  0  0  0  0  0  0  0  0  0  0
  152.6326  143.9212  156.9441 H   0  0  0  0  0  0  0  0  0  0  0  0
  150.1696  143.4435  157.2955 H   0  0  0  0  0  0  0  0  0  0  0  0
  150.3215  143.8783  158.9720 H   0  0  0  0  0  0  0  0  0  0  0  0
  150.3039  140.3878  154.5580 H   0  0  0  0  0  0  0  0  0  0  0  0
  1  2  2  0  0  0  0
  1 20  1  0  0  0  0
  1 21  1  0  0  0  0
  2  3  1  0  0  0  0
  2 22  1  0  0  0  0
  3  4  1  0  0  0  0
  3 23  1  0  0  0  0
  3 24  1  0  0  0  0
  4  5  1  0  0  0  0
  5  6  2  0  0  0  0
  5  7  1  0  0  0  0
  7 18  1  0  0  0  0
  7  8  2  0  0  0  0
  8  9  1  0  0  0  0
  9 10  1  0  0  0  0
  9 16  2  0  0  0  0
 10 15  1  0  0  0  0
 10 11  1  0  0  0  0
 11 12  1  0  0  0  0
 11 25  1  0  0  0  0
 11 26  1  0  0  0  0
 12 13  1  0  0  0  0
 12 27  1  0  0  0  0
 12 28  1  0  0  0  0
 13 14  1  0  0  0  0
 14 15  1  0  0  0  0
 14 29  1  0  0  0  0
 14 30  1  0  0  0  0
 15 31  1  0  0  0  0
 15 32  1  0  0  0  0
 16 17  1  0  0  0  0
 17 18  2  0  0  0  0
 17 33  1  0  0  0  0
 18 19  1  0  0  0  0
M  CHG  1   4  -1
M  END
> <s_m_source_file>
AV-unprocessed.smi

> <i_m_source_file_index>
1341

> <i_lp_mmshare_version>
43012

> <i_f3d_flags>
0

> <s_epik_input>
W0NIMl09W0NIXVtDSDJdW05IXUMoPU8pYzFuYyhuW2NIXWMxQ2wpTjJbQ0gyXVtDSDJdT1tDSDJdW0NIMl0y

> <s_epik_cmdline>
J2VwaWtfcHl0aG9uJywgJy1waCcsICc3LjAnLCAnLXRuJywgJzgnLCAnLW1hJywgJzIwMCcsICctbWV0YWxfYmluZGluZycsICctaW1hZScsICc8aW5maWxlLm1hZT4nLCAnLW9tYWUnLCAnPG91dGZpbGUubWFlPic=

> <r_lp_tautomer_probability>
1

> <r_epik_Ionization_Penalty>
5.99598

> <r_epik_Ionization_Penalty_Charging>
5.99596

> <r_epik_Ionization_Penalty_Neutral>
2.0749e-05

> <r_epik_State_Penalty>
5.99593

> <r_epik_Charging_Adjusted_Penalty>
11.9919

> <i_epik_Tot_Q>
-1

> <i_epik_Tot_abs_Q>
1

> <r_epik_Metal_State_Penalty>
1.94906

> <b_epik_Metal_Only>
1

> <s_lp_Force_Field>
OPLS_2005

> <r_lp_Energy>
16.4854

> <b_lp_Chiralities_Consistent>
1

> <s_lp_Variant>
AV-unprocessed.smi:1341-2

> <Gold.Version>
5.8.1

> <Gold.Id.Protein>
6NUR|6NUR_protein|mol2

> <Gold.PLP.Fitness>
42.0642

> <Gold.PLP.PLP>
-34.2564

> <Gold.PLP.part.hbond>
-2.0858

> <Gold.PLP.part.metal>
0.0000

> <Gold.PLP.part.buried>
-2.9198

> <Gold.PLP.part.nonpolar>
-29.0423

> <Gold.PLP.part.repulsive>
0.0498

> <Gold.PLP.ligand.clash>
0.0000

> <Gold.PLP.ligand.torsion>
0.4778

> <Gold.PLP.Chemscore.Hbond>
2.8399

> <Gold.PLP.Chemscore.CHOScore>
0.0000

> <Gold.PLP.Chemscore.Metal>
0.0000

> <Gold.Chemscore.Hbonds>
donor molecule, donor type, donor heavy atom, donor atom, acceptor molecule, acceptor atom, score
      P1  H 10752 10764       L1     6  0.62

> <Gold.PLP.Chemscore.Internal.Correction>
0.2438

> <Gold.Rescore>
     Score         DG    S(hbond)    S(metal)    S(lipo)     H(rot)  DE(clash)    DE(int)     intcor
     15.77     -17.60       1.55        0.00      84.62       1.15       0.03       1.81       ----

> <Gold.Chemscore.Fitness>
15.7663

> <Gold.Chemscore.DG>
-17.6043

> <Gold.Chemscore.ZeroCoef>
-5.4800

> <Gold.Chemscore.Hbond>
1.5482

> <Gold.Chemscore.Metal>
0.0000

> <Gold.Chemscore.Lipo>
84.6227

> <Gold.Chemscore.Internal_Hbond>
0.0000

> <Gold.Chemscore.DEClash>
0.0322

> <Gold.Chemscore.DEInternal>
1.8058

> <Gold.Chemscore.Rot>
1.1514

> <Gold.Chemscore.Internal.Correction>
   9.000000E+99

> <Gold.Chemscore.Hbonds>
donor molecule, donor type, donor heavy atom, donor atom, acceptor molecule, acceptor atom, score
      P1  H 10752 10764       L1     6  0.62

> <Gold.Chemscore.Hbond.Weighted>
-5.1711

> <Gold.Chemscore.Metal.Weighted>
-0.0000

> <Gold.Chemscore.Lipo.Weighted>
-9.9009

> <Gold.Chemscore.Internal_Hbond.Weighted>
0.0000

> <Gold.Chemscore.DEClash.Weighted>
0.0322

> <Gold.Chemscore.DEInternal.Weighted>
1.8058

> <Gold.Chemscore.Rot.Weighted>
2.9477

> <Gold.Chemscore.Internal.Correction.Weighted>
   9.000000E+99

> <Gold.Protein.RotatedTorsions>
[ 6907 6896 6895 6894 ] final -138.82 input  -60.11 | X-H torsion
[ 7974 7965 7964 7962 ] final  -20.47 input  175.53 | X-H torsion
[ 8008 7997 7996 7995 ] final -117.09 input   59.86 | X-H torsion
[ 10167 10162 10161 10158 ] final -123.36 input  -65.29 | X-H torsion
[ 10718 10713 10712 10709 ] final   92.59 input   66.30 | X-H torsion
[ 10763 10752 10751 10750 ] final   -5.80 input  -60.55 | X-H torsion
[ 11005 11000 10999 10996 ] final  -64.84 input  -57.11 | X-H torsion

> <Gold.Protein.ActiveResidues>
 VAL166  LYS551  ARG553  GLY616  TRP617  ASP618  TYR619  PRO620  LYS621  CYS622 
 ASP623  PHE694  ASN695  SER759  ASP760  ASP761  ALA762  ILE779  LEU786  VAL792 
 PHE793  MET794  SER795  GLU796  ALA797  LYS798  CYS799  TRP800  GLU811  SER814 

> <Gold.Protein.RotatedAtoms>
  151.0398  133.5716  159.2651 H   0  0  0  0  0  0  0  0  0  0  0  0  # atno 6907 bound_to 6896
  151.2766  135.0700  159.9164 H   0  0  0  0  0  0  0  0  0  0  0  0  # atno 6908 bound_to 6896
  152.5362  134.0120  159.7996 H   0  0  0  0  0  0  0  0  0  0  0  0  # atno 6909 bound_to 6896
  146.1786  140.4207  142.8503 H   0  0  0  0  0  0  0  0  0  0  0  0  # atno 7974 bound_to 7965
  155.0781  140.0394  157.2630 H   0  0  0  0  0  0  0  0  0  0  0  0  # atno 8008 bound_to 7997
  154.6928  140.2657  155.6770 H   0  0  0  0  0  0  0  0  0  0  0  0  # atno 8009 bound_to 7997
  156.2734  140.2756  156.1513 H   0  0  0  0  0  0  0  0  0  0  0  0  # atno 8010 bound_to 7997
  140.0043  143.5508  152.2290 H   0  0  0  0  0  0  0  0  0  0  0  0  # atno 10167 bound_to 10162
  157.6958  131.0449  150.3905 H   0  0  0  0  0  0  0  0  0  0  0  0  # atno 10718 bound_to 10713
  153.4036  135.7005  153.6409 H   0  0  0  0  0  0  0  0  0  0  0  0  # atno 10763 bound_to 10752
  153.4932  135.3668  155.2503 H   0  0  0  0  0  0  0  0  0  0  0  0  # atno 10764 bound_to 10752
  154.8712  135.4094  154.3375 H   0  0  0  0  0  0  0  0  0  0  0  0  # atno 10765 bound_to 10752
  141.1437  133.6672  156.5894 H   0  0  0  0  0  0  0  0  0  0  0  0  # atno 11005 bound_to 11000
  144.8277  140.6656  143.6311 LP  0  0  0  0  0  0  0  0  0  0  0  0  # atno 17320 bound_to 7965
  145.4140  139.1575  143.4110 LP  0  0  0  0  0  0  0  0  0  0  0  0  # atno 17321 bound_to 7965
  139.6250  144.7635  151.2659 LP  0  0  0  0  0  0  0  0  0  0  0  0  # atno 17342 bound_to 10162
  140.7406  143.6581  150.8189 LP  0  0  0  0  0  0  0  0  0  0  0  0  # atno 17343 bound_to 10162
  156.4309  130.3972  149.6761 LP  0  0  0  0  0  0  0  0  0  0  0  0  # atno 17370 bound_to 10713
  156.3978  130.7660  151.2665 LP  0  0  0  0  0  0  0  0  0  0  0  0  # atno 17371 bound_to 10713
  140.3775  134.7552  157.4639 LP  0  0  0  0  0  0  0  0  0  0  0  0  # atno 17394 bound_to 11000
  140.0663  134.5925  155.8691 LP  0  0  0  0  0  0  0  0  0  0  0  0  # atno 17395 bound_to 11000

$$$$
