AV-unprocessed.smi:223|AV-procd|sdf|1703|dock5
  -GOLD-   2262020163D 1   1.00000     0.00000
 Structure written by MMmdl.
 47 50  0  0  0  0  0  0  0  0  1 V2000
  152.2476  139.6618  155.2115 C   0  0  0  0  0  0  0  0  0  0  0  0
  151.3458  138.6607  155.9435 C   0  0  2  0  0  0  0  0  0  0  0  0
  151.3653  137.3629  155.2474 C   0  0  0  0  0  0  0  0  0  0  0  0
  151.3808  136.3431  154.7009 N   0  0  0  0  0  0  0  0  0  0  0  0
  149.9182  139.2217  156.1065 C   0  0  0  0  0  0  0  0  0  0  0  0
  149.1212  139.1719  154.8804 N   0  0  0  0  0  0  0  0  0  0  0  0
  148.1928  138.1824  154.7865 C   0  0  0  0  0  0  0  0  0  0  0  0
  148.1096  137.2520  155.7758 N   0  0  0  0  0  0  0  0  0  0  0  0
  147.2257  136.2540  155.6965 C   0  0  0  0  0  0  0  0  0  0  0  0
  146.3382  136.0015  154.7338 N   0  0  0  0  0  0  0  0  0  0  0  0
  146.4045  136.9354  153.7428 C   0  0  0  0  0  0  0  0  0  0  0  0
  147.2938  138.0473  153.6888 C   0  0  0  0  0  0  0  0  0  0  0  0
  147.0590  138.7777  152.5295 N   0  0  0  0  0  0  0  0  0  0  0  0
  146.0998  138.1290  151.9286 C   0  0  0  0  0  0  0  0  0  0  0  0
  145.6387  137.0152  152.5925 N   0  0  0  0  0  0  0  0  0  0  0  0
  144.5817  136.1150  152.1555 C   0  0  0  0  0  0  0  0  0  0  0  0
  145.0020  135.1819  150.9952 C   0  0  1  0  0  0  0  0  0  0  0  0
  145.0942  135.9431  149.8029 O   0  0  0  0  0  0  0  0  0  0  0  0
  146.3455  134.5047  151.2344 C   0  0  0  0  0  0  0  0  0  0  0  0
  146.2133  133.2096  150.4446 C   0  0  0  0  0  0  0  0  0  0  0  0
  144.8717  132.8234  150.6893 O   0  0  0  0  0  0  0  0  0  0  0  0
  144.0548  133.9899  150.7433 C   0  0  0  0  0  0  0  0  0  0  0  0
  148.8203  140.4490  154.2382 C   0  0  0  0  0  0  0  0  0  0  0  0
  149.4748  141.7085  154.7604 C   0  0  0  0  0  0  0  0  0  0  0  0
  148.0026  141.4667  154.9980 C   0  0  0  0  0  0  0  0  0  0  0  0
  153.2631  139.2762  155.1177 H   0  0  0  0  0  0  0  0  0  0  0  0
  152.3025  140.6090  155.7489 H   0  0  0  0  0  0  0  0  0  0  0  0
  151.8752  139.8669  154.2073 H   0  0  0  0  0  0  0  0  0  0  0  0
  151.7757  138.4859  156.9298 H   0  0  0  0  0  0  0  0  0  0  0  0
  149.3897  138.6306  156.8550 H   0  0  0  0  0  0  0  0  0  0  0  0
  149.9591  140.2294  156.5150 H   0  0  0  0  0  0  0  0  0  0  0  0
  147.2320  135.5569  156.5213 H   0  0  0  0  0  0  0  0  0  0  0  0
  145.6942  138.4513  150.9805 H   0  0  0  0  0  0  0  0  0  0  0  0
  144.2569  135.5271  153.0149 H   0  0  0  0  0  0  0  0  0  0  0  0
  143.7227  136.7175  151.8580 H   0  0  0  0  0  0  0  0  0  0  0  0
  145.5945  135.4493  149.1711 H   0  0  0  0  0  0  0  0  0  0  0  0
  147.2030  135.1072  150.9314 H   0  0  0  0  0  0  0  0  0  0  0  0
  146.4658  134.2637  152.2915 H   0  0  0  0  0  0  0  0  0  0  0  0
  146.3558  133.3845  149.3772 H   0  0  0  0  0  0  0  0  0  0  0  0
  146.9183  132.4431  150.7670 H   0  0  0  0  0  0  0  0  0  0  0  0
  143.3353  133.8555  151.5501 H   0  0  0  0  0  0  0  0  0  0  0  0
  143.4891  134.0986  149.8169 H   0  0  0  0  0  0  0  0  0  0  0  0
  148.6567  140.4116  153.1626 H   0  0  0  0  0  0  0  0  0  0  0  0
  150.1426  141.6186  155.6152 H   0  0  0  0  0  0  0  0  0  0  0  0
  149.7502  142.4678  154.0317 H   0  0  0  0  0  0  0  0  0  0  0  0
  147.2957  142.0671  154.4292 H   0  0  0  0  0  0  0  0  0  0  0  0
  147.6942  141.2182  156.0117 H   0  0  0  0  0  0  0  0  0  0  0  0
  1  2  1  0  0  0  0
  1 26  1  0  0  0  0
  1 27  1  0  0  0  0
  1 28  1  0  0  0  0
  2  3  1  0  0  0  0
  2  5  1  0  0  0  0
  2 29  1  0  0  0  0
  3  4  3  0  0  0  0
  5  6  1  0  0  0  0
  5 30  1  0  0  0  0
  5 31  1  0  0  0  0
  6  7  1  0  0  0  0
  6 23  1  0  0  0  0
  7 12  1  0  0  0  0
  7  8  2  0  0  0  0
  8  9  1  0  0  0  0
  9 10  2  0  0  0  0
  9 32  1  0  0  0  0
 10 11  1  0  0  0  0
 11 15  1  0  0  0  0
 11 12  2  0  0  0  0
 12 13  1  0  0  0  0
 13 14  2  0  0  0  0
 14 15  1  0  0  0  0
 14 33  1  0  0  0  0
 15 16  1  0  0  0  0
 16 17  1  0  0  0  0
 16 34  1  0  0  0  0
 16 35  1  0  0  0  0
 17 22  1  0  0  0  0
 17 18  1  0  0  0  0
 17 19  1  0  0  0  0
 18 36  1  0  0  0  0
 19 20  1  0  0  0  0
 19 37  1  0  0  0  0
 19 38  1  0  0  0  0
 20 21  1  0  0  0  0
 20 39  1  0  0  0  0
 20 40  1  0  0  0  0
 21 22  1  0  0  0  0
 22 41  1  0  0  0  0
 22 42  1  0  0  0  0
 23 25  1  0  0  0  0
 23 24  1  0  0  0  0
 23 43  1  0  0  0  0
 24 25  1  0  0  0  0
 24 44  1  0  0  0  0
 24 45  1  0  0  0  0
 25 46  1  0  0  0  0
 25 47  1  0  0  0  0
M  END
> <s_m_source_file>
AV-unprocessed.smi

> <i_m_source_file_index>
223

> <i_lp_mmshare_version>
43012

> <i_f3d_flags>
0

> <s_epik_input>
TiNDW0NAQEhdKFtDSDNdKVtDSDJdTihbQ0hdMVtDSDJdW0NIMl0xKWMobltjSF1uMiljKGMyMyluW2NIXW4zW0NIMl1bQ0BAXTQoW09IXSlbQ0gyXVtDSDJdT1tDSDJdNA==

> <s_epik_cmdline>
J2VwaWtfcHl0aG9uJywgJy1waCcsICc3LjAnLCAnLXRuJywgJzgnLCAnLW1hJywgJzIwMCcsICctbWV0YWxfYmluZGluZycsICctaW1hZScsICc8aW5maWxlLm1hZT4nLCAnLW9tYWUnLCAnPG91dGZpbGUubWFlPic=

> <r_lp_tautomer_probability>
1

> <r_epik_Ionization_Penalty>
0.000756152

> <r_epik_Ionization_Penalty_Charging>
0

> <r_epik_Ionization_Penalty_Neutral>
0.000756152

> <r_epik_State_Penalty>
0.00038036

> <r_epik_Charging_Adjusted_Penalty>
0.00038036

> <i_epik_Tot_Q>
0

> <i_epik_Tot_abs_Q>
0

> <r_epik_Metal_State_Penalty>
-0

> <b_epik_Metal_Only>
0

> <s_lp_Force_Field>
OPLS_2005

> <r_lp_Energy>
37.204

> <b_lp_Chiralities_Consistent>
1

> <s_lp_Variant>
AV-unprocessed.smi:223-1

> <Gold.Version>
5.8.1

> <Gold.Id.Protein>
6NUR|6NUR_protein|mol2

> <Gold.PLP.Fitness>
42.1840

> <Gold.PLP.PLP>
-34.0987

> <Gold.PLP.part.hbond>
-3.0000

> <Gold.PLP.part.metal>
0.0000

> <Gold.PLP.part.buried>
0.2859

> <Gold.PLP.part.nonpolar>
-31.2681

> <Gold.PLP.part.repulsive>
0.8001

> <Gold.PLP.ligand.clash>
0.0000

> <Gold.PLP.ligand.torsion>
1.1322

> <Gold.PLP.Chemscore.Hbond>
2.0000

> <Gold.PLP.Chemscore.CHOScore>
1.0000

> <Gold.PLP.Chemscore.Metal>
0.0000

> <Gold.Chemscore.Hbonds>
donor molecule, donor type, donor heavy atom, donor atom, acceptor molecule, acceptor atom, score
      L1  H    18    36       P1  7921  1.00
      P1  H 10752 10765       L1     4  1.00
      L1  C    14    33       P1 10171  1.00

> <Gold.PLP.Chemscore.Internal.Correction>
1.3497

> <Gold.Rescore>
     Score         DG    S(hbond)    S(metal)    S(lipo)     H(rot)  DE(clash)    DE(int)     intcor
     10.70     -13.27       1.99        0.00      69.23       2.72       0.41       2.16       ----

> <Gold.Chemscore.Fitness>
10.6971

> <Gold.Chemscore.DG>
-13.2666

> <Gold.Chemscore.ZeroCoef>
-5.4800

> <Gold.Chemscore.Hbond>
1.9887

> <Gold.Chemscore.Metal>
0.0000

> <Gold.Chemscore.Lipo>
69.2308

> <Gold.Chemscore.Internal_Hbond>
0.0000

> <Gold.Chemscore.DEClash>
0.4087

> <Gold.Chemscore.DEInternal>
2.1608

> <Gold.Chemscore.Rot>
2.7171

> <Gold.Chemscore.Internal.Correction>
   9.000000E+99

> <Gold.Chemscore.Hbonds>
donor molecule, donor type, donor heavy atom, donor atom, acceptor molecule, acceptor atom, score
      L1  H    18    36       P1  7921  1.00
      P1  H 10752 10765       L1     4  0.95

> <Gold.Chemscore.Hbond.Weighted>
-6.6423

> <Gold.Chemscore.Metal.Weighted>
-0.0000

> <Gold.Chemscore.Lipo.Weighted>
-8.1000

> <Gold.Chemscore.Internal_Hbond.Weighted>
0.0000

> <Gold.Chemscore.DEClash.Weighted>
0.4087

> <Gold.Chemscore.DEInternal.Weighted>
2.1608

> <Gold.Chemscore.Rot.Weighted>
6.9558

> <Gold.Chemscore.Internal.Correction.Weighted>
   9.000000E+99

> <Gold.Protein.RotatedTorsions>
[ 6907 6896 6895 6894 ] final  109.61 input  -60.11 | X-H torsion
[ 7974 7965 7964 7962 ] final   54.45 input  175.53 | X-H torsion
[ 8008 7997 7996 7995 ] final -128.17 input   59.86 | X-H torsion
[ 10167 10162 10161 10158 ] final   30.76 input  -65.29 | X-H torsion
[ 10718 10713 10712 10709 ] final  140.44 input   66.30 | X-H torsion
[ 10763 10752 10751 10750 ] final  158.98 input  -60.55 | X-H torsion
[ 11005 11000 10999 10996 ] final   72.51 input  -57.11 | X-H torsion

> <Gold.Protein.ActiveResidues>
 VAL166  LYS551  ARG553  GLY616  TRP617  ASP618  TYR619  PRO620  LYS621  CYS622 
 ASP623  PHE694  ASN695  SER759  ASP760  ASP761  ALA762  ILE779  LEU786  VAL792 
 PHE793  MET794  SER795  GLU796  ALA797  LYS798  CYS799  TRP800  GLU811  SER814 

> <Gold.Protein.RotatedAtoms>
  152.5059  133.8919  159.7397 H   0  0  0  0  0  0  0  0  0  0  0  0  # atno 6907 bound_to 6896
  150.9355  133.6708  159.2808 H   0  0  0  0  0  0  0  0  0  0  0  0  # atno 6908 bound_to 6896
  151.4037  135.0979  159.9616 H   0  0  0  0  0  0  0  0  0  0  0  0  # atno 6909 bound_to 6896
  145.9607  139.4057  143.0249 H   0  0  0  0  0  0  0  0  0  0  0  0  # atno 7974 bound_to 7965
  155.2582  140.0435  157.2994 H   0  0  0  0  0  0  0  0  0  0  0  0  # atno 8008 bound_to 7997
  154.5727  140.2378  155.8138 H   0  0  0  0  0  0  0  0  0  0  0  0  # atno 8009 bound_to 7997
  156.2134  140.2992  155.9793 H   0  0  0  0  0  0  0  0  0  0  0  0  # atno 8010 bound_to 7997
  140.4649  144.0851  150.6222 H   0  0  0  0  0  0  0  0  0  0  0  0  # atno 10167 bound_to 10162
  157.4032  131.1019  151.0530 H   0  0  0  0  0  0  0  0  0  0  0  0  # atno 10718 bound_to 10713
  154.2245  135.2780  155.2912 H   0  0  0  0  0  0  0  0  0  0  0  0  # atno 10763 bound_to 10752
  154.5674  135.5629  153.7067 H   0  0  0  0  0  0  0  0  0  0  0  0  # atno 10764 bound_to 10752
  153.0034  135.6313  154.2386 H   0  0  0  0  0  0  0  0  0  0  0  0  # atno 10765 bound_to 10752
  139.9487  134.7266  156.0915 H   0  0  0  0  0  0  0  0  0  0  0  0  # atno 11005 bound_to 11000
  145.8043  140.9756  143.0982 LP  0  0  0  0  0  0  0  0  0  0  0  0  # atno 17320 bound_to 7965
  144.6814  139.9841  143.7484 LP  0  0  0  0  0  0  0  0  0  0  0  0  # atno 17321 bound_to 7965
  140.4048  143.2685  151.9904 LP  0  0  0  0  0  0  0  0  0  0  0  0  # atno 17342 bound_to 10162
  139.4811  144.5966  151.7679 LP  0  0  0  0  0  0  0  0  0  0  0  0  # atno 17343 bound_to 10162
  157.1522  130.6189  149.5585 LP  0  0  0  0  0  0  0  0  0  0  0  0  # atno 17370 bound_to 10713
  155.9829  130.4845  150.6905 LP  0  0  0  0  0  0  0  0  0  0  0  0  # atno 17371 bound_to 10713
  141.1144  133.6632  156.3059 LP  0  0  0  0  0  0  0  0  0  0  0  0  # atno 17394 bound_to 11000
  140.5771  134.5782  157.5471 LP  0  0  0  0  0  0  0  0  0  0  0  0  # atno 17395 bound_to 11000

$$$$
