AV-unprocessed.smi:2270|AV-procd|sdf|9159|dock10
  -GOLD-   2272012373D 1   1.00000     0.00000
 Structure written by MMmdl.
 52 53  0  0  0  0  0  0  0  0  1 V2000
  151.8901  144.3386  161.2459 C   0  0  0  0  0  0  0  0  0  0  0  0
  152.5216  143.0020  160.9191 C   0  0  0  0  0  0  0  0  0  0  0  0
  153.4150  142.3841  161.8160 C   0  0  0  0  0  0  0  0  0  0  0  0
  153.9612  141.1393  161.4553 C   0  0  0  0  0  0  0  0  0  0  0  0
  153.5928  140.5668  160.2226 C   0  0  0  0  0  0  0  0  0  0  0  0
  152.6906  141.2538  159.3792 C   0  0  0  0  0  0  0  0  0  0  0  0
  152.3762  140.5902  158.1638 N   0  0  0  0  0  0  0  0  0  0  0  0
  151.3795  140.8626  157.3031 C   0  0  0  0  0  0  0  0  0  0  0  0
  150.5949  141.8065  157.3997 O   0  0  0  0  0  0  0  0  0  0  0  0
  151.3436  139.9656  156.3068 N   0  0  0  0  0  0  0  0  0  0  0  0
  150.3821  139.9445  155.2075 C   0  0  0  0  0  0  0  0  0  0  0  0
  148.9140  139.8448  155.7084 C   0  0  1  0  0  0  0  0  0  0  0  0
  147.8505  140.2904  154.6571 C   0  0  0  0  0  0  0  0  0  0  0  0
  147.6773  139.2446  153.5426 C   0  0  0  0  0  0  0  0  0  0  0  0
  148.0245  141.6990  154.0599 C   0  0  0  0  0  0  0  0  0  0  0  0
  148.5860  138.5877  156.4081 N   0  0  0  0  0  0  0  0  0  0  0  0
  148.9607  137.3566  155.7007 C   0  0  0  0  0  0  0  0  0  0  0  0
  148.4632  136.1082  156.4525 C   0  0  0  0  0  0  0  0  0  0  0  0
  149.0026  136.0515  157.8100 N   0  0  0  0  0  0  0  0  0  0  0  0
  148.5377  134.8705  158.5210 C   0  0  0  0  0  0  0  0  0  0  0  0
  148.6431  137.2795  158.5161 C   0  0  0  0  0  0  0  0  0  0  0  0
  149.1404  138.5276  157.7635 C   0  0  0  0  0  0  0  0  0  0  0  0
  152.1693  142.4540  159.7363 N   0  0  0  0  0  0  0  0  0  0  0  0
  152.3901  144.8156  162.0892 H   0  0  0  0  0  0  0  0  0  0  0  0
  150.8391  144.2046  161.5023 H   0  0  0  0  0  0  0  0  0  0  0  0
  151.9524  145.0115  160.3899 H   0  0  0  0  0  0  0  0  0  0  0  0
  153.6752  142.8489  162.7557 H   0  0  0  0  0  0  0  0  0  0  0  0
  154.6502  140.6306  162.1132 H   0  0  0  0  0  0  0  0  0  0  0  0
  154.0016  139.6101  159.9313 H   0  0  0  0  0  0  0  0  0  0  0  0
  152.9648  139.8030  157.9350 H   0  0  0  0  0  0  0  0  0  0  0  0
  152.0323  139.2276  156.3130 H   0  0  0  0  0  0  0  0  0  0  0  0
  150.5180  140.8063  154.5534 H   0  0  0  0  0  0  0  0  0  0  0  0
  150.6337  139.0750  154.6015 H   0  0  0  0  0  0  0  0  0  0  0  0
  148.8407  140.6256  156.4671 H   0  0  0  0  0  0  0  0  0  0  0  0
  146.8934  140.3099  155.1779 H   0  0  0  0  0  0  0  0  0  0  0  0
  148.5702  139.1708  152.9213 H   0  0  0  0  0  0  0  0  0  0  0  0
  146.8425  139.5021  152.8901 H   0  0  0  0  0  0  0  0  0  0  0  0
  147.4768  138.2559  153.9561 H   0  0  0  0  0  0  0  0  0  0  0  0
  148.8008  141.7235  153.2965 H   0  0  0  0  0  0  0  0  0  0  0  0
  148.2638  142.4446  154.8162 H   0  0  0  0  0  0  0  0  0  0  0  0
  147.1027  142.0205  153.5745 H   0  0  0  0  0  0  0  0  0  0  0  0
  148.5524  137.3406  154.6953 H   0  0  0  0  0  0  0  0  0  0  0  0
  150.0444  137.2972  155.5939 H   0  0  0  0  0  0  0  0  0  0  0  0
  147.3723  136.1104  156.4823 H   0  0  0  0  0  0  0  0  0  0  0  0
  148.7583  135.2143  155.9019 H   0  0  0  0  0  0  0  0  0  0  0  0
  148.9623  134.8322  159.5246 H   0  0  0  0  0  0  0  0  0  0  0  0
  148.8387  133.9621  157.9985 H   0  0  0  0  0  0  0  0  0  0  0  0
  147.4506  134.8668  158.6115 H   0  0  0  0  0  0  0  0  0  0  0  0
  147.5605  137.3366  158.6406 H   0  0  0  0  0  0  0  0  0  0  0  0
  149.0721  137.2672  159.5184 H   0  0  0  0  0  0  0  0  0  0  0  0
  150.2301  138.5211  157.7318 H   0  0  0  0  0  0  0  0  0  0  0  0
  148.8489  139.4163  158.3240 H   0  0  0  0  0  0  0  0  0  0  0  0
  1  2  1  0  0  0  0
  1 24  1  0  0  0  0
  1 25  1  0  0  0  0
  1 26  1  0  0  0  0
  2 23  1  0  0  0  0
  2  3  2  0  0  0  0
  3  4  1  0  0  0  0
  3 27  1  0  0  0  0
  4  5  2  0  0  0  0
  4 28  1  0  0  0  0
  5  6  1  0  0  0  0
  5 29  1  0  0  0  0
  6  7  1  0  0  0  0
  6 23  2  0  0  0  0
  7  8  1  0  0  0  0
  7 30  1  0  0  0  0
  8  9  2  0  0  0  0
  8 10  1  0  0  0  0
 10 11  1  0  0  0  0
 10 31  1  0  0  0  0
 11 12  1  0  0  0  0
 11 32  1  0  0  0  0
 11 33  1  0  0  0  0
 12 13  1  0  0  0  0
 12 16  1  0  0  0  0
 12 34  1  0  0  0  0
 13 14  1  0  0  0  0
 13 15  1  0  0  0  0
 13 35  1  0  0  0  0
 14 36  1  0  0  0  0
 14 37  1  0  0  0  0
 14 38  1  0  0  0  0
 15 39  1  0  0  0  0
 15 40  1  0  0  0  0
 15 41  1  0  0  0  0
 16 22  1  0  0  0  0
 16 17  1  0  0  0  0
 17 18  1  0  0  0  0
 17 42  1  0  0  0  0
 17 43  1  0  0  0  0
 18 19  1  0  0  0  0
 18 44  1  0  0  0  0
 18 45  1  0  0  0  0
 19 20  1  0  0  0  0
 19 21  1  0  0  0  0
 20 46  1  0  0  0  0
 20 47  1  0  0  0  0
 20 48  1  0  0  0  0
 21 22  1  0  0  0  0
 21 49  1  0  0  0  0
 21 50  1  0  0  0  0
 22 51  1  0  0  0  0
 22 52  1  0  0  0  0
M  END
> <s_m_source_file>
AV-unprocessed.smi

> <i_m_source_file_index>
2270

> <i_lp_mmshare_version>
43012

> <i_f3d_flags>
0

> <s_epik_input>
W0NIM11jMVtjSF1bY0hdW2NIXWMobjEpW05IXUMoPU8pW05IXVtDSDJdW0NASF0oW0NIXShbQ0gzXSlbQ0gzXSlOMltDSDJdW0NIMl1OKFtDSDNdKVtDSDJdW0NIMl0y

> <s_epik_cmdline>
J2VwaWtfcHl0aG9uJywgJy1waCcsICc3LjAnLCAnLXRuJywgJzgnLCAnLW1hJywgJzIwMCcsICctbWV0YWxfYmluZGluZycsICctaW1hZScsICc8aW5maWxlLm1hZT4nLCAnLW9tYWUnLCAnPG91dGZpbGUubWFlPic=

> <r_epik_Ionization_Penalty>
2.57754

> <r_epik_Ionization_Penalty_Charging>
0

> <r_epik_Ionization_Penalty_Neutral>
2.57754

> <r_epik_State_Penalty>
2.00874

> <r_epik_Charging_Adjusted_Penalty>
2.00874

> <i_epik_Tot_Q>
0

> <i_epik_Tot_abs_Q>
0

> <r_epik_Metal_State_Penalty>
2.00874

> <b_epik_Metal_Only>
0

> <s_lp_Force_Field>
OPLS_2005

> <r_lp_Energy>
49.2336

> <b_lp_Chiralities_Consistent>
1

> <s_lp_Variant>
AV-unprocessed.smi:2270-6

> <Gold.Version>
5.8.1

> <Gold.Id.Protein>
6NUR|6NUR_protein|mol2

> <Gold.PLP.Fitness>
34.3338

> <Gold.PLP.PLP>
-35.1068

> <Gold.PLP.part.hbond>
0.0000

> <Gold.PLP.part.metal>
0.0000

> <Gold.PLP.part.buried>
-5.0635

> <Gold.PLP.part.nonpolar>
-30.0541

> <Gold.PLP.part.repulsive>
0.2652

> <Gold.PLP.ligand.clash>
0.0000

> <Gold.PLP.ligand.torsion>
0.5966

> <Gold.PLP.Chemscore.Hbond>
0.0000

> <Gold.PLP.Chemscore.CHOScore>
0.0000

> <Gold.PLP.Chemscore.Metal>
0.0000

> <Gold.PLP.Chemscore.Internal.Correction>
0.4202

> <Gold.Rescore>
     Score         DG    S(hbond)    S(metal)    S(lipo)     H(rot)  DE(clash)    DE(int)     intcor
     10.27     -12.38       0.00        0.00      93.12       1.56       0.01       2.10       ----

> <Gold.Chemscore.Fitness>
10.2689

> <Gold.Chemscore.DG>
-12.3790

> <Gold.Chemscore.ZeroCoef>
-5.4800

> <Gold.Chemscore.Hbond>
0.0000

> <Gold.Chemscore.Metal>
0.0000

> <Gold.Chemscore.Lipo>
93.1245

> <Gold.Chemscore.Internal_Hbond>
0.0000

> <Gold.Chemscore.DEClash>
0.0147

> <Gold.Chemscore.DEInternal>
2.0954

> <Gold.Chemscore.Rot>
1.5612

> <Gold.Chemscore.Internal.Correction>
   9.000000E+99

> <Gold.Chemscore.Hbond.Weighted>
-0.0000

> <Gold.Chemscore.Metal.Weighted>
-0.0000

> <Gold.Chemscore.Lipo.Weighted>
-10.8956

> <Gold.Chemscore.Internal_Hbond.Weighted>
0.0000

> <Gold.Chemscore.DEClash.Weighted>
0.0147

> <Gold.Chemscore.DEInternal.Weighted>
2.0954

> <Gold.Chemscore.Rot.Weighted>
3.9966

> <Gold.Chemscore.Internal.Correction.Weighted>
   9.000000E+99

> <Gold.Protein.RotatedTorsions>
[ 6907 6896 6895 6894 ] final  145.48 input  -60.11 | X-H torsion
[ 7974 7965 7964 7962 ] final  146.47 input  175.53 | X-H torsion
[ 8008 7997 7996 7995 ] final    4.65 input   59.86 | X-H torsion
[ 10167 10162 10161 10158 ] final   49.27 input  -65.29 | X-H torsion
[ 10718 10713 10712 10709 ] final -125.26 input   66.30 | X-H torsion
[ 10763 10752 10751 10750 ] final  147.10 input  -60.55 | X-H torsion
[ 11005 11000 10999 10996 ] final -179.89 input  -57.11 | X-H torsion

> <Gold.Protein.ActiveResidues>
 VAL166  LYS551  ARG553  GLY616  TRP617  ASP618  TYR619  PRO620  LYS621  CYS622 
 ASP623  PHE694  ASN695  SER759  ASP760  ASP761  ALA762  ILE779  LEU786  VAL792 
 PHE793  MET794  SER795  GLU796  ALA797  LYS798  CYS799  TRP800  GLU811  SER814 

> <Gold.Protein.RotatedAtoms>
  152.1804  133.4703  159.4954 H   0  0  0  0  0  0  0  0  0  0  0  0  # atno 6907 bound_to 6896
  150.6933  134.1841  159.4269 H   0  0  0  0  0  0  0  0  0  0  0  0  # atno 6908 bound_to 6896
  151.9752  135.0056  160.0605 H   0  0  0  0  0  0  0  0  0  0  0  0  # atno 6909 bound_to 6896
  144.8669  139.5909  143.5905 H   0  0  0  0  0  0  0  0  0  0  0  0  # atno 7974 bound_to 7965
  154.7186  140.2707  155.6562 H   0  0  0  0  0  0  0  0  0  0  0  0  # atno 8008 bound_to 7997
  156.2817  140.2739  156.1775 H   0  0  0  0  0  0  0  0  0  0  0  0  # atno 8009 bound_to 7997
  155.0538  140.0371  157.2543 H   0  0  0  0  0  0  0  0  0  0  0  0  # atno 8010 bound_to 7997
  140.2846  144.3117  150.6255 H   0  0  0  0  0  0  0  0  0  0  0  0  # atno 10167 bound_to 10162
  156.1660  130.6634  151.0115 H   0  0  0  0  0  0  0  0  0  0  0  0  # atno 10718 bound_to 10713
  154.0328  135.2896  155.3366 H   0  0  0  0  0  0  0  0  0  0  0  0  # atno 10763 bound_to 10752
  154.6977  135.5201  153.8485 H   0  0  0  0  0  0  0  0  0  0  0  0  # atno 10764 bound_to 10752
  153.0633  135.6621  154.0539 H   0  0  0  0  0  0  0  0  0  0  0  0  # atno 10765 bound_to 10752
  140.4136  134.6670  157.4627 H   0  0  0  0  0  0  0  0  0  0  0  0  # atno 11005 bound_to 11000
  146.2902  139.7117  142.9166 LP  0  0  0  0  0  0  0  0  0  0  0  0  # atno 17320 bound_to 7965
  145.4205  141.0406  143.2966 LP  0  0  0  0  0  0  0  0  0  0  0  0  # atno 17321 bound_to 7965
  140.5783  143.2174  151.7474 LP  0  0  0  0  0  0  0  0  0  0  0  0  # atno 17342 bound_to 10162
  139.4953  144.4117  152.0073 LP  0  0  0  0  0  0  0  0  0  0  0  0  # atno 17343 bound_to 10162
  157.6768  131.0848  150.7474 LP  0  0  0  0  0  0  0  0  0  0  0  0  # atno 17370 bound_to 10713
  156.7535  130.4776  149.5451 LP  0  0  0  0  0  0  0  0  0  0  0  0  # atno 17371 bound_to 10713
  140.0250  134.6491  155.9186 LP  0  0  0  0  0  0  0  0  0  0  0  0  # atno 17394 bound_to 11000
  141.1812  133.6547  156.5026 LP  0  0  0  0  0  0  0  0  0  0  0  0  # atno 17395 bound_to 11000

$$$$
