AV-unprocessed.smi:1208|AV-procd|sdf|5062|dock6
  -GOLD-   22720 4103D 1   1.00000     0.00000
 Structure written by MMmdl.
 35 36  0  0  0  0  0  0  0  0  2 V2000
  152.7988  144.4514  158.0237 C   0  0  0  0  0  0  0  0  0  0  0  0
  151.5129  143.7245  158.4423 C   0  0  1  0  0  0  0  0  0  0  0  0
  151.1681  142.7435  157.4163 N   0  0  0  0  0  0  0  0  0  0  0  0
  150.1090  141.9194  157.4379 C   0  0  0  0  0  0  0  0  0  0  0  0
  149.2362  141.9527  158.3059 O   0  0  0  0  0  0  0  0  0  0  0  0
  150.0295  140.8957  156.3006 C   0  0  0  0  0  0  0  0  0  0  0  0
  150.7307  139.6555  156.6555 N   0  0  0  0  0  0  0  0  0  0  0  0
  150.1493  138.9697  157.8073 N   0  5  0  0  0  0  0  0  0  0  0  0
  150.6403  137.7563  158.1729 C   0  0  0  0  0  0  0  0  0  0  0  0
  150.1763  137.1031  159.1045 O   0  0  0  0  0  0  0  0  0  0  0  0
  151.7665  137.2213  157.4259 C   0  0  0  0  0  0  0  0  0  0  0  0
  152.3070  137.8933  156.3904 C   0  0  0  0  0  0  0  0  0  0  0  0
  151.7948  139.1837  155.9450 C   0  0  0  0  0  0  0  0  0  0  0  0
  152.2766  139.7954  154.9918 O   0  0  0  0  0  0  0  0  0  0  0  0
  151.6665  143.0281  159.8114 C   0  0  2  0  0  0  0  0  0  0  0  0
  152.1560  143.9271  160.9502 C   0  0  0  0  0  0  0  0  0  0  0  0
  152.7455  142.9158  161.9049 C   0  0  0  0  0  0  0  0  0  0  0  0
  153.3967  141.9260  160.9436 C   0  0  0  0  0  0  0  0  0  0  0  0
  152.6360  141.9844  159.7389 O   0  0  0  0  0  0  0  0  0  0  0  0
  153.0729  145.2160  158.7509 H   0  0  0  0  0  0  0  0  0  0  0  0
  152.6739  144.9462  157.0601 H   0  0  0  0  0  0  0  0  0  0  0  0
  153.6371  143.7592  157.9379 H   0  0  0  0  0  0  0  0  0  0  0  0
  150.7215  144.4719  158.5209 H   0  0  0  0  0  0  0  0  0  0  0  0
  151.8278  142.6301  156.6601 H   0  0  0  0  0  0  0  0  0  0  0  0
  148.9805  140.7006  156.0720 H   0  0  0  0  0  0  0  0  0  0  0  0
  150.4504  141.3186  155.3861 H   0  0  0  0  0  0  0  0  0  0  0  0
  152.1812  136.2654  157.7101 H   0  0  0  0  0  0  0  0  0  0  0  0
  153.1446  137.4584  155.8655 H   0  0  0  0  0  0  0  0  0  0  0  0
  150.7181  142.5764  160.1078 H   0  0  0  0  0  0  0  0  0  0  0  0
  152.9351  144.6058  160.5997 H   0  0  0  0  0  0  0  0  0  0  0  0
  151.3592  144.5228  161.3975 H   0  0  0  0  0  0  0  0  0  0  0  0
  153.4504  143.3515  162.6134 H   0  0  0  0  0  0  0  0  0  0  0  0
  151.9495  142.4276  162.4688 H   0  0  0  0  0  0  0  0  0  0  0  0
  154.4198  142.2292  160.7189 H   0  0  0  0  0  0  0  0  0  0  0  0
  153.4247  140.9140  161.3482 H   0  0  0  0  0  0  0  0  0  0  0  0
  1  2  1  0  0  0  0
  1 20  1  0  0  0  0
  1 21  1  0  0  0  0
  1 22  1  0  0  0  0
  2  3  1  0  0  0  0
  2 15  1  0  0  0  0
  2 23  1  0  0  0  0
  3  4  1  0  0  0  0
  3 24  1  0  0  0  0
  4  5  2  0  0  0  0
  4  6  1  0  0  0  0
  6 25  1  0  0  0  0
  6 26  1  0  0  0  0
  6  7  1  0  0  0  0
  7  8  1  0  0  0  0
  7 13  1  0  0  0  0
  8  9  1  0  0  0  0
  9 10  2  0  0  0  0
  9 11  1  0  0  0  0
 11 27  1  0  0  0  0
 11 12  2  0  0  0  0
 12 28  1  0  0  0  0
 12 13  1  0  0  0  0
 13 14  2  0  0  0  0
 15 19  1  0  0  0  0
 15 16  1  0  0  0  0
 15 29  1  0  0  0  0
 16 17  1  0  0  0  0
 16 30  1  0  0  0  0
 16 31  1  0  0  0  0
 17 18  1  0  0  0  0
 17 32  1  0  0  0  0
 17 33  1  0  0  0  0
 18 19  1  0  0  0  0
 18 34  1  0  0  0  0
 18 35  1  0  0  0  0
M  CHG  1   8  -1
M  END
> <s_m_source_file>
AV-unprocessed.smi

> <i_m_source_file_index>
1208

> <i_lp_mmshare_version>
43012

> <i_f3d_flags>
0

> <s_epik_input>
TzFbQ0gyXVtDSDJdW0NIMl1bQ0BIXTFbQ0BIXShbQ0gzXSlbTkhdQyg9TylbQ0gyXW4yW25IXWMoPU8pW2NIXVtjSF1jMj1P

> <s_epik_cmdline>
J2VwaWtfcHl0aG9uJywgJy1waCcsICc3LjAnLCAnLXRuJywgJzgnLCAnLW1hJywgJzIwMCcsICctbWV0YWxfYmluZGluZycsICctaW1hZScsICc8aW5maWxlLm1hZT4nLCAnLW9tYWUnLCAnPG91dGZpbGUubWFlPic=

> <r_lp_tautomer_probability>
1

> <r_epik_Ionization_Penalty>
0.0975494

> <r_epik_Ionization_Penalty_Charging>
0.0975494

> <r_epik_Ionization_Penalty_Neutral>
2.30132e-08

> <r_epik_State_Penalty>
0.034345

> <r_epik_Charging_Adjusted_Penalty>
0.131894

> <i_epik_Tot_Q>
-1

> <i_epik_Tot_abs_Q>
1

> <r_epik_Metal_State_Penalty>
0.034345

> <b_epik_Metal_Only>
0

> <s_lp_Force_Field>
OPLS_2005

> <r_lp_Energy>
33.0818

> <b_lp_Chiralities_Consistent>
1

> <s_lp_Variant>
AV-unprocessed.smi:1208-2

> <Gold.Version>
5.8.1

> <Gold.Id.Protein>
6NUR|6NUR_protein|mol2

> <Gold.PLP.Fitness>
43.6434

> <Gold.PLP.PLP>
-37.2088

> <Gold.PLP.part.hbond>
-3.0000

> <Gold.PLP.part.metal>
0.0000

> <Gold.PLP.part.buried>
-5.5213

> <Gold.PLP.part.nonpolar>
-29.6304

> <Gold.PLP.part.repulsive>
0.1121

> <Gold.PLP.ligand.clash>
0.0000

> <Gold.PLP.ligand.torsion>
0.4117

> <Gold.PLP.Chemscore.Hbond>
2.4160

> <Gold.PLP.Chemscore.CHOScore>
0.0000

> <Gold.PLP.Chemscore.Metal>
0.0000

> <Gold.Chemscore.Hbonds>
donor molecule, donor type, donor heavy atom, donor atom, acceptor molecule, acceptor atom, score
      P1  H  6896  6908       L1    10  0.16
      P1  H  7989  7998       L1    14  0.74

> <Gold.PLP.Chemscore.Internal.Correction>
0.0101

> <Gold.Rescore>
     Score         DG    S(hbond)    S(metal)    S(lipo)     H(rot)  DE(clash)    DE(int)     intcor
     16.28     -16.73       1.90        0.00      85.59       1.99       0.02       0.43       ----

> <Gold.Chemscore.Fitness>
16.2756

> <Gold.Chemscore.DG>
-16.7255

> <Gold.Chemscore.ZeroCoef>
-5.4800

> <Gold.Chemscore.Hbond>
1.8971

> <Gold.Chemscore.Metal>
0.0000

> <Gold.Chemscore.Lipo>
85.5900

> <Gold.Chemscore.Internal_Hbond>
0.0000

> <Gold.Chemscore.DEClash>
0.0202

> <Gold.Chemscore.DEInternal>
0.4297

> <Gold.Chemscore.Rot>
1.9940

> <Gold.Chemscore.Internal.Correction>
   9.000000E+99

> <Gold.Chemscore.Hbonds>
donor molecule, donor type, donor heavy atom, donor atom, acceptor molecule, acceptor atom, score
      P1  H  6896  6908       L1    10  0.17
      P1  H  7989  7998       L1    14  0.74
      P1  H  7997  8009       L1    14  0.02

> <Gold.Chemscore.Hbond.Weighted>
-6.3362

> <Gold.Chemscore.Metal.Weighted>
-0.0000

> <Gold.Chemscore.Lipo.Weighted>
-10.0140

> <Gold.Chemscore.Internal_Hbond.Weighted>
0.0000

> <Gold.Chemscore.DEClash.Weighted>
0.0202

> <Gold.Chemscore.DEInternal.Weighted>
0.4297

> <Gold.Chemscore.Rot.Weighted>
5.1047

> <Gold.Chemscore.Internal.Correction.Weighted>
   9.000000E+99

> <Gold.Protein.RotatedTorsions>
[ 6907 6896 6895 6894 ] final -142.73 input  -60.11 | X-H torsion
[ 7974 7965 7964 7962 ] final  -91.46 input  175.53 | X-H torsion
[ 8008 7997 7996 7995 ] final -121.48 input   59.86 | X-H torsion
[ 10167 10162 10161 10158 ] final   46.77 input  -65.29 | X-H torsion
[ 10718 10713 10712 10709 ] final  -58.57 input   66.30 | X-H torsion
[ 10763 10752 10751 10750 ] final -111.73 input  -60.55 | X-H torsion
[ 11005 11000 10999 10996 ] final   73.58 input  -57.11 | X-H torsion

> <Gold.Protein.ActiveResidues>
 VAL166  LYS551  ARG553  GLY616  TRP617  ASP618  TYR619  PRO620  LYS621  CYS622 
 ASP623  PHE694  ASN695  SER759  ASP760  ASP761  ALA762  ILE779  LEU786  VAL792 
 PHE793  MET794  SER795  GLU796  ALA797  LYS798  CYS799  TRP800  GLU811  SER814 

> <Gold.Protein.RotatedAtoms>
  151.0909  133.5317  159.2614 H   0  0  0  0  0  0  0  0  0  0  0  0  # atno 6907 bound_to 6896
  151.2184  135.0508  159.8949 H   0  0  0  0  0  0  0  0  0  0  0  0  # atno 6908 bound_to 6896
  152.5434  134.0715  159.8249 H   0  0  0  0  0  0  0  0  0  0  0  0  # atno 6909 bound_to 6896
  145.4128  140.9546  143.2224 H   0  0  0  0  0  0  0  0  0  0  0  0  # atno 7974 bound_to 7965
  155.1487  140.0403  157.2816 H   0  0  0  0  0  0  0  0  0  0  0  0  # atno 8008 bound_to 7997
  154.6420  140.2549  155.7284 H   0  0  0  0  0  0  0  0  0  0  0  0  # atno 8009 bound_to 7997
  156.2537  140.2854  156.0817 H   0  0  0  0  0  0  0  0  0  0  0  0  # atno 8010 bound_to 7997
  140.3104  144.2827  150.6201 H   0  0  0  0  0  0  0  0  0  0  0  0  # atno 10167 bound_to 10162
  156.1126  130.4173  150.0595 H   0  0  0  0  0  0  0  0  0  0  0  0  # atno 10718 bound_to 10713
  154.8314  135.4517  154.1083 H   0  0  0  0  0  0  0  0  0  0  0  0  # atno 10763 bound_to 10752
  153.2353  135.6910  153.7850 H   0  0  0  0  0  0  0  0  0  0  0  0  # atno 10764 bound_to 10752
  153.7218  135.3340  155.3244 H   0  0  0  0  0  0  0  0  0  0  0  0  # atno 10765 bound_to 10752
  139.9433  134.7359  156.1044 H   0  0  0  0  0  0  0  0  0  0  0  0  # atno 11005 bound_to 11000
  144.8297  139.5649  143.6949 LP  0  0  0  0  0  0  0  0  0  0  0  0  # atno 17320 bound_to 7965
  146.2696  139.6603  142.9305 LP  0  0  0  0  0  0  0  0  0  0  0  0  # atno 17321 bound_to 7965
  140.5573  143.2197  151.7826 LP  0  0  0  0  0  0  0  0  0  0  0  0  # atno 17342 bound_to 10162
  139.4895  144.4397  151.9779 LP  0  0  0  0  0  0  0  0  0  0  0  0  # atno 17343 bound_to 10162
  156.8554  130.9473  151.3622 LP  0  0  0  0  0  0  0  0  0  0  0  0  # atno 17370 bound_to 10713
  157.6307  130.8727  149.9270 LP  0  0  0  0  0  0  0  0  0  0  0  0  # atno 17371 bound_to 10713
  141.1075  133.6655  156.2898 LP  0  0  0  0  0  0  0  0  0  0  0  0  # atno 17394 bound_to 11000
  140.5898  134.5662  157.5497 LP  0  0  0  0  0  0  0  0  0  0  0  0  # atno 17395 bound_to 11000

$$$$
