#       Name:                AV-unprocessed.smi:2299
#       Creating user name   scv26
#       Creation time:       Fri Mar 27 12:44:52 2020


#       File generated by GOLD software.
#

@<TRIPOS>MOLECULE
AV-unprocessed.smi:2299
    47    48     1
SMALL
NO_CHARGES


@<TRIPOS>ATOM
      1 ****        -1.4028  -3.7842  -0.3103 C.3            1 S1                 0.0000
      2 ****        -0.9706  -2.9971  -1.5565 C.3            1 S1                 0.0000
      3 ****        -1.6612  -3.5172  -2.8253 C.3            1 S1                 0.0000
      4 ****         0.5252  -2.9924  -1.7121 C.2            1 S1                 0.0000
      5 ****         1.2905  -4.0889  -1.7877 N.pl3          1 S1                 1.0000
      6 ****         2.6074  -3.7485  -1.9271 C.2            1 S1                 0.0000
      7 ****         2.6520  -2.3800  -1.9455 C.2            1 S1                 0.0000
      8 ****         1.3587  -1.9391  -1.8173 N.pl3          1 S1                 0.0000
      9 ****         0.9320  -0.5305  -1.7911 C.3            1 S1                 0.0000
     10 ****         0.6699  -0.0054  -0.3739 C.2            1 S1                 0.0000
     11 ****         0.7982  -0.7359   0.6097 O.2            1 S1                 0.0000
     12 ****         0.2987   1.2819  -0.2897 N.am           1 S1                 0.0000
     13 ****         0.0132   2.0070   0.9510 C.3            1 S1                 0.0000
     14 ****        -0.9143   3.1913   0.5936 C.3            1 S1                 0.0000
     15 ****        -1.7300   3.7236   1.7845 C.3            1 S1                 0.0000
     16 ****        -0.8978   4.3579   2.9092 C.3            1 S1                 0.0000
     17 ****         0.0709   3.3766   3.5908 C.3            1 S1                 0.0000
     18 ****         1.2625   3.1349   2.7878 N.am           1 S1                 0.0000
     19 ****         1.3170   2.5527   1.5801 C.2            1 S1                 0.0000
     20 ****         2.3897   2.4586   0.9832 O.2            1 S1                 0.0000
     21 ****        -0.9440  -3.3726   0.5897 H              1 S1                 0.0000
     22 ****        -1.1179  -4.8346  -0.3799 H              1 S1                 0.0000
     23 ****        -2.4840  -3.7424  -0.1758 H              1 S1                 0.0000
     24 ****        -1.2808  -1.9641  -1.4077 H              1 S1                 0.0000
     25 ****        -1.3887  -2.9169  -3.6940 H              1 S1                 0.0000
     26 ****        -2.7463  -3.4771  -2.7257 H              1 S1                 0.0000
     27 ****        -1.3852  -4.5512  -3.0344 H              1 S1                 0.0000
     28 ****         3.3928  -4.4865  -2.0014 H              1 S1                 0.0000
     29 ****         3.4887  -1.7026  -2.0384 H              1 S1                 0.0000
     30 ****         1.7190   0.0667  -2.2534 H              1 S1                 0.0000
     31 ****         0.0434  -0.4201  -2.4134 H              1 S1                 0.0000
     32 ****         0.2257   1.8106  -1.1469 H              1 S1                 0.0000
     33 ****        -0.4875   1.3344   1.6498 H              1 S1                 0.0000
     34 ****        -0.3514   4.0030   0.1288 H              1 S1                 0.0000
     35 ****        -1.6313   2.8654  -0.1618 H              1 S1                 0.0000
     36 ****        -2.4353   4.4689   1.4154 H              1 S1                 0.0000
     37 ****        -2.3398   2.9176   2.1948 H              1 S1                 0.0000
     38 ****        -0.3532   5.2250   2.5327 H              1 S1                 0.0000
     39 ****        -1.5860   4.7422   3.6627 H              1 S1                 0.0000
     40 ****         0.4041   3.8024   4.5374 H              1 S1                 0.0000
     41 ****        -0.4246   2.4360   3.8354 H              1 S1                 0.0000
     42 ****         2.1336   3.4695   3.1740 H              1 S1                 0.0000
     43 ****         0.9393  -5.0371  -1.7417 H              1 S1                 0.0000
     44 ****         1.0776  -1.6888   0.4918 LP             1 S1                 0.0000
     45 ****         0.6230  -0.3760   1.5261 LP             1 S1                 0.0000
     46 ****         2.4243   2.0259   0.0823 LP             1 S1                 0.0000
     47 ****         3.2264   2.8148   1.3993 LP             1 S1                 0.0000
@<TRIPOS>BOND
    1    1    2 1     
    2    1   21 1     
    3    1   22 1     
    4    1   23 1     
    5    2    3 1     
    6    2    4 1     
    7    2   24 1     
    8    3   25 1     
    9    3   26 1     
   10    3   27 1     
   11    4    8 1     
   12    4    5 2     
   13    5    6 1     
   14    5   43 1     
   15    6    7 2     
   16    6   28 1     
   17    7    8 1     
   18    7   29 1     
   19    8    9 1     
   20    9   10 1     
   21    9   30 1     
   22    9   31 1     
   23   10   11 2     
   24   10   12 am    
   25   12   13 1     
   26   12   32 1     
   27   13   19 1     
   28   13   14 1     
   29   13   33 1     
   30   14   15 1     
   31   14   34 1     
   32   14   35 1     
   33   15   16 1     
   34   15   36 1     
   35   15   37 1     
   36   16   17 1     
   37   16   38 1     
   38   16   39 1     
   39   17   18 1     
   40   17   40 1     
   41   17   41 1     
   42   18   19 am    
   43   18   42 1     
   44   19   20 2     
   45   11   44 1     
   46   11   45 1     
   47   20   46 1     
   48   20   47 1     
@<TRIPOS>SUBSTRUCTURE
      1 S1             1
@<TRIPOS>SET
LONE_PAIRS      STATIC     ATOMS    <user>   **** ""
4 44 45 46 47
DONOR_HYDROGENS      STATIC     ATOMS    <user>   **** ""
3 43 32 42
ATOM$BLUE        STATIC     ATOMS    COLORGROUP SYSTEM
4 44 45 46 47
ATOM$RED        STATIC     ATOMS    COLORGROUP SYSTEM
3 43 32 42
