AV-unprocessed.smi:3082|AV-procd|sdf|11743|dock1
  -GOLD-   2272017133D 1   1.00000     0.00000
 Structure written by MMmdl.
 28 29  0  0  0  0  0  0  0  0  2 V2000
  145.9220  138.8809  154.3985 C   0  0  0  0  0  0  0  0  0  0  0  0
  146.0345  138.1480  153.0928 C   0  0  0  0  0  0  0  0  0  0  0  0
  146.6573  138.5908  151.8918 C   0  0  0  0  0  0  0  0  0  0  0  0
  146.5847  137.6993  150.9173 N   0  0  0  0  0  0  0  0  0  0  0  0
  145.9133  136.6579  151.4572 N   0  0  0  0  0  0  0  0  0  0  0  0
  145.6403  135.4688  150.6636 C   0  0  1  0  0  0  0  0  0  0  0  0
  146.0609  134.1831  151.4039 C   0  0  0  0  0  0  0  0  0  0  0  0
  145.7396  132.9470  150.5499 C   0  0  0  0  0  0  0  0  0  0  0  0
  144.2569  132.9320  150.1418 C   0  0  0  0  0  0  0  0  0  0  0  0
  143.8935  134.1831  149.4410 N   0  3  0  0  0  0  0  0  0  0  0  0
  144.1550  135.3943  150.2491 C   0  0  0  0  0  0  0  0  0  0  0  0
  145.5684  136.9052  152.7696 C   0  0  0  0  0  0  0  0  0  0  0  0
  146.3748  139.8715  154.3485 H   0  0  0  0  0  0  0  0  0  0  0  0
  146.4188  138.3420  155.2056 H   0  0  0  0  0  0  0  0  0  0  0  0
  144.8818  139.0183  154.6941 H   0  0  0  0  0  0  0  0  0  0  0  0
  147.1587  139.5282  151.7009 H   0  0  0  0  0  0  0  0  0  0  0  0
  146.2406  135.5464  149.7552 H   0  0  0  0  0  0  0  0  0  0  0  0
  147.1266  134.2107  151.6343 H   0  0  0  0  0  0  0  0  0  0  0  0
  145.5380  134.1063  152.3583 H   0  0  0  0  0  0  0  0  0  0  0  0
  146.3664  132.9452  149.6571 H   0  0  0  0  0  0  0  0  0  0  0  0
  145.9842  132.0390  151.1016 H   0  0  0  0  0  0  0  0  0  0  0  0
  144.0532  132.0849  149.4863 H   0  0  0  0  0  0  0  0  0  0  0  0
  143.6219  132.8155  151.0212 H   0  0  0  0  0  0  0  0  0  0  0  0
  144.4326  134.2426  148.5891 H   0  0  0  0  0  0  0  0  0  0  0  0
  143.5056  135.3766  151.1257 H   0  0  0  0  0  0  0  0  0  0  0  0
  143.8785  136.2732  149.6659 H   0  0  0  0  0  0  0  0  0  0  0  0
  145.0256  136.1833  153.3620 H   0  0  0  0  0  0  0  0  0  0  0  0
  142.9119  134.1532  149.2044 H   0  0  0  0  0  0  0  0  0  0  0  0
  1  2  1  0  0  0  0
  1 13  1  0  0  0  0
  1 14  1  0  0  0  0
  1 15  1  0  0  0  0
  2 12  2  0  0  0  0
  2  3  1  0  0  0  0
  3  4  2  0  0  0  0
  3 16  1  0  0  0  0
  4  5  1  0  0  0  0
  5  6  1  0  0  0  0
  5 12  1  0  0  0  0
  6 11  1  0  0  0  0
  6  7  1  0  0  0  0
  6 17  1  0  0  0  0
  7  8  1  0  0  0  0
  7 18  1  0  0  0  0
  7 19  1  0  0  0  0
  8  9  1  0  0  0  0
  8 20  1  0  0  0  0
  8 21  1  0  0  0  0
  9 10  1  0  0  0  0
  9 22  1  0  0  0  0
  9 23  1  0  0  0  0
 10 11  1  0  0  0  0
 10 24  1  0  0  0  0
 10 28  1  0  0  0  0
 11 25  1  0  0  0  0
 11 26  1  0  0  0  0
 12 27  1  0  0  0  0
M  CHG  1  10   1
M  END
> <s_m_source_file>
AV-unprocessed.smi

> <i_m_source_file_index>
3082

> <i_lp_mmshare_version>
43012

> <i_f3d_flags>
0

> <s_epik_input>
W0NIM11jMVtjSF1ubihbY0hdMSlbQ0BASF0yW0NIMl1bQ0gyXVtDSDJdW05IXVtDSDJdMg==

> <s_epik_cmdline>
J2VwaWtfcHl0aG9uJywgJy1waCcsICc3LjAnLCAnLXRuJywgJzgnLCAnLW1hJywgJzIwMCcsICctbWV0YWxfYmluZGluZycsICctaW1hZScsICc8aW5maWxlLm1hZT4nLCAnLW9tYWUnLCAnPG91dGZpbGUubWFlPic=

> <r_lp_tautomer_probability>
1

> <r_epik_Ionization_Penalty>
0.000667973

> <r_epik_Ionization_Penalty_Charging>
0.000651447

> <r_epik_Ionization_Penalty_Neutral>
1.65255e-05

> <r_epik_State_Penalty>
-0

> <r_epik_Charging_Adjusted_Penalty>
0.000651447

> <i_epik_Tot_Q>
1

> <i_epik_Tot_abs_Q>
1

> <r_epik_Metal_State_Penalty>
-0

> <b_epik_Metal_Only>
0

> <s_lp_Force_Field>
OPLS_2005

> <r_lp_Energy>
15.6496

> <b_lp_Chiralities_Consistent>
1

> <s_lp_Variant>
AV-unprocessed.smi:3082-2

> <Gold.Version>
5.8.1

> <Gold.Id.Protein>
6NUR|6NUR_protein|mol2

> <Gold.PLP.Fitness>
36.5145

> <Gold.PLP.PLP>
-22.0091

> <Gold.PLP.part.hbond>
-3.0000

> <Gold.PLP.part.metal>
0.0000

> <Gold.PLP.part.buried>
-1.7450

> <Gold.PLP.part.nonpolar>
-20.9984

> <Gold.PLP.part.repulsive>
2.3685

> <Gold.PLP.ligand.clash>
0.0000

> <Gold.PLP.ligand.torsion>
0.2562

> <Gold.PLP.Chemscore.Hbond>
4.0000

> <Gold.PLP.Chemscore.CHOScore>
1.0000

> <Gold.PLP.Chemscore.Metal>
0.0000

> <Gold.Chemscore.Hbonds>
donor molecule, donor type, donor heavy atom, donor atom, acceptor molecule, acceptor atom, score
      L1  H    10    24       P1  7921  1.00
      L1  H    10    28       P1 10186  2.00
      P1  H  7954  7966       L1     4  1.00
      L1  C     3    16       P1  7957  1.00

> <Gold.PLP.Chemscore.Internal.Correction>
0.0179

> <Gold.Rescore>
     Score         DG    S(hbond)    S(metal)    S(lipo)     H(rot)  DE(clash)    DE(int)     intcor
     17.68     -19.03       2.83        0.00      56.93       1.00       1.29       0.06       ----

> <Gold.Chemscore.Fitness>
17.6844

> <Gold.Chemscore.DG>
-19.0298

> <Gold.Chemscore.ZeroCoef>
-5.4800

> <Gold.Chemscore.Hbond>
2.8290

> <Gold.Chemscore.Metal>
0.0000

> <Gold.Chemscore.Lipo>
56.9302

> <Gold.Chemscore.Internal_Hbond>
0.0000

> <Gold.Chemscore.DEClash>
1.2884

> <Gold.Chemscore.DEInternal>
0.0569

> <Gold.Chemscore.Rot>
1.0000

> <Gold.Chemscore.Internal.Correction>
   9.000000E+99

> <Gold.Chemscore.Hbonds>
donor molecule, donor type, donor heavy atom, donor atom, acceptor molecule, acceptor atom, score
      L1  H    10    24       P1  7921  0.88
      L1  H    10    28       P1 10186  0.97
      P1  H  7954  7966       L1     4  0.60

> <Gold.Chemscore.Hbond.Weighted>
-9.4489

> <Gold.Chemscore.Metal.Weighted>
-0.0000

> <Gold.Chemscore.Lipo.Weighted>
-6.6608

> <Gold.Chemscore.Internal_Hbond.Weighted>
0.0000

> <Gold.Chemscore.DEClash.Weighted>
1.2884

> <Gold.Chemscore.DEInternal.Weighted>
0.0569

> <Gold.Chemscore.Rot.Weighted>
2.5600

> <Gold.Chemscore.Internal.Correction.Weighted>
   9.000000E+99

> <Gold.Protein.RotatedTorsions>
[ 6907 6896 6895 6894 ] final   82.24 input  -60.11 | X-H torsion
[ 7974 7965 7964 7962 ] final  146.50 input  175.53 | X-H torsion
[ 8008 7997 7996 7995 ] final  -41.78 input   59.86 | X-H torsion
[ 10167 10162 10161 10158 ] final  -79.89 input  -65.29 | X-H torsion
[ 10718 10713 10712 10709 ] final   35.96 input   66.30 | X-H torsion
[ 10763 10752 10751 10750 ] final -119.62 input  -60.55 | X-H torsion
[ 11005 11000 10999 10996 ] final  -15.35 input  -57.11 | X-H torsion

> <Gold.Protein.ActiveResidues>
 VAL166  LYS551  ARG553  GLY616  TRP617  ASP618  TYR619  PRO620  LYS621  CYS622 
 ASP623  PHE694  ASN695  SER759  ASP760  ASP761  ALA762  ILE779  LEU786  VAL792 
 PHE793  MET794  SER795  GLU796  ALA797  LYS798  CYS799  TRP800  GLU811  SER814 

> <Gold.Protein.RotatedAtoms>
  152.5293  134.3080  159.9102 H   0  0  0  0  0  0  0  0  0  0  0  0  # atno 6907 bound_to 6896
  151.3030  133.4107  159.2649 H   0  0  0  0  0  0  0  0  0  0  0  0  # atno 6908 bound_to 6896
  151.0103  134.9407  159.8060 H   0  0  0  0  0  0  0  0  0  0  0  0  # atno 6909 bound_to 6896
  144.8666  139.5913  143.5906 H   0  0  0  0  0  0  0  0  0  0  0  0  # atno 7974 bound_to 7965
  154.4002  140.1490  156.3247 H   0  0  0  0  0  0  0  0  0  0  0  0  # atno 8008 bound_to 7997
  155.8497  140.3458  155.5664 H   0  0  0  0  0  0  0  0  0  0  0  0  # atno 8009 bound_to 7997
  155.7997  140.0868  157.1954 H   0  0  0  0  0  0  0  0  0  0  0  0  # atno 8010 bound_to 7997
  140.4552  143.2470  151.8430 H   0  0  0  0  0  0  0  0  0  0  0  0  # atno 10167 bound_to 10162
  157.3291  130.7488  149.6835 H   0  0  0  0  0  0  0  0  0  0  0  0  # atno 10718 bound_to 10713
  154.8622  135.4232  154.2329 H   0  0  0  0  0  0  0  0  0  0  0  0  # atno 10763 bound_to 10752
  153.3310  135.6988  153.6953 H   0  0  0  0  0  0  0  0  0  0  0  0  # atno 10764 bound_to 10752
  153.5970  135.3544  155.2905 H   0  0  0  0  0  0  0  0  0  0  0  0  # atno 10765 bound_to 10752
  140.7957  133.8253  155.9422 H   0  0  0  0  0  0  0  0  0  0  0  0  # atno 11005 bound_to 11000
  146.2900  139.7112  142.9168 LP  0  0  0  0  0  0  0  0  0  0  0  0  # atno 17320 bound_to 7965
  145.4210  141.0406  143.2964 LP  0  0  0  0  0  0  0  0  0  0  0  0  # atno 17321 bound_to 7965
  139.4800  144.5073  151.8980 LP  0  0  0  0  0  0  0  0  0  0  0  0  # atno 17342 bound_to 10162
  140.4159  144.2307  150.5888 LP  0  0  0  0  0  0  0  0  0  0  0  0  # atno 17343 bound_to 10162
  155.9694  130.4200  150.4404 LP  0  0  0  0  0  0  0  0  0  0  0  0  # atno 17370 bound_to 10713
  157.2433  131.0530  151.2423 LP  0  0  0  0  0  0  0  0  0  0  0  0  # atno 17371 bound_to 10713
  140.9345  134.1980  157.4841 LP  0  0  0  0  0  0  0  0  0  0  0  0  # atno 17394 bound_to 11000
  139.8726  134.9846  156.5248 LP  0  0  0  0  0  0  0  0  0  0  0  0  # atno 17395 bound_to 11000

$$$$
