AV-unprocessed.smi:793|AV-procd|sdf|3754|dock2
  -GOLD-   22720 1183D 1   1.00000     0.00000
 Structure written by MMmdl.
 38 39  0  0  0  0  0  0  0  0  2 V2000
  152.3505  138.0227  153.9886 C   0  0  0  0  0  0  0  0  0  0  0  0
  152.5382  139.2450  154.8959 C   0  0  0  0  0  0  0  0  0  0  0  0
  151.2055  139.7864  155.4474 C   0  0  2  0  0  0  0  0  0  0  0  0
  150.4700  140.3338  154.3512 O   0  0  0  0  0  0  0  0  0  0  0  0
  149.0466  140.2684  154.4245 C   0  0  0  0  0  0  0  0  0  0  0  0
  148.4403  139.1229  153.6083 C   0  0  0  0  0  0  0  0  0  0  0  0
  147.0081  139.5726  153.2997 C   0  0  0  0  0  0  0  0  0  0  0  0
  147.0002  141.1045  153.4254 C   0  0  0  0  0  0  0  0  0  0  0  0
  148.4332  141.5121  153.7843 C   0  0  0  0  0  0  0  0  0  0  0  0
  151.4317  140.8552  156.5303 C   0  0  0  0  0  0  0  0  0  0  0  0
  150.9767  141.9892  156.3787 O   0  0  0  0  0  0  0  0  0  0  0  0
  152.1127  140.4418  157.6141 N   0  0  0  0  0  0  0  0  0  0  0  0
  152.4367  141.1662  158.7934 C   0  0  0  0  0  0  0  0  0  0  0  0
  151.6471  142.2279  159.3009 C   0  0  0  0  0  0  0  0  0  0  0  0
  151.9647  142.9298  160.4103 N   0  0  0  0  0  0  0  0  0  0  0  0
  153.0993  142.6004  161.0625 C   0  0  0  0  0  0  0  0  0  0  0  0
  153.9661  141.5746  160.6387 C   0  0  0  0  0  0  0  0  0  0  0  0
  153.6319  140.8471  159.4802 C   0  0  0  0  0  0  0  0  0  0  0  0
  154.4604  139.8485  159.0466 O   0  5  0  0  0  0  0  0  0  0  0  0
  153.3110  137.6613  153.6210 H   0  0  0  0  0  0  0  0  0  0  0  0
  151.7325  138.2641  153.1233 H   0  0  0  0  0  0  0  0  0  0  0  0
  151.8703  137.2042  154.5254 H   0  0  0  0  0  0  0  0  0  0  0  0
  153.1938  138.9668  155.7223 H   0  0  0  0  0  0  0  0  0  0  0  0
  153.0581  140.0277  154.3417 H   0  0  0  0  0  0  0  0  0  0  0  0
  150.6573  138.9495  155.8829 H   0  0  0  0  0  0  0  0  0  0  0  0
  148.6997  140.2107  155.4571 H   0  0  0  0  0  0  0  0  0  0  0  0
  148.9932  139.0053  152.6753 H   0  0  0  0  0  0  0  0  0  0  0  0
  148.4699  138.1689  154.1355 H   0  0  0  0  0  0  0  0  0  0  0  0
  146.6937  139.2425  152.3091 H   0  0  0  0  0  0  0  0  0  0  0  0
  146.3153  139.1401  154.0227 H   0  0  0  0  0  0  0  0  0  0  0  0
  146.6662  141.5886  152.5072 H   0  0  0  0  0  0  0  0  0  0  0  0
  146.3157  141.4041  154.2199 H   0  0  0  0  0  0  0  0  0  0  0  0
  148.4716  142.3828  154.4394 H   0  0  0  0  0  0  0  0  0  0  0  0
  148.9771  141.7610  152.8721 H   0  0  0  0  0  0  0  0  0  0  0  0
  152.3437  139.4590  157.6445 H   0  0  0  0  0  0  0  0  0  0  0  0
  150.7454  142.5525  158.8055 H   0  0  0  0  0  0  0  0  0  0  0  0
  153.3272  143.1765  161.9471 H   0  0  0  0  0  0  0  0  0  0  0  0
  154.8673  141.3538  161.1921 H   0  0  0  0  0  0  0  0  0  0  0  0
  1  2  1  0  0  0  0
  1 20  1  0  0  0  0
  1 21  1  0  0  0  0
  1 22  1  0  0  0  0
  2  3  1  0  0  0  0
  2 23  1  0  0  0  0
  2 24  1  0  0  0  0
  3  4  1  0  0  0  0
  3 10  1  0  0  0  0
  3 25  1  0  0  0  0
  4  5  1  0  0  0  0
  5  9  1  0  0  0  0
  5  6  1  0  0  0  0
  5 26  1  0  0  0  0
  6  7  1  0  0  0  0
  6 27  1  0  0  0  0
  6 28  1  0  0  0  0
  7  8  1  0  0  0  0
  7 29  1  0  0  0  0
  7 30  1  0  0  0  0
  8  9  1  0  0  0  0
  8 31  1  0  0  0  0
  8 32  1  0  0  0  0
  9 33  1  0  0  0  0
  9 34  1  0  0  0  0
 10 11  2  0  0  0  0
 10 12  1  0  0  0  0
 12 35  1  0  0  0  0
 12 13  1  0  0  0  0
 13 18  1  0  0  0  0
 13 14  2  0  0  0  0
 14 36  1  0  0  0  0
 14 15  1  0  0  0  0
 15 16  2  0  0  0  0
 16 37  1  0  0  0  0
 16 17  1  0  0  0  0
 17 18  2  0  0  0  0
 17 38  1  0  0  0  0
 18 19  1  0  0  0  0
M  CHG  1  19  -1
M  END
> <s_m_source_file>
AV-unprocessed.smi

> <i_m_source_file_index>
793

> <i_lp_mmshare_version>
43012

> <i_f3d_flags>
0

> <s_epik_input>
W0NIMl0xW0NIMl1bQ0gyXVtDSDJdW0NIXTFPW0NAQEhdKFtDSDJdW0NIM10pQyg9TylbTkhdYzJbY0hdbltjSF1bY0hdYzJbT0hd

> <s_epik_cmdline>
J2VwaWtfcHl0aG9uJywgJy1waCcsICc3LjAnLCAnLXRuJywgJzgnLCAnLW1hJywgJzIwMCcsICctbWV0YWxfYmluZGluZycsICctaW1hZScsICc8aW5maWxlLm1hZT4nLCAnLW9tYWUnLCAnPG91dGZpbGUubWFlPic=

> <r_lp_tautomer_probability>
1

> <r_epik_Ionization_Penalty>
5.91611

> <r_epik_Ionization_Penalty_Charging>
1.01889

> <r_epik_Ionization_Penalty_Neutral>
4.89722

> <r_epik_State_Penalty>
4.89706

> <r_epik_Charging_Adjusted_Penalty>
5.91595

> <i_epik_Tot_Q>
-1

> <i_epik_Tot_abs_Q>
1

> <r_epik_Metal_State_Penalty>
1.05012

> <b_epik_Metal_Only>
1

> <s_lp_Force_Field>
OPLS_2005

> <r_lp_Energy>
28.2146

> <b_lp_Chiralities_Consistent>
1

> <s_lp_Variant>
AV-unprocessed.smi:793-3

> <Gold.Version>
5.8.1

> <Gold.Id.Protein>
6NUR|6NUR_protein|mol2

> <Gold.PLP.Fitness>
46.1322

> <Gold.PLP.PLP>
-39.3040

> <Gold.PLP.part.hbond>
-2.0000

> <Gold.PLP.part.metal>
0.0000

> <Gold.PLP.part.buried>
-3.9574

> <Gold.PLP.part.nonpolar>
-33.2763

> <Gold.PLP.part.repulsive>
0.3179

> <Gold.PLP.ligand.clash>
0.0000

> <Gold.PLP.ligand.torsion>
1.1171

> <Gold.PLP.Chemscore.Hbond>
2.9920

> <Gold.PLP.Chemscore.CHOScore>
0.0000

> <Gold.PLP.Chemscore.Metal>
0.0000

> <Gold.Chemscore.Hbonds>
donor molecule, donor type, donor heavy atom, donor atom, acceptor molecule, acceptor atom, score
      P1  H  7989  7998       L1     4  1.00
      P1  H  7997  8009       L1    19  2.00

> <Gold.PLP.Chemscore.Internal.Correction>
0.0864

> <Gold.Rescore>
     Score         DG    S(hbond)    S(metal)    S(lipo)     H(rot)  DE(clash)    DE(int)     intcor
     16.92     -19.71       1.65        0.00     107.16       1.49       0.66       2.13       ----

> <Gold.Chemscore.Fitness>
16.9168

> <Gold.Chemscore.DG>
-19.7106

> <Gold.Chemscore.ZeroCoef>
-5.4800

> <Gold.Chemscore.Hbond>
1.6514

> <Gold.Chemscore.Metal>
0.0000

> <Gold.Chemscore.Lipo>
107.1576

> <Gold.Chemscore.Internal_Hbond>
0.0000

> <Gold.Chemscore.DEClash>
0.6647

> <Gold.Chemscore.DEInternal>
2.1291

> <Gold.Chemscore.Rot>
1.4932

> <Gold.Chemscore.Internal.Correction>
   9.000000E+99

> <Gold.Chemscore.Hbonds>
donor molecule, donor type, donor heavy atom, donor atom, acceptor molecule, acceptor atom, score
      P1  H  7989  7998       L1     4  0.27
      P1  H  7997  8009       L1    19  0.91

> <Gold.Chemscore.Hbond.Weighted>
-5.5158

> <Gold.Chemscore.Metal.Weighted>
-0.0000

> <Gold.Chemscore.Lipo.Weighted>
-12.5374

> <Gold.Chemscore.Internal_Hbond.Weighted>
0.0000

> <Gold.Chemscore.DEClash.Weighted>
0.6647

> <Gold.Chemscore.DEInternal.Weighted>
2.1291

> <Gold.Chemscore.Rot.Weighted>
3.8226

> <Gold.Chemscore.Internal.Correction.Weighted>
   9.000000E+99

> <Gold.Protein.RotatedTorsions>
[ 6907 6896 6895 6894 ] final   73.18 input  -60.11 | X-H torsion
[ 7974 7965 7964 7962 ] final   79.89 input  175.53 | X-H torsion
[ 8008 7997 7996 7995 ] final  119.58 input   59.86 | X-H torsion
[ 10167 10162 10161 10158 ] final  125.84 input  -65.29 | X-H torsion
[ 10718 10713 10712 10709 ] final  -99.93 input   66.30 | X-H torsion
[ 10763 10752 10751 10750 ] final   22.96 input  -60.55 | X-H torsion
[ 11005 11000 10999 10996 ] final   57.17 input  -57.11 | X-H torsion

> <Gold.Protein.ActiveResidues>
 VAL166  LYS551  ARG553  GLY616  TRP617  ASP618  TYR619  PRO620  LYS621  CYS622 
 ASP623  PHE694  ASN695  SER759  ASP760  ASP761  ALA762  ILE779  LEU786  VAL792 
 PHE793  MET794  SER795  GLU796  ALA797  LYS798  CYS799  TRP800  GLU811  SER814 

> <Gold.Protein.RotatedAtoms>
  152.4909  134.4460  159.9558 H   0  0  0  0  0  0  0  0  0  0  0  0  # atno 6907 bound_to 6896
  151.4447  133.3627  159.2794 H   0  0  0  0  0  0  0  0  0  0  0  0  # atno 6908 bound_to 6896
  150.9063  134.8502  159.7455 H   0  0  0  0  0  0  0  0  0  0  0  0  # atno 6909 bound_to 6896
  145.6583  139.2465  143.1937 H   0  0  0  0  0  0  0  0  0  0  0  0  # atno 7974 bound_to 7965
  156.2602  140.2850  156.1014 H   0  0  0  0  0  0  0  0  0  0  0  0  # atno 8008 bound_to 7997
  155.1356  140.0394  157.2803 H   0  0  0  0  0  0  0  0  0  0  0  0  # atno 8009 bound_to 7997
  154.6567  140.2557  155.7160 H   0  0  0  0  0  0  0  0  0  0  0  0  # atno 8010 bound_to 7997
  139.5663  144.6913  151.3901 H   0  0  0  0  0  0  0  0  0  0  0  0  # atno 10167 bound_to 10162
  156.0148  130.5304  150.6742 H   0  0  0  0  0  0  0  0  0  0  0  0  # atno 10718 bound_to 10713
  153.0875  135.6637  153.9920 H   0  0  0  0  0  0  0  0  0  0  0  0  # atno 10763 bound_to 10752
  153.9525  135.2982  155.3439 H   0  0  0  0  0  0  0  0  0  0  0  0  # atno 10764 bound_to 10752
  154.7285  135.5133  153.8998 H   0  0  0  0  0  0  0  0  0  0  0  0  # atno 10765 bound_to 10752
  140.0473  134.5787  155.9306 H   0  0  0  0  0  0  0  0  0  0  0  0  # atno 11005 bound_to 11000
  146.1147  140.7385  142.9486 LP  0  0  0  0  0  0  0  0  0  0  0  0  # atno 17320 bound_to 7965
  144.7098  140.3995  143.7089 LP  0  0  0  0  0  0  0  0  0  0  0  0  # atno 17321 bound_to 7965
  140.6947  143.7778  150.7308 LP  0  0  0  0  0  0  0  0  0  0  0  0  # atno 17342 bound_to 10162
  140.1271  143.4559  152.2277 LP  0  0  0  0  0  0  0  0  0  0  0  0  # atno 17343 bound_to 10162
  157.4458  131.0867  151.0897 LP  0  0  0  0  0  0  0  0  0  0  0  0  # atno 17370 bound_to 10713
  157.1427  130.6150  149.5560 LP  0  0  0  0  0  0  0  0  0  0  0  0  # atno 17371 bound_to 10713
  141.1913  133.6571  156.5451 LP  0  0  0  0  0  0  0  0  0  0  0  0  # atno 17394 bound_to 11000
  140.3973  134.7388  157.4758 LP  0  0  0  0  0  0  0  0  0  0  0  0  # atno 17395 bound_to 11000

$$$$
