AV-unprocessed.smi:563|AV-procd|sdf|2946|dock3
  -GOLD-   2262023443D 1   1.00000     0.00000
 Structure written by MMmdl.
 31 32  0  0  0  0  0  0  0  0  1 V2000
  152.1804  144.1647  161.2547 C   0  0  0  0  0  0  0  0  0  0  0  0
  151.8082  143.6490  159.9070 C   0  0  0  0  0  0  0  0  0  0  0  0
  151.4474  142.3844  159.6738 N   0  0  0  0  0  0  0  0  0  0  0  0
  151.1440  142.1496  158.3282 C   0  0  0  0  0  0  0  0  0  0  0  0
  150.7247  140.7798  157.8808 C   0  0  0  0  0  0  0  0  0  0  0  0
  150.4199  140.7813  156.3824 C   0  0  0  0  0  0  0  0  0  0  0  0
  151.1037  140.1046  155.6145 O   0  0  0  0  0  0  0  0  0  0  0  0
  149.3870  141.5392  155.9815 N   0  0  0  0  0  0  0  0  0  0  0  0
  148.9254  141.6700  154.6022 C   0  0  0  0  0  0  0  0  0  0  0  0
  147.6435  142.5223  154.5313 C   0  0  0  0  0  0  0  0  0  0  0  0
  146.6619  141.7399  153.6567 C   0  0  0  0  0  0  0  0  0  0  0  0
  147.0378  140.2792  153.8823 C   0  0  0  0  0  0  0  0  0  0  0  0
  148.5623  140.2995  153.9951 C   0  0  0  0  0  0  0  0  0  0  0  0
  151.2854  143.2655  157.5407 C   0  0  0  0  0  0  0  0  0  0  0  0
  151.7972  144.6524  158.4620 S   0  0  0  0  0  0  0  0  0  0  0  0
  152.4700  143.3445  161.9122 H   0  0  0  0  0  0  0  0  0  0  0  0
  151.3343  144.6894  161.6988 H   0  0  0  0  0  0  0  0  0  0  0  0
  153.0184  144.8570  161.1725 H   0  0  0  0  0  0  0  0  0  0  0  0
  151.5128  140.0538  158.0843 H   0  0  0  0  0  0  0  0  0  0  0  0
  149.8462  140.4399  158.4313 H   0  0  0  0  0  0  0  0  0  0  0  0
  148.8848  142.0645  156.6828 H   0  0  0  0  0  0  0  0  0  0  0  0
  149.7052  142.1393  153.9992 H   0  0  0  0  0  0  0  0  0  0  0  0
  147.2092  142.6487  155.5245 H   0  0  0  0  0  0  0  0  0  0  0  0
  147.8346  143.5201  154.1354 H   0  0  0  0  0  0  0  0  0  0  0  0
  145.6206  141.9492  153.9023 H   0  0  0  0  0  0  0  0  0  0  0  0
  146.8156  141.9993  152.6083 H   0  0  0  0  0  0  0  0  0  0  0  0
  146.6038  139.9287  154.8199 H   0  0  0  0  0  0  0  0  0  0  0  0
  146.6838  139.6249  153.0852 H   0  0  0  0  0  0  0  0  0  0  0  0
  148.9972  140.2241  152.9977 H   0  0  0  0  0  0  0  0  0  0  0  0
  148.9392  139.4532  154.5709 H   0  0  0  0  0  0  0  0  0  0  0  0
  151.1166  143.3550  156.4777 H   0  0  0  0  0  0  0  0  0  0  0  0
  1  2  1  0  0  0  0
  1 16  1  0  0  0  0
  1 17  1  0  0  0  0
  1 18  1  0  0  0  0
  2 15  1  0  0  0  0
  2  3  2  0  0  0  0
  3  4  1  0  0  0  0
  4  5  1  0  0  0  0
  4 14  2  0  0  0  0
  5  6  1  0  0  0  0
  5 19  1  0  0  0  0
  5 20  1  0  0  0  0
  6  7  2  0  0  0  0
  6  8  1  0  0  0  0
  8  9  1  0  0  0  0
  8 21  1  0  0  0  0
  9 13  1  0  0  0  0
  9 10  1  0  0  0  0
  9 22  1  0  0  0  0
 10 11  1  0  0  0  0
 10 23  1  0  0  0  0
 10 24  1  0  0  0  0
 11 12  1  0  0  0  0
 11 25  1  0  0  0  0
 11 26  1  0  0  0  0
 12 13  1  0  0  0  0
 12 27  1  0  0  0  0
 12 28  1  0  0  0  0
 13 29  1  0  0  0  0
 13 30  1  0  0  0  0
 14 15  1  0  0  0  0
 14 31  1  0  0  0  0
M  END
> <s_m_source_file>
AV-unprocessed.smi

> <i_m_source_file_index>
563

> <i_lp_mmshare_version>
43012

> <i_f3d_flags>
0

> <s_epik_input>
W0NIM11jMW5jKFtjSF1zMSlbQ0gyXUMoPU8pW05IXVtDSF0yW0NIMl1bQ0gyXVtDSDJdW0NIMl0y

> <s_epik_cmdline>
J2VwaWtfcHl0aG9uJywgJy1waCcsICc3LjAnLCAnLXRuJywgJzgnLCAnLW1hJywgJzIwMCcsICctbWV0YWxfYmluZGluZycsICctaW1hZScsICc8aW5maWxlLm1hZT4nLCAnLW9tYWUnLCAnPG91dGZpbGUubWFlPic=

> <r_lp_tautomer_probability>
1

> <r_epik_Ionization_Penalty>
6.26871e-05

> <r_epik_Ionization_Penalty_Charging>
0

> <r_epik_Ionization_Penalty_Neutral>
6.26871e-05

> <r_epik_State_Penalty>
-0

> <r_epik_Charging_Adjusted_Penalty>
0

> <i_epik_Tot_Q>
0

> <i_epik_Tot_abs_Q>
0

> <r_epik_Metal_State_Penalty>
-0

> <b_epik_Metal_Only>
0

> <s_lp_Force_Field>
OPLS_2005

> <r_lp_Energy>
15.9106

> <b_lp_Chiralities_Consistent>
1

> <s_lp_Variant>
AV-unprocessed.smi:563-1

> <Gold.Version>
5.8.1

> <Gold.Id.Protein>
6NUR|6NUR_protein|mol2

> <Gold.PLP.Fitness>
38.1625

> <Gold.PLP.PLP>
-33.4349

> <Gold.PLP.part.hbond>
-1.0000

> <Gold.PLP.part.metal>
0.0000

> <Gold.PLP.part.buried>
0.2211

> <Gold.PLP.part.nonpolar>
-32.6755

> <Gold.PLP.part.repulsive>
0.1190

> <Gold.PLP.ligand.clash>
0.0000

> <Gold.PLP.ligand.torsion>
0.0351

> <Gold.PLP.Chemscore.Hbond>
0.9120

> <Gold.PLP.Chemscore.CHOScore>
0.6861

> <Gold.PLP.Chemscore.Metal>
0.0000

> <Gold.Chemscore.Hbonds>
donor molecule, donor type, donor heavy atom, donor atom, acceptor molecule, acceptor atom, score
      P1  H  7989  7998       L1     7  0.31
      L1  C    14    31       P1  8028  0.38

> <Gold.PLP.Chemscore.Internal.Correction>
0.0034

> <Gold.Rescore>
     Score         DG    S(hbond)    S(metal)    S(lipo)     H(rot)  DE(clash)    DE(int)     intcor
     14.67     -16.86       0.92        0.00      99.27       1.29       1.91       0.27       ----

> <Gold.Chemscore.Fitness>
14.6724

> <Gold.Chemscore.DG>
-16.8552

> <Gold.Chemscore.ZeroCoef>
-5.4800

> <Gold.Chemscore.Hbond>
0.9205

> <Gold.Chemscore.Metal>
0.0000

> <Gold.Chemscore.Lipo>
99.2723

> <Gold.Chemscore.Internal_Hbond>
0.0000

> <Gold.Chemscore.DEClash>
1.9138

> <Gold.Chemscore.DEInternal>
0.2690

> <Gold.Chemscore.Rot>
1.2946

> <Gold.Chemscore.Internal.Correction>
   9.000000E+99

> <Gold.Chemscore.Hbonds>
donor molecule, donor type, donor heavy atom, donor atom, acceptor molecule, acceptor atom, score
      P1  H  7989  7998       L1     7  0.30

> <Gold.Chemscore.Hbond.Weighted>
-3.0745

> <Gold.Chemscore.Metal.Weighted>
-0.0000

> <Gold.Chemscore.Lipo.Weighted>
-11.6149

> <Gold.Chemscore.Internal_Hbond.Weighted>
0.0000

> <Gold.Chemscore.DEClash.Weighted>
1.9138

> <Gold.Chemscore.DEInternal.Weighted>
0.2690

> <Gold.Chemscore.Rot.Weighted>
3.3141

> <Gold.Chemscore.Internal.Correction.Weighted>
   9.000000E+99

> <Gold.Protein.RotatedTorsions>
[ 6907 6896 6895 6894 ] final -125.76 input  -60.11 | X-H torsion
[ 7974 7965 7964 7962 ] final -134.28 input  175.53 | X-H torsion
[ 8008 7997 7996 7995 ] final -141.67 input   59.86 | X-H torsion
[ 10167 10162 10161 10158 ] final   31.74 input  -65.29 | X-H torsion
[ 10718 10713 10712 10709 ] final  -21.35 input   66.30 | X-H torsion
[ 10763 10752 10751 10750 ] final   -3.15 input  -60.55 | X-H torsion
[ 11005 11000 10999 10996 ] final -131.57 input  -57.11 | X-H torsion

> <Gold.Protein.ActiveResidues>
 VAL166  LYS551  ARG553  GLY616  TRP617  ASP618  TYR619  PRO620  LYS621  CYS622 
 ASP623  PHE694  ASN695  SER759  ASP760  ASP761  ALA762  ILE779  LEU786  VAL792 
 PHE793  MET794  SER795  GLU796  ALA797  LYS798  CYS799  TRP800  GLU811  SER814 

> <Gold.Protein.RotatedAtoms>
  150.8900  133.7256  159.2907 H   0  0  0  0  0  0  0  0  0  0  0  0  # atno 6907 bound_to 6896
  151.4809  135.1050  159.9787 H   0  0  0  0  0  0  0  0  0  0  0  0  # atno 6908 bound_to 6896
  152.4814  133.8217  159.7112 H   0  0  0  0  0  0  0  0  0  0  0  0  # atno 6909 bound_to 6896
  144.9117  140.6903  143.5021 H   0  0  0  0  0  0  0  0  0  0  0  0  # atno 7974 bound_to 7965
  155.4816  140.0561  157.2966 H   0  0  0  0  0  0  0  0  0  0  0  0  # atno 8008 bound_to 7997
  154.4658  140.2018  156.0075 H   0  0  0  0  0  0  0  0  0  0  0  0  # atno 8009 bound_to 7997
  156.0971  140.3224  155.7897 H   0  0  0  0  0  0  0  0  0  0  0  0  # atno 8010 bound_to 7997
  140.4562  144.0975  150.6202 H   0  0  0  0  0  0  0  0  0  0  0  0  # atno 10167 bound_to 10162
  156.5193  130.4628  149.6605 H   0  0  0  0  0  0  0  0  0  0  0  0  # atno 10718 bound_to 10713
  153.3675  135.6993  153.6663 H   0  0  0  0  0  0  0  0  0  0  0  0  # atno 10763 bound_to 10752
  153.5327  135.3589  155.2683 H   0  0  0  0  0  0  0  0  0  0  0  0  # atno 10764 bound_to 10752
  154.8677  135.4184  154.2946 H   0  0  0  0  0  0  0  0  0  0  0  0  # atno 10765 bound_to 10752
  140.9247  134.1398  157.4285 H   0  0  0  0  0  0  0  0  0  0  0  0  # atno 11005 bound_to 11000
  145.3443  139.1723  143.4469 LP  0  0  0  0  0  0  0  0  0  0  0  0  # atno 17320 bound_to 7965
  146.3162  140.3488  142.8654 LP  0  0  0  0  0  0  0  0  0  0  0  0  # atno 17321 bound_to 7965
  140.4149  143.2639  151.9788 LP  0  0  0  0  0  0  0  0  0  0  0  0  # atno 17342 bound_to 10162
  139.4801  144.5883  151.7816 LP  0  0  0  0  0  0  0  0  0  0  0  0  # atno 17343 bound_to 10162
  156.3165  130.7257  151.2160 LP  0  0  0  0  0  0  0  0  0  0  0  0  # atno 17370 bound_to 10713
  157.7439  131.0467  150.4908 LP  0  0  0  0  0  0  0  0  0  0  0  0  # atno 17371 bound_to 10713
  139.8783  134.9984  156.5898 LP  0  0  0  0  0  0  0  0  0  0  0  0  # atno 17394 bound_to 11000
  140.7941  133.8558  155.8671 LP  0  0  0  0  0  0  0  0  0  0  0  0  # atno 17395 bound_to 11000

$$$$
