AV-unprocessed.smi:906|AV-procd|sdf|4102|dock5
  -GOLD-   22720 1593D 1   1.00000     0.00000
 Structure written by MMmdl.
 48 49  0  0  0  0  0  0  0  0  2 V2000
  143.8745  132.8539  148.8565 C   0  0  0  0  0  0  0  0  0  0  0  0
  144.8380  132.7317  150.0176 C   0  0  0  0  0  0  0  0  0  0  0  0
  144.7308  131.7070  150.9822 C   0  0  0  0  0  0  0  0  0  0  0  0
  145.6611  131.6583  152.0407 C   0  0  0  0  0  0  0  0  0  0  0  0
  146.6790  132.6348  152.1144 C   0  0  0  0  0  0  0  0  0  0  0  0
  147.6747  132.6347  153.2613 C   0  0  0  0  0  0  0  0  0  0  0  0
  147.5480  131.4103  154.1889 C   0  0  0  0  0  0  0  0  0  0  0  0
  146.9497  131.7477  155.4786 N   0  0  0  0  0  0  0  0  0  0  0  0
  147.4502  131.4322  156.6862 C   0  0  0  0  0  0  0  0  0  0  0  0
  148.5066  130.8123  156.8179 O   0  0  0  0  0  0  0  0  0  0  0  0
  146.7412  131.9185  157.7339 N   0  0  0  0  0  0  0  0  0  0  0  0
  146.9624  131.6183  159.1559 C   0  0  0  0  0  0  0  0  0  0  0  0
  147.5720  132.8589  159.8370 C   0  0  0  0  0  0  0  0  0  0  0  0
  146.6734  134.0117  159.6846 N   0  0  0  0  0  0  0  0  0  0  0  0
  147.0899  135.2286  160.4024 C   0  0  2  0  0  0  0  0  0  0  0  0
  148.5539  135.6419  160.1338 C   0  0  0  0  0  0  0  0  0  0  0  0
  146.7687  135.1462  161.9142 C   0  0  0  0  0  0  0  0  0  0  0  0
  145.4662  134.9263  162.0983 F   0  0  0  0  0  0  0  0  0  0  0  0
  147.4615  134.1861  162.5265 F   0  0  0  0  0  0  0  0  0  0  0  0
  147.0749  136.3093  162.4886 F   0  0  0  0  0  0  0  0  0  0  0  0
  146.4064  134.2816  158.2666 C   0  0  0  0  0  0  0  0  0  0  0  0
  145.8005  133.0335  157.5979 C   0  0  0  0  0  0  0  0  0  0  0  0
  146.7408  133.6312  151.1167 C   0  0  0  0  0  0  0  0  0  0  0  0
  145.8297  133.6447  150.1198 N   0  3  0  0  0  0  0  0  0  0  0  0
  143.0929  132.0955  148.9131 H   0  0  0  0  0  0  0  0  0  0  0  0
  144.4019  132.7299  147.9103 H   0  0  0  0  0  0  0  0  0  0  0  0
  143.3970  133.8342  148.8599 H   0  0  0  0  0  0  0  0  0  0  0  0
  143.9439  130.9696  150.9173 H   0  0  0  0  0  0  0  0  0  0  0  0
  145.5842  130.8867  152.7930 H   0  0  0  0  0  0  0  0  0  0  0  0
  148.6872  132.6859  152.8583 H   0  0  0  0  0  0  0  0  0  0  0  0
  147.5346  133.5475  153.8415 H   0  0  0  0  0  0  0  0  0  0  0  0
  146.9171  130.6593  153.7130 H   0  0  0  0  0  0  0  0  0  0  0  0
  148.5225  130.9394  154.3290 H   0  0  0  0  0  0  0  0  0  0  0  0
  146.0877  132.2733  155.4539 H   0  0  0  0  0  0  0  0  0  0  0  0
  146.0097  131.3634  159.6229 H   0  0  0  0  0  0  0  0  0  0  0  0
  147.6108  130.7598  159.3287 H   0  0  0  0  0  0  0  0  0  0  0  0
  147.7329  132.6353  160.8895 H   0  0  0  0  0  0  0  0  0  0  0  0
  148.5469  133.0737  159.3981 H   0  0  0  0  0  0  0  0  0  0  0  0
  146.4574  136.0309  160.0197 H   0  0  0  0  0  0  0  0  0  0  0  0
  148.7701  136.6046  160.5973 H   0  0  0  0  0  0  0  0  0  0  0  0
  148.7625  135.7491  159.0700 H   0  0  0  0  0  0  0  0  0  0  0  0
  149.2627  134.9236  160.5456 H   0  0  0  0  0  0  0  0  0  0  0  0
  145.7079  135.1138  158.1731 H   0  0  0  0  0  0  0  0  0  0  0  0
  147.3227  134.5696  157.7507 H   0  0  0  0  0  0  0  0  0  0  0  0
  145.5568  133.2515  156.5573 H   0  0  0  0  0  0  0  0  0  0  0  0
  144.8542  132.7710  158.0736 H   0  0  0  0  0  0  0  0  0  0  0  0
  147.4769  134.4216  151.0946 H   0  0  0  0  0  0  0  0  0  0  0  0
  145.8901  134.3802  149.4154 H   0  0  0  0  0  0  0  0  0  0  0  0
  1  2  1  0  0  0  0
  1 25  1  0  0  0  0
  1 26  1  0  0  0  0
  1 27  1  0  0  0  0
  2 24  1  0  0  0  0
  2  3  2  0  0  0  0
  3  4  1  0  0  0  0
  3 28  1  0  0  0  0
  4  5  2  0  0  0  0
  4 29  1  0  0  0  0
  5  6  1  0  0  0  0
  5 23  1  0  0  0  0
  6  7  1  0  0  0  0
  6 30  1  0  0  0  0
  6 31  1  0  0  0  0
  7  8  1  0  0  0  0
  7 32  1  0  0  0  0
  7 33  1  0  0  0  0
  8  9  1  0  0  0  0
  8 34  1  0  0  0  0
  9 10  2  0  0  0  0
  9 11  1  0  0  0  0
 11 22  1  0  0  0  0
 11 12  1  0  0  0  0
 12 13  1  0  0  0  0
 12 35  1  0  0  0  0
 12 36  1  0  0  0  0
 13 14  1  0  0  0  0
 13 37  1  0  0  0  0
 13 38  1  0  0  0  0
 14 15  1  0  0  0  0
 14 21  1  0  0  0  0
 15 16  1  0  0  0  0
 15 17  1  0  0  0  0
 15 39  1  0  0  0  0
 16 40  1  0  0  0  0
 16 41  1  0  0  0  0
 16 42  1  0  0  0  0
 17 18  1  0  0  0  0
 17 19  1  0  0  0  0
 17 20  1  0  0  0  0
 21 22  1  0  0  0  0
 21 43  1  0  0  0  0
 21 44  1  0  0  0  0
 22 45  1  0  0  0  0
 22 46  1  0  0  0  0
 23 24  2  0  0  0  0
 23 47  1  0  0  0  0
 24 48  1  0  0  0  0
M  CHG  1  24   1
M  END
> <s_m_source_file>
AV-unprocessed.smi

> <i_m_source_file_index>
906

> <i_lp_mmshare_version>
43012

> <i_f3d_flags>
0

> <s_epik_input>
W0NIM11jMVtjSF1bY0hdYyhbY0hdbjEpW0NIMl1bQ0gyXVtOSF1DKD1PKU4yW0NIMl1bQ0gyXU4oW0NASF0oW0NIM10pQyhGKShGKUYpW0NIMl1bQ0gyXTI=

> <s_epik_cmdline>
J2VwaWtfcHl0aG9uJywgJy1waCcsICc3LjAnLCAnLXRuJywgJzgnLCAnLW1hJywgJzIwMCcsICctbWV0YWxfYmluZGluZycsICctaW1hZScsICc8aW5maWxlLm1hZT4nLCAnLW9tYWUnLCAnPG91dGZpbGUubWFlPic=

> <r_epik_Ionization_Penalty>
1.4413

> <r_epik_Ionization_Penalty_Charging>
1.42075

> <r_epik_Ionization_Penalty_Neutral>
0.0205507

> <r_epik_State_Penalty>
1.52216

> <r_epik_Charging_Adjusted_Penalty>
2.94291

> <i_epik_Tot_Q>
1

> <i_epik_Tot_abs_Q>
1

> <r_epik_Metal_State_Penalty>
1.57308

> <b_epik_Metal_Only>
0

> <s_lp_Force_Field>
OPLS_2005

> <r_lp_Energy>
52.9553

> <b_lp_Chiralities_Consistent>
1

> <s_lp_Variant>
AV-unprocessed.smi:906-3

> <Gold.Version>
5.8.1

> <Gold.Id.Protein>
6NUR|6NUR_protein|mol2

> <Gold.PLP.Fitness>
40.1954

> <Gold.PLP.PLP>
-39.0531

> <Gold.PLP.part.hbond>
-1.0000

> <Gold.PLP.part.metal>
0.0000

> <Gold.PLP.part.buried>
-5.6876

> <Gold.PLP.part.nonpolar>
-32.1903

> <Gold.PLP.part.repulsive>
0.1085

> <Gold.PLP.ligand.clash>
0.6438

> <Gold.PLP.ligand.torsion>
0.8724

> <Gold.PLP.Chemscore.Hbond>
0.9280

> <Gold.PLP.Chemscore.CHOScore>
0.0000

> <Gold.PLP.Chemscore.Metal>
0.0000

> <Gold.Chemscore.Hbonds>
donor molecule, donor type, donor heavy atom, donor atom, acceptor molecule, acceptor atom, score
      L1  H    24    48       P1  7921  0.94

> <Gold.PLP.Chemscore.Internal.Correction>
0.7468

> <Gold.Rescore>
     Score         DG    S(hbond)    S(metal)    S(lipo)     H(rot)  DE(clash)    DE(int)     intcor
     13.10     -14.08       0.75        0.00      88.19       1.66       0.00       0.97       ----

> <Gold.Chemscore.Fitness>
13.1032

> <Gold.Chemscore.DG>
-14.0768

> <Gold.Chemscore.ZeroCoef>
-5.4800

> <Gold.Chemscore.Hbond>
0.7535

> <Gold.Chemscore.Metal>
0.0000

> <Gold.Chemscore.Lipo>
88.1861

> <Gold.Chemscore.Internal_Hbond>
0.0000

> <Gold.Chemscore.DEClash>
0.0038

> <Gold.Chemscore.DEInternal>
0.9698

> <Gold.Chemscore.Rot>
1.6553

> <Gold.Chemscore.Internal.Correction>
   9.000000E+99

> <Gold.Chemscore.Hbonds>
donor molecule, donor type, donor heavy atom, donor atom, acceptor molecule, acceptor atom, score
      L1  H    24    48       P1  7921  0.50

> <Gold.Chemscore.Hbond.Weighted>
-2.5166

> <Gold.Chemscore.Metal.Weighted>
-0.0000

> <Gold.Chemscore.Lipo.Weighted>
-10.3178

> <Gold.Chemscore.Internal_Hbond.Weighted>
0.0000

> <Gold.Chemscore.DEClash.Weighted>
0.0038

> <Gold.Chemscore.DEInternal.Weighted>
0.9698

> <Gold.Chemscore.Rot.Weighted>
4.2376

> <Gold.Chemscore.Internal.Correction.Weighted>
   9.000000E+99

> <Gold.Protein.RotatedTorsions>
[ 6907 6896 6895 6894 ] final   88.81 input  -60.11 | X-H torsion
[ 7974 7965 7964 7962 ] final -164.25 input  175.53 | X-H torsion
[ 8008 7997 7996 7995 ] final   49.56 input   59.86 | X-H torsion
[ 10167 10162 10161 10158 ] final  -87.16 input  -65.29 | X-H torsion
[ 10718 10713 10712 10709 ] final -141.88 input   66.30 | X-H torsion
[ 10763 10752 10751 10750 ] final   86.30 input  -60.55 | X-H torsion
[ 11005 11000 10999 10996 ] final  -63.19 input  -57.11 | X-H torsion

> <Gold.Protein.ActiveResidues>
 VAL166  LYS551  ARG553  GLY616  TRP617  ASP618  TYR619  PRO620  LYS621  CYS622 
 ASP623  PHE694  ASN695  SER759  ASP760  ASP761  ALA762  ILE779  LEU786  VAL792 
 PHE793  MET794  SER795  GLU796  ALA797  LYS798  CYS799  TRP800  GLU811  SER814 

> <Gold.Protein.RotatedAtoms>
  152.5429  134.2064  159.8732 H   0  0  0  0  0  0  0  0  0  0  0  0  # atno 6907 bound_to 6896
  151.2049  133.4582  159.2604 H   0  0  0  0  0  0  0  0  0  0  0  0  # atno 6908 bound_to 6896
  151.0953  134.9953  159.8478 H   0  0  0  0  0  0  0  0  0  0  0  0  # atno 6909 bound_to 6896
  144.7302  140.2988  143.6208 H   0  0  0  0  0  0  0  0  0  0  0  0  # atno 7974 bound_to 7965
  155.4042  140.3439  155.4259 H   0  0  0  0  0  0  0  0  0  0  0  0  # atno 8008 bound_to 7997
  156.1486  140.1564  156.8838 H   0  0  0  0  0  0  0  0  0  0  0  0  # atno 8009 bound_to 7997
  154.5032  140.0809  156.7822 H   0  0  0  0  0  0  0  0  0  0  0  0  # atno 8010 bound_to 7997
  140.3871  143.2721  151.9311 H   0  0  0  0  0  0  0  0  0  0  0  0  # atno 10167 bound_to 10162
  156.3393  130.7629  151.1762 H   0  0  0  0  0  0  0  0  0  0  0  0  # atno 10718 bound_to 10713
  153.1557  135.4585  154.9700 H   0  0  0  0  0  0  0  0  0  0  0  0  # atno 10763 bound_to 10752
  154.7859  135.3204  154.7889 H   0  0  0  0  0  0  0  0  0  0  0  0  # atno 10764 bound_to 10752
  153.8387  135.6932  153.4860 H   0  0  0  0  0  0  0  0  0  0  0  0  # atno 10765 bound_to 10752
  141.1385  133.6649  156.5643 H   0  0  0  0  0  0  0  0  0  0  0  0  # atno 11005 bound_to 11000
  145.7781  139.1881  143.2173 LP  0  0  0  0  0  0  0  0  0  0  0  0  # atno 17320 bound_to 7965
  146.0856  140.7714  142.9620 LP  0  0  0  0  0  0  0  0  0  0  0  0  # atno 17321 bound_to 7965
  139.4791  144.5763  151.8006 LP  0  0  0  0  0  0  0  0  0  0  0  0  # atno 17342 bound_to 10162
  140.4878  144.1355  150.5944 LP  0  0  0  0  0  0  0  0  0  0  0  0  # atno 17343 bound_to 10162
  157.7444  131.0459  150.4866 LP  0  0  0  0  0  0  0  0  0  0  0  0  # atno 17370 bound_to 10713
  156.5044  130.4124  149.6335 LP  0  0  0  0  0  0  0  0  0  0  0  0  # atno 17371 bound_to 10713
  140.3963  134.7395  157.4753 LP  0  0  0  0  0  0  0  0  0  0  0  0  # atno 17394 bound_to 11000
  140.0528  134.6106  155.8840 LP  0  0  0  0  0  0  0  0  0  0  0  0  # atno 17395 bound_to 11000

$$$$
