AV-unprocessed.smi:303|AV-procd|sdf|2275|dock7
  -GOLD-   2262022173D 1   1.00000     0.00000
 Structure written by MMmdl.
 46 47  0  0  0  0  0  0  0  0  2 V2000
  150.3442  131.7988  155.4765 C   0  0  0  0  0  0  0  0  0  0  0  0
  150.6798  132.7851  156.6014 C   0  0  0  0  0  0  0  0  0  0  0  0
  149.3082  133.9886  156.9006 S   0  0  0  0  0  0  0  0  0  0  0  0
  148.0360  133.2508  156.8733 O   0  0  0  0  0  0  0  0  0  0  0  0
  149.6475  134.8159  158.0692 O   0  0  0  0  0  0  0  0  0  0  0  0
  149.3372  135.0242  155.5005 N   0  0  0  0  0  0  0  0  0  0  0  0
  148.3384  136.1010  155.3628 C   0  0  0  0  0  0  0  0  0  0  0  0
  148.9447  137.4734  155.7019 C   0  0  0  0  0  0  0  0  0  0  0  0
  150.1959  137.7587  154.8522 C   0  0  0  0  0  0  0  0  0  0  0  0
  150.8032  139.1203  155.2148 C   0  0  0  0  0  0  0  0  0  0  0  0
  151.0006  139.9657  154.3410 O   0  0  0  0  0  0  0  0  0  0  0  0
  151.1053  139.3184  156.5074 N   0  0  0  0  0  0  0  0  0  0  0  0
  151.7139  140.5295  157.0456 C   0  0  0  0  0  0  0  0  0  0  0  0
  150.6896  141.6715  157.1599 C   0  0  0  0  0  0  0  0  0  0  0  0
  151.1867  142.8082  158.0314 C   0  0  0  0  0  0  0  0  0  0  0  0
  152.2204  142.6311  158.9766 C   0  0  0  0  0  0  0  0  0  0  0  0
  152.6365  143.7304  159.7567 C   0  0  0  0  0  0  0  0  0  0  0  0
  152.0124  144.9818  159.5741 C   0  0  0  0  0  0  0  0  0  0  0  0
  150.9870  145.1029  158.6140 C   0  0  0  0  0  0  0  0  0  0  0  0
  150.6162  144.0262  157.8863 N   0  3  0  0  0  0  0  0  0  0  0  0
  151.2131  136.6211  155.0584 C   0  0  0  0  0  0  0  0  0  0  0  0
  150.5932  135.2456  154.7533 C   0  0  0  0  0  0  0  0  0  0  0  0
  151.1527  131.0811  155.3377 H   0  0  0  0  0  0  0  0  0  0  0  0
  150.1970  132.3182  154.5293 H   0  0  0  0  0  0  0  0  0  0  0  0
  149.4353  131.2391  155.6949 H   0  0  0  0  0  0  0  0  0  0  0  0
  150.9185  132.2689  157.5277 H   0  0  0  0  0  0  0  0  0  0  0  0
  151.5626  133.3596  156.3213 H   0  0  0  0  0  0  0  0  0  0  0  0
  147.9722  136.1045  154.3356 H   0  0  0  0  0  0  0  0  0  0  0  0
  147.4753  135.8998  155.9969 H   0  0  0  0  0  0  0  0  0  0  0  0
  148.1950  138.2481  155.5352 H   0  0  0  0  0  0  0  0  0  0  0  0
  149.1920  137.5138  156.7628 H   0  0  0  0  0  0  0  0  0  0  0  0
  149.9035  137.7739  153.8006 H   0  0  0  0  0  0  0  0  0  0  0  0
  150.9072  138.5744  157.1612 H   0  0  0  0  0  0  0  0  0  0  0  0
  152.1636  140.3197  158.0179 H   0  0  0  0  0  0  0  0  0  0  0  0
  152.5289  140.8221  156.3832 H   0  0  0  0  0  0  0  0  0  0  0  0
  150.4536  142.0625  156.1690 H   0  0  0  0  0  0  0  0  0  0  0  0
  149.7513  141.2986  157.5729 H   0  0  0  0  0  0  0  0  0  0  0  0
  152.6896  141.6661  159.1040 H   0  0  0  0  0  0  0  0  0  0  0  0
  153.4248  143.6146  160.4865 H   0  0  0  0  0  0  0  0  0  0  0  0
  152.3157  145.8358  160.1624 H   0  0  0  0  0  0  0  0  0  0  0  0
  150.4556  146.0206  158.4084 H   0  0  0  0  0  0  0  0  0  0  0  0
  152.0758  136.7744  154.4087 H   0  0  0  0  0  0  0  0  0  0  0  0
  151.6029  136.6333  156.0754 H   0  0  0  0  0  0  0  0  0  0  0  0
  151.3098  134.4530  154.9655 H   0  0  0  0  0  0  0  0  0  0  0  0
  150.3711  135.1782  153.6877 H   0  0  0  0  0  0  0  0  0  0  0  0
  149.8712  144.1369  157.1982 H   0  0  0  0  0  0  0  0  0  0  0  0
  1  2  1  0  0  0  0
  1 23  1  0  0  0  0
  1 24  1  0  0  0  0
  1 25  1  0  0  0  0
  2  3  1  0  0  0  0
  2 26  1  0  0  0  0
  2 27  1  0  0  0  0
  3  4  2  0  0  0  0
  3  5  2  0  0  0  0
  3  6  1  0  0  0  0
  6 22  1  0  0  0  0
  6  7  1  0  0  0  0
  7  8  1  0  0  0  0
  7 28  1  0  0  0  0
  7 29  1  0  0  0  0
  8  9  1  0  0  0  0
  8 30  1  0  0  0  0
  8 31  1  0  0  0  0
  9 10  1  0  0  0  0
  9 21  1  0  0  0  0
  9 32  1  0  0  0  0
 10 11  2  0  0  0  0
 10 12  1  0  0  0  0
 12 13  1  0  0  0  0
 12 33  1  0  0  0  0
 13 14  1  0  0  0  0
 13 34  1  0  0  0  0
 13 35  1  0  0  0  0
 14 15  1  0  0  0  0
 14 36  1  0  0  0  0
 14 37  1  0  0  0  0
 15 20  1  0  0  0  0
 15 16  2  0  0  0  0
 16 17  1  0  0  0  0
 16 38  1  0  0  0  0
 17 18  2  0  0  0  0
 17 39  1  0  0  0  0
 18 19  1  0  0  0  0
 18 40  1  0  0  0  0
 19 20  2  0  0  0  0
 19 41  1  0  0  0  0
 20 46  1  0  0  0  0
 21 22  1  0  0  0  0
 21 42  1  0  0  0  0
 21 43  1  0  0  0  0
 22 44  1  0  0  0  0
 22 45  1  0  0  0  0
M  CHG  1  20   1
M  END
> <s_m_source_file>
AV-unprocessed.smi

> <i_m_source_file_index>
303

> <i_lp_mmshare_version>
43012

> <i_f3d_flags>
0

> <s_epik_input>
W0NIM11bQ0gyXVMoPU8pKD1PKU4xW0NIMl1bQ0gyXVtDSF0oW0NIMl1bQ0gyXTEpQyg9TylbTkhdW0NIMl1bQ0gyXWMyW2NIXVtjSF1bY0hdW2NIXW4y

> <s_epik_cmdline>
J2VwaWtfcHl0aG9uJywgJy1waCcsICc3LjAnLCAnLXRuJywgJzgnLCAnLW1hJywgJzIwMCcsICctbWV0YWxfYmluZGluZycsICctaW1hZScsICc8aW5maWxlLm1hZT4nLCAnLW9tYWUnLCAnPG91dGZpbGUubWFlPic=

> <r_epik_Ionization_Penalty>
1.82741

> <r_epik_Ionization_Penalty_Charging>
1.82741

> <r_epik_Ionization_Penalty_Neutral>
1.89562e-08

> <r_epik_State_Penalty>
1.94311

> <r_epik_Charging_Adjusted_Penalty>
3.77052

> <i_epik_Tot_Q>
1

> <i_epik_Tot_abs_Q>
1

> <r_epik_Metal_State_Penalty>
1.96983

> <b_epik_Metal_Only>
0

> <s_lp_Force_Field>
OPLS_2005

> <r_lp_Energy>
6.79825

> <b_lp_Chiralities_Consistent>
1

> <s_lp_Variant>
AV-unprocessed.smi:303-2

> <Gold.Version>
5.8.1

> <Gold.Id.Protein>
6NUR|6NUR_protein|mol2

> <Gold.PLP.Fitness>
46.9811

> <Gold.PLP.PLP>
-37.9969

> <Gold.PLP.part.hbond>
-2.9437

> <Gold.PLP.part.metal>
0.0000

> <Gold.PLP.part.buried>
-5.2660

> <Gold.PLP.part.nonpolar>
-31.3328

> <Gold.PLP.part.repulsive>
0.2159

> <Gold.PLP.ligand.clash>
0.0000

> <Gold.PLP.ligand.torsion>
1.9250

> <Gold.PLP.Chemscore.Hbond>
3.5513

> <Gold.PLP.Chemscore.CHOScore>
0.0000

> <Gold.PLP.Chemscore.Metal>
0.0000

> <Gold.Chemscore.Hbonds>
donor molecule, donor type, donor heavy atom, donor atom, acceptor molecule, acceptor atom, score
      L1  H    20    46       P1  8028  2.00
      P1  H  6896  6908       L1     5  0.58
      P1  H  7989  7998       L1    11  0.63

> <Gold.PLP.Chemscore.Internal.Correction>
2.1806

> <Gold.Rescore>
     Score         DG    S(hbond)    S(metal)    S(lipo)     H(rot)  DE(clash)    DE(int)     intcor
     19.97     -22.11       2.72        0.00     102.94       1.76       0.14       2.00       ----

> <Gold.Chemscore.Fitness>
19.9663

> <Gold.Chemscore.DG>
-22.1114

> <Gold.Chemscore.ZeroCoef>
-5.4800

> <Gold.Chemscore.Hbond>
2.7223

> <Gold.Chemscore.Metal>
0.0000

> <Gold.Chemscore.Lipo>
102.9356

> <Gold.Chemscore.Internal_Hbond>
0.0000

> <Gold.Chemscore.DEClash>
0.1418

> <Gold.Chemscore.DEInternal>
2.0034

> <Gold.Chemscore.Rot>
1.7596

> <Gold.Chemscore.Internal.Correction>
   9.000000E+99

> <Gold.Chemscore.Hbonds>
donor molecule, donor type, donor heavy atom, donor atom, acceptor molecule, acceptor atom, score
      L1  H    20    46       P1  8028  0.65
      P1  H  6896  6908       L1     5  0.40
      P1  H  7989  7998       L1    11  0.65

> <Gold.Chemscore.Hbond.Weighted>
-9.0924

> <Gold.Chemscore.Metal.Weighted>
-0.0000

> <Gold.Chemscore.Lipo.Weighted>
-12.0435

> <Gold.Chemscore.Internal_Hbond.Weighted>
0.0000

> <Gold.Chemscore.DEClash.Weighted>
0.1418

> <Gold.Chemscore.DEInternal.Weighted>
2.0034

> <Gold.Chemscore.Rot.Weighted>
4.5045

> <Gold.Chemscore.Internal.Correction.Weighted>
   9.000000E+99

> <Gold.Protein.RotatedTorsions>
[ 6907 6896 6895 6894 ] final  116.61 input  -60.11 | X-H torsion
[ 7974 7965 7964 7962 ] final -148.42 input  175.53 | X-H torsion
[ 8008 7997 7996 7995 ] final  -76.92 input   59.86 | X-H torsion
[ 10167 10162 10161 10158 ] final -157.30 input  -65.29 | X-H torsion
[ 10718 10713 10712 10709 ] final  -86.72 input   66.30 | X-H torsion
[ 10763 10752 10751 10750 ] final  -32.96 input  -60.55 | X-H torsion
[ 11005 11000 10999 10996 ] final   66.92 input  -57.11 | X-H torsion

> <Gold.Protein.ActiveResidues>
 VAL166  LYS551  ARG553  GLY616  TRP617  ASP618  TYR619  PRO620  LYS621  CYS622 
 ASP623  PHE694  ASN695  SER759  ASP760  ASP761  ALA762  ILE779  LEU786  VAL792 
 PHE793  MET794  SER795  GLU796  ALA797  LYS798  CYS799  TRP800  GLU811  SER814 

> <Gold.Protein.RotatedAtoms>
  152.4667  133.7938  159.6916 H   0  0  0  0  0  0  0  0  0  0  0  0  # atno 6907 bound_to 6896
  150.8635  133.7599  159.2991 H   0  0  0  0  0  0  0  0  0  0  0  0  # atno 6908 bound_to 6896
  151.5157  135.1069  159.9917 H   0  0  0  0  0  0  0  0  0  0  0  0  # atno 6909 bound_to 6896
  144.8030  140.5198  143.5694 H   0  0  0  0  0  0  0  0  0  0  0  0  # atno 7974 bound_to 7965
  154.5549  140.0719  156.8727 H   0  0  0  0  0  0  0  0  0  0  0  0  # atno 8008 bound_to 7997
  155.2922  140.3379  155.4233 H   0  0  0  0  0  0  0  0  0  0  0  0  # atno 8009 bound_to 7997
  156.1993  140.1715  156.7919 H   0  0  0  0  0  0  0  0  0  0  0  0  # atno 8010 bound_to 7997
  139.6782  143.9627  152.2322 H   0  0  0  0  0  0  0  0  0  0  0  0  # atno 10167 bound_to 10162
  155.9988  130.4775  150.4758 H   0  0  0  0  0  0  0  0  0  0  0  0  # atno 10718 bound_to 10713
  153.8224  135.6873  153.4825 H   0  0  0  0  0  0  0  0  0  0  0  0  # atno 10763 bound_to 10752
  153.1561  135.4598  154.9704 H   0  0  0  0  0  0  0  0  0  0  0  0  # atno 10764 bound_to 10752
  154.7922  135.3306  154.7695 H   0  0  0  0  0  0  0  0  0  0  0  0  # atno 10765 bound_to 10752
  139.9802  134.6756  156.0277 H   0  0  0  0  0  0  0  0  0  0  0  0  # atno 11005 bound_to 11000
  145.5506  139.1476  143.3396 LP  0  0  0  0  0  0  0  0  0  0  0  0  # atno 17320 bound_to 7965
  146.2316  140.5644  142.8973 LP  0  0  0  0  0  0  0  0  0  0  0  0  # atno 17321 bound_to 7965
  139.9410  144.6681  150.8266 LP  0  0  0  0  0  0  0  0  0  0  0  0  # atno 17342 bound_to 10162
  140.7643  143.3244  151.2548 LP  0  0  0  0  0  0  0  0  0  0  0  0  # atno 17343 bound_to 10162
  157.2769  131.0598  151.2223 LP  0  0  0  0  0  0  0  0  0  0  0  0  # atno 17370 bound_to 10713
  157.3284  130.6972  149.6310 LP  0  0  0  0  0  0  0  0  0  0  0  0  # atno 17371 bound_to 10713
  141.1475  133.6553  156.3911 LP  0  0  0  0  0  0  0  0  0  0  0  0  # atno 17394 bound_to 11000
  140.5112  134.6393  157.5285 LP  0  0  0  0  0  0  0  0  0  0  0  0  # atno 17395 bound_to 11000

$$$$
