AV-unprocessed.smi:795|AV-procd|sdf|3764|dock7
  -GOLD-   22720 1193D 1   1.00000     0.00000
 Structure written by MMmdl.
 49 52  0  0  0  0  0  0  0  0  1 V2000
  151.4560  143.2869  158.5909 C   0  0  0  0  0  0  0  0  0  0  0  0
  152.3450  142.5413  159.5493 C   0  0  0  0  0  0  0  0  0  0  0  0
  152.7802  141.3888  159.1592 N   0  0  0  0  0  0  0  0  0  0  0  0
  153.5993  140.6179  159.9616 N   0  0  0  0  0  0  0  0  0  0  0  0
  153.9590  139.3246  159.3644 C   0  0  0  0  0  0  0  0  0  0  0  0
  153.2226  139.0738  158.0421 C   0  0  0  0  0  0  0  0  0  0  0  0
  153.8508  138.8525  157.0065 O   0  0  0  0  0  0  0  0  0  0  0  0
  151.8832  139.1232  158.0938 N   0  0  0  0  0  0  0  0  0  0  0  0
  150.9783  138.8756  156.9730 C   0  0  2  0  0  0  0  0  0  0  0  0
  151.4354  139.6521  155.7126 C   0  0  2  0  0  0  0  0  0  0  0  0
  151.3164  141.1789  155.9373 C   0  0  0  0  0  0  0  0  0  0  0  0
  149.8486  141.5401  156.2511 C   0  0  1  0  0  0  0  0  0  0  0  0
  148.9527  141.1300  155.0623 C   0  0  0  0  0  0  0  0  0  0  0  0
  149.0717  139.6076  154.8336 C   0  0  1  0  0  0  0  0  0  0  0  0
  150.5410  139.2459  154.5199 C   0  0  0  0  0  0  0  0  0  0  0  0
  148.6117  138.8602  156.1050 C   0  0  0  0  0  0  0  0  0  0  0  0
  149.5102  139.2684  157.2938 C   0  0  2  0  0  0  0  0  0  0  0  0
  149.3906  140.7934  157.5224 C   0  0  0  0  0  0  0  0  0  0  0  0
  154.0307  140.9798  161.2045 C   0  0  0  0  0  0  0  0  0  0  0  0
  154.7631  140.2629  161.8877 O   0  0  0  0  0  0  0  0  0  0  0  0
  153.5355  142.2879  161.6396 C   0  0  0  0  0  0  0  0  0  0  0  0
  153.9613  142.7039  162.9369 C   0  0  0  0  0  0  0  0  0  0  0  0
  154.3180  143.0578  163.9798 N   0  0  0  0  0  0  0  0  0  0  0  0
  152.7251  143.0500  160.8630 C   0  0  0  0  0  0  0  0  0  0  0  0
  152.1814  144.4130  161.2692 C   0  0  0  0  0  0  0  0  0  0  0  0
  151.8863  144.2559  158.3364 H   0  0  0  0  0  0  0  0  0  0  0  0
  150.4722  143.4567  159.0286 H   0  0  0  0  0  0  0  0  0  0  0  0
  151.3104  142.7373  157.6595 H   0  0  0  0  0  0  0  0  0  0  0  0
  155.0377  139.2881  159.1983 H   0  0  0  0  0  0  0  0  0  0  0  0
  153.7455  138.4990  160.0450 H   0  0  0  0  0  0  0  0  0  0  0  0
  151.4533  139.3212  158.9856 H   0  0  0  0  0  0  0  0  0  0  0  0
  151.0222  137.8067  156.7546 H   0  0  0  0  0  0  0  0  0  0  0  0
  152.4713  139.3991  155.4829 H   0  0  0  0  0  0  0  0  0  0  0  0
  151.9672  141.5019  156.7507 H   0  0  0  0  0  0  0  0  0  0  0  0
  151.6529  141.7159  155.0495 H   0  0  0  0  0  0  0  0  0  0  0  0
  149.7663  142.6153  156.4130 H   0  0  0  0  0  0  0  0  0  0  0  0
  147.9152  141.4019  155.2604 H   0  0  0  0  0  0  0  0  0  0  0  0
  149.2470  141.6718  154.1627 H   0  0  0  0  0  0  0  0  0  0  0  0
  148.4397  139.3167  153.9939 H   0  0  0  0  0  0  0  0  0  0  0  0
  150.8689  139.7539  153.6120 H   0  0  0  0  0  0  0  0  0  0  0  0
  150.6336  138.1770  154.3240 H   0  0  0  0  0  0  0  0  0  0  0  0
  147.5686  139.0929  156.3232 H   0  0  0  0  0  0  0  0  0  0  0  0
  148.6589  137.7819  155.9481 H   0  0  0  0  0  0  0  0  0  0  0  0
  149.1678  138.7428  158.1856 H   0  0  0  0  0  0  0  0  0  0  0  0
  149.9887  141.1015  158.3807 H   0  0  0  0  0  0  0  0  0  0  0  0
  148.3596  141.0566  157.7614 H   0  0  0  0  0  0  0  0  0  0  0  0
  152.4809  144.6924  162.2787 H   0  0  0  0  0  0  0  0  0  0  0  0
  151.0912  144.4153  161.2412 H   0  0  0  0  0  0  0  0  0  0  0  0
  152.5450  145.1864  160.5919 H   0  0  0  0  0  0  0  0  0  0  0  0
  1  2  1  0  0  0  0
  1 26  1  0  0  0  0
  1 27  1  0  0  0  0
  1 28  1  0  0  0  0
  2 24  1  0  0  0  0
  2  3  2  0  0  0  0
  3  4  1  0  0  0  0
  4  5  1  0  0  0  0
  4 19  1  0  0  0  0
  5  6  1  0  0  0  0
  5 29  1  0  0  0  0
  5 30  1  0  0  0  0
  6  7  2  0  0  0  0
  6  8  1  0  0  0  0
  8  9  1  0  0  0  0
  8 31  1  0  0  0  0
  9 17  1  0  0  0  0
  9 10  1  0  0  0  0
  9 32  1  0  0  0  0
 10 15  1  0  0  0  0
 10 11  1  0  0  0  0
 10 33  1  0  0  0  0
 11 12  1  0  0  0  0
 11 34  1  0  0  0  0
 11 35  1  0  0  0  0
 12 18  1  0  0  0  0
 12 13  1  0  0  0  0
 12 36  1  0  0  0  0
 13 14  1  0  0  0  0
 13 37  1  0  0  0  0
 13 38  1  0  0  0  0
 14 15  1  0  0  0  0
 14 16  1  0  0  0  0
 14 39  1  0  0  0  0
 15 40  1  0  0  0  0
 15 41  1  0  0  0  0
 16 17  1  0  0  0  0
 16 42  1  0  0  0  0
 16 43  1  0  0  0  0
 17 18  1  0  0  0  0
 17 44  1  0  0  0  0
 18 45  1  0  0  0  0
 18 46  1  0  0  0  0
 19 20  2  0  0  0  0
 19 21  1  0  0  0  0
 21 22  1  0  0  0  0
 21 24  2  0  0  0  0
 22 23  3  0  0  0  0
 24 25  1  0  0  0  0
 25 47  1  0  0  0  0
 25 48  1  0  0  0  0
 25 49  1  0  0  0  0
M  END
> <s_m_source_file>
AV-unprocessed.smi

> <i_m_source_file_index>
795

> <i_lp_mmshare_version>
43012

> <i_f3d_flags>
0

> <s_epik_input>
TiNDYyhjMVtDSDNdKWMoPU8pbihuYzFbQ0gzXSlbQ0gyXUMoPU8pW05IXVtDQEhdKFtDQEhdMjMpW0NAQEhdNFtDSDJdW0NASF0oW0NIMl0zKVtDSDJdW0NASF0oW0NIMl0yKVtDSDJdNA==

> <s_epik_cmdline>
J2VwaWtfcHl0aG9uJywgJy1waCcsICc3LjAnLCAnLXRuJywgJzgnLCAnLW1hJywgJzIwMCcsICctbWV0YWxfYmluZGluZycsICctaW1hZScsICc8aW5maWxlLm1hZT4nLCAnLW9tYWUnLCAnPG91dGZpbGUubWFlPic=

> <r_lp_tautomer_probability>
1

> <r_epik_Ionization_Penalty>
2.02301e-08

> <r_epik_Ionization_Penalty_Charging>
2.3673e-11

> <r_epik_Ionization_Penalty_Neutral>
2.02064e-08

> <r_epik_State_Penalty>
-0

> <r_epik_Charging_Adjusted_Penalty>
2.3673e-11

> <i_epik_Tot_Q>
0

> <i_epik_Tot_abs_Q>
0

> <r_epik_Metal_State_Penalty>
-0

> <b_epik_Metal_Only>
0

> <s_lp_Force_Field>
OPLS_2005

> <r_lp_Energy>
43.8057

> <b_lp_Chiralities_Consistent>
1

> <s_lp_Variant>
AV-unprocessed.smi:795-1

> <Gold.Version>
5.8.1

> <Gold.Id.Protein>
6NUR|6NUR_protein|mol2

> <Gold.PLP.Fitness>
49.7815

> <Gold.PLP.PLP>
-47.2934

> <Gold.PLP.part.hbond>
-0.9593

> <Gold.PLP.part.metal>
0.0000

> <Gold.PLP.part.buried>
-4.9742

> <Gold.PLP.part.nonpolar>
-39.4481

> <Gold.PLP.part.repulsive>
0.1267

> <Gold.PLP.ligand.clash>
0.0000

> <Gold.PLP.ligand.torsion>
0.1739

> <Gold.PLP.Chemscore.Hbond>
0.9440

> <Gold.PLP.Chemscore.CHOScore>
0.0000

> <Gold.PLP.Chemscore.Metal>
0.0000

> <Gold.Chemscore.Hbonds>
donor molecule, donor type, donor heavy atom, donor atom, acceptor molecule, acceptor atom, score
      P1  H  7997  8010       L1     7  0.48

> <Gold.PLP.Chemscore.Internal.Correction>
0.0039

> <Gold.Rescore>
     Score         DG    S(hbond)    S(metal)    S(lipo)     H(rot)  DE(clash)    DE(int)     intcor
     15.85     -17.01       0.90        0.00     104.50       1.44       0.01       1.14       ----

> <Gold.Chemscore.Fitness>
15.8540

> <Gold.Chemscore.DG>
-17.0079

> <Gold.Chemscore.ZeroCoef>
-5.4800

> <Gold.Chemscore.Hbond>
0.8979

> <Gold.Chemscore.Metal>
0.0000

> <Gold.Chemscore.Lipo>
104.4965

> <Gold.Chemscore.Internal_Hbond>
0.0000

> <Gold.Chemscore.DEClash>
0.0139

> <Gold.Chemscore.DEInternal>
1.1400

> <Gold.Chemscore.Rot>
1.4442

> <Gold.Chemscore.Internal.Correction>
   9.000000E+99

> <Gold.Chemscore.Hbonds>
donor molecule, donor type, donor heavy atom, donor atom, acceptor molecule, acceptor atom, score
      P1  H  7997  8010       L1     7  0.14

> <Gold.Chemscore.Hbond.Weighted>
-2.9989

> <Gold.Chemscore.Metal.Weighted>
-0.0000

> <Gold.Chemscore.Lipo.Weighted>
-12.2261

> <Gold.Chemscore.Internal_Hbond.Weighted>
0.0000

> <Gold.Chemscore.DEClash.Weighted>
0.0139

> <Gold.Chemscore.DEInternal.Weighted>
1.1400

> <Gold.Chemscore.Rot.Weighted>
3.6971

> <Gold.Chemscore.Internal.Correction.Weighted>
   9.000000E+99

> <Gold.Protein.RotatedTorsions>
[ 6907 6896 6895 6894 ] final   58.17 input  -60.11 | X-H torsion
[ 7974 7965 7964 7962 ] final  130.31 input  175.53 | X-H torsion
[ 8008 7997 7996 7995 ] final   44.04 input   59.86 | X-H torsion
[ 10167 10162 10161 10158 ] final -171.52 input  -65.29 | X-H torsion
[ 10718 10713 10712 10709 ] final  105.67 input   66.30 | X-H torsion
[ 10763 10752 10751 10750 ] final   17.77 input  -60.55 | X-H torsion
[ 11005 11000 10999 10996 ] final  -42.14 input  -57.11 | X-H torsion

> <Gold.Protein.ActiveResidues>
 VAL166  LYS551  ARG553  GLY616  TRP617  ASP618  TYR619  PRO620  LYS621  CYS622 
 ASP623  PHE694  ASN695  SER759  ASP760  ASP761  ALA762  ILE779  LEU786  VAL792 
 PHE793  MET794  SER795  GLU796  ALA797  LYS798  CYS799  TRP800  GLU811  SER814 

> <Gold.Protein.RotatedAtoms>
  152.3799  134.6606  160.0146 H   0  0  0  0  0  0  0  0  0  0  0  0  # atno 6907 bound_to 6896
  151.6873  133.3306  159.3242 H   0  0  0  0  0  0  0  0  0  0  0  0  # atno 6908 bound_to 6896
  150.7739  134.6665  159.6413 H   0  0  0  0  0  0  0  0  0  0  0  0  # atno 6909 bound_to 6896
  145.0193  139.4147  143.5205 H   0  0  0  0  0  0  0  0  0  0  0  0  # atno 7974 bound_to 7965
  155.3127  140.3392  155.4243 H   0  0  0  0  0  0  0  0  0  0  0  0  # atno 8008 bound_to 7997
  156.1948  140.1711  156.8059 H   0  0  0  0  0  0  0  0  0  0  0  0  # atno 8009 bound_to 7997
  154.5485  140.0710  156.8612 H   0  0  0  0  0  0  0  0  0  0  0  0  # atno 8010 bound_to 7997
  139.5798  144.1450  152.1499 H   0  0  0  0  0  0  0  0  0  0  0  0  # atno 10167 bound_to 10162
  157.6697  131.0833  150.5891 H   0  0  0  0  0  0  0  0  0  0  0  0  # atno 10718 bound_to 10713
  153.1308  135.6740  153.9181 H   0  0  0  0  0  0  0  0  0  0  0  0  # atno 10763 bound_to 10752
  153.8667  135.3074  155.3441 H   0  0  0  0  0  0  0  0  0  0  0  0  # atno 10764 bound_to 10752
  154.7706  135.4941  153.9722 H   0  0  0  0  0  0  0  0  0  0  0  0  # atno 10765 bound_to 10752
  141.0295  133.6826  156.2554 H   0  0  0  0  0  0  0  0  0  0  0  0  # atno 11005 bound_to 11000
  146.3483  139.9682  142.8709 LP  0  0  0  0  0  0  0  0  0  0  0  0  # atno 17320 bound_to 7965
  145.1917  140.9814  143.4207 LP  0  0  0  0  0  0  0  0  0  0  0  0  # atno 17321 bound_to 7965
  140.1000  144.5547  150.6995 LP  0  0  0  0  0  0  0  0  0  0  0  0  # atno 17342 bound_to 10162
  140.7077  143.2480  151.4676 LP  0  0  0  0  0  0  0  0  0  0  0  0  # atno 17343 bound_to 10162
  156.6191  130.4401  149.5829 LP  0  0  0  0  0  0  0  0  0  0  0  0  # atno 17370 bound_to 10713
  156.2369  130.6828  151.1518 LP  0  0  0  0  0  0  0  0  0  0  0  0  # atno 17371 bound_to 10713
  140.6432  134.5144  157.5571 LP  0  0  0  0  0  0  0  0  0  0  0  0  # atno 17394 bound_to 11000
  139.9198  134.8171  156.1247 LP  0  0  0  0  0  0  0  0  0  0  0  0  # atno 17395 bound_to 11000

$$$$
