AV-unprocessed.smi:1493|AV-procd|sdf|6049|dock3
  -GOLD-   22720 6163D 1   1.00000     0.00000
 Structure written by MMmdl.
 33 33  0  0  0  0  0  0  0  0  2 V2000
  153.7127  142.3661  162.5210 C   0  0  0  0  0  0  0  0  0  0  0  0
  152.4916  142.9106  161.7720 C   0  0  0  0  0  0  0  0  0  0  0  0
  152.6954  142.9296  160.2469 C   0  0  0  0  0  0  0  0  0  0  0  0
  151.5961  143.6912  159.4812 C   0  0  1  0  0  0  0  0  0  0  0  0
  151.8451  145.2060  159.4888 C   0  0  0  0  0  0  0  0  0  0  0  0
  151.5179  143.2232  158.0986 N   0  0  0  0  0  0  0  0  0  0  0  0
  150.9235  142.0959  157.6768 C   0  0  0  0  0  0  0  0  0  0  0  0
  150.3569  141.3056  158.4335 O   0  0  0  0  0  0  0  0  0  0  0  0
  150.9966  141.8405  156.1629 C   0  0  0  0  0  0  0  0  0  0  0  0
  150.6651  140.4645  155.7658 N   0  0  0  0  0  0  0  0  0  0  0  0
  151.7634  139.7600  155.1100 N   0  5  0  0  0  0  0  0  0  0  0  0
  151.5823  138.4716  154.7159 C   0  0  0  0  0  0  0  0  0  0  0  0
  152.4646  137.8103  154.1735 O   0  0  0  0  0  0  0  0  0  0  0  0
  150.2836  137.8614  154.9468 C   0  0  0  0  0  0  0  0  0  0  0  0
  149.2808  138.5428  155.5355 C   0  0  0  0  0  0  0  0  0  0  0  0
  149.4320  139.9231  155.9801 C   0  0  0  0  0  0  0  0  0  0  0  0
  148.5184  140.5534  156.5129 O   0  0  0  0  0  0  0  0  0  0  0  0
  153.5379  142.3634  163.5970 H   0  0  0  0  0  0  0  0  0  0  0  0
  154.5965  142.9750  162.3293 H   0  0  0  0  0  0  0  0  0  0  0  0
  153.9371  141.3432  162.2177 H   0  0  0  0  0  0  0  0  0  0  0  0
  151.6223  142.3032  162.0263 H   0  0  0  0  0  0  0  0  0  0  0  0
  152.2748  143.9195  162.1250 H   0  0  0  0  0  0  0  0  0  0  0  0
  153.6596  143.3905  160.0284 H   0  0  0  0  0  0  0  0  0  0  0  0
  152.7582  141.9056  159.8760 H   0  0  0  0  0  0  0  0  0  0  0  0
  150.6497  143.5133  159.9945 H   0  0  0  0  0  0  0  0  0  0  0  0
  151.8926  145.5899  160.5081 H   0  0  0  0  0  0  0  0  0  0  0  0
  151.0438  145.7377  158.9746 H   0  0  0  0  0  0  0  0  0  0  0  0
  152.7840  145.4579  158.9943 H   0  0  0  0  0  0  0  0  0  0  0  0
  151.9590  143.8038  157.4003 H   0  0  0  0  0  0  0  0  0  0  0  0
  150.3310  142.5414  155.6560 H   0  0  0  0  0  0  0  0  0  0  0  0
  152.0012  142.0972  155.8213 H   0  0  0  0  0  0  0  0  0  0  0  0
  150.1190  136.8399  154.6374 H   0  0  0  0  0  0  0  0  0  0  0  0
  148.3320  138.0502  155.6863 H   0  0  0  0  0  0  0  0  0  0  0  0
  1  2  1  0  0  0  0
  1 18  1  0  0  0  0
  1 19  1  0  0  0  0
  1 20  1  0  0  0  0
  2  3  1  0  0  0  0
  2 21  1  0  0  0  0
  2 22  1  0  0  0  0
  3  4  1  0  0  0  0
  3 23  1  0  0  0  0
  3 24  1  0  0  0  0
  4  5  1  0  0  0  0
  4  6  1  0  0  0  0
  4 25  1  0  0  0  0
  5 26  1  0  0  0  0
  5 27  1  0  0  0  0
  5 28  1  0  0  0  0
  6  7  1  0  0  0  0
  6 29  1  0  0  0  0
  7  8  2  0  0  0  0
  7  9  1  0  0  0  0
  9 30  1  0  0  0  0
  9 31  1  0  0  0  0
  9 10  1  0  0  0  0
 10 11  1  0  0  0  0
 10 16  1  0  0  0  0
 11 12  1  0  0  0  0
 12 13  2  0  0  0  0
 12 14  1  0  0  0  0
 14 32  1  0  0  0  0
 14 15  2  0  0  0  0
 15 33  1  0  0  0  0
 15 16  1  0  0  0  0
 16 17  2  0  0  0  0
M  CHG  1  11  -1
M  END
> <s_m_source_file>
AV-unprocessed.smi

> <i_m_source_file_index>
1493

> <i_lp_mmshare_version>
43012

> <i_f3d_flags>
0

> <s_epik_input>
W0NIM11bQ0gyXVtDSDJdW0NASF0oW0NIM10pW05IXUMoPU8pW0NIMl1uMVtuSF1jKD1PKVtjSF1bY0hdYzE9Tw==

> <s_epik_cmdline>
J2VwaWtfcHl0aG9uJywgJy1waCcsICc3LjAnLCAnLXRuJywgJzgnLCAnLW1hJywgJzIwMCcsICctbWV0YWxfYmluZGluZycsICctaW1hZScsICc8aW5maWxlLm1hZT4nLCAnLW9tYWUnLCAnPG91dGZpbGUubWFlPic=

> <r_lp_tautomer_probability>
1

> <r_epik_Ionization_Penalty>
0.0986298

> <r_epik_Ionization_Penalty_Charging>
0.0986298

> <r_epik_Ionization_Penalty_Neutral>
1.93017e-08

> <r_epik_State_Penalty>
0.0347731

> <r_epik_Charging_Adjusted_Penalty>
0.133403

> <i_epik_Tot_Q>
-1

> <i_epik_Tot_abs_Q>
1

> <r_epik_Metal_State_Penalty>
0.0347731

> <b_epik_Metal_Only>
0

> <s_lp_Force_Field>
OPLS_2005

> <r_lp_Energy>
19.264

> <b_lp_Chiralities_Consistent>
1

> <s_lp_Variant>
AV-unprocessed.smi:1493-2

> <Gold.Version>
5.8.1

> <Gold.Id.Protein>
6NUR|6NUR_protein|mol2

> <Gold.PLP.Fitness>
39.4167

> <Gold.PLP.PLP>
-37.4260

> <Gold.PLP.part.hbond>
-2.0000

> <Gold.PLP.part.metal>
0.0000

> <Gold.PLP.part.buried>
-6.2106

> <Gold.PLP.part.nonpolar>
-28.3253

> <Gold.PLP.part.repulsive>
0.2563

> <Gold.PLP.ligand.clash>
0.0000

> <Gold.PLP.ligand.torsion>
0.7455

> <Gold.PLP.Chemscore.Hbond>
1.1447

> <Gold.PLP.Chemscore.CHOScore>
0.0000

> <Gold.PLP.Chemscore.Metal>
0.0000

> <Gold.Chemscore.Hbonds>
donor molecule, donor type, donor heavy atom, donor atom, acceptor molecule, acceptor atom, score
      P1  H  7989  7998       L1    11  0.65
      P1  H 10752 10764       L1    13  0.42

> <Gold.PLP.Chemscore.Internal.Correction>
0.0478

> <Gold.Rescore>
     Score         DG    S(hbond)    S(metal)    S(lipo)     H(rot)  DE(clash)    DE(int)     intcor
     10.78     -11.39       0.81        0.00      74.14       2.14       0.01       0.59       ----

> <Gold.Chemscore.Fitness>
10.7817

> <Gold.Chemscore.DG>
-11.3887

> <Gold.Chemscore.ZeroCoef>
-5.4800

> <Gold.Chemscore.Hbond>
0.8099

> <Gold.Chemscore.Metal>
0.0000

> <Gold.Chemscore.Lipo>
74.1441

> <Gold.Chemscore.Internal_Hbond>
0.0000

> <Gold.Chemscore.DEClash>
0.0135

> <Gold.Chemscore.DEInternal>
0.5935

> <Gold.Chemscore.Rot>
2.1372

> <Gold.Chemscore.Internal.Correction>
   9.000000E+99

> <Gold.Chemscore.Hbonds>
donor molecule, donor type, donor heavy atom, donor atom, acceptor molecule, acceptor atom, score
      P1  H  7989  7998       L1    11  0.03
      P1  H 10752 10764       L1    13  0.41

> <Gold.Chemscore.Hbond.Weighted>
-2.7051

> <Gold.Chemscore.Metal.Weighted>
-0.0000

> <Gold.Chemscore.Lipo.Weighted>
-8.6749

> <Gold.Chemscore.Internal_Hbond.Weighted>
0.0000

> <Gold.Chemscore.DEClash.Weighted>
0.0135

> <Gold.Chemscore.DEInternal.Weighted>
0.5935

> <Gold.Chemscore.Rot.Weighted>
5.4713

> <Gold.Chemscore.Internal.Correction.Weighted>
   9.000000E+99

> <Gold.Protein.RotatedTorsions>
[ 6907 6896 6895 6894 ] final  -48.45 input  -60.11 | X-H torsion
[ 7974 7965 7964 7962 ] final  -51.01 input  175.53 | X-H torsion
[ 8008 7997 7996 7995 ] final  -52.91 input   59.86 | X-H torsion
[ 10167 10162 10161 10158 ] final -166.54 input  -65.29 | X-H torsion
[ 10718 10713 10712 10709 ] final -106.47 input   66.30 | X-H torsion
[ 10763 10752 10751 10750 ] final  -93.94 input  -60.55 | X-H torsion
[ 11005 11000 10999 10996 ] final -131.79 input  -57.11 | X-H torsion

> <Gold.Protein.ActiveResidues>
 VAL166  LYS551  ARG553  GLY616  TRP617  ASP618  TYR619  PRO620  LYS621  CYS622 
 ASP623  PHE694  ASN695  SER759  ASP760  ASP761  ALA762  ILE779  LEU786  VAL792 
 PHE793  MET794  SER795  GLU796  ALA797  LYS798  CYS799  TRP800  GLU811  SER814 

> <Gold.Protein.RotatedAtoms>
  150.8905  134.8308  159.7289 H   0  0  0  0  0  0  0  0  0  0  0  0  # atno 6907 bound_to 6896
  152.4834  134.4656  159.9629 H   0  0  0  0  0  0  0  0  0  0  0  0  # atno 6908 bound_to 6896
  151.4719  133.3528  159.2860 H   0  0  0  0  0  0  0  0  0  0  0  0  # atno 6909 bound_to 6896
  145.9236  140.7811  142.9635 H   0  0  0  0  0  0  0  0  0  0  0  0  # atno 7974 bound_to 7965
  154.4119  140.1212  156.5069 H   0  0  0  0  0  0  0  0  0  0  0  0  # atno 8008 bound_to 7997
  155.6838  140.3496  155.4846 H   0  0  0  0  0  0  0  0  0  0  0  0  # atno 8009 bound_to 7997
  155.9528  140.1108  157.0952 H   0  0  0  0  0  0  0  0  0  0  0  0  # atno 8010 bound_to 7997
  139.6108  144.0819  152.1840 H   0  0  0  0  0  0  0  0  0  0  0  0  # atno 10167 bound_to 10162
  156.0391  130.5614  150.7685 H   0  0  0  0  0  0  0  0  0  0  0  0  # atno 10718 bound_to 10713
  154.7008  135.5176  153.8524 H   0  0  0  0  0  0  0  0  0  0  0  0  # atno 10763 bound_to 10752
  153.0702  135.6598  154.0273 H   0  0  0  0  0  0  0  0  0  0  0  0  # atno 10764 bound_to 10752
  154.0132  135.3000  155.3369 H   0  0  0  0  0  0  0  0  0  0  0  0  # atno 10765 bound_to 10752
  140.9228  134.1422  157.4300 H   0  0  0  0  0  0  0  0  0  0  0  0  # atno 11005 bound_to 11000
  144.6756  140.2015  143.7386 LP  0  0  0  0  0  0  0  0  0  0  0  0  # atno 17320 bound_to 7965
  145.8517  139.2179  143.1768 LP  0  0  0  0  0  0  0  0  0  0  0  0  # atno 17321 bound_to 7965
  140.0437  144.5987  150.7391 LP  0  0  0  0  0  0  0  0  0  0  0  0  # atno 17342 bound_to 10162
  140.7317  143.2698  151.3926 LP  0  0  0  0  0  0  0  0  0  0  0  0  # atno 17343 bound_to 10162
  157.5185  131.0930  151.0108 LP  0  0  0  0  0  0  0  0  0  0  0  0  # atno 17370 bound_to 10713
  157.0445  130.5762  149.5361 LP  0  0  0  0  0  0  0  0  0  0  0  0  # atno 17371 bound_to 10713
  139.8779  134.9977  156.5863 LP  0  0  0  0  0  0  0  0  0  0  0  0  # atno 17394 bound_to 11000
  140.7965  133.8539  155.8690 LP  0  0  0  0  0  0  0  0  0  0  0  0  # atno 17395 bound_to 11000

$$$$
