#       Name:                AV-unprocessed.smi:613
#       Creating user name   scv26
#       Creation time:       Thu Mar 26 23:59:19 2020


#       File generated by GOLD software.
#

@<TRIPOS>MOLECULE
AV-unprocessed.smi:613
    45    46     1
SMALL
NO_CHARGES


@<TRIPOS>ATOM
      1 ****        -1.4199   1.3858  -2.5944 C.3            1 S1                 0.0000
      2 ****        -0.7165   0.1504  -2.2716 N.pl3          1 S1                 0.0000
      3 ****         0.7420   0.1873  -2.1394 C.3            1 S1                 0.0000
      4 ****         1.2193   0.8880  -0.8516 C.3            1 S1                 0.0000
      5 ****         0.8863   0.1020   0.4350 C.3            1 S1                 0.0000
      6 ****         1.4502   0.7267   1.6342 N.3            1 S1                 0.0000
      7 ****         1.1560  -0.0009   2.8767 C.3            1 S1                 0.0000
      8 ****        -0.3388  -0.1545   3.1815 C.2            1 S1                 0.0000
      9 ****        -0.9663   0.9097   3.6875 N.am           1 S1                 0.0000
     10 ****        -0.9174  -1.2153   2.9550 O.2            1 S1                 0.0000
     11 ****         2.8861   0.9197   1.4558 C.3            1 S1                 0.0000
     12 ****         3.2039   1.7039   0.1724 C.3            1 S1                 0.0000
     13 ****         2.6333   1.0340  -0.9468 O.3            1 S1                 0.0000
     14 ****        -1.4599  -0.9537  -1.7906 C.ar           1 S1                 0.0000
     15 ****        -2.8716  -0.9385  -1.6722 C.ar           1 S1                 0.0000
     16 ****        -3.5226  -2.0768  -1.1674 C.ar           1 S1                 0.0000
     17 ****        -2.7261  -3.1765  -0.8084 C.ar           1 S1                 0.0000
     18 ****        -1.3817  -3.1852  -0.9327 N.ar           1 S1                 0.0000
     19 ****        -0.7916  -2.0806  -1.4202 N.pl3          1 S1                 1.0000
     20 ****        -2.1348   1.2225  -3.4013 H              1 S1                 0.0000
     21 ****        -0.7227   2.1579  -2.9213 H              1 S1                 0.0000
     22 ****        -1.9533   1.7660  -1.7227 H              1 S1                 0.0000
     23 ****         1.1828  -0.8064  -2.2180 H              1 S1                 0.0000
     24 ****         1.1297   0.7362  -2.9983 H              1 S1                 0.0000
     25 ****         0.7761   1.8840  -0.7973 H              1 S1                 0.0000
     26 ****        -0.1974   0.0364   0.5205 H              1 S1                 0.0000
     27 ****         1.2566  -0.9208   0.3449 H              1 S1                 0.0000
     28 ****         1.6062  -0.9946   2.8423 H              1 S1                 0.0000
     29 ****         1.6195   0.5105   3.7221 H              1 S1                 0.0000
     30 ****        -1.9527   0.8596   3.8980 H              1 S1                 0.0000
     31 ****        -0.4536   1.7639   3.8514 H              1 S1                 0.0000
     32 ****         3.2996   1.4537   2.3124 H              1 S1                 0.0000
     33 ****         3.3912  -0.0472   1.4196 H              1 S1                 0.0000
     34 ****         2.8164   2.7219   0.2338 H              1 S1                 0.0000
     35 ****         4.2823   1.7790   0.0309 H              1 S1                 0.0000
     36 ****        -3.4617  -0.0789  -1.9522 H              1 S1                 0.0000
     37 ****        -4.5964  -2.1056  -1.0560 H              1 S1                 0.0000
     38 ****        -3.1774  -4.0748  -0.4135 H              1 S1                 0.0000
     39 ****         0.2242  -2.0826  -1.5125 H              1 S1                 0.0000
     40 ****         1.0020   1.6142   1.7414 LP             1 S1                 0.0000
     41 ****        -0.4129  -1.9875   2.5687 LP             1 S1                 0.0000
     42 ****        -1.8926  -1.3061   3.1571 LP             1 S1                 0.0000
     43 ****         2.8440   1.5577  -1.7722 LP             1 S1                 0.0000
     44 ****         3.0429   0.1243  -1.0156 LP             1 S1                 0.0000
     45 ****        -0.8435  -3.9863  -0.6709 LP             1 S1                 0.0000
@<TRIPOS>BOND
    1    1    2 1     
    2    1   20 1     
    3    1   21 1     
    4    1   22 1     
    5    2    3 1     
    6    2   14 1     
    7    3    4 1     
    8    3   23 1     
    9    3   24 1     
   10    4   13 1     
   11    4    5 1     
   12    4   25 1     
   13    5    6 1     
   14    5   26 1     
   15    5   27 1     
   16    6    7 1     
   17    6   11 1     
   18    7    8 1     
   19    7   28 1     
   20    7   29 1     
   21    8    9 am    
   22    8   10 2     
   23    9   30 1     
   24    9   31 1     
   25   11   12 1     
   26   11   32 1     
   27   11   33 1     
   28   12   13 1     
   29   12   34 1     
   30   12   35 1     
   31   14   19 ar    
   32   14   15 ar    
   33   15   16 ar    
   34   15   36 1     
   35   16   17 ar    
   36   16   37 1     
   37   17   18 ar    
   38   17   38 1     
   39   18   19 ar    
   40   19   39 1     
   41    6   40 1     
   42   10   41 1     
   43   10   42 1     
   44   13   43 1     
   45   13   44 1     
   46   18   45 1     
@<TRIPOS>SUBSTRUCTURE
      1 S1             1
@<TRIPOS>SET
LONE_PAIRS      STATIC     ATOMS    <user>   **** ""
6 40 41 42 43 44 45
DONOR_HYDROGENS      STATIC     ATOMS    <user>   **** ""
3 30 31 39
ATOM$BLUE        STATIC     ATOMS    COLORGROUP SYSTEM
6 40 41 42 43 44 45
ATOM$RED        STATIC     ATOMS    COLORGROUP SYSTEM
3 30 31 39
