#       Name:                AV-unprocessed.smi:2821
#       Creating user name   scv26
#       Creation time:       Fri Mar 27 15:30:19 2020


#       File generated by GOLD software.
#

@<TRIPOS>MOLECULE
AV-unprocessed.smi:2821
    42    43     1
SMALL
NO_CHARGES


@<TRIPOS>ATOM
      1 ****        -3.9560   3.6492  -0.4211 C.3            1 S1                 0.0000
      2 ****        -2.9816   2.4689  -0.4069 C.3            1 S1                 0.0000
      3 ****        -3.7280   1.2576  -0.4747 O.3            1 S1                 0.0000
      4 ****        -3.0387   0.0627  -0.4582 C.ar           1 S1                 0.0000
      5 ****        -3.7510  -1.1528  -0.5401 C.ar           1 S1                 0.0000
      6 ****        -3.1254  -2.3504  -0.5298 N.ar           1 S1                 0.0000
      7 ****        -1.7774  -2.3287  -0.4361 C.ar           1 S1                 0.0000
      8 ****        -1.0506  -1.1202  -0.3527 C.ar           1 S1                 0.0000
      9 ****         0.3475  -1.1645  -0.2511 N.pl3          1 S1                 0.0000
     10 ****         1.1661   0.0447  -0.2910 C.3            1 S1                 0.0000
     11 ****         1.3121   0.5694  -1.7295 C.3            1 S1                 0.0000
     12 ****         2.5436  -0.1976   0.3575 C.3            1 S1                 0.0000
     13 ****         2.5165  -0.5489   1.8474 C.3            1 S1                 0.0000
     14 ****         3.8297  -1.2814   2.0042 C.3            1 S1                 0.0000
     15 ****         3.9036  -2.0670   0.6980 C.3            1 S1                 0.0000
     16 ****         3.2486  -1.2623  -0.2789 O.3            1 S1                 0.0000
     17 ****        -1.6852   0.0766  -0.3626 N.ar           1 S1                 0.0000
     18 ****        -3.4198   4.5971  -0.3715 H              1 S1                 0.0000
     19 ****        -4.6362   3.6053   0.4298 H              1 S1                 0.0000
     20 ****        -4.5560   3.6514  -1.3313 H              1 S1                 0.0000
     21 ****        -2.3018   2.5438  -1.2574 H              1 S1                 0.0000
     22 ****        -2.3851   2.5002   0.5064 H              1 S1                 0.0000
     23 ****        -4.8285  -1.1639  -0.6144 H              1 S1                 0.0000
     24 ****        -1.2766  -3.2860  -0.4271 H              1 S1                 0.0000
     25 ****         0.8177  -2.0583  -0.2691 H              1 S1                 0.0000
     26 ****         0.6712   0.8167   0.2994 H              1 S1                 0.0000
     27 ****         1.9039   1.4846  -1.7530 H              1 S1                 0.0000
     28 ****         0.3435   0.7986  -2.1738 H              1 S1                 0.0000
     29 ****         1.8061  -0.1618  -2.3703 H              1 S1                 0.0000
     30 ****         3.1551   0.6987   0.2400 H              1 S1                 0.0000
     31 ****         2.4365   0.3293   2.4888 H              1 S1                 0.0000
     32 ****         1.6904  -1.2201   2.0855 H              1 S1                 0.0000
     33 ****         4.6525  -0.5674   2.0614 H              1 S1                 0.0000
     34 ****         3.8656  -1.9184   2.8881 H              1 S1                 0.0000
     35 ****         4.9287  -2.2958   0.4054 H              1 S1                 0.0000
     36 ****         3.3595  -3.0078   0.7901 H              1 S1                 0.0000
     37 ****        -4.2567   1.2827  -1.3232 LP             1 S1                 0.0000
     38 ****        -4.3520   1.2502   0.3067 LP             1 S1                 0.0000
     39 ****        -3.6341  -3.2094  -0.5886 LP             1 S1                 0.0000
     40 ****         3.9295  -0.8812  -0.9043 LP             1 S1                 0.0000
     41 ****         2.6025  -1.8264  -0.7931 LP             1 S1                 0.0000
     42 ****        -1.1768   0.9355  -0.3019 LP             1 S1                 0.0000
@<TRIPOS>BOND
    1    1    2 1     
    2    1   18 1     
    3    1   19 1     
    4    1   20 1     
    5    2    3 1     
    6    2   21 1     
    7    2   22 1     
    8    3    4 1     
    9    4   17 ar    
   10    4    5 ar    
   11    5    6 ar    
   12    5   23 1     
   13    6    7 ar    
   14    7    8 ar    
   15    7   24 1     
   16    8    9 1     
   17    8   17 ar    
   18    9   10 1     
   19    9   25 1     
   20   10   11 1     
   21   10   12 1     
   22   10   26 1     
   23   11   27 1     
   24   11   28 1     
   25   11   29 1     
   26   12   16 1     
   27   12   13 1     
   28   12   30 1     
   29   13   14 1     
   30   13   31 1     
   31   13   32 1     
   32   14   15 1     
   33   14   33 1     
   34   14   34 1     
   35   15   16 1     
   36   15   35 1     
   37   15   36 1     
   38    3   37 1     
   39    3   38 1     
   40    6   39 1     
   41   16   40 1     
   42   16   41 1     
   43   17   42 1     
@<TRIPOS>SUBSTRUCTURE
      1 S1             1
@<TRIPOS>SET
LONE_PAIRS      STATIC     ATOMS    <user>   **** ""
6 37 38 39 40 41 42
DONOR_HYDROGENS      STATIC     ATOMS    <user>   **** ""
1 25
ATOM$BLUE        STATIC     ATOMS    COLORGROUP SYSTEM
6 37 38 39 40 41 42
ATOM$RED        STATIC     ATOMS    COLORGROUP SYSTEM
1 25
