AV-unprocessed.smi:53|AV-procd|sdf|513|dock7
  -GOLD-   2262016383D 1   1.00000     0.00000
 Structure written by MMmdl.
 30 31  0  0  0  0  0  0  0  0  1 V2000
  152.6194  138.1294  159.0141 N   0  0  0  0  0  0  0  0  0  0  0  0
  151.9759  138.6207  157.9455 C   0  0  0  0  0  0  0  0  0  0  0  0
  150.5410  138.7958  157.9731 C   0  0  0  0  0  0  0  0  0  0  0  0
  149.9667  139.2989  156.8582 C   0  0  0  0  0  0  0  0  0  0  0  0
  150.7076  139.6434  155.7367 N   0  0  0  0  0  0  0  0  0  0  0  0
  150.0299  140.2008  154.5029 C   0  0  2  0  0  0  0  0  0  0  0  0
  149.1492  141.2036  154.8986 O   0  0  0  0  0  0  0  0  0  0  0  0
  148.0721  141.2482  153.9758 C   0  0  2  0  0  0  0  0  0  0  0  0
  146.8687  141.9644  154.6080 C   0  0  0  0  0  0  0  0  0  0  0  0
  145.8630  142.1714  153.6394 O   0  0  0  0  0  0  0  0  0  0  0  0
  147.8182  139.7645  153.6856 C   0  0  1  0  0  0  0  0  0  0  0  0
  147.2293  139.6093  152.4093 O   0  0  0  0  0  0  0  0  0  0  0  0
  149.2143  139.1472  153.7185 C   0  0  2  0  0  0  0  0  0  0  0  0
  149.1784  137.8655  154.3214 O   0  0  0  0  0  0  0  0  0  0  0  0
  152.1085  139.4426  155.7317 C   0  0  0  0  0  0  0  0  0  0  0  0
  152.7987  139.6970  154.7454 O   0  0  0  0  0  0  0  0  0  0  0  0
  152.6737  138.9356  156.8711 N   0  0  0  0  0  0  0  0  0  0  0  0
  150.8019  140.6739  153.8932 H   0  0  0  0  0  0  0  0  0  0  0  0
  148.4031  141.7548  153.0664 H   0  0  0  0  0  0  0  0  0  0  0  0
  147.1814  139.3324  154.4595 H   0  0  0  0  0  0  0  0  0  0  0  0
  149.6473  139.0669  152.7202 H   0  0  0  0  0  0  0  0  0  0  0  0
  153.6211  138.0049  158.9907 H   0  0  0  0  0  0  0  0  0  0  0  0
  152.0981  137.8827  159.8432 H   0  0  0  0  0  0  0  0  0  0  0  0
  149.9269  138.5455  158.8263 H   0  0  0  0  0  0  0  0  0  0  0  0
  148.8938  139.4264  156.8524 H   0  0  0  0  0  0  0  0  0  0  0  0
  146.4378  141.3477  155.3973 H   0  0  0  0  0  0  0  0  0  0  0  0
  147.1632  142.9113  155.0613 H   0  0  0  0  0  0  0  0  0  0  0  0
  145.3437  141.3846  153.5724 H   0  0  0  0  0  0  0  0  0  0  0  0
  147.9151  139.6086  151.7592 H   0  0  0  0  0  0  0  0  0  0  0  0
  149.1055  137.2172  153.6374 H   0  0  0  0  0  0  0  0  0  0  0  0
  1  2  1  0  0  0  0
  1 22  1  0  0  0  0
  1 23  1  0  0  0  0
  2 17  2  0  0  0  0
  2  3  1  0  0  0  0
  3  4  2  0  0  0  0
  3 24  1  0  0  0  0
  4  5  1  0  0  0  0
  4 25  1  0  0  0  0
  5  6  1  0  0  0  0
  5 15  1  0  0  0  0
  6 18  1  0  0  0  0
  6 13  1  0  0  0  0
  6  7  1  0  0  0  0
  7  8  1  0  0  0  0
  8 19  1  0  0  0  0
  8  9  1  0  0  0  0
  8 11  1  0  0  0  0
  9 10  1  0  0  0  0
  9 26  1  0  0  0  0
  9 27  1  0  0  0  0
 10 28  1  0  0  0  0
 11 20  1  0  0  0  0
 11 12  1  0  0  0  0
 11 13  1  0  0  0  0
 12 29  1  0  0  0  0
 13 21  1  0  0  0  0
 13 14  1  0  0  0  0
 14 30  1  0  0  0  0
 15 16  2  0  0  0  0
 15 17  1  0  0  0  0
M  END
> <s_m_source_file>
AV-unprocessed.smi

> <i_m_source_file_index>
53

> <i_lp_mmshare_version>
43012

> <i_f3d_flags>
0

> <s_epik_input>
W05IMl1jMVtjSF1bY0hdbihjKD1PKW4xKVtDQEBIXTJPW0NASF0oW0NIMl1bT0hdKVtDQEBIXShbT0hdKVtDQEBIXTJbT0hd

> <s_epik_cmdline>
J2VwaWtfcHl0aG9uJywgJy1waCcsICc3LjAnLCAnLXRuJywgJzgnLCAnLW1hJywgJzIwMCcsICctbWV0YWxfYmluZGluZycsICctaW1hZScsICc8aW5maWxlLm1hZT4nLCAnLW9tYWUnLCAnPG91dGZpbGUubWFlPic=

> <r_lp_tautomer_probability>
0.99996

> <r_epik_Ionization_Penalty>
0.00069087

> <r_epik_Ionization_Penalty_Charging>
2.61959e-08

> <r_epik_Ionization_Penalty_Neutral>
0.000690844

> <r_epik_State_Penalty>
1.15523e-05

> <r_epik_Charging_Adjusted_Penalty>
1.15785e-05

> <i_epik_Tot_Q>
0

> <i_epik_Tot_abs_Q>
0

> <r_epik_Metal_State_Penalty>
-0

> <b_epik_Metal_Only>
0

> <s_epik_Chemistry_Notes>
This compound contains an acetal/aminal-like group ( X-CH(R)-Y where X, Y are N, S, or O) that may be acid/base labile, releasing an aldehyde.

> <s_lp_Force_Field>
OPLS_2005

> <r_lp_Energy>
35.6127

> <b_lp_Chiralities_Consistent>
1

> <s_lp_Variant>
AV-unprocessed.smi:53-1

> <Gold.Version>
5.8.1

> <Gold.Id.Protein>
6NUR|6NUR_protein|mol2

> <Gold.PLP.Fitness>
34.8886

> <Gold.PLP.PLP>
-23.1012

> <Gold.PLP.part.hbond>
-5.7102

> <Gold.PLP.part.metal>
0.0000

> <Gold.PLP.part.buried>
1.2311

> <Gold.PLP.part.nonpolar>
-19.9351

> <Gold.PLP.part.repulsive>
0.2558

> <Gold.PLP.ligand.clash>
0.0000

> <Gold.PLP.ligand.torsion>
0.3542

> <Gold.PLP.Chemscore.Hbond>
4.0767

> <Gold.PLP.Chemscore.CHOScore>
0.0000

> <Gold.PLP.Chemscore.Metal>
0.0000

> <Gold.Chemscore.Hbonds>
donor molecule, donor type, donor heavy atom, donor atom, acceptor molecule, acceptor atom, score
      L1  H    10    28       P1 10175  0.54
      L1  H    12    29       P1  7957  1.00
      L1  H    14    30       P1  7948  1.00
      P1  H  7989  7998       L1    16  0.46
      P1  H  7997  8010       L1    16  0.72

> <Gold.PLP.Chemscore.Internal.Correction>
0.2659

> <Gold.Rescore>
     Score         DG    S(hbond)    S(metal)    S(lipo)     H(rot)  DE(clash)    DE(int)     intcor
      9.56     -11.17       3.58        0.00      27.70       3.71       0.24       1.37       ----

> <Gold.Chemscore.Fitness>
9.5576

> <Gold.Chemscore.DG>
-11.1718

> <Gold.Chemscore.ZeroCoef>
-5.4800

> <Gold.Chemscore.Hbond>
3.5769

> <Gold.Chemscore.Metal>
0.0000

> <Gold.Chemscore.Lipo>
27.7047

> <Gold.Chemscore.Internal_Hbond>
0.0000

> <Gold.Chemscore.DEClash>
0.2416

> <Gold.Chemscore.DEInternal>
1.3726

> <Gold.Chemscore.Rot>
3.7095

> <Gold.Chemscore.Internal.Correction>
   9.000000E+99

> <Gold.Chemscore.Hbonds>
donor molecule, donor type, donor heavy atom, donor atom, acceptor molecule, acceptor atom, score
      L1  H    10    28       P1 10175  0.14
      L1  H    12    29       P1  7957  0.98
      L1  H    14    30       P1  7948  0.94
      P1  H  7989  7998       L1    16  0.28
      P1  H  7997  8010       L1    16  0.10

> <Gold.Chemscore.Hbond.Weighted>
-11.9467

> <Gold.Chemscore.Metal.Weighted>
-0.0000

> <Gold.Chemscore.Lipo.Weighted>
-3.2415

> <Gold.Chemscore.Internal_Hbond.Weighted>
0.0000

> <Gold.Chemscore.DEClash.Weighted>
0.2416

> <Gold.Chemscore.DEInternal.Weighted>
1.3726

> <Gold.Chemscore.Rot.Weighted>
9.4964

> <Gold.Chemscore.Internal.Correction.Weighted>
   9.000000E+99

> <Gold.Protein.RotatedTorsions>
[ 6907 6896 6895 6894 ] final   39.87 input  -60.11 | X-H torsion
[ 7974 7965 7964 7962 ] final -143.18 input  175.53 | X-H torsion
[ 8008 7997 7996 7995 ] final  111.24 input   59.86 | X-H torsion
[ 10167 10162 10161 10158 ] final -135.92 input  -65.29 | X-H torsion
[ 10718 10713 10712 10709 ] final  116.57 input   66.30 | X-H torsion
[ 10763 10752 10751 10750 ] final -121.71 input  -60.55 | X-H torsion
[ 11005 11000 10999 10996 ] final   67.27 input  -57.11 | X-H torsion

> <Gold.Protein.ActiveResidues>
 VAL166  LYS551  ARG553  GLY616  TRP617  ASP618  TYR619  PRO620  LYS621  CYS622 
 ASP623  PHE694  ASN695  SER759  ASP760  ASP761  ALA762  ILE779  LEU786  VAL792 
 PHE793  MET794  SER795  GLU796  ALA797  LYS798  CYS799  TRP800  GLU811  SER814 

> <Gold.Protein.RotatedAtoms>
  152.1752  134.8801  160.0530 H   0  0  0  0  0  0  0  0  0  0  0  0  # atno 6907 bound_to 6896
  151.9746  133.3732  159.4092 H   0  0  0  0  0  0  0  0  0  0  0  0  # atno 6908 bound_to 6896
  150.6908  134.4027  159.5170 H   0  0  0  0  0  0  0  0  0  0  0  0  # atno 6909 bound_to 6896
  144.8389  140.5867  143.5466 H   0  0  0  0  0  0  0  0  0  0  0  0  # atno 7974 bound_to 7965
  156.2110  140.3023  155.9732 H   0  0  0  0  0  0  0  0  0  0  0  0  # atno 8008 bound_to 7997
  155.2724  140.0434  157.3025 H   0  0  0  0  0  0  0  0  0  0  0  0  # atno 8009 bound_to 7997
  154.5699  140.2345  155.8215 H   0  0  0  0  0  0  0  0  0  0  0  0  # atno 8010 bound_to 7997
  139.8730  143.6933  152.2637 H   0  0  0  0  0  0  0  0  0  0  0  0  # atno 10167 bound_to 10162
  157.6152  131.1027  150.7492 H   0  0  0  0  0  0  0  0  0  0  0  0  # atno 10718 bound_to 10713
  154.8674  135.4158  154.2665 H   0  0  0  0  0  0  0  0  0  0  0  0  # atno 10763 bound_to 10752
  153.3583  135.7002  153.6738 H   0  0  0  0  0  0  0  0  0  0  0  0  # atno 10764 bound_to 10752
  153.5650  135.3602  155.2787 H   0  0  0  0  0  0  0  0  0  0  0  0  # atno 10765 bound_to 10752
  139.9781  134.6789  156.0315 H   0  0  0  0  0  0  0  0  0  0  0  0  # atno 11005 bound_to 11000
  145.4737  139.1501  143.3800 LP  0  0  0  0  0  0  0  0  0  0  0  0  # atno 17320 bound_to 7965
  146.2684  140.4871  142.8824 LP  0  0  0  0  0  0  0  0  0  0  0  0  # atno 17321 bound_to 7965
  139.7266  144.7591  151.0869 LP  0  0  0  0  0  0  0  0  0  0  0  0  # atno 17342 bound_to 10162
  140.7757  143.5140  150.9617 LP  0  0  0  0  0  0  0  0  0  0  0  0  # atno 17343 bound_to 10162
  156.7861  130.4875  149.5392 LP  0  0  0  0  0  0  0  0  0  0  0  0  # atno 17370 bound_to 10713
  156.1271  130.6151  151.0279 LP  0  0  0  0  0  0  0  0  0  0  0  0  # atno 17371 bound_to 10713
  141.1456  133.6556  156.3858 LP  0  0  0  0  0  0  0  0  0  0  0  0  # atno 17394 bound_to 11000
  140.5153  134.6356  157.5299 LP  0  0  0  0  0  0  0  0  0  0  0  0  # atno 17395 bound_to 11000

$$$$
