#       Name:                AV-unprocessed.smi:1041
#       Creating user name   scv26
#       Creation time:       Fri Mar 27 02:55:03 2020


#       File generated by GOLD software.
#

@<TRIPOS>MOLECULE
AV-unprocessed.smi:1041
    60    61     1
SMALL
NO_CHARGES


@<TRIPOS>ATOM
      1 ****        -3.7435  -4.7173  -0.6331 C.3            1 S1                 0.0000
      2 ****        -3.1526  -3.7996  -1.5367 O.3            1 S1                 0.0000
      3 ****        -1.7419  -3.9283  -1.5985 C.3            1 S1                 0.0000
      4 ****        -1.1946  -2.8977  -2.5982 C.3            1 S1                 0.0000
      5 ****        -1.4499  -1.4999  -2.1673 N.4            1 S1                 1.0000
      6 ****        -1.4671  -0.5522  -3.3115 C.3            1 S1                 0.0000
      7 ****        -1.8598   0.8673  -2.8597 C.3            1 S1                 0.0000
      8 ****        -0.9513   1.3942  -1.7331 C.3            1 S1                 0.0000
      9 ****         0.4491   1.7934  -2.2555 C.3            1 S1                 0.0000
     10 ****         1.2898   2.3363  -1.1942 N.am           1 S1                 0.0000
     11 ****         2.3259   1.7052  -0.6200 C.2            1 S1                 0.0000
     12 ****         2.7347   0.6008  -0.9767 O.2            1 S1                 0.0000
     13 ****         2.9749   2.4184   0.5650 C.3            1 S1                 0.0000
     14 ****         2.3215   2.1314   1.9153 C.2            1 S1                 0.0000
     15 ****         2.6981   1.0976   2.7243 C.2            1 S1                 0.0000
     16 ****         3.8157   0.1328   2.3675 C.3            1 S1                 0.0000
     17 ****         2.0687   0.8611   3.9543 N.2            1 S1                 0.0000
     18 ****         1.1086   1.6434   4.3230 C.2            1 S1                 0.0000
     19 ****         0.3525   1.4966   5.6266 C.3            1 S1                 0.0000
     20 ****         0.6711   2.7111   3.5414 N.am           1 S1                 0.0000
     21 ****         1.2167   3.0121   2.3419 C.2            1 S1                 0.0000
     22 ****         0.7843   3.9551   1.6808 O.2            1 S1                 0.0000
     23 ****        -0.9371   0.3585  -0.5889 C.3            1 S1                 0.0000
     24 ****        -0.5386  -1.0410  -1.0858 C.3            1 S1                 0.0000
     25 ****        -0.0872   3.2862   3.8783 H              1 S1                 0.0000
     26 ****        -4.8249  -4.5813  -0.6276 H              1 S1                 0.0000
     27 ****        -3.3796  -4.5589   0.3831 H              1 S1                 0.0000
     28 ****        -3.5351  -5.7478  -0.9237 H              1 S1                 0.0000
     29 ****        -1.2981  -3.8050  -0.6104 H              1 S1                 0.0000
     30 ****        -1.4850  -4.9326  -1.9388 H              1 S1                 0.0000
     31 ****        -0.1247  -3.0442  -2.7525 H              1 S1                 0.0000
     32 ****        -1.6711  -3.0803  -3.5625 H              1 S1                 0.0000
     33 ****        -0.4913  -0.5472  -3.7985 H              1 S1                 0.0000
     34 ****        -2.1853  -0.8951  -4.0573 H              1 S1                 0.0000
     35 ****        -1.8423   1.5490  -3.7107 H              1 S1                 0.0000
     36 ****        -2.8924   0.8522  -2.5080 H              1 S1                 0.0000
     37 ****        -1.4086   2.3044  -1.3420 H              1 S1                 0.0000
     38 ****         0.9394   0.9539  -2.7491 H              1 S1                 0.0000
     39 ****         0.3459   2.5661  -3.0179 H              1 S1                 0.0000
     40 ****         1.0318   3.2426  -0.8298 H              1 S1                 0.0000
     41 ****         4.0263   2.1334   0.5983 H              1 S1                 0.0000
     42 ****         2.9901   3.4932   0.3767 H              1 S1                 0.0000
     43 ****         4.7654   0.6611   2.2805 H              1 S1                 0.0000
     44 ****         3.6069  -0.3674   1.4224 H              1 S1                 0.0000
     45 ****         3.9330  -0.6369   3.1312 H              1 S1                 0.0000
     46 ****        -0.1321   0.5210   5.6716 H              1 S1                 0.0000
     47 ****        -0.4144   2.2646   5.7372 H              1 S1                 0.0000
     48 ****         1.0397   1.5775   6.4692 H              1 S1                 0.0000
     49 ****        -0.2791   0.6724   0.2213 H              1 S1                 0.0000
     50 ****        -1.9334   0.3029  -0.1484 H              1 S1                 0.0000
     51 ****        -0.5725  -1.7306  -0.2436 H              1 S1                 0.0000
     52 ****         0.4908  -1.0406  -1.4462 H              1 S1                 0.0000
     53 ****        -2.3855  -1.4902  -1.7862 H              1 S1                 0.0000
     54 ****        -3.3771  -2.8706  -1.2424 LP             1 S1                 0.0000
     55 ****        -3.5294  -3.9605  -2.4489 LP             1 S1                 0.0000
     56 ****         2.2892   0.1234  -1.7341 LP             1 S1                 0.0000
     57 ****         3.5124   0.1806  -0.5091 LP             1 S1                 0.0000
     58 ****         2.3575   0.1006   4.5360 LP             1 S1                 0.0000
     59 ****         1.1858   4.1668   0.7898 LP             1 S1                 0.0000
     60 ****         0.0312   4.5099   2.0345 LP             1 S1                 0.0000
@<TRIPOS>BOND
    1    1    2 1     
    2    1   26 1     
    3    1   27 1     
    4    1   28 1     
    5    2    3 1     
    6    3    4 1     
    7    3   29 1     
    8    3   30 1     
    9    4    5 1     
   10    4   31 1     
   11    4   32 1     
   12    5   24 1     
   13    5    6 1     
   14    5   53 1     
   15    6    7 1     
   16    6   33 1     
   17    6   34 1     
   18    7    8 1     
   19    7   35 1     
   20    7   36 1     
   21    8    9 1     
   22    8   23 1     
   23    8   37 1     
   24    9   10 1     
   25    9   38 1     
   26    9   39 1     
   27   10   11 am    
   28   10   40 1     
   29   11   12 2     
   30   11   13 1     
   31   13   14 1     
   32   13   41 1     
   33   13   42 1     
   34   14   21 1     
   35   14   15 2     
   36   15   16 1     
   37   15   17 1     
   38   16   43 1     
   39   16   44 1     
   40   16   45 1     
   41   17   18 2     
   42   18   19 1     
   43   18   20 1     
   44   19   46 1     
   45   19   47 1     
   46   19   48 1     
   47   20   25 1     
   48   20   21 am    
   49   21   22 2     
   50   23   24 1     
   51   23   49 1     
   52   23   50 1     
   53   24   51 1     
   54   24   52 1     
   55    2   54 1     
   56    2   55 1     
   57   12   56 1     
   58   12   57 1     
   59   17   58 1     
   60   22   59 1     
   61   22   60 1     
@<TRIPOS>SUBSTRUCTURE
      1 S1             1
@<TRIPOS>SET
LONE_PAIRS      STATIC     ATOMS    <user>   **** ""
7 54 55 56 57 58 59 60
DONOR_HYDROGENS      STATIC     ATOMS    <user>   **** ""
3 53 40 25
ATOM$BLUE        STATIC     ATOMS    COLORGROUP SYSTEM
7 54 55 56 57 58 59 60
ATOM$RED        STATIC     ATOMS    COLORGROUP SYSTEM
3 53 40 25
