AV-unprocessed.smi:3028|AV-procd|sdf|11519|dock6
  -GOLD-   2272016453D 1   1.00000     0.00000
 Structure written by MMmdl.
 48 49  0  0  0  0  0  0  0  0  2 V2000
  151.0935  142.5426  157.8714 C   0  0  0  0  0  0  0  0  0  0  0  0
  150.6388  141.7091  156.7085 C   0  0  0  0  0  0  0  0  0  0  0  0
  151.3342  140.6439  156.0696 C   0  0  0  0  0  0  0  0  0  0  0  0
  150.6531  140.1160  155.0662 N   0  0  0  0  0  0  0  0  0  0  0  0
  149.5007  140.8214  155.0271 N   0  0  0  0  0  0  0  0  0  0  0  0
  148.4891  140.5251  154.0186 C   0  0  2  0  0  0  0  0  0  0  0  0
  147.2974  141.4885  154.1762 C   0  0  0  0  0  0  0  0  0  0  0  0
  148.0778  139.0283  154.0526 C   0  0  1  0  0  0  0  0  0  0  0  0
  146.7641  138.7847  154.8137 C   0  0  0  0  0  0  0  0  0  0  0  0
  147.9297  138.5060  152.6743 N   0  3  0  0  0  0  0  0  0  0  0  0
  146.5910  138.6917  152.0757 C   0  0  0  0  0  0  0  0  0  0  0  0
  145.7253  137.4300  152.1841 C   0  0  0  0  0  0  0  0  0  0  0  0
  144.5659  137.5132  152.5864 O   0  0  0  0  0  0  0  0  0  0  0  0
  146.2464  136.2418  151.8348 N   0  0  0  0  0  0  0  0  0  0  0  0
  145.6020  134.9290  151.8610 C   0  0  0  0  0  0  0  0  0  0  0  0
  146.6535  133.8279  151.6562 C   0  0  0  0  0  0  0  0  0  0  0  0
  145.9799  132.4546  151.4996 C   0  0  0  0  0  0  0  0  0  0  0  0
  145.0453  132.4894  150.4263 O   0  0  0  0  0  0  0  0  0  0  0  0
  143.9850  133.4142  150.6434 C   0  0  0  0  0  0  0  0  0  0  0  0
  144.5454  134.8420  150.7493 C   0  0  0  0  0  0  0  0  0  0  0  0
  149.4658  141.7857  156.0129 C   0  0  0  0  0  0  0  0  0  0  0  0
  152.1069  142.2879  158.1824 H   0  0  0  0  0  0  0  0  0  0  0  0
  150.4480  142.4071  158.7392 H   0  0  0  0  0  0  0  0  0  0  0  0
  151.0897  143.6056  157.6299 H   0  0  0  0  0  0  0  0  0  0  0  0
  152.3096  140.2424  156.3024 H   0  0  0  0  0  0  0  0  0  0  0  0
  148.9439  140.7276  153.0476 H   0  0  0  0  0  0  0  0  0  0  0  0
  146.6036  141.4127  153.3394 H   0  0  0  0  0  0  0  0  0  0  0  0
  147.6365  142.5245  154.2137 H   0  0  0  0  0  0  0  0  0  0  0  0
  146.7398  141.2897  155.0919 H   0  0  0  0  0  0  0  0  0  0  0  0
  148.8599  138.4653  154.5654 H   0  0  0  0  0  0  0  0  0  0  0  0
  146.8537  139.0451  155.8679 H   0  0  0  0  0  0  0  0  0  0  0  0
  146.4793  137.7329  154.7713 H   0  0  0  0  0  0  0  0  0  0  0  0
  145.9445  139.3678  154.3921 H   0  0  0  0  0  0  0  0  0  0  0  0
  148.6098  138.9576  152.0797 H   0  0  0  0  0  0  0  0  0  0  0  0
  146.0846  139.5117  152.5852 H   0  0  0  0  0  0  0  0  0  0  0  0
  146.7049  138.9659  151.0260 H   0  0  0  0  0  0  0  0  0  0  0  0
  147.2045  136.2484  151.5148 H   0  0  0  0  0  0  0  0  0  0  0  0
  145.1024  134.7418  152.8109 H   0  0  0  0  0  0  0  0  0  0  0  0
  147.2447  134.0383  150.7635 H   0  0  0  0  0  0  0  0  0  0  0  0
  147.3505  133.8087  152.4949 H   0  0  0  0  0  0  0  0  0  0  0  0
  146.7296  131.6923  151.2877 H   0  0  0  0  0  0  0  0  0  0  0  0
  145.4788  132.1598  152.4228 H   0  0  0  0  0  0  0  0  0  0  0  0
  143.2846  133.3480  149.8109 H   0  0  0  0  0  0  0  0  0  0  0  0
  143.4329  133.1453  151.5453 H   0  0  0  0  0  0  0  0  0  0  0  0
  143.7362  135.5480  150.9401 H   0  0  0  0  0  0  0  0  0  0  0  0
  144.9872  135.1235  149.7921 H   0  0  0  0  0  0  0  0  0  0  0  0
  148.6189  142.4451  156.1353 H   0  0  0  0  0  0  0  0  0  0  0  0
  148.1293  137.5159  152.6879 H   0  0  0  0  0  0  0  0  0  0  0  0
  1  2  1  0  0  0  0
  1 22  1  0  0  0  0
  1 23  1  0  0  0  0
  1 24  1  0  0  0  0
  2 21  2  0  0  0  0
  2  3  1  0  0  0  0
  3  4  2  0  0  0  0
  3 25  1  0  0  0  0
  4  5  1  0  0  0  0
  5  6  1  0  0  0  0
  5 21  1  0  0  0  0
  6  7  1  0  0  0  0
  6  8  1  0  0  0  0
  6 26  1  0  0  0  0
  7 27  1  0  0  0  0
  7 28  1  0  0  0  0
  7 29  1  0  0  0  0
  8  9  1  0  0  0  0
  8 10  1  0  0  0  0
  8 30  1  0  0  0  0
  9 31  1  0  0  0  0
  9 32  1  0  0  0  0
  9 33  1  0  0  0  0
 10 11  1  0  0  0  0
 10 34  1  0  0  0  0
 10 48  1  0  0  0  0
 11 12  1  0  0  0  0
 11 35  1  0  0  0  0
 11 36  1  0  0  0  0
 12 13  2  0  0  0  0
 12 14  1  0  0  0  0
 14 15  1  0  0  0  0
 14 37  1  0  0  0  0
 15 20  1  0  0  0  0
 15 16  1  0  0  0  0
 15 38  1  0  0  0  0
 16 17  1  0  0  0  0
 16 39  1  0  0  0  0
 16 40  1  0  0  0  0
 17 18  1  0  0  0  0
 17 41  1  0  0  0  0
 17 42  1  0  0  0  0
 18 19  1  0  0  0  0
 19 20  1  0  0  0  0
 19 43  1  0  0  0  0
 19 44  1  0  0  0  0
 20 45  1  0  0  0  0
 20 46  1  0  0  0  0
 21 47  1  0  0  0  0
M  CHG  1  10   1
M  END
> <s_m_source_file>
AV-unprocessed.smi

> <i_m_source_file_index>
3028

> <i_lp_mmshare_version>
43012

> <i_f3d_flags>
0

> <s_epik_input>
W0NIM11jMVtjSF1ubihbY0hdMSlbQ0BIXShbQ0gzXSlbQ0BIXShbQ0gzXSlbTkhdW0NIMl1DKD1PKVtOSF1bQ0hdMltDSDJdW0NIMl1PW0NIMl1bQ0gyXTI=

> <s_epik_cmdline>
J2VwaWtfcHl0aG9uJywgJy1waCcsICc3LjAnLCAnLXRuJywgJzgnLCAnLW1hJywgJzIwMCcsICctbWV0YWxfYmluZGluZycsICctaW1hZScsICc8aW5maWxlLm1hZT4nLCAnLW9tYWUnLCAnPG91dGZpbGUubWFlPic=

> <r_lp_tautomer_probability>
1

> <r_epik_Ionization_Penalty>
0.151514

> <r_epik_Ionization_Penalty_Charging>
0.151494

> <r_epik_Ionization_Penalty_Neutral>
1.95502e-05

> <r_epik_State_Penalty>
0.141395

> <r_epik_Charging_Adjusted_Penalty>
0.292889

> <i_epik_Tot_Q>
1

> <i_epik_Tot_abs_Q>
1

> <r_epik_Metal_State_Penalty>
0.141632

> <b_epik_Metal_Only>
0

> <s_lp_Force_Field>
OPLS_2005

> <r_lp_Energy>
16.7547

> <b_lp_Chiralities_Consistent>
1

> <s_lp_Variant>
AV-unprocessed.smi:3028-3

> <Gold.Version>
5.8.1

> <Gold.Id.Protein>
6NUR|6NUR_protein|mol2

> <Gold.PLP.Fitness>
55.2935

> <Gold.PLP.PLP>
-41.8088

> <Gold.PLP.part.hbond>
-4.0000

> <Gold.PLP.part.metal>
0.0000

> <Gold.PLP.part.buried>
-3.2736

> <Gold.PLP.part.nonpolar>
-35.1458

> <Gold.PLP.part.repulsive>
0.7549

> <Gold.PLP.ligand.clash>
0.1812

> <Gold.PLP.ligand.torsion>
1.8922

> <Gold.PLP.Chemscore.Hbond>
4.8960

> <Gold.PLP.Chemscore.CHOScore>
0.8447

> <Gold.PLP.Chemscore.Metal>
0.0000

> <Gold.Chemscore.Hbonds>
donor molecule, donor type, donor heavy atom, donor atom, acceptor molecule, acceptor atom, score
      L1  H    10    34       P1  7957  1.00
      L1  H    10    48       P1  7948  1.73
      L1  H    14    37       P1  7948  1.00
      P1  H  7989  7998       L1     4  1.00
      L1  C    21    47       P1  8028  0.79

> <Gold.PLP.Chemscore.Internal.Correction>
0.2283

> <Gold.Rescore>
     Score         DG    S(hbond)    S(metal)    S(lipo)     H(rot)  DE(clash)    DE(int)     intcor
     20.55     -22.51       3.58        0.00      86.80       1.99       0.10       1.86       ----

> <Gold.Chemscore.Fitness>
20.5531

> <Gold.Chemscore.DG>
-22.5130

> <Gold.Chemscore.ZeroCoef>
-5.4800

> <Gold.Chemscore.Hbond>
3.5840

> <Gold.Chemscore.Metal>
0.0000

> <Gold.Chemscore.Lipo>
86.8045

> <Gold.Chemscore.Internal_Hbond>
0.0000

> <Gold.Chemscore.DEClash>
0.1042

> <Gold.Chemscore.DEInternal>
1.8556

> <Gold.Chemscore.Rot>
1.9897

> <Gold.Chemscore.Internal.Correction>
   9.000000E+99

> <Gold.Chemscore.Hbonds>
donor molecule, donor type, donor heavy atom, donor atom, acceptor molecule, acceptor atom, score
      L1  H    10    34       P1  7957  0.96
      L1  H    10    48       P1  7948  0.85
      L1  H    14    37       P1  7948  0.96
      P1  H  7989  7998       L1     4  0.09

> <Gold.Chemscore.Hbond.Weighted>
-11.9705

> <Gold.Chemscore.Metal.Weighted>
-0.0000

> <Gold.Chemscore.Lipo.Weighted>
-10.1561

> <Gold.Chemscore.Internal_Hbond.Weighted>
0.0000

> <Gold.Chemscore.DEClash.Weighted>
0.1042

> <Gold.Chemscore.DEInternal.Weighted>
1.8556

> <Gold.Chemscore.Rot.Weighted>
5.0936

> <Gold.Chemscore.Internal.Correction.Weighted>
   9.000000E+99

> <Gold.Protein.RotatedTorsions>
[ 6907 6896 6895 6894 ] final  -11.77 input  -60.11 | X-H torsion
[ 7974 7965 7964 7962 ] final  106.15 input  175.53 | X-H torsion
[ 8008 7997 7996 7995 ] final   64.56 input   59.86 | X-H torsion
[ 10167 10162 10161 10158 ] final  117.91 input  -65.29 | X-H torsion
[ 10718 10713 10712 10709 ] final   62.86 input   66.30 | X-H torsion
[ 10763 10752 10751 10750 ] final  -77.42 input  -60.55 | X-H torsion
[ 11005 11000 10999 10996 ] final  -51.80 input  -57.11 | X-H torsion

> <Gold.Protein.ActiveResidues>
 VAL166  LYS551  ARG553  GLY616  TRP617  ASP618  TYR619  PRO620  LYS621  CYS622 
 ASP623  PHE694  ASN695  SER759  ASP760  ASP761  ALA762  ILE779  LEU786  VAL792 
 PHE793  MET794  SER795  GLU796  ALA797  LYS798  CYS799  TRP800  GLU811  SER814 

> <Gold.Protein.RotatedAtoms>
  151.3809  135.0939  159.9495 H   0  0  0  0  0  0  0  0  0  0  0  0  # atno 6907 bound_to 6896
  152.5108  133.9073  159.7481 H   0  0  0  0  0  0  0  0  0  0  0  0  # atno 6908 bound_to 6896
  150.9506  133.6498  159.2801 H   0  0  0  0  0  0  0  0  0  0  0  0  # atno 6909 bound_to 6896
  145.3103  139.2542  143.3766 H   0  0  0  0  0  0  0  0  0  0  0  0  # atno 7974 bound_to 7965
  155.6479  140.3497  155.4738 H   0  0  0  0  0  0  0  0  0  0  0  0  # atno 8008 bound_to 7997
  155.9872  140.1186  157.0695 H   0  0  0  0  0  0  0  0  0  0  0  0  # atno 8009 bound_to 7997
  154.4208  140.1126  156.5501 H   0  0  0  0  0  0  0  0  0  0  0  0  # atno 8010 bound_to 7997
  139.6147  144.7089  151.2766 H   0  0  0  0  0  0  0  0  0  0  0  0  # atno 10167 bound_to 10162
  157.5931  130.9074  149.9642 H   0  0  0  0  0  0  0  0  0  0  0  0  # atno 10718 bound_to 10713
  154.5127  135.5764  153.6618 H   0  0  0  0  0  0  0  0  0  0  0  0  # atno 10763 bound_to 10752
  152.9900  135.6162  154.2857 H   0  0  0  0  0  0  0  0  0  0  0  0  # atno 10764 bound_to 10752
  154.2773  135.2852  155.2692 H   0  0  0  0  0  0  0  0  0  0  0  0  # atno 10765 bound_to 10752
  141.0890  133.6636  156.3930 H   0  0  0  0  0  0  0  0  0  0  0  0  # atno 11005 bound_to 11000
  146.3120  140.3638  142.8667 LP  0  0  0  0  0  0  0  0  0  0  0  0  # atno 17320 bound_to 7965
  144.9021  140.7655  143.5860 LP  0  0  0  0  0  0  0  0  0  0  0  0  # atno 17321 bound_to 7965
  140.7343  143.6770  150.8033 LP  0  0  0  0  0  0  0  0  0  0  0  0  # atno 17342 bound_to 10162
  140.0371  143.5384  152.2734 LP  0  0  0  0  0  0  0  0  0  0  0  0  # atno 17343 bound_to 10162
  156.0989  130.3657  150.0255 LP  0  0  0  0  0  0  0  0  0  0  0  0  # atno 17370 bound_to 10713
  156.8374  130.9414  151.3634 LP  0  0  0  0  0  0  0  0  0  0  0  0  # atno 17371 bound_to 10713
  140.5295  134.6226  157.5345 LP  0  0  0  0  0  0  0  0  0  0  0  0  # atno 17394 bound_to 11000
  139.9713  134.7288  156.0036 LP  0  0  0  0  0  0  0  0  0  0  0  0  # atno 17395 bound_to 11000

$$$$
