#       Name:                AV-unprocessed.smi:2558
#       Creating user name   scv26
#       Creation time:       Fri Mar 27 14:07:44 2020


#       File generated by GOLD software.
#

@<TRIPOS>MOLECULE
AV-unprocessed.smi:2558
    48    49     1
SMALL
NO_CHARGES


@<TRIPOS>ATOM
      1 ****        -2.6196   1.0512  -1.3958 C.3            1 S1                 0.0000
      2 ****        -2.1220  -0.6836  -1.7583 S.o2           1 S1                 0.0000
      3 ****        -2.7746  -1.5688  -0.7801 O.2            1 S1                 0.0000
      4 ****        -2.3236  -0.9280  -3.1955 O.2            1 S1                 0.0000
      5 ****        -0.3983  -0.6578  -1.4474 N.am           1 S1                 0.0000
      6 ****         0.1754  -1.0293  -0.2072 C.2            1 S1                 0.0000
      7 ****         1.2528  -1.6288  -0.2009 O.2            1 S1                 0.0000
      8 ****        -0.5176  -0.5472   0.8597 N.pl3          1 S1                -1.0000
      9 ****        -0.1394  -0.6761   2.1563 C.2            1 S1                 0.0000
     10 ****         0.8831  -1.2185   2.5813 O.2            1 S1                 0.0000
     11 ****        -1.0386  -0.1521   3.0083 N.am           1 S1                 0.0000
     12 ****        -0.9653  -0.0486   4.4230 C.ar           1 S1                 0.0000
     13 ****        -2.1712  -0.0261   5.1526 C.ar           1 S1                 0.0000
     14 ****        -2.1212   0.1050   6.5535 C.ar           1 S1                 0.0000
     15 ****        -0.8603   0.2212   7.1699 C.ar           1 S1                 0.0000
     16 ****         0.3028   0.2202   6.4853 N.ar           1 S1                 0.0000
     17 ****         0.2475   0.0907   5.1417 C.ar           1 S1                 0.0000
     18 ****         0.4625  -0.1427  -2.5475 C.3            1 S1                 0.0000
     19 ****         1.1687  -1.2781  -3.3180 C.3            1 S1                 0.0000
     20 ****         1.9689  -0.7155  -4.5044 C.3            1 S1                 0.0000
     21 ****         2.9611   0.3683  -4.0483 C.3            1 S1                 0.0000
     22 ****         2.2489   1.5005  -3.2880 C.3            1 S1                 0.0000
     23 ****         1.4544   0.9534  -2.0911 C.3            1 S1                 0.0000
     24 ****        -3.6865   1.1680  -1.5832 H              1 S1                 0.0000
     25 ****        -2.0609   1.7321  -2.0374 H              1 S1                 0.0000
     26 ****        -2.4076   1.2822  -0.3522 H              1 S1                 0.0000
     27 ****        -1.9034   0.1608   2.5925 H              1 S1                 0.0000
     28 ****        -3.1225  -0.1133   4.6482 H              1 S1                 0.0000
     29 ****        -3.0273   0.1178   7.1408 H              1 S1                 0.0000
     30 ****        -0.7843   0.3251   8.2422 H              1 S1                 0.0000
     31 ****         1.2030   0.1262   4.6408 H              1 S1                 0.0000
     32 ****        -0.1927   0.3506  -3.2655 H              1 S1                 0.0000
     33 ****         1.8465  -1.8268  -2.6651 H              1 S1                 0.0000
     34 ****         0.4345  -1.9996  -3.6778 H              1 S1                 0.0000
     35 ****         2.5040  -1.5219  -5.0062 H              1 S1                 0.0000
     36 ****         1.2826  -0.2953  -5.2407 H              1 S1                 0.0000
     37 ****         3.7203  -0.0804  -3.4062 H              1 S1                 0.0000
     38 ****         3.4881   0.7752  -4.9117 H              1 S1                 0.0000
     39 ****         2.9784   2.2344  -2.9446 H              1 S1                 0.0000
     40 ****         1.5750   2.0280  -3.9644 H              1 S1                 0.0000
     41 ****         0.9162   1.7657  -1.6014 H              1 S1                 0.0000
     42 ****         2.1605   0.5619  -1.3584 H              1 S1                 0.0000
     43 ****         1.7092  -1.8461  -1.0637 LP             1 S1                 0.0000
     44 ****         1.6703  -1.8977   0.6671 LP             1 S1                 0.0000
     45 ****        -1.3712  -0.0605   0.6740 LP             1 S1                 0.0000
     46 ****         1.5373  -1.6228   1.9421 LP             1 S1                 0.0000
     47 ****         1.0583  -1.2540   3.5652 LP             1 S1                 0.0000
     48 ****         1.1791   0.3125   6.9583 LP             1 S1                 0.0000
@<TRIPOS>BOND
    1    1    2 1     
    2    1   24 1     
    3    1   25 1     
    4    1   26 1     
    5    2    3 2     
    6    2    4 2     
    7    2    5 1     
    8    5    6 am    
    9    5   18 1     
   10    6    7 2     
   11    6    8 1     
   12    8    9 1     
   13    9   10 2     
   14    9   11 am    
   15   11   12 1     
   16   11   27 1     
   17   12   17 ar    
   18   12   13 ar    
   19   13   14 ar    
   20   13   28 1     
   21   14   15 ar    
   22   14   29 1     
   23   15   16 ar    
   24   15   30 1     
   25   16   17 ar    
   26   17   31 1     
   27   18   23 1     
   28   18   19 1     
   29   18   32 1     
   30   19   20 1     
   31   19   33 1     
   32   19   34 1     
   33   20   21 1     
   34   20   35 1     
   35   20   36 1     
   36   21   22 1     
   37   21   37 1     
   38   21   38 1     
   39   22   23 1     
   40   22   39 1     
   41   22   40 1     
   42   23   41 1     
   43   23   42 1     
   44    7   43 1     
   45    7   44 1     
   46    8   45 1     
   47   10   46 1     
   48   10   47 1     
   49   16   48 1     
@<TRIPOS>SUBSTRUCTURE
      1 S1             1
@<TRIPOS>SET
LONE_PAIRS      STATIC     ATOMS    <user>   **** ""
8 3 4 43 44 45 46 47 48
DONOR_HYDROGENS      STATIC     ATOMS    <user>   **** ""
1 27
ATOM$BLUE        STATIC     ATOMS    COLORGROUP SYSTEM
8 3 4 43 44 45 46 47 48
ATOM$RED        STATIC     ATOMS    COLORGROUP SYSTEM
1 27
