AV-unprocessed.smi:612|AV-procd|sdf|3063|dock2
  -GOLD-   2262023583D 1   1.00000     0.00000
 Structure written by MMmdl.
 50 52  0  0  0  0  0  0  0  0  2 V2000
  152.0980  139.2834  156.3860 C   0  0  0  0  0  0  0  0  0  0  0  0
  150.8129  139.6560  155.7889 N   0  0  0  0  0  0  0  0  0  0  0  0
  150.3092  140.9354  156.0774 C   0  0  0  0  0  0  0  0  0  0  0  0
  149.1406  141.3599  155.5777 C   0  0  0  0  0  0  0  0  0  0  0  0
  148.3942  140.4675  154.7237 C   0  0  0  0  0  0  0  0  0  0  0  0
  148.8642  139.2293  154.4269 C   0  0  0  0  0  0  0  0  0  0  0  0
  148.2047  138.2915  153.6115 N   0  0  0  0  0  0  0  0  0  0  0  0
  146.8978  138.1830  153.3080 C   0  0  0  0  0  0  0  0  0  0  0  0
  146.0015  138.9319  153.6951 O   0  0  0  0  0  0  0  0  0  0  0  0
  146.6834  137.1372  152.4958 N   0  0  0  0  0  0  0  0  0  0  0  0
  145.3898  136.7297  151.9525 C   0  0  2  0  0  0  0  0  0  0  0  0
  144.5963  135.9373  153.0063 C   0  0  0  0  0  0  0  0  0  0  0  0
  143.2865  135.3814  152.4139 C   0  0  0  0  0  0  0  0  0  0  0  0
  143.5282  134.5474  151.2033 N   0  3  2  0  0  0  0  0  0  0  0  0
  144.1105  133.2009  151.4857 C   0  0  0  0  0  0  0  0  0  0  0  0
  145.5239  133.2515  152.0821 C   0  0  0  0  0  0  0  0  0  0  0  0
  146.1077  131.8576  151.8360 C   0  0  0  0  0  0  0  0  0  0  0  0
  145.3715  131.2993  150.6109 C   0  0  0  0  0  0  0  0  0  0  0  0
  144.3224  132.3486  150.2261 C   0  0  0  0  0  0  0  0  0  0  0  0
  144.2538  135.3314  150.1653 C   0  0  0  0  0  0  0  0  0  0  0  0
  145.5955  135.8784  150.6882 C   0  0  0  0  0  0  0  0  0  0  0  0
  150.1499  138.7690  154.9884 C   0  0  0  0  0  0  0  0  0  0  0  0
  150.6131  137.6491  154.7572 O   0  0  0  0  0  0  0  0  0  0  0  0
  152.5366  140.0870  156.9787 H   0  0  0  0  0  0  0  0  0  0  0  0
  152.8204  139.0220  155.6113 H   0  0  0  0  0  0  0  0  0  0  0  0
  151.9777  138.4218  157.0443 H   0  0  0  0  0  0  0  0  0  0  0  0
  150.9248  141.5433  156.7244 H   0  0  0  0  0  0  0  0  0  0  0  0
  148.7655  142.3459  155.8089 H   0  0  0  0  0  0  0  0  0  0  0  0
  147.4505  140.8284  154.3500 H   0  0  0  0  0  0  0  0  0  0  0  0
  148.8198  137.6206  153.1741 H   0  0  0  0  0  0  0  0  0  0  0  0
  147.4818  136.5793  152.2296 H   0  0  0  0  0  0  0  0  0  0  0  0
  144.8013  137.6053  151.6726 H   0  0  0  0  0  0  0  0  0  0  0  0
  145.2027  135.1206  153.3999 H   0  0  0  0  0  0  0  0  0  0  0  0
  144.3674  136.5811  153.8564 H   0  0  0  0  0  0  0  0  0  0  0  0
  142.7282  134.8307  153.1699 H   0  0  0  0  0  0  0  0  0  0  0  0
  142.6432  136.2149  152.1286 H   0  0  0  0  0  0  0  0  0  0  0  0
  143.4658  132.6514  152.1726 H   0  0  0  0  0  0  0  0  0  0  0  0
  146.1260  133.9947  151.5567 H   0  0  0  0  0  0  0  0  0  0  0  0
  145.5293  133.5063  153.1423 H   0  0  0  0  0  0  0  0  0  0  0  0
  147.1874  131.8937  151.6867 H   0  0  0  0  0  0  0  0  0  0  0  0
  145.9196  131.2185  152.6996 H   0  0  0  0  0  0  0  0  0  0  0  0
  146.0535  131.1039  149.7827 H   0  0  0  0  0  0  0  0  0  0  0  0
  144.8907  130.3543  150.8663 H   0  0  0  0  0  0  0  0  0  0  0  0
  143.4021  131.8848  149.8695 H   0  0  0  0  0  0  0  0  0  0  0  0
  144.7151  132.9684  149.4185 H   0  0  0  0  0  0  0  0  0  0  0  0
  144.4051  134.7473  149.2585 H   0  0  0  0  0  0  0  0  0  0  0  0
  143.6201  136.1679  149.8675 H   0  0  0  0  0  0  0  0  0  0  0  0
  146.0719  136.4792  149.9125 H   0  0  0  0  0  0  0  0  0  0  0  0
  146.2782  135.0534  150.8950 H   0  0  0  0  0  0  0  0  0  0  0  0
  142.6152  134.3588  150.8141 H   0  0  0  0  0  0  0  0  0  0  0  0
  1  2  1  0  0  0  0
  1 24  1  0  0  0  0
  1 25  1  0  0  0  0
  1 26  1  0  0  0  0
  2 22  1  0  0  0  0
  2  3  1  0  0  0  0
  3  4  2  0  0  0  0
  3 27  1  0  0  0  0
  4  5  1  0  0  0  0
  4 28  1  0  0  0  0
  5  6  2  0  0  0  0
  5 29  1  0  0  0  0
  6  7  1  0  0  0  0
  6 22  1  0  0  0  0
  7  8  1  0  0  0  0
  7 30  1  0  0  0  0
  8  9  2  0  0  0  0
  8 10  1  0  0  0  0
 10 11  1  0  0  0  0
 10 31  1  0  0  0  0
 11 21  1  0  0  0  0
 11 12  1  0  0  0  0
 11 32  1  0  0  0  0
 12 13  1  0  0  0  0
 12 33  1  0  0  0  0
 12 34  1  0  0  0  0
 13 14  1  0  0  0  0
 13 35  1  0  0  0  0
 13 36  1  0  0  0  0
 14 15  1  0  0  0  0
 14 20  1  0  0  0  0
 14 50  1  0  0  0  0
 15 19  1  0  0  0  0
 15 16  1  0  0  0  0
 15 37  1  0  0  0  0
 16 17  1  0  0  0  0
 16 38  1  0  0  0  0
 16 39  1  0  0  0  0
 17 18  1  0  0  0  0
 17 40  1  0  0  0  0
 17 41  1  0  0  0  0
 18 19  1  0  0  0  0
 18 42  1  0  0  0  0
 18 43  1  0  0  0  0
 19 44  1  0  0  0  0
 19 45  1  0  0  0  0
 20 21  1  0  0  0  0
 20 46  1  0  0  0  0
 20 47  1  0  0  0  0
 21 48  1  0  0  0  0
 21 49  1  0  0  0  0
 22 23  2  0  0  0  0
M  CHG  1  14   1
M  END
> <s_m_source_file>
AV-unprocessed.smi

> <i_m_source_file_index>
612

> <i_lp_mmshare_version>
43012

> <i_f3d_flags>
0

> <s_epik_input>
W0NIM11uMVtjSF1bY0hdW2NIXWMoYzE9TylbTkhdQyg9TylbTkhdW0NIXTJbQ0gyXVtDSDJdTihbQ0gyXVtDSDJdMilbQ0hdM1tDSDJdW0NIMl1bQ0gyXVtDSDJdMw==

> <s_epik_cmdline>
J2VwaWtfcHl0aG9uJywgJy1waCcsICc3LjAnLCAnLXRuJywgJzgnLCAnLW1hJywgJzIwMCcsICctbWV0YWxfYmluZGluZycsICctaW1hZScsICc8aW5maWxlLm1hZT4nLCAnLW9tYWUnLCAnPG91dGZpbGUubWFlPic=

> <r_lp_tautomer_probability>
1

> <r_epik_Ionization_Penalty>
0.00200366

> <r_epik_Ionization_Penalty_Charging>
0.00198522

> <r_epik_Ionization_Penalty_Neutral>
1.84356e-05

> <r_epik_State_Penalty>
0.00135242

> <r_epik_Charging_Adjusted_Penalty>
0.00333764

> <i_epik_Tot_Q>
1

> <i_epik_Tot_abs_Q>
1

> <r_epik_Metal_State_Penalty>
-0

> <b_epik_Metal_Only>
0

> <s_lp_Force_Field>
OPLS_2005

> <r_lp_Energy>
52.136

> <b_lp_Chiralities_Consistent>
1

> <s_lp_Variant>
AV-unprocessed.smi:612-2

> <Gold.Version>
5.8.1

> <Gold.Id.Protein>
6NUR|6NUR_protein|mol2

> <Gold.PLP.Fitness>
51.6440

> <Gold.PLP.PLP>
-41.8283

> <Gold.PLP.part.hbond>
-3.9381

> <Gold.PLP.part.metal>
0.0000

> <Gold.PLP.part.buried>
-0.3089

> <Gold.PLP.part.nonpolar>
-39.5779

> <Gold.PLP.part.repulsive>
1.7827

> <Gold.PLP.ligand.clash>
1.2384

> <Gold.PLP.ligand.torsion>
0.4414

> <Gold.PLP.Chemscore.Hbond>
3.9585

> <Gold.PLP.Chemscore.CHOScore>
0.0000

> <Gold.PLP.Chemscore.Metal>
0.0000

> <Gold.Chemscore.Hbonds>
donor molecule, donor type, donor heavy atom, donor atom, acceptor molecule, acceptor atom, score
      L1  H     7    30       P1  7948  0.93
      L1  H    10    31       P1  7948  1.00
      L1  H    14    50       P1 10186  1.98

> <Gold.PLP.Chemscore.Internal.Correction>
0.0613

> <Gold.Rescore>
     Score         DG    S(hbond)    S(metal)    S(lipo)     H(rot)  DE(clash)    DE(int)     intcor
     18.32     -21.54       2.30        0.00      97.93       1.21       0.44       2.77       ----

> <Gold.Chemscore.Fitness>
18.3235

> <Gold.Chemscore.DG>
-21.5431

> <Gold.Chemscore.ZeroCoef>
-5.4800

> <Gold.Chemscore.Hbond>
2.3030

> <Gold.Chemscore.Metal>
0.0000

> <Gold.Chemscore.Lipo>
97.9257

> <Gold.Chemscore.Internal_Hbond>
0.0000

> <Gold.Chemscore.DEClash>
0.4449

> <Gold.Chemscore.DEInternal>
2.7748

> <Gold.Chemscore.Rot>
1.2056

> <Gold.Chemscore.Internal.Correction>
   9.000000E+99

> <Gold.Chemscore.Hbonds>
donor molecule, donor type, donor heavy atom, donor atom, acceptor molecule, acceptor atom, score
      L1  H     7    30       P1  7948  0.89
      L1  H    10    31       P1  7948  0.94
      L1  H    14    50       P1 10186  0.28

> <Gold.Chemscore.Hbond.Weighted>
-7.6921

> <Gold.Chemscore.Metal.Weighted>
-0.0000

> <Gold.Chemscore.Lipo.Weighted>
-11.4573

> <Gold.Chemscore.Internal_Hbond.Weighted>
0.0000

> <Gold.Chemscore.DEClash.Weighted>
0.4449

> <Gold.Chemscore.DEInternal.Weighted>
2.7748

> <Gold.Chemscore.Rot.Weighted>
3.0862

> <Gold.Chemscore.Internal.Correction.Weighted>
   9.000000E+99

> <Gold.Protein.RotatedTorsions>
[ 6907 6896 6895 6894 ] final -142.38 input  -60.11 | X-H torsion
[ 7974 7965 7964 7962 ] final  147.91 input  175.53 | X-H torsion
[ 8008 7997 7996 7995 ] final  162.57 input   59.86 | X-H torsion
[ 10167 10162 10161 10158 ] final -108.82 input  -65.29 | X-H torsion
[ 10718 10713 10712 10709 ] final   -8.49 input   66.30 | X-H torsion
[ 10763 10752 10751 10750 ] final  123.97 input  -60.55 | X-H torsion
[ 11005 11000 10999 10996 ] final   87.17 input  -57.11 | X-H torsion

> <Gold.Protein.ActiveResidues>
 VAL166  LYS551  ARG553  GLY616  TRP617  ASP618  TYR619  PRO620  LYS621  CYS622 
 ASP623  PHE694  ASN695  SER759  ASP760  ASP761  ALA762  ILE779  LEU786  VAL792 
 PHE793  MET794  SER795  GLU796  ALA797  LYS798  CYS799  TRP800  GLU811  SER814 

> <Gold.Protein.RotatedAtoms>
  151.0863  133.5350  159.2617 H   0  0  0  0  0  0  0  0  0  0  0  0  # atno 6907 bound_to 6896
  151.2234  135.0526  159.8969 H   0  0  0  0  0  0  0  0  0  0  0  0  # atno 6908 bound_to 6896
  152.5429  134.0663  159.8228 H   0  0  0  0  0  0  0  0  0  0  0  0  # atno 6909 bound_to 6896
  144.8555  139.6087  143.5954 H   0  0  0  0  0  0  0  0  0  0  0  0  # atno 7974 bound_to 7965
  156.2021  140.1746  156.7877 H   0  0  0  0  0  0  0  0  0  0  0  0  # atno 8008 bound_to 7997
  154.5606  140.0700  156.8843 H   0  0  0  0  0  0  0  0  0  0  0  0  # atno 8009 bound_to 7997
  155.2856  140.3352  155.4258 H   0  0  0  0  0  0  0  0  0  0  0  0  # atno 8010 bound_to 7997
  140.1620  143.4113  152.1419 H   0  0  0  0  0  0  0  0  0  0  0  0  # atno 10167 bound_to 10162
  156.7018  130.5095  149.5915 H   0  0  0  0  0  0  0  0  0  0  0  0  # atno 10718 bound_to 10713
  153.6540  135.3358  155.3108 H   0  0  0  0  0  0  0  0  0  0  0  0  # atno 10763 bound_to 10752
  154.8531  135.4348  154.1874 H   0  0  0  0  0  0  0  0  0  0  0  0  # atno 10764 bound_to 10752
  153.2824  135.7010  153.7448 H   0  0  0  0  0  0  0  0  0  0  0  0  # atno 10765 bound_to 10752
  139.8926  134.8404  156.2822 H   0  0  0  0  0  0  0  0  0  0  0  0  # atno 11005 bound_to 11000
  146.2819  139.6900  142.9223 LP  0  0  0  0  0  0  0  0  0  0  0  0  # atno 17320 bound_to 7965
  145.4415  141.0422  143.2855 LP  0  0  0  0  0  0  0  0  0  0  0  0  # atno 17321 bound_to 7965
  139.5377  144.7226  151.4838 LP  0  0  0  0  0  0  0  0  0  0  0  0  # atno 17342 bound_to 10162
  140.6637  143.8444  150.6917 LP  0  0  0  0  0  0  0  0  0  0  0  0  # atno 17343 bound_to 10162
  156.1723  130.6445  151.0852 LP  0  0  0  0  0  0  0  0  0  0  0  0  # atno 17370 bound_to 10713
  157.6970  131.0790  150.6938 LP  0  0  0  0  0  0  0  0  0  0  0  0  # atno 17371 bound_to 10713
  141.0031  133.7139  156.0992 LP  0  0  0  0  0  0  0  0  0  0  0  0  # atno 17394 bound_to 11000
  140.7470  134.4087  157.5547 LP  0  0  0  0  0  0  0  0  0  0  0  0  # atno 17395 bound_to 11000

$$$$
