#       Name:                AV-unprocessed.smi:2345
#       Creating user name   scv26
#       Creation time:       Fri Mar 27 12:58:35 2020


#       File generated by GOLD software.
#

@<TRIPOS>MOLECULE
AV-unprocessed.smi:2345
    40    41     1
SMALL
NO_CHARGES


@<TRIPOS>ATOM
      1 ****        -2.3254   1.8844   1.8457 C.3            1 S1                 0.0000
      2 ****        -0.8822   1.4173   2.0491 C.3            1 S1                 0.0000
      3 ****        -0.8106  -0.3442   2.4778 S.3            1 S1                 0.0000
      4 ****         0.9865  -0.6499   2.3498 C.3            1 S1                 0.0000
      5 ****         1.4268  -1.6185   3.4495 C.3            1 S1                 0.0000
      6 ****         1.1540  -3.0060   2.8719 C.3            1 S1                 0.0000
      7 ****         1.4272  -2.8764   1.3698 C.3            1 S1                 0.0000
      8 ****         1.4105  -1.3694   1.0452 C.3            1 S1                 0.0000
      9 ****         0.5514  -1.0841  -0.1031 N.am           1 S1                 0.0000
     10 ****         0.7295  -0.0793  -0.9719 C.2            1 S1                 0.0000
     11 ****         1.6622   0.7208  -0.9018 O.2            1 S1                 0.0000
     12 ****        -0.2530  -0.0531  -1.8881 N.am           1 S1                 0.0000
     13 ****        -0.4475   0.8629  -2.9576 C.ar           1 S1                 0.0000
     14 ****         0.5866   1.6369  -3.5381 C.ar           1 S1                 0.0000
     15 ****         0.2661   2.4975  -4.6074 C.ar           1 S1                 0.0000
     16 ****        -0.9777   2.6197  -5.1175 N.ar           1 S1                 0.0000
     17 ****        -1.9580   1.8697  -4.5710 C.ar           1 S1                 0.0000
     18 ****        -1.7451   0.9787  -3.4999 C.ar           1 S1                 0.0000
     19 ****        -2.7739   0.2520  -3.0002 F              1 S1                 0.0000
     20 ****        -2.3584   2.9431   1.5878 H              1 S1                 0.0000
     21 ****        -2.9171   1.7422   2.7504 H              1 S1                 0.0000
     22 ****        -2.8057   1.3301   1.0387 H              1 S1                 0.0000
     23 ****        -0.3094   1.5932   1.1397 H              1 S1                 0.0000
     24 ****        -0.4057   1.9930   2.8430 H              1 S1                 0.0000
     25 ****         1.5039   0.3038   2.4596 H              1 S1                 0.0000
     26 ****         2.4970  -1.5042   3.6272 H              1 S1                 0.0000
     27 ****         0.9184  -1.4503   4.3996 H              1 S1                 0.0000
     28 ****         1.7618  -3.7797   3.3417 H              1 S1                 0.0000
     29 ****         0.1073  -3.2682   3.0321 H              1 S1                 0.0000
     30 ****         2.4021  -3.2979   1.1222 H              1 S1                 0.0000
     31 ****         0.6839  -3.4360   0.8001 H              1 S1                 0.0000
     32 ****         2.4370  -1.0778   0.8143 H              1 S1                 0.0000
     33 ****        -0.2502  -1.6850  -0.2277 H              1 S1                 0.0000
     34 ****        -0.9929  -0.7283  -1.7624 H              1 S1                 0.0000
     35 ****         1.6092   1.5804  -3.1982 H              1 S1                 0.0000
     36 ****         1.0332   3.1007  -5.0703 H              1 S1                 0.0000
     37 ****        -2.9422   1.9817  -5.0012 H              1 S1                 0.0000
     38 ****         2.3366   0.6395  -0.1679 LP             1 S1                 0.0000
     39 ****         1.7456   1.4521  -1.5787 LP             1 S1                 0.0000
     40 ****        -1.1665   3.2449  -5.8748 LP             1 S1                 0.0000
@<TRIPOS>BOND
    1    1    2 1     
    2    1   20 1     
    3    1   21 1     
    4    1   22 1     
    5    2    3 1     
    6    2   23 1     
    7    2   24 1     
    8    3    4 1     
    9    4    8 1     
   10    4    5 1     
   11    4   25 1     
   12    5    6 1     
   13    5   26 1     
   14    5   27 1     
   15    6    7 1     
   16    6   28 1     
   17    6   29 1     
   18    7    8 1     
   19    7   30 1     
   20    7   31 1     
   21    8    9 1     
   22    8   32 1     
   23    9   10 am    
   24    9   33 1     
   25   10   11 2     
   26   10   12 am    
   27   12   13 1     
   28   12   34 1     
   29   13   18 ar    
   30   13   14 ar    
   31   14   15 ar    
   32   14   35 1     
   33   15   16 ar    
   34   15   36 1     
   35   16   17 ar    
   36   17   18 ar    
   37   17   37 1     
   38   18   19 1     
   39   11   38 1     
   40   11   39 1     
   41   16   40 1     
@<TRIPOS>SUBSTRUCTURE
      1 S1             1
@<TRIPOS>SET
LONE_PAIRS      STATIC     ATOMS    <user>   **** ""
3 38 39 40
DONOR_HYDROGENS      STATIC     ATOMS    <user>   **** ""
2 33 34
ATOM$BLUE        STATIC     ATOMS    COLORGROUP SYSTEM
3 38 39 40
ATOM$RED        STATIC     ATOMS    COLORGROUP SYSTEM
2 33 34
