#       Name:                AV-unprocessed.smi:1978
#       Creating user name   scv26
#       Creation time:       Fri Mar 27 10:20:35 2020


#       File generated by GOLD software.
#

@<TRIPOS>MOLECULE
AV-unprocessed.smi:1978
    50    51     1
SMALL
NO_CHARGES


@<TRIPOS>ATOM
      1 ****        -6.5786   5.4638   0.0843 C.3            1 S1                 0.0000
      2 ****        -5.6486   4.3145  -0.1017 C.2            1 S1                 0.0000
      3 ****        -4.2977   4.1767   0.0507 C.2            1 S1                 0.0000
      4 ****        -4.0721   2.8175  -0.2948 C.2            1 S1                 0.0000
      5 ****        -2.7618   2.2708  -0.2615 N.am           1 S1                 0.0000
      6 ****        -2.3624   1.0198  -0.5553 C.2            1 S1                 0.0000
      7 ****        -3.1835   0.1736  -0.9287 O.2            1 S1                 0.0000
      8 ****        -1.0213   0.8557  -0.3883 N.pl3          1 S1                -1.0000
      9 ****        -0.3052  -0.3972  -0.6259 C.3            1 S1                 0.0000
     10 ****         1.1886  -0.2656  -0.1916 C.3            1 S1                 0.0000
     11 ****         1.9336   0.6719  -1.1916 C.3            1 S1                 0.0000
     12 ****         1.8180  -1.6287  -0.0349 N.4            1 S1                 1.0000
     13 ****         1.4701  -2.3429   1.2368 C.3            1 S1                 0.0000
     14 ****         1.8031  -3.8403   1.1280 C.3            1 S1                 0.0000
     15 ****         3.2796  -4.0634   0.7805 C.3            1 S1                 0.0000
     16 ****         3.6640  -3.2454  -0.4624 C.3            1 S1                 0.0000
     17 ****         3.2845  -1.7546  -0.3261 C.3            1 S1                 0.0000
     18 ****         4.1879  -1.0288   0.7008 C.3            1 S1                 0.0000
     19 ****        -5.1870   2.1832  -0.6265 N.2            1 S1                 0.0000
     20 ****        -6.2024   3.1390  -0.5048 O.3            1 S1                 0.0000
     21 ****        -6.0403   6.3507   0.4189 H              1 S1                 0.0000
     22 ****        -7.3389   5.2285   0.8292 H              1 S1                 0.0000
     23 ****        -7.0831   5.7070  -0.8509 H              1 S1                 0.0000
     24 ****        -3.5866   4.9283   0.3593 H              1 S1                 0.0000
     25 ****        -2.0326   2.9056   0.0275 H              1 S1                 0.0000
     26 ****        -0.7753  -1.2123  -0.0768 H              1 S1                 0.0000
     27 ****        -0.3452  -0.7017  -1.6725 H              1 S1                 0.0000
     28 ****         1.2332   0.2095   0.7903 H              1 S1                 0.0000
     29 ****         1.4578   1.6510  -1.2825 H              1 S1                 0.0000
     30 ****         1.9876   0.2478  -2.1964 H              1 S1                 0.0000
     31 ****         2.9521   0.8933  -0.8823 H              1 S1                 0.0000
     32 ****         1.9917  -1.8921   2.0805 H              1 S1                 0.0000
     33 ****         0.4120  -2.2598   1.4795 H              1 S1                 0.0000
     34 ****         1.5615  -4.3456   2.0636 H              1 S1                 0.0000
     35 ****         1.1752  -4.2956   0.3608 H              1 S1                 0.0000
     36 ****         3.9054  -3.7824   1.6275 H              1 S1                 0.0000
     37 ****         3.4664  -5.1232   0.6036 H              1 S1                 0.0000
     38 ****         4.7318  -3.3477  -0.6595 H              1 S1                 0.0000
     39 ****         3.1553  -3.6642  -1.3320 H              1 S1                 0.0000
     40 ****         3.4848  -1.3257  -1.3069 H              1 S1                 0.0000
     41 ****         5.2222  -1.0166   0.3559 H              1 S1                 0.0000
     42 ****         4.1867  -1.5125   1.6764 H              1 S1                 0.0000
     43 ****         3.8914   0.0052   0.8660 H              1 S1                 0.0000
     44 ****         1.3770  -2.1672  -0.7669 H              1 S1                 0.0000
     45 ****        -4.1495   0.4176  -1.0135 LP             1 S1                 0.0000
     46 ****        -2.8813  -0.7546  -1.1457 LP             1 S1                 0.0000
     47 ****        -0.4897   1.6455  -0.0824 LP             1 S1                 0.0000
     48 ****        -5.2825   1.2273  -0.9041 LP             1 S1                 0.0000
     49 ****        -6.6536   3.2650  -1.3883 LP             1 S1                 0.0000
     50 ****        -6.8728   2.8335   0.1713 LP             1 S1                 0.0000
@<TRIPOS>BOND
    1    1    2 1     
    2    1   21 1     
    3    1   22 1     
    4    1   23 1     
    5    2   20 1     
    6    2    3 2     
    7    3    4 1     
    8    3   24 1     
    9    4    5 1     
   10    4   19 2     
   11    5    6 am    
   12    5   25 1     
   13    6    7 2     
   14    6    8 1     
   15    8    9 1     
   16    9   10 1     
   17    9   26 1     
   18    9   27 1     
   19   10   11 1     
   20   10   12 1     
   21   10   28 1     
   22   11   29 1     
   23   11   30 1     
   24   11   31 1     
   25   12   17 1     
   26   12   13 1     
   27   12   44 1     
   28   13   14 1     
   29   13   32 1     
   30   13   33 1     
   31   14   15 1     
   32   14   34 1     
   33   14   35 1     
   34   15   16 1     
   35   15   36 1     
   36   15   37 1     
   37   16   17 1     
   38   16   38 1     
   39   16   39 1     
   40   17   18 1     
   41   17   40 1     
   42   18   41 1     
   43   18   42 1     
   44   18   43 1     
   45   19   20 1     
   46    7   45 1     
   47    7   46 1     
   48    8   47 1     
   49   19   48 1     
   50   20   49 1     
   51   20   50 1     
@<TRIPOS>SUBSTRUCTURE
      1 S1             1
@<TRIPOS>SET
LONE_PAIRS      STATIC     ATOMS    <user>   **** ""
6 45 46 47 48 49 50
DONOR_HYDROGENS      STATIC     ATOMS    <user>   **** ""
2 25 44
ATOM$BLUE        STATIC     ATOMS    COLORGROUP SYSTEM
6 45 46 47 48 49 50
ATOM$RED        STATIC     ATOMS    COLORGROUP SYSTEM
2 25 44
