AV-unprocessed.smi:1554|AV-procd|sdf|6247|dock1
  -GOLD-   22720 6433D 1   1.00000     0.00000
 Structure written by MMmdl.
 48 50  0  0  0  0  0  0  0  0  2 V2000
  152.0434  142.6108  160.5475 C   0  0  0  0  0  0  0  0  0  0  0  0
  151.7840  141.9277  159.2161 C   0  0  0  0  0  0  0  0  0  0  0  0
  152.6849  140.9370  158.7650 C   0  0  0  0  0  0  0  0  0  0  0  0
  152.4776  140.2754  157.5348 C   0  0  0  0  0  0  0  0  0  0  0  0
  153.2190  139.2875  156.9096 N   0  0  0  0  0  0  0  0  0  0  0  0
  152.5147  139.0852  155.8002 C   0  0  0  0  0  0  0  0  0  0  0  0
  151.4016  139.8247  155.6327 N   0  0  0  0  0  0  0  0  0  0  0  0
  150.4813  139.7719  154.5109 C   0  0  0  0  0  0  0  0  0  0  0  0
  149.5252  138.5660  154.5908 C   0  0  1  0  0  0  0  0  0  0  0  0
  148.9131  138.3663  153.3306 O   0  0  0  0  0  0  0  0  0  0  0  0
  150.2620  137.2743  154.9956 C   0  0  0  0  0  0  0  0  0  0  0  0
  149.5487  136.0505  154.5396 N   0  3  2  0  0  0  0  0  0  0  0  0
  148.2703  135.7768  155.2453 C   0  0  0  0  0  0  0  0  0  0  0  0
  148.5117  135.1433  156.6297 C   0  0  0  0  0  0  0  0  0  0  0  0
  149.3190  133.9799  156.4960 O   0  0  0  0  0  0  0  0  0  0  0  0
  150.5966  134.2629  155.9357 C   0  0  1  0  0  0  0  0  0  0  0  0
  151.4111  132.9646  155.9250 C   0  0  0  0  0  0  0  0  0  0  0  0
  150.4007  134.8364  154.5174 C   0  0  0  0  0  0  0  0  0  0  0  0
  151.3350  140.6349  156.7616 C   0  0  0  0  0  0  0  0  0  0  0  0
  150.4317  141.6197  157.1996 C   0  0  0  0  0  0  0  0  0  0  0  0
  150.6540  142.2708  158.4311 C   0  0  0  0  0  0  0  0  0  0  0  0
  149.6731  143.3329  158.8949 C   0  0  0  0  0  0  0  0  0  0  0  0
  152.9720  142.2619  161.0003 H   0  0  0  0  0  0  0  0  0  0  0  0
  151.2320  142.4039  161.2456 H   0  0  0  0  0  0  0  0  0  0  0  0
  152.1211  143.6904  160.4165 H   0  0  0  0  0  0  0  0  0  0  0  0
  153.5452  140.6752  159.3632 H   0  0  0  0  0  0  0  0  0  0  0  0
  152.8235  138.3545  155.0667 H   0  0  0  0  0  0  0  0  0  0  0  0
  149.9209  140.7068  154.4722 H   0  0  0  0  0  0  0  0  0  0  0  0
  151.0690  139.7247  153.5932 H   0  0  0  0  0  0  0  0  0  0  0  0
  148.7414  138.7946  155.3126 H   0  0  0  0  0  0  0  0  0  0  0  0
  149.1749  137.5221  152.9954 H   0  0  0  0  0  0  0  0  0  0  0  0
  151.2645  137.3008  154.5655 H   0  0  0  0  0  0  0  0  0  0  0  0
  150.4022  137.2411  156.0759 H   0  0  0  0  0  0  0  0  0  0  0  0
  147.6671  136.6791  155.3379 H   0  0  0  0  0  0  0  0  0  0  0  0
  147.6895  135.0847  154.6343 H   0  0  0  0  0  0  0  0  0  0  0  0
  148.9809  135.8485  157.3166 H   0  0  0  0  0  0  0  0  0  0  0  0
  147.5602  134.8574  157.0779 H   0  0  0  0  0  0  0  0  0  0  0  0
  151.1149  134.9879  156.5658 H   0  0  0  0  0  0  0  0  0  0  0  0
  152.4059  133.1292  155.5099 H   0  0  0  0  0  0  0  0  0  0  0  0
  150.9218  132.1953  155.3270 H   0  0  0  0  0  0  0  0  0  0  0  0
  151.5342  132.5731  156.9350 H   0  0  0  0  0  0  0  0  0  0  0  0
  149.9130  134.0912  153.8873 H   0  0  0  0  0  0  0  0  0  0  0  0
  151.3606  135.0515  154.0464 H   0  0  0  0  0  0  0  0  0  0  0  0
  149.5740  141.8713  156.5940 H   0  0  0  0  0  0  0  0  0  0  0  0
  148.8578  143.4599  158.1821 H   0  0  0  0  0  0  0  0  0  0  0  0
  150.1752  144.2945  159.0033 H   0  0  0  0  0  0  0  0  0  0  0  0
  149.2376  143.0581  159.8558 H   0  0  0  0  0  0  0  0  0  0  0  0
  149.3114  136.2367  153.5750 H   0  0  0  0  0  0  0  0  0  0  0  0
  1  2  1  0  0  0  0
  1 23  1  0  0  0  0
  1 24  1  0  0  0  0
  1 25  1  0  0  0  0
  2 21  1  0  0  0  0
  2  3  2  0  0  0  0
  3  4  1  0  0  0  0
  3 26  1  0  0  0  0
  4 19  2  0  0  0  0
  4  5  1  0  0  0  0
  5  6  2  0  0  0  0
  6  7  1  0  0  0  0
  6 27  1  0  0  0  0
  7  8  1  0  0  0  0
  7 19  1  0  0  0  0
  8  9  1  0  0  0  0
  8 28  1  0  0  0  0
  8 29  1  0  0  0  0
  9 10  1  0  0  0  0
  9 11  1  0  0  0  0
  9 30  1  0  0  0  0
 10 31  1  0  0  0  0
 11 12  1  0  0  0  0
 11 32  1  0  0  0  0
 11 33  1  0  0  0  0
 12 18  1  0  0  0  0
 12 13  1  0  0  0  0
 12 48  1  0  0  0  0
 13 14  1  0  0  0  0
 13 34  1  0  0  0  0
 13 35  1  0  0  0  0
 14 15  1  0  0  0  0
 14 36  1  0  0  0  0
 14 37  1  0  0  0  0
 15 16  1  0  0  0  0
 16 17  1  0  0  0  0
 16 18  1  0  0  0  0
 16 38  1  0  0  0  0
 17 39  1  0  0  0  0
 17 40  1  0  0  0  0
 17 41  1  0  0  0  0
 18 42  1  0  0  0  0
 18 43  1  0  0  0  0
 19 20  1  0  0  0  0
 20 21  2  0  0  0  0
 20 44  1  0  0  0  0
 21 22  1  0  0  0  0
 22 45  1  0  0  0  0
 22 46  1  0  0  0  0
 22 47  1  0  0  0  0
M  CHG  1  12   1
M  END
> <s_m_source_file>
AV-unprocessed.smi

> <i_m_source_file_index>
1554

> <i_lp_mmshare_version>
43012

> <i_f3d_flags>
0

> <s_epik_input>
W0NIM11jKFtjSF0xKWMoW0NIM10pW2NIXWMoYzEyKW4oW2NIXW4yKVtDSDJdW0NASF0oW09IXSlbQ0gyXU4zW0NIMl1bQ0gyXU9bQ0BASF0oW0NIM10pW0NIMl0z

> <s_epik_cmdline>
J2VwaWtfcHl0aG9uJywgJy1waCcsICc3LjAnLCAnLXRuJywgJzgnLCAnLW1hJywgJzIwMCcsICctbWV0YWxfYmluZGluZycsICctaW1hZScsICc8aW5maWxlLm1hZT4nLCAnLW9tYWUnLCAnPG91dGZpbGUubWFlPic=

> <r_epik_Ionization_Penalty>
0.695251

> <r_epik_Ionization_Penalty_Charging>
0.608065

> <r_epik_Ionization_Penalty_Neutral>
0.0871863

> <r_epik_State_Penalty>
0.731955

> <r_epik_Charging_Adjusted_Penalty>
1.34002

> <i_epik_Tot_Q>
1

> <i_epik_Tot_abs_Q>
1

> <r_epik_Metal_State_Penalty>
0.652186

> <b_epik_Metal_Only>
0

> <s_lp_Force_Field>
OPLS_2005

> <r_lp_Energy>
22.6642

> <b_lp_Chiralities_Consistent>
1

> <s_lp_Variant>
AV-unprocessed.smi:1554-8

> <Gold.Version>
5.8.1

> <Gold.Id.Protein>
6NUR|6NUR_protein|mol2

> <Gold.PLP.Fitness>
45.1801

> <Gold.PLP.PLP>
-35.0042

> <Gold.PLP.part.hbond>
-3.9728

> <Gold.PLP.part.metal>
0.0000

> <Gold.PLP.part.buried>
1.0659

> <Gold.PLP.part.nonpolar>
-30.8842

> <Gold.PLP.part.repulsive>
0.0136

> <Gold.PLP.ligand.clash>
0.0000

> <Gold.PLP.ligand.torsion>
0.7435

> <Gold.PLP.Chemscore.Hbond>
3.8500

> <Gold.PLP.Chemscore.CHOScore>
0.0000

> <Gold.PLP.Chemscore.Metal>
0.0000

> <Gold.Chemscore.Hbonds>
donor molecule, donor type, donor heavy atom, donor atom, acceptor molecule, acceptor atom, score
      L1  H    10    31       P1  7948  1.00
      L1  H    12    48       P1  7948  2.00
      P1  H  7997  8008       L1     5  0.80

> <Gold.PLP.Chemscore.Internal.Correction>
0.1130

> <Gold.Rescore>
     Score         DG    S(hbond)    S(metal)    S(lipo)     H(rot)  DE(clash)    DE(int)     intcor
     15.99     -18.05       2.21        0.00      89.33       2.05       1.20       0.86       ----

> <Gold.Chemscore.Fitness>
15.9905

> <Gold.Chemscore.DG>
-18.0513

> <Gold.Chemscore.ZeroCoef>
-5.4800

> <Gold.Chemscore.Hbond>
2.2095

> <Gold.Chemscore.Metal>
0.0000

> <Gold.Chemscore.Lipo>
89.3274

> <Gold.Chemscore.Internal_Hbond>
0.0000

> <Gold.Chemscore.DEClash>
1.1984

> <Gold.Chemscore.DEInternal>
0.8624

> <Gold.Chemscore.Rot>
2.0546

> <Gold.Chemscore.Internal.Correction>
   9.000000E+99

> <Gold.Chemscore.Hbonds>
donor molecule, donor type, donor heavy atom, donor atom, acceptor molecule, acceptor atom, score
      L1  H    10    31       P1  7948  0.93
      L1  H    12    48       P1  7948  0.82
      P1  H  7997  8008       L1     5  0.07

> <Gold.Chemscore.Hbond.Weighted>
-7.3797

> <Gold.Chemscore.Metal.Weighted>
-0.0000

> <Gold.Chemscore.Lipo.Weighted>
-10.4513

> <Gold.Chemscore.Internal_Hbond.Weighted>
0.0000

> <Gold.Chemscore.DEClash.Weighted>
1.1984

> <Gold.Chemscore.DEInternal.Weighted>
0.8624

> <Gold.Chemscore.Rot.Weighted>
5.2597

> <Gold.Chemscore.Internal.Correction.Weighted>
   9.000000E+99

> <Gold.Protein.RotatedTorsions>
[ 6907 6896 6895 6894 ] final  -75.09 input  -60.11 | X-H torsion
[ 7974 7965 7964 7962 ] final   51.21 input  175.53 | X-H torsion
[ 8008 7997 7996 7995 ] final  -47.31 input   59.86 | X-H torsion
[ 10167 10162 10161 10158 ] final -115.27 input  -65.29 | X-H torsion
[ 10718 10713 10712 10709 ] final  -72.50 input   66.30 | X-H torsion
[ 10763 10752 10751 10750 ] final   25.30 input  -60.55 | X-H torsion
[ 11005 11000 10999 10996 ] final   38.50 input  -57.11 | X-H torsion

> <Gold.Protein.ActiveResidues>
 VAL166  LYS551  ARG553  GLY616  TRP617  ASP618  TYR619  PRO620  LYS621  CYS622 
 ASP623  PHE694  ASN695  SER759  ASP760  ASP761  ALA762  ILE779  LEU786  VAL792 
 PHE793  MET794  SER795  GLU796  ALA797  LYS798  CYS799  TRP800  GLU811  SER814 

> <Gold.Protein.RotatedAtoms>
  150.7071  134.4773  159.5453 H   0  0  0  0  0  0  0  0  0  0  0  0  # atno 6907 bound_to 6896
  152.2417  134.8219  160.0468 H   0  0  0  0  0  0  0  0  0  0  0  0  # atno 6908 bound_to 6896
  151.8998  133.3500  159.3863 H   0  0  0  0  0  0  0  0  0  0  0  0  # atno 6909 bound_to 6896
  145.9936  139.4365  143.0058 H   0  0  0  0  0  0  0  0  0  0  0  0  # atno 7974 bound_to 7965
  154.4015  140.1349  156.4154 H   0  0  0  0  0  0  0  0  0  0  0  0  # atno 8008 bound_to 7997
  155.7693  140.3484  155.5218 H   0  0  0  0  0  0  0  0  0  0  0  0  # atno 8009 bound_to 7997
  155.8782  140.0983  157.1494 H   0  0  0  0  0  0  0  0  0  0  0  0  # atno 8010 bound_to 7997
  140.0919  143.4692  152.1864 H   0  0  0  0  0  0  0  0  0  0  0  0  # atno 10167 bound_to 10162
  156.0318  130.4373  150.2601 H   0  0  0  0  0  0  0  0  0  0  0  0  # atno 10718 bound_to 10713
  153.0702  135.6586  154.0265 H   0  0  0  0  0  0  0  0  0  0  0  0  # atno 10763 bound_to 10752
  153.9913  135.2946  155.3413 H   0  0  0  0  0  0  0  0  0  0  0  0  # atno 10764 bound_to 10752
  154.7073  135.5220  153.8684 H   0  0  0  0  0  0  0  0  0  0  0  0  # atno 10765 bound_to 10752
  140.2120  134.3743  155.8044 H   0  0  0  0  0  0  0  0  0  0  0  0  # atno 11005 bound_to 11000
  145.7593  140.9942  143.1208 LP  0  0  0  0  0  0  0  0  0  0  0  0  # atno 17320 bound_to 7965
  144.6896  139.9310  143.7471 LP  0  0  0  0  0  0  0  0  0  0  0  0  # atno 17321 bound_to 7965
  139.5720  144.7467  151.3866 LP  0  0  0  0  0  0  0  0  0  0  0  0  # atno 17342 bound_to 10162
  140.7024  143.7599  150.7425 LP  0  0  0  0  0  0  0  0  0  0  0  0  # atno 17343 bound_to 10162
  157.0703  131.0115  151.3192 LP  0  0  0  0  0  0  0  0  0  0  0  0  # atno 17370 bound_to 10713
  157.5004  130.7876  149.7599 LP  0  0  0  0  0  0  0  0  0  0  0  0  # atno 17371 bound_to 10713
  141.2226  133.7148  156.8434 LP  0  0  0  0  0  0  0  0  0  0  0  0  # atno 17394 bound_to 11000
  140.1940  134.8945  157.3093 LP  0  0  0  0  0  0  0  0  0  0  0  0  # atno 17395 bound_to 11000

$$$$
