AV-unprocessed.smi:2193|AV-procd|sdf|8898|dock4
  -GOLD-   2272012103D 1   1.00000     0.00000
 Structure written by MMmdl.
 40 42  0  0  0  0  0  0  0  0  1 V2000
  152.7904  139.3902  156.1448 O   0  0  0  0  0  0  0  0  0  0  0  0
  152.0095  139.4112  157.3198 C   0  0  0  0  0  0  0  0  0  0  0  0
  151.9387  140.7691  157.9501 C   0  0  0  0  0  0  0  0  0  0  0  0
  152.3336  140.9761  159.2070 N   0  0  0  0  0  0  0  0  0  0  0  0
  152.1246  142.3306  159.3740 C   0  0  0  0  0  0  0  0  0  0  0  0
  152.3537  143.1642  160.4921 C   0  0  0  0  0  0  0  0  0  0  0  0
  152.0644  144.5428  160.4259 C   0  0  0  0  0  0  0  0  0  0  0  0
  151.5451  145.1070  159.2428 C   0  0  0  0  0  0  0  0  0  0  0  0
  151.3099  144.2941  158.1172 C   0  0  0  0  0  0  0  0  0  0  0  0
  151.5964  142.9173  158.1897 C   0  0  0  0  0  0  0  0  0  0  0  0
  151.4788  141.8630  157.2885 N   0  0  0  0  0  0  0  0  0  0  0  0
  150.9806  141.9637  155.9216 C   0  0  0  0  0  0  0  0  0  0  0  0
  150.0327  140.8062  155.5455 C   0  0  2  0  0  0  0  0  0  0  0  0
  150.6869  139.9111  154.6694 O   0  0  0  0  0  0  0  0  0  0  0  0
  148.7471  141.2999  154.8665 C   0  0  0  0  0  0  0  0  0  0  0  0
  147.8496  141.7654  155.8662 O   0  0  0  0  0  0  0  0  0  0  0  0
  146.7552  142.5034  155.4700 C   0  0  0  0  0  0  0  0  0  0  0  0
  145.8516  142.8985  156.4784 C   0  0  0  0  0  0  0  0  0  0  0  0
  144.7063  143.6554  156.1645 C   0  0  0  0  0  0  0  0  0  0  0  0
  144.4521  144.0256  154.8311 C   0  0  0  0  0  0  0  0  0  0  0  0
  143.3514  144.7533  154.5269 F   0  0  0  0  0  0  0  0  0  0  0  0
  145.3445  143.6377  153.8144 C   0  0  0  0  0  0  0  0  0  0  0  0
  146.4906  142.8813  154.1288 C   0  0  0  0  0  0  0  0  0  0  0  0
  152.4295  138.7456  155.5560 H   0  0  0  0  0  0  0  0  0  0  0  0
  151.0016  139.0792  157.0677 H   0  0  0  0  0  0  0  0  0  0  0  0
  152.4011  138.6899  158.0368 H   0  0  0  0  0  0  0  0  0  0  0  0
  152.7539  142.7419  161.4021 H   0  0  0  0  0  0  0  0  0  0  0  0
  152.2432  145.1705  161.2865 H   0  0  0  0  0  0  0  0  0  0  0  0
  151.3273  146.1642  159.1996 H   0  0  0  0  0  0  0  0  0  0  0  0
  150.9131  144.7239  157.2093 H   0  0  0  0  0  0  0  0  0  0  0  0
  150.4579  142.9165  155.8305 H   0  0  0  0  0  0  0  0  0  0  0  0
  151.8135  142.0100  155.2214 H   0  0  0  0  0  0  0  0  0  0  0  0
  149.7624  140.2435  156.4393 H   0  0  0  0  0  0  0  0  0  0  0  0
  150.9630  139.1547  155.1646 H   0  0  0  0  0  0  0  0  0  0  0  0
  148.9800  142.0929  154.1536 H   0  0  0  0  0  0  0  0  0  0  0  0
  148.2826  140.4777  154.3192 H   0  0  0  0  0  0  0  0  0  0  0  0
  146.0388  142.6184  157.5046 H   0  0  0  0  0  0  0  0  0  0  0  0
  144.0233  143.9510  156.9472 H   0  0  0  0  0  0  0  0  0  0  0  0
  145.1504  143.9204  152.7902 H   0  0  0  0  0  0  0  0  0  0  0  0
  147.1508  142.6027  153.3217 H   0  0  0  0  0  0  0  0  0  0  0  0
  1  2  1  0  0  0  0
  1 24  1  0  0  0  0
  2  3  1  0  0  0  0
  2 25  1  0  0  0  0
  2 26  1  0  0  0  0
  3 11  1  0  0  0  0
  3  4  2  0  0  0  0
  4  5  1  0  0  0  0
  5 10  2  0  0  0  0
  5  6  1  0  0  0  0
  6  7  2  0  0  0  0
  6 27  1  0  0  0  0
  7  8  1  0  0  0  0
  7 28  1  0  0  0  0
  8  9  2  0  0  0  0
  8 29  1  0  0  0  0
  9 10  1  0  0  0  0
  9 30  1  0  0  0  0
 10 11  1  0  0  0  0
 11 12  1  0  0  0  0
 12 13  1  0  0  0  0
 12 31  1  0  0  0  0
 12 32  1  0  0  0  0
 13 14  1  0  0  0  0
 13 15  1  0  0  0  0
 13 33  1  0  0  0  0
 14 34  1  0  0  0  0
 15 16  1  0  0  0  0
 15 35  1  0  0  0  0
 15 36  1  0  0  0  0
 16 17  1  0  0  0  0
 17 23  1  0  0  0  0
 17 18  2  0  0  0  0
 18 19  1  0  0  0  0
 18 37  1  0  0  0  0
 19 20  2  0  0  0  0
 19 38  1  0  0  0  0
 20 21  1  0  0  0  0
 20 22  1  0  0  0  0
 22 23  2  0  0  0  0
 22 39  1  0  0  0  0
 23 40  1  0  0  0  0
M  END
> <s_m_source_file>
AV-unprocessed.smi

> <i_m_source_file_index>
2193

> <i_lp_mmshare_version>
43012

> <i_f3d_flags>
0

> <s_epik_input>
W2NIXTFbY0hdW2NIXVtjSF1jKGMxMiluKGMobjIpW0NIMl1bT0hdKVtDSDJdW0NASF0oW09IXSlbQ0gyXU9jM1tjSF1bY0hdYyhGKVtjSF1bY0hdMw==

> <s_epik_cmdline>
J2VwaWtfcHl0aG9uJywgJy1waCcsICc3LjAnLCAnLXRuJywgJzgnLCAnLW1hJywgJzIwMCcsICctbWV0YWxfYmluZGluZycsICctaW1hZScsICc8aW5maWxlLm1hZT4nLCAnLW9tYWUnLCAnPG91dGZpbGUubWFlPic=

> <r_lp_tautomer_probability>
1

> <r_epik_Ionization_Penalty>
0.0549747

> <r_epik_Ionization_Penalty_Charging>
0

> <r_epik_Ionization_Penalty_Neutral>
0.0549747

> <r_epik_State_Penalty>
0.0472568

> <r_epik_Charging_Adjusted_Penalty>
0.0472568

> <i_epik_Tot_Q>
0

> <i_epik_Tot_abs_Q>
0

> <r_epik_Metal_State_Penalty>
4.91905e-05

> <b_epik_Metal_Only>
0

> <s_lp_Force_Field>
OPLS_2005

> <r_lp_Energy>
14.0704

> <b_lp_Chiralities_Consistent>
1

> <s_lp_Variant>
AV-unprocessed.smi:2193-1

> <Gold.Version>
5.8.1

> <Gold.Id.Protein>
6NUR|6NUR_protein|mol2

> <Gold.PLP.Fitness>
53.0616

> <Gold.PLP.PLP>
-49.1992

> <Gold.PLP.part.hbond>
-2.0000

> <Gold.PLP.part.metal>
0.0000

> <Gold.PLP.part.buried>
-7.5597

> <Gold.PLP.part.nonpolar>
-39.9097

> <Gold.PLP.part.repulsive>
0.2349

> <Gold.PLP.ligand.clash>
0.0000

> <Gold.PLP.ligand.torsion>
1.1553

> <Gold.PLP.Chemscore.Hbond>
2.0000

> <Gold.PLP.Chemscore.CHOScore>
0.0000

> <Gold.PLP.Chemscore.Metal>
0.0000

> <Gold.Chemscore.Hbonds>
donor molecule, donor type, donor heavy atom, donor atom, acceptor molecule, acceptor atom, score
      P1  H  7989  7998       L1    14  1.00
      P1  H  7997  8009       L1     1  1.00

> <Gold.PLP.Chemscore.Internal.Correction>
0.1730

> <Gold.Rescore>
     Score         DG    S(hbond)    S(metal)    S(lipo)     H(rot)  DE(clash)    DE(int)     intcor
     14.58     -17.41       1.92        0.00     117.46       3.22       0.52       2.31       ----

> <Gold.Chemscore.Fitness>
14.5826

> <Gold.Chemscore.DG>
-17.4085

> <Gold.Chemscore.ZeroCoef>
-5.4800

> <Gold.Chemscore.Hbond>
1.9245

> <Gold.Chemscore.Metal>
0.0000

> <Gold.Chemscore.Lipo>
117.4623

> <Gold.Chemscore.Internal_Hbond>
0.0000

> <Gold.Chemscore.DEClash>
0.5185

> <Gold.Chemscore.DEInternal>
2.3074

> <Gold.Chemscore.Rot>
3.2196

> <Gold.Chemscore.Internal.Correction>
   9.000000E+99

> <Gold.Chemscore.Hbonds>
donor molecule, donor type, donor heavy atom, donor atom, acceptor molecule, acceptor atom, score
      P1  H  7989  7998       L1    14  0.65
      P1  H  7997  8009       L1     1  0.95

> <Gold.Chemscore.Hbond.Weighted>
-6.4277

> <Gold.Chemscore.Metal.Weighted>
-0.0000

> <Gold.Chemscore.Lipo.Weighted>
-13.7431

> <Gold.Chemscore.Internal_Hbond.Weighted>
0.0000

> <Gold.Chemscore.DEClash.Weighted>
0.5185

> <Gold.Chemscore.DEInternal.Weighted>
2.3074

> <Gold.Chemscore.Rot.Weighted>
8.2422

> <Gold.Chemscore.Internal.Correction.Weighted>
   9.000000E+99

> <Gold.Protein.RotatedTorsions>
[ 6907 6896 6895 6894 ] final -154.52 input  -60.11 | X-H torsion
[ 7974 7965 7964 7962 ] final -119.78 input  175.53 | X-H torsion
[ 8008 7997 7996 7995 ] final -142.35 input   59.86 | X-H torsion
[ 10167 10162 10161 10158 ] final -168.85 input  -65.29 | X-H torsion
[ 10718 10713 10712 10709 ] final  108.97 input   66.30 | X-H torsion
[ 10763 10752 10751 10750 ] final  -68.64 input  -60.55 | X-H torsion
[ 11005 11000 10999 10996 ] final   86.06 input  -57.11 | X-H torsion

> <Gold.Protein.ActiveResidues>
 VAL166  LYS551  ARG553  GLY616  TRP617  ASP618  TYR619  PRO620  LYS621  CYS622 
 ASP623  PHE694  ASN695  SER759  ASP760  ASP761  ALA762  ILE779  LEU786  VAL792 
 PHE793  MET794  SER795  GLU796  ALA797  LYS798  CYS799  TRP800  GLU811  SER814 

> <Gold.Protein.RotatedAtoms>
  151.2588  133.4312  159.2614 H   0  0  0  0  0  0  0  0  0  0  0  0  # atno 6907 bound_to 6896
  151.0550  134.9698  159.8241 H   0  0  0  0  0  0  0  0  0  0  0  0  # atno 6908 bound_to 6896
  152.5389  134.2541  159.8962 H   0  0  0  0  0  0  0  0  0  0  0  0  # atno 6909 bound_to 6896
  145.0588  140.8274  143.4165 H   0  0  0  0  0  0  0  0  0  0  0  0  # atno 7974 bound_to 7965
  155.4927  140.0569  157.2951 H   0  0  0  0  0  0  0  0  0  0  0  0  # atno 8008 bound_to 7997
  154.4617  140.1999  156.0178 H   0  0  0  0  0  0  0  0  0  0  0  0  # atno 8009 bound_to 7997
  156.0901  140.3234  155.7809 H   0  0  0  0  0  0  0  0  0  0  0  0  # atno 8010 bound_to 7997
  139.5959  144.1113  152.1689 H   0  0  0  0  0  0  0  0  0  0  0  0  # atno 10167 bound_to 10162
  157.6562  131.0904  150.6384 H   0  0  0  0  0  0  0  0  0  0  0  0  # atno 10718 bound_to 10713
  154.3920  135.6050  153.5848 H   0  0  0  0  0  0  0  0  0  0  0  0  # atno 10763 bound_to 10752
  152.9787  135.5886  154.4287 H   0  0  0  0  0  0  0  0  0  0  0  0  # atno 10764 bound_to 10752
  154.4072  135.2843  155.2038 H   0  0  0  0  0  0  0  0  0  0  0  0  # atno 10765 bound_to 10752
  139.8954  134.8329  156.2668 H   0  0  0  0  0  0  0  0  0  0  0  0  # atno 11005 bound_to 11000
  145.1435  139.2557  143.5478 LP  0  0  0  0  0  0  0  0  0  0  0  0  # atno 17320 bound_to 7965
  146.3523  140.1119  142.8603 LP  0  0  0  0  0  0  0  0  0  0  0  0  # atno 17321 bound_to 7965
  140.0698  144.5789  150.7200 LP  0  0  0  0  0  0  0  0  0  0  0  0  # atno 17342 bound_to 10162
  140.7211  143.2590  151.4274 LP  0  0  0  0  0  0  0  0  0  0  0  0  # atno 17343 bound_to 10162
  156.6691  130.4534  149.5663 LP  0  0  0  0  0  0  0  0  0  0  0  0  # atno 17370 bound_to 10713
  156.2011  130.6620  151.1168 LP  0  0  0  0  0  0  0  0  0  0  0  0  # atno 17371 bound_to 10713
  141.0127  133.7086  156.1137 LP  0  0  0  0  0  0  0  0  0  0  0  0  # atno 17394 bound_to 11000
  140.7345  134.4218  157.5562 LP  0  0  0  0  0  0  0  0  0  0  0  0  # atno 17395 bound_to 11000

$$$$
