AV-unprocessed.smi:1254|AV-procd|sdf|5277|dock3
  -GOLD-   22720 4393D 1   1.00000     0.00000
 Structure written by MMmdl.
 45 46  0  0  0  0  0  0  0  0  3 V2000
  144.8454  134.6776  162.7988 C   0  0  0  0  0  0  0  0  0  0  0  0
  145.9088  135.4892  162.1419 C   0  0  0  0  0  0  0  0  0  0  0  0
  147.2701  135.3817  162.1045 C   0  0  0  0  0  0  0  0  0  0  0  0
  147.6602  136.4796  161.2899 C   0  0  0  0  0  0  0  0  0  0  0  0
  148.9188  136.8117  160.9630 N   0  5  0  0  0  0  0  0  0  0  0  0
  149.2782  136.9207  159.6637 C   0  0  0  0  0  0  0  0  0  0  0  0
  150.1662  136.2845  159.0915 O   0  0  0  0  0  0  0  0  0  0  0  0
  148.5626  137.8243  158.9830 N   0  0  0  0  0  0  0  0  0  0  0  0
  148.7338  138.1379  157.5710 C   0  0  0  0  0  0  0  0  0  0  0  0
  149.8667  139.1544  157.3780 C   0  0  2  0  0  0  0  0  0  0  0  0
  149.4593  140.5653  157.8510 C   0  0  0  0  0  0  0  0  0  0  0  0
  150.5380  141.5517  157.5979 N   0  3  1  0  0  0  0  0  0  0  0  0
  151.6568  141.4768  158.5764 C   0  0  0  0  0  0  0  0  0  0  0  0
  151.9364  142.8253  159.2743 C   0  0  0  0  0  0  0  0  0  0  0  0
  152.3716  143.8831  158.2491 C   0  0  0  0  0  0  0  0  0  0  0  0
  152.9920  142.6887  160.3845 C   0  0  0  0  0  0  0  0  0  0  0  0
  150.9549  141.5106  156.1728 C   0  0  0  0  0  0  0  0  0  0  0  0
  151.2856  140.0748  155.7216 C   0  0  0  0  0  0  0  0  0  0  0  0
  150.1814  139.2207  155.9901 O   0  0  0  0  0  0  0  0  0  0  0  0
  146.6280  137.1998  160.8838 N   0  0  0  0  0  0  0  0  0  0  0  0
  145.5002  136.5666  161.4197 O   0  0  0  0  0  0  0  0  0  0  0  0
  145.2394  134.1552  163.6707 H   0  0  0  0  0  0  0  0  0  0  0  0
  144.4481  133.9332  162.1084 H   0  0  0  0  0  0  0  0  0  0  0  0
  144.0201  135.3097  163.1281 H   0  0  0  0  0  0  0  0  0  0  0  0
  147.8890  134.6352  162.5789 H   0  0  0  0  0  0  0  0  0  0  0  0
  147.8476  138.3293  159.4860 H   0  0  0  0  0  0  0  0  0  0  0  0
  148.9413  137.2224  157.0148 H   0  0  0  0  0  0  0  0  0  0  0  0
  147.8000  138.5478  157.1825 H   0  0  0  0  0  0  0  0  0  0  0  0
  150.7408  138.8146  157.9370 H   0  0  0  0  0  0  0  0  0  0  0  0
  148.5684  140.8867  157.3094 H   0  0  0  0  0  0  0  0  0  0  0  0
  149.1873  140.5602  158.9073 H   0  0  0  0  0  0  0  0  0  0  0  0
  151.4182  140.7412  159.3460 H   0  0  0  0  0  0  0  0  0  0  0  0
  152.5572  141.1098  158.0837 H   0  0  0  0  0  0  0  0  0  0  0  0
  151.0170  143.1909  159.7303 H   0  0  0  0  0  0  0  0  0  0  0  0
  153.2959  143.5943  157.7476 H   0  0  0  0  0  0  0  0  0  0  0  0
  152.5406  144.8486  158.7270 H   0  0  0  0  0  0  0  0  0  0  0  0
  151.6086  144.0273  157.4833 H   0  0  0  0  0  0  0  0  0  0  0  0
  153.9403  142.3242  159.9883 H   0  0  0  0  0  0  0  0  0  0  0  0
  152.6678  141.9972  161.1624 H   0  0  0  0  0  0  0  0  0  0  0  0
  153.1817  143.6490  160.8647 H   0  0  0  0  0  0  0  0  0  0  0  0
  150.1298  141.8911  155.5694 H   0  0  0  0  0  0  0  0  0  0  0  0
  151.7978  142.1746  155.9858 H   0  0  0  0  0  0  0  0  0  0  0  0
  151.4870  140.0589  154.6503 H   0  0  0  0  0  0  0  0  0  0  0  0
  152.1824  139.6956  156.2130 H   0  0  0  0  0  0  0  0  0  0  0  0
  150.1195  142.4583  157.7509 H   0  0  0  0  0  0  0  0  0  0  0  0
  1  2  1  0  0  0  0
  1 22  1  0  0  0  0
  1 23  1  0  0  0  0
  1 24  1  0  0  0  0
  2 21  1  0  0  0  0
  2  3  2  0  0  0  0
  3  4  1  0  0  0  0
  3 25  1  0  0  0  0
  4  5  1  0  0  0  0
  4 20  2  0  0  0  0
  5  6  1  0  0  0  0
  6  7  2  0  0  0  0
  6  8  1  0  0  0  0
  8  9  1  0  0  0  0
  8 26  1  0  0  0  0
  9 10  1  0  0  0  0
  9 27  1  0  0  0  0
  9 28  1  0  0  0  0
 10 19  1  0  0  0  0
 10 11  1  0  0  0  0
 10 29  1  0  0  0  0
 11 12  1  0  0  0  0
 11 30  1  0  0  0  0
 11 31  1  0  0  0  0
 12 13  1  0  0  0  0
 12 17  1  0  0  0  0
 12 45  1  0  0  0  0
 13 14  1  0  0  0  0
 13 32  1  0  0  0  0
 13 33  1  0  0  0  0
 14 15  1  0  0  0  0
 14 16  1  0  0  0  0
 14 34  1  0  0  0  0
 15 35  1  0  0  0  0
 15 36  1  0  0  0  0
 15 37  1  0  0  0  0
 16 38  1  0  0  0  0
 16 39  1  0  0  0  0
 16 40  1  0  0  0  0
 17 18  1  0  0  0  0
 17 41  1  0  0  0  0
 17 42  1  0  0  0  0
 18 19  1  0  0  0  0
 18 43  1  0  0  0  0
 18 44  1  0  0  0  0
 20 21  1  0  0  0  0
M  CHG  1   5  -1
M  CHG  1  12   1
M  END
> <s_m_source_file>
AV-unprocessed.smi

> <i_m_source_file_index>
1254

> <i_lp_mmshare_version>
43012

> <i_f3d_flags>
0

> <s_epik_input>
W0NIM11jMVtjSF1jKG5vMSlbTkhdQyg9TylbTkhdW0NIMl1bQ0BASF0yW0NIMl1OKFtDSDJdW0NIMl1PMilbQ0gyXVtDSF0oW0NIM10pW0NIM10=

> <s_epik_cmdline>
J2VwaWtfcHl0aG9uJywgJy1waCcsICc3LjAnLCAnLXRuJywgJzgnLCAnLW1hJywgJzIwMCcsICctbWV0YWxfYmluZGluZycsICctaW1hZScsICc8aW5maWxlLm1hZT4nLCAnLW9tYWUnLCAnPG91dGZpbGUubWFlPic=

> <r_epik_Ionization_Penalty>
6.33139

> <r_epik_Ionization_Penalty_Charging>
6.33128

> <r_epik_Ionization_Penalty_Neutral>
0.000104968

> <r_epik_State_Penalty>
6.32522

> <r_epik_Charging_Adjusted_Penalty>
12.6565

> <i_epik_Tot_Q>
0

> <i_epik_Tot_abs_Q>
2

> <r_epik_Metal_State_Penalty>
2.26285

> <b_epik_Metal_Only>
1

> <s_lp_Force_Field>
OPLS_2005

> <r_lp_Energy>
8.92976

> <b_lp_Chiralities_Consistent>
1

> <s_lp_Variant>
AV-unprocessed.smi:1254-9

> <Gold.Version>
5.8.1

> <Gold.Id.Protein>
6NUR|6NUR_protein|mol2

> <Gold.PLP.Fitness>
45.3707

> <Gold.PLP.PLP>
-37.2713

> <Gold.PLP.part.hbond>
-3.0000

> <Gold.PLP.part.metal>
0.0000

> <Gold.PLP.part.buried>
-4.6294

> <Gold.PLP.part.nonpolar>
-31.1100

> <Gold.PLP.part.repulsive>
0.2574

> <Gold.PLP.ligand.clash>
0.0000

> <Gold.PLP.ligand.torsion>
2.0249

> <Gold.PLP.Chemscore.Hbond>
3.9840

> <Gold.PLP.Chemscore.CHOScore>
0.0000

> <Gold.PLP.Chemscore.Metal>
0.0000

> <Gold.Chemscore.Hbonds>
donor molecule, donor type, donor heavy atom, donor atom, acceptor molecule, acceptor atom, score
      P1  H  6896  6909       L1     7  1.00
      P1  H  6931  6943       L1     5  1.85
      P1  H  6934  6947       L1    20  1.00

> <Gold.PLP.Chemscore.Internal.Correction>
0.1972

> <Gold.Rescore>
     Score         DG    S(hbond)    S(metal)    S(lipo)     H(rot)  DE(clash)    DE(int)     intcor
     14.57     -18.03       2.08        0.00      84.98       1.69       0.03       3.43       ----

> <Gold.Chemscore.Fitness>
14.5710

> <Gold.Chemscore.DG>
-18.0300

> <Gold.Chemscore.ZeroCoef>
-5.4800

> <Gold.Chemscore.Hbond>
2.0778

> <Gold.Chemscore.Metal>
0.0000

> <Gold.Chemscore.Lipo>
84.9846

> <Gold.Chemscore.Internal_Hbond>
0.0000

> <Gold.Chemscore.DEClash>
0.0263

> <Gold.Chemscore.DEInternal>
3.4327

> <Gold.Chemscore.Rot>
1.6926

> <Gold.Chemscore.Internal.Correction>
   9.000000E+99

> <Gold.Chemscore.Hbonds>
donor molecule, donor type, donor heavy atom, donor atom, acceptor molecule, acceptor atom, score
      P1  H  6896  6909       L1     7  0.98
      P1  H  6931  6943       L1     5  0.18
      P1  H  6934  6947       L1    20  0.60

> <Gold.Chemscore.Hbond.Weighted>
-6.9399

> <Gold.Chemscore.Metal.Weighted>
-0.0000

> <Gold.Chemscore.Lipo.Weighted>
-9.9432

> <Gold.Chemscore.Internal_Hbond.Weighted>
0.0000

> <Gold.Chemscore.DEClash.Weighted>
0.0263

> <Gold.Chemscore.DEInternal.Weighted>
3.4327

> <Gold.Chemscore.Rot.Weighted>
4.3330

> <Gold.Chemscore.Internal.Correction.Weighted>
   9.000000E+99

> <Gold.Protein.RotatedTorsions>
[ 6907 6896 6895 6894 ] final   64.29 input  -60.11 | X-H torsion
[ 7974 7965 7964 7962 ] final  129.92 input  175.53 | X-H torsion
[ 8008 7997 7996 7995 ] final -164.11 input   59.86 | X-H torsion
[ 10167 10162 10161 10158 ] final  168.20 input  -65.29 | X-H torsion
[ 10718 10713 10712 10709 ] final -111.69 input   66.30 | X-H torsion
[ 10763 10752 10751 10750 ] final  -67.48 input  -60.55 | X-H torsion
[ 11005 11000 10999 10996 ] final  145.96 input  -57.11 | X-H torsion

> <Gold.Protein.ActiveResidues>
 VAL166  LYS551  ARG553  GLY616  TRP617  ASP618  TYR619  PRO620  LYS621  CYS622 
 ASP623  PHE694  ASN695  SER759  ASP760  ASP761  ALA762  ILE779  LEU786  VAL792 
 PHE793  MET794  SER795  GLU796  ALA797  LYS798  CYS799  TRP800  GLU811  SER814 

> <Gold.Protein.RotatedAtoms>
  152.4320  134.5759  159.9933 H   0  0  0  0  0  0  0  0  0  0  0  0  # atno 6907 bound_to 6896
  151.5879  133.3364  159.3029 H   0  0  0  0  0  0  0  0  0  0  0  0  # atno 6908 bound_to 6896
  150.8214  134.7459  159.6840 H   0  0  0  0  0  0  0  0  0  0  0  0  # atno 6909 bound_to 6896
  145.0235  139.4110  143.5185 H   0  0  0  0  0  0  0  0  0  0  0  0  # atno 7974 bound_to 7965
  155.8310  140.0934  157.1793 H   0  0  0  0  0  0  0  0  0  0  0  0  # atno 8008 bound_to 7997
  154.3980  140.1419  156.3674 H   0  0  0  0  0  0  0  0  0  0  0  0  # atno 8009 bound_to 7997
  155.8166  140.3448  155.5492 H   0  0  0  0  0  0  0  0  0  0  0  0  # atno 8010 bound_to 7997
  139.4962  144.3840  151.9590 H   0  0  0  0  0  0  0  0  0  0  0  0  # atno 10167 bound_to 10162
  156.0662  130.5881  150.8408 H   0  0  0  0  0  0  0  0  0  0  0  0  # atno 10718 bound_to 10713
  154.3751  135.6086  153.5761 H   0  0  0  0  0  0  0  0  0  0  0  0  # atno 10763 bound_to 10752
  152.9789  135.5847  154.4476 H   0  0  0  0  0  0  0  0  0  0  0  0  # atno 10764 bound_to 10752
  154.4236  135.2846  155.1937 H   0  0  0  0  0  0  0  0  0  0  0  0  # atno 10765 bound_to 10752
  140.0754  134.9127  157.1415 H   0  0  0  0  0  0  0  0  0  0  0  0  # atno 11005 bound_to 11000
  146.3489  139.9745  142.8702 LP  0  0  0  0  0  0  0  0  0  0  0  0  # atno 17320 bound_to 7965
  145.1865  140.9791  143.4236 LP  0  0  0  0  0  0  0  0  0  0  0  0  # atno 17321 bound_to 7965
  140.3277  144.3353  150.5994 LP  0  0  0  0  0  0  0  0  0  0  0  0  # atno 17342 bound_to 10162
  140.5671  143.2185  151.7665 LP  0  0  0  0  0  0  0  0  0  0  0  0  # atno 17343 bound_to 10162
  157.5705  131.0946  150.9425 LP  0  0  0  0  0  0  0  0  0  0  0  0  # atno 17370 bound_to 10713
  156.9643  130.5467  149.5287 LP  0  0  0  0  0  0  0  0  0  0  0  0  # atno 17371 bound_to 10713
  140.3565  134.2541  155.7192 LP  0  0  0  0  0  0  0  0  0  0  0  0  # atno 17394 bound_to 11000
  141.2028  133.7929  157.0374 LP  0  0  0  0  0  0  0  0  0  0  0  0  # atno 17395 bound_to 11000

$$$$
