#       Name:                AV-unprocessed.smi:2531
#       Creating user name   scv26
#       Creation time:       Fri Mar 27 14:00:53 2020


#       File generated by GOLD software.
#

@<TRIPOS>MOLECULE
AV-unprocessed.smi:2531
    49    51     1
SMALL
NO_CHARGES


@<TRIPOS>ATOM
      1 ****        -2.8735   1.7438  -1.8311 O.2            1 S1                 0.0000
      2 ****        -1.6565   1.9223  -1.8990 C.2            1 S1                 0.0000
      3 ****        -0.9882   2.2782  -3.2433 C.3            1 S1                 0.0000
      4 ****        -1.7747   3.3499  -4.0321 C.3            1 S1                 0.0000
      5 ****        -2.4025   2.6509  -5.2484 C.3            1 S1                 0.0000
      6 ****        -2.1995   1.1519  -5.0290 C.3            1 S1                 0.0000
      7 ****        -0.9307   1.0622  -4.1830 C.3            1 S1                 0.0000
      8 ****        -0.8286   1.7225  -0.7905 N.am           1 S1                 0.0000
      9 ****        -1.2397   0.8481   0.2981 C.3            1 S1                 0.0000
     10 ****         0.2553   0.5877   0.5100 C.3            1 S1                 0.0000
     11 ****         0.6405  -1.2042   0.7585 S.o2           1 S1                 0.0000
     12 ****        -0.2119  -1.6361   1.8781 O.2            1 S1                 0.0000
     13 ****         0.4258  -1.8773  -0.5330 O.2            1 S1                 0.0000
     14 ****         2.2117  -1.1139   1.1536 N.pl3          1 S1                -1.0000
     15 ****         2.9221  -2.3154   1.5662 C.3            1 S1                 0.0000
     16 ****         3.2533  -2.2731   3.0780 C.3            1 S1                 0.0000
     17 ****         2.0527  -2.3042   4.0202 C.ar           1 S1                 0.0000
     18 ****         1.5470  -1.1070   4.5764 C.ar           1 S1                 0.0000
     19 ****         0.4332  -1.1791   5.4340 C.ar           1 S1                 0.0000
     20 ****        -0.1254  -2.4402   5.7159 C.ar           1 S1                 0.0000
     21 ****         0.4583  -3.5781   5.1250 C.ar           1 S1                 0.0000
     22 ****         1.5267  -3.5213   4.3014 N.ar           1 S1                 0.0000
     23 ****         0.4886   1.1133  -0.9131 C.3            1 S1                 0.0000
     24 ****         0.0198   2.6471  -3.0501 H              1 S1                 0.0000
     25 ****        -2.5450   3.8299  -3.4265 H              1 S1                 0.0000
     26 ****        -1.1068   4.1457  -4.3634 H              1 S1                 0.0000
     27 ****        -3.4551   2.9056  -5.3758 H              1 S1                 0.0000
     28 ****        -1.8800   2.9607  -6.1543 H              1 S1                 0.0000
     29 ****        -3.0439   0.7425  -4.4731 H              1 S1                 0.0000
     30 ****        -2.1192   0.5980  -5.9647 H              1 S1                 0.0000
     31 ****        -0.0523   1.1398  -4.8249 H              1 S1                 0.0000
     32 ****        -0.8618   0.1085  -3.6574 H              1 S1                 0.0000
     33 ****        -1.7309   1.3651   1.1225 H              1 S1                 0.0000
     34 ****        -1.7926  -0.0328  -0.0353 H              1 S1                 0.0000
     35 ****         0.6863   1.2071   1.2980 H              1 S1                 0.0000
     36 ****         2.3697  -3.2281   1.3400 H              1 S1                 0.0000
     37 ****         3.8602  -2.4061   1.0182 H              1 S1                 0.0000
     38 ****         3.8920  -3.1231   3.3206 H              1 S1                 0.0000
     39 ****         3.8518  -1.3879   3.2976 H              1 S1                 0.0000
     40 ****         1.9919  -0.1530   4.3344 H              1 S1                 0.0000
     41 ****         0.0140  -0.2827   5.8660 H              1 S1                 0.0000
     42 ****        -0.9810  -2.5334   6.3678 H              1 S1                 0.0000
     43 ****         0.0576  -4.5615   5.3214 H              1 S1                 0.0000
     44 ****         0.5409   0.3411  -1.6809 H              1 S1                 0.0000
     45 ****         1.3018   1.8347  -0.9947 H              1 S1                 0.0000
     46 ****        -3.4380   1.8293  -2.6521 LP             1 S1                 0.0000
     47 ****        -3.2970   1.5135  -0.9549 LP             1 S1                 0.0000
     48 ****         2.6898  -0.2365   1.1138 LP             1 S1                 0.0000
     49 ****         1.9188  -4.3537   3.9100 LP             1 S1                 0.0000
@<TRIPOS>BOND
    1    1    2 2     
    2    2    3 1     
    3    2    8 am    
    4    3    7 1     
    5    3    4 1     
    6    3   24 1     
    7    4    5 1     
    8    4   25 1     
    9    4   26 1     
   10    5    6 1     
   11    5   27 1     
   12    5   28 1     
   13    6    7 1     
   14    6   29 1     
   15    6   30 1     
   16    7   31 1     
   17    7   32 1     
   18    8   23 1     
   19    8    9 1     
   20    9   10 1     
   21    9   33 1     
   22    9   34 1     
   23   10   11 1     
   24   10   23 1     
   25   10   35 1     
   26   11   12 2     
   27   11   13 2     
   28   11   14 1     
   29   14   15 1     
   30   15   16 1     
   31   15   36 1     
   32   15   37 1     
   33   16   17 1     
   34   16   38 1     
   35   16   39 1     
   36   17   22 ar    
   37   17   18 ar    
   38   18   19 ar    
   39   18   40 1     
   40   19   20 ar    
   41   19   41 1     
   42   20   21 ar    
   43   20   42 1     
   44   21   22 ar    
   45   21   43 1     
   46   23   44 1     
   47   23   45 1     
   48    1   46 1     
   49    1   47 1     
   50   14   48 1     
   51   22   49 1     
@<TRIPOS>SUBSTRUCTURE
      1 S1             1
@<TRIPOS>SET
LONE_PAIRS      STATIC     ATOMS    <user>   **** ""
6 46 47 12 13 48 49
ATOM$BLUE        STATIC     ATOMS    COLORGROUP SYSTEM
6 46 47 12 13 48 49
