AV-unprocessed.smi:672|AV-procd|sdf|3289|dock5
  -GOLD-   22720 0253D 1   1.00000     0.00000
 Structure written by MMmdl.
 36 37  0  0  0  0  0  0  0  0  1 V2000
  141.0104  146.4274  161.0253 C   0  0  0  0  0  0  0  0  0  0  0  0
  141.5490  145.4992  159.9315 C   0  0  0  0  0  0  0  0  0  0  0  0
  143.0172  145.2614  160.0532 C   0  0  0  0  0  0  0  0  0  0  0  0
  143.5560  144.5596  161.0579 N   0  0  0  0  0  0  0  0  0  0  0  0
  144.9347  144.4486  160.9423 N   0  0  0  0  0  0  0  0  0  0  0  0
  145.3943  145.0587  159.8412 C   0  0  0  0  0  0  0  0  0  0  0  0
  146.7653  145.0985  159.4744 N   0  0  0  0  0  0  0  0  0  0  0  0
  147.8186  144.5760  160.1265 C   0  0  0  0  0  0  0  0  0  0  0  0
  147.7628  143.9476  161.1838 O   0  0  0  0  0  0  0  0  0  0  0  0
  148.9636  144.8268  159.4755 N   0  0  0  0  0  0  0  0  0  0  0  0
  150.2885  144.3902  159.9084 C   0  0  2  0  0  0  0  0  0  0  0  0
  151.3299  145.5208  159.7915 C   0  0  0  0  0  0  0  0  0  0  0  0
  152.2926  145.0986  158.6796 C   0  0  0  0  0  0  0  0  0  0  0  0
  152.2628  143.5702  158.6872 C   0  0  1  0  0  0  0  0  0  0  0  0
  153.4119  142.8969  159.9270 S   0  0  0  0  0  0  0  0  0  0  0  0
  153.0200  141.1306  159.8117 C   0  0  0  0  0  0  0  0  0  0  0  0
  150.8032  143.2404  159.0222 C   0  0  0  0  0  0  0  0  0  0  0  0
  144.1680  145.8265  158.8478 S   0  0  0  0  0  0  0  0  0  0  0  0
  139.9369  146.5797  160.9118 H   0  0  0  0  0  0  0  0  0  0  0  0
  141.4923  147.4046  160.9837 H   0  0  0  0  0  0  0  0  0  0  0  0
  141.1849  146.0090  162.0170 H   0  0  0  0  0  0  0  0  0  0  0  0
  141.0347  144.5388  159.9734 H   0  0  0  0  0  0  0  0  0  0  0  0
  141.3397  145.9224  158.9482 H   0  0  0  0  0  0  0  0  0  0  0  0
  146.9682  145.5863  158.6145 H   0  0  0  0  0  0  0  0  0  0  0  0
  148.9172  145.3525  158.6151 H   0  0  0  0  0  0  0  0  0  0  0  0
  150.2418  144.0496  160.9446 H   0  0  0  0  0  0  0  0  0  0  0  0
  150.8901  146.4993  159.5934 H   0  0  0  0  0  0  0  0  0  0  0  0
  151.8767  145.6037  160.7316 H   0  0  0  0  0  0  0  0  0  0  0  0
  151.9167  145.4615  157.7222 H   0  0  0  0  0  0  0  0  0  0  0  0
  153.2944  145.5083  158.8128 H   0  0  0  0  0  0  0  0  0  0  0  0
  152.5484  143.1756  157.7114 H   0  0  0  0  0  0  0  0  0  0  0  0
  153.6478  140.5627  160.4981 H   0  0  0  0  0  0  0  0  0  0  0  0
  153.1986  140.7663  158.8001 H   0  0  0  0  0  0  0  0  0  0  0  0
  151.9773  140.9464  160.0689 H   0  0  0  0  0  0  0  0  0  0  0  0
  150.6833  142.2693  159.5022 H   0  0  0  0  0  0  0  0  0  0  0  0
  150.2373  143.2004  158.0899 H   0  0  0  0  0  0  0  0  0  0  0  0
  1  2  1  0  0  0  0
  1 19  1  0  0  0  0
  1 20  1  0  0  0  0
  1 21  1  0  0  0  0
  2  3  1  0  0  0  0
  2 22  1  0  0  0  0
  2 23  1  0  0  0  0
  3 18  1  0  0  0  0
  3  4  2  0  0  0  0
  4  5  1  0  0  0  0
  5  6  2  0  0  0  0
  6  7  1  0  0  0  0
  6 18  1  0  0  0  0
  7  8  1  0  0  0  0
  7 24  1  0  0  0  0
  8  9  2  0  0  0  0
  8 10  1  0  0  0  0
 10 11  1  0  0  0  0
 10 25  1  0  0  0  0
 11 17  1  0  0  0  0
 11 12  1  0  0  0  0
 11 26  1  0  0  0  0
 12 13  1  0  0  0  0
 12 27  1  0  0  0  0
 12 28  1  0  0  0  0
 13 14  1  0  0  0  0
 13 29  1  0  0  0  0
 13 30  1  0  0  0  0
 14 15  1  0  0  0  0
 14 17  1  0  0  0  0
 14 31  1  0  0  0  0
 15 16  1  0  0  0  0
 16 32  1  0  0  0  0
 16 33  1  0  0  0  0
 16 34  1  0  0  0  0
 17 35  1  0  0  0  0
 17 36  1  0  0  0  0
M  END
> <s_m_source_file>
AV-unprocessed.smi

> <i_m_source_file_index>
672

> <i_lp_mmshare_version>
43012

> <i_f3d_flags>
0

> <s_epik_input>
W0NIM11bQ0gyXWMxbm5jKHMxKVtOSF1DKD1PKVtOSF1bQ0BASF0yW0NIMl1bQ0gyXVtDQEhdKFtDSDJdMilTW0NIM10=

> <s_epik_cmdline>
J2VwaWtfcHl0aG9uJywgJy1waCcsICc3LjAnLCAnLXRuJywgJzgnLCAnLW1hJywgJzIwMCcsICctbWV0YWxfYmluZGluZycsICctaW1hZScsICc8aW5maWxlLm1hZT4nLCAnLW9tYWUnLCAnPG91dGZpbGUubWFlPic=

> <r_lp_tautomer_probability>
1

> <r_epik_Ionization_Penalty>
0.000422169

> <r_epik_Ionization_Penalty_Charging>
0

> <r_epik_Ionization_Penalty_Neutral>
0.000422169

> <r_epik_State_Penalty>
-0

> <r_epik_Charging_Adjusted_Penalty>
0

> <i_epik_Tot_Q>
0

> <i_epik_Tot_abs_Q>
0

> <r_epik_Metal_State_Penalty>
0.200061

> <b_epik_Metal_Only>
0

> <s_lp_Force_Field>
OPLS_2005

> <r_lp_Energy>
12.7649

> <b_lp_Chiralities_Consistent>
1

> <s_lp_Variant>
AV-unprocessed.smi:672-1

> <Gold.Version>
5.8.1

> <Gold.Id.Protein>
6NUR|6NUR_protein|mol2

> <Gold.PLP.Fitness>
44.1599

> <Gold.PLP.PLP>
-35.7241

> <Gold.PLP.part.hbond>
-3.0000

> <Gold.PLP.part.metal>
0.0000

> <Gold.PLP.part.buried>
-5.8758

> <Gold.PLP.part.nonpolar>
-27.5533

> <Gold.PLP.part.repulsive>
0.5719

> <Gold.PLP.ligand.clash>
0.0000

> <Gold.PLP.ligand.torsion>
0.2317

> <Gold.PLP.Chemscore.Hbond>
2.9600

> <Gold.PLP.Chemscore.CHOScore>
0.0000

> <Gold.PLP.Chemscore.Metal>
0.0000

> <Gold.Chemscore.Hbonds>
donor molecule, donor type, donor heavy atom, donor atom, acceptor molecule, acceptor atom, score
      L1  H     7    24       P1  8029  1.00
      L1  H    10    25       P1  8029  0.96
      P1  H  6933  6944       L1     9  1.00

> <Gold.PLP.Chemscore.Internal.Correction>
0.0192

> <Gold.Rescore>
     Score         DG    S(hbond)    S(metal)    S(lipo)     H(rot)  DE(clash)    DE(int)     intcor
     22.05     -23.58       2.92        0.00     101.27       1.37       0.07       1.46       ----

> <Gold.Chemscore.Fitness>
22.0495

> <Gold.Chemscore.DG>
-23.5781

> <Gold.Chemscore.ZeroCoef>
-5.4800

> <Gold.Chemscore.Hbond>
2.9189

> <Gold.Chemscore.Metal>
0.0000

> <Gold.Chemscore.Lipo>
101.2653

> <Gold.Chemscore.Internal_Hbond>
0.0000

> <Gold.Chemscore.DEClash>
0.0712

> <Gold.Chemscore.DEInternal>
1.4574

> <Gold.Chemscore.Rot>
1.3669

> <Gold.Chemscore.Internal.Correction>
   9.000000E+99

> <Gold.Chemscore.Hbonds>
donor molecule, donor type, donor heavy atom, donor atom, acceptor molecule, acceptor atom, score
      L1  H     7    24       P1  8029  0.98
      L1  H    10    25       P1  8029  0.92
      P1  H  6933  6944       L1     9  1.00

> <Gold.Chemscore.Hbond.Weighted>
-9.7493

> <Gold.Chemscore.Metal.Weighted>
-0.0000

> <Gold.Chemscore.Lipo.Weighted>
-11.8480

> <Gold.Chemscore.Internal_Hbond.Weighted>
0.0000

> <Gold.Chemscore.DEClash.Weighted>
0.0712

> <Gold.Chemscore.DEInternal.Weighted>
1.4574

> <Gold.Chemscore.Rot.Weighted>
3.4992

> <Gold.Chemscore.Internal.Correction.Weighted>
   9.000000E+99

> <Gold.Protein.RotatedTorsions>
[ 6907 6896 6895 6894 ] final  179.91 input  -60.11 | X-H torsion
[ 7974 7965 7964 7962 ] final  122.74 input  175.53 | X-H torsion
[ 8008 7997 7996 7995 ] final   26.49 input   59.86 | X-H torsion
[ 10167 10162 10161 10158 ] final  -96.91 input  -65.29 | X-H torsion
[ 10718 10713 10712 10709 ] final -109.98 input   66.30 | X-H torsion
[ 10763 10752 10751 10750 ] final    5.39 input  -60.55 | X-H torsion
[ 11005 11000 10999 10996 ] final   67.91 input  -57.11 | X-H torsion

> <Gold.Protein.ActiveResidues>
 VAL166  LYS551  ARG553  GLY616  TRP617  ASP618  TYR619  PRO620  LYS621  CYS622 
 ASP623  PHE694  ASN695  SER759  ASP760  ASP761  ALA762  ILE779  LEU786  VAL792 
 PHE793  MET794  SER795  GLU796  ALA797  LYS798  CYS799  TRP800  GLU811  SER814 

> <Gold.Protein.RotatedAtoms>
  151.6639  133.3316  159.3180 H   0  0  0  0  0  0  0  0  0  0  0  0  # atno 6907 bound_to 6896
  150.7900  134.6920  159.6511 H   0  0  0  0  0  0  0  0  0  0  0  0  # atno 6908 bound_to 6896
  152.3977  134.6341  160.0134 H   0  0  0  0  0  0  0  0  0  0  0  0  # atno 6909 bound_to 6896
  145.1040  139.3498  143.4797 H   0  0  0  0  0  0  0  0  0  0  0  0  # atno 7974 bound_to 7965
  155.0281  140.3155  155.4768 H   0  0  0  0  0  0  0  0  0  0  0  0  # atno 8008 bound_to 7997
  156.2879  140.2185  156.5344 H   0  0  0  0  0  0  0  0  0  0  0  0  # atno 8009 bound_to 7997
  154.7394  140.0475  157.0785 H   0  0  0  0  0  0  0  0  0  0  0  0  # atno 8010 bound_to 7997
  140.2889  143.3234  152.0366 H   0  0  0  0  0  0  0  0  0  0  0  0  # atno 10167 bound_to 10162
  156.0566  130.5792  150.8174 H   0  0  0  0  0  0  0  0  0  0  0  0  # atno 10718 bound_to 10713
  153.2599  135.6922  153.7589 H   0  0  0  0  0  0  0  0  0  0  0  0  # atno 10763 bound_to 10752
  153.6652  135.3353  155.3139 H   0  0  0  0  0  0  0  0  0  0  0  0  # atno 10764 bound_to 10752
  154.8426  135.4486  154.1586 H   0  0  0  0  0  0  0  0  0  0  0  0  # atno 10765 bound_to 10752
  139.9742  134.6849  156.0386 H   0  0  0  0  0  0  0  0  0  0  0  0  # atno 11005 bound_to 11000
  146.3529  140.0930  142.8611 LP  0  0  0  0  0  0  0  0  0  0  0  0  # atno 17320 bound_to 7965
  145.0923  140.9292  143.4762 LP  0  0  0  0  0  0  0  0  0  0  0  0  # atno 17321 bound_to 7965
  139.4943  144.6539  151.6615 LP  0  0  0  0  0  0  0  0  0  0  0  0  # atno 17342 bound_to 10162
  140.5749  144.0045  150.6236 LP  0  0  0  0  0  0  0  0  0  0  0  0  # atno 17343 bound_to 10162
  157.5541  131.0944  150.9654 LP  0  0  0  0  0  0  0  0  0  0  0  0  # atno 17370 bound_to 10713
  156.9907  130.5562  149.5303 LP  0  0  0  0  0  0  0  0  0  0  0  0  # atno 17371 bound_to 10713
  141.1420  133.6563  156.3758 LP  0  0  0  0  0  0  0  0  0  0  0  0  # atno 17394 bound_to 11000
  140.5229  134.6287  157.5324 LP  0  0  0  0  0  0  0  0  0  0  0  0  # atno 17395 bound_to 11000

$$$$
