AV-unprocessed.smi:2007|AV-procd|sdf|8133|dock6
  -GOLD-   2272010363D 1   1.00000     0.00000
 Structure written by MMmdl.
 36 37  0  0  0  0  0  0  0  0  1 V2000
  148.6835  140.1105  154.3545 C   0  0  0  0  0  0  0  0  0  0  0  0
  147.9340  141.2940  154.9808 C   0  0  2  0  0  0  0  0  0  0  0  0
  147.1872  142.1110  153.9033 C   0  0  0  0  0  0  0  0  0  0  0  0
  146.2655  143.1306  154.4063 N   0  0  0  0  0  0  0  0  0  0  0  0
  145.5695  143.8012  153.3143 C   0  0  0  0  0  0  0  0  0  0  0  0
  144.6118  144.8895  153.8297 C   0  0  0  0  0  0  0  0  0  0  0  0
  143.6819  144.3136  154.7412 O   0  0  0  0  0  0  0  0  0  0  0  0
  144.3175  143.6790  155.8464 C   0  0  0  0  0  0  0  0  0  0  0  0
  145.2757  142.5893  155.3356 C   0  0  0  0  0  0  0  0  0  0  0  0
  148.8929  142.1423  155.6871 N   0  0  0  0  0  0  0  0  0  0  0  0
  149.7965  141.7242  156.5864 C   0  0  0  0  0  0  0  0  0  0  0  0
  149.9514  140.5437  156.9003 O   0  0  0  0  0  0  0  0  0  0  0  0
  150.4941  142.7576  157.0895 N   0  0  0  0  0  0  0  0  0  0  0  0
  151.4876  142.7341  158.1031 C   0  0  0  0  0  0  0  0  0  0  0  0
  152.2169  143.7944  158.4704 N   0  0  0  0  0  0  0  0  0  0  0  0
  153.1256  143.4807  159.4841 C   0  0  0  0  0  0  0  0  0  0  0  0
  153.0738  142.1673  159.8805 C   0  0  0  0  0  0  0  0  0  0  0  0
  151.8752  141.2670  158.9901 S   0  0  0  0  0  0  0  0  0  0  0  0
  147.9949  139.4401  153.8395 H   0  0  0  0  0  0  0  0  0  0  0  0
  149.2020  139.5264  155.1158 H   0  0  0  0  0  0  0  0  0  0  0  0
  149.4252  140.4466  153.6290 H   0  0  0  0  0  0  0  0  0  0  0  0
  147.2181  140.8710  155.6862 H   0  0  0  0  0  0  0  0  0  0  0  0
  147.9379  142.5929  153.2750 H   0  0  0  0  0  0  0  0  0  0  0  0
  146.6454  141.4309  153.2441 H   0  0  0  0  0  0  0  0  0  0  0  0
  146.2939  144.2534  152.6358 H   0  0  0  0  0  0  0  0  0  0  0  0
  145.0070  143.0717  152.7297 H   0  0  0  0  0  0  0  0  0  0  0  0
  145.1662  145.6899  154.3222 H   0  0  0  0  0  0  0  0  0  0  0  0
  144.0666  145.3399  153.0002 H   0  0  0  0  0  0  0  0  0  0  0  0
  144.8574  144.4189  156.4399 H   0  0  0  0  0  0  0  0  0  0  0  0
  143.5565  143.2426  156.4933 H   0  0  0  0  0  0  0  0  0  0  0  0
  144.6998  141.8023  154.8464 H   0  0  0  0  0  0  0  0  0  0  0  0
  145.7657  142.1293  156.1923 H   0  0  0  0  0  0  0  0  0  0  0  0
  148.8432  143.1318  155.4948 H   0  0  0  0  0  0  0  0  0  0  0  0
  150.2715  143.6708  156.7221 H   0  0  0  0  0  0  0  0  0  0  0  0
  153.7740  144.2554  159.8659 H   0  0  0  0  0  0  0  0  0  0  0  0
  153.6667  141.6773  160.6383 H   0  0  0  0  0  0  0  0  0  0  0  0
  1  2  1  0  0  0  0
  1 19  1  0  0  0  0
  1 20  1  0  0  0  0
  1 21  1  0  0  0  0
  2  3  1  0  0  0  0
  2 10  1  0  0  0  0
  2 22  1  0  0  0  0
  3  4  1  0  0  0  0
  3 23  1  0  0  0  0
  3 24  1  0  0  0  0
  4  9  1  0  0  0  0
  4  5  1  0  0  0  0
  5  6  1  0  0  0  0
  5 25  1  0  0  0  0
  5 26  1  0  0  0  0
  6  7  1  0  0  0  0
  6 27  1  0  0  0  0
  6 28  1  0  0  0  0
  7  8  1  0  0  0  0
  8  9  1  0  0  0  0
  8 29  1  0  0  0  0
  8 30  1  0  0  0  0
  9 31  1  0  0  0  0
  9 32  1  0  0  0  0
 10 11  1  0  0  0  0
 10 33  1  0  0  0  0
 11 12  2  0  0  0  0
 11 13  1  0  0  0  0
 13 14  1  0  0  0  0
 13 34  1  0  0  0  0
 14 18  1  0  0  0  0
 14 15  2  0  0  0  0
 15 16  1  0  0  0  0
 16 17  2  0  0  0  0
 16 35  1  0  0  0  0
 17 18  1  0  0  0  0
 17 36  1  0  0  0  0
M  END
> <s_m_source_file>
AV-unprocessed.smi

> <i_m_source_file_index>
2007

> <i_lp_mmshare_version>
43012

> <i_f3d_flags>
0

> <s_epik_input>
W0NIMl0xW0NIMl1PW0NIMl1bQ0gyXU4xW0NIMl1bQ0BASF0oW0NIM10pW05IXUMoPU8pW05IXWMybltjSF1bY0hdczI=

> <s_epik_cmdline>
J2VwaWtfcHl0aG9uJywgJy1waCcsICc3LjAnLCAnLXRuJywgJzgnLCAnLW1hJywgJzIwMCcsICctbWV0YWxfYmluZGluZycsICctaW1hZScsICc8aW5maWxlLm1hZT4nLCAnLW9tYWUnLCAnPG91dGZpbGUubWFlPic=

> <r_lp_tautomer_probability>
0.999

> <r_epik_Ionization_Penalty>
0.219197

> <r_epik_Ionization_Penalty_Charging>
0

> <r_epik_Ionization_Penalty_Neutral>
0.219197

> <r_epik_State_Penalty>
0.209349

> <r_epik_Charging_Adjusted_Penalty>
0.209349

> <i_epik_Tot_Q>
0

> <i_epik_Tot_abs_Q>
0

> <r_epik_Metal_State_Penalty>
0.254604

> <b_epik_Metal_Only>
0

> <s_lp_Force_Field>
OPLS_2005

> <r_lp_Energy>
23.8142

> <b_lp_Chiralities_Consistent>
1

> <s_lp_Variant>
AV-unprocessed.smi:2007-1

> <Gold.Version>
5.8.1

> <Gold.Id.Protein>
6NUR|6NUR_protein|mol2

> <Gold.PLP.Fitness>
40.3106

> <Gold.PLP.PLP>
-34.8362

> <Gold.PLP.part.hbond>
-2.0000

> <Gold.PLP.part.metal>
0.0000

> <Gold.PLP.part.buried>
-7.9306

> <Gold.PLP.part.nonpolar>
-26.0317

> <Gold.PLP.part.repulsive>
0.5224

> <Gold.PLP.ligand.clash>
0.0000

> <Gold.PLP.ligand.torsion>
0.1221

> <Gold.PLP.Chemscore.Hbond>
1.8960

> <Gold.PLP.Chemscore.CHOScore>
0.0000

> <Gold.PLP.Chemscore.Metal>
0.0000

> <Gold.Chemscore.Hbonds>
donor molecule, donor type, donor heavy atom, donor atom, acceptor molecule, acceptor atom, score
      L1  H    10    33       P1  8028  1.00
      L1  H    13    34       P1  8028  0.90

> <Gold.PLP.Chemscore.Internal.Correction>
0.0305

> <Gold.Rescore>
     Score         DG    S(hbond)    S(metal)    S(lipo)     H(rot)  DE(clash)    DE(int)     intcor
     13.80     -16.41       1.84        0.00      75.44       1.58       0.02       2.60       ----

> <Gold.Chemscore.Fitness>
13.8008

> <Gold.Chemscore.DG>
-16.4143

> <Gold.Chemscore.ZeroCoef>
-5.4800

> <Gold.Chemscore.Hbond>
1.8439

> <Gold.Chemscore.Metal>
0.0000

> <Gold.Chemscore.Lipo>
75.4445

> <Gold.Chemscore.Internal_Hbond>
0.0000

> <Gold.Chemscore.DEClash>
0.0166

> <Gold.Chemscore.DEInternal>
2.5970

> <Gold.Chemscore.Rot>
1.5825

> <Gold.Chemscore.Internal.Correction>
   9.000000E+99

> <Gold.Chemscore.Hbonds>
donor molecule, donor type, donor heavy atom, donor atom, acceptor molecule, acceptor atom, score
      L1  H    10    33       P1  8028  0.98
      L1  H    13    34       P1  8028  0.82

> <Gold.Chemscore.Hbond.Weighted>
-6.1585

> <Gold.Chemscore.Metal.Weighted>
-0.0000

> <Gold.Chemscore.Lipo.Weighted>
-8.8270

> <Gold.Chemscore.Internal_Hbond.Weighted>
0.0000

> <Gold.Chemscore.DEClash.Weighted>
0.0166

> <Gold.Chemscore.DEInternal.Weighted>
2.5970

> <Gold.Chemscore.Rot.Weighted>
4.0512

> <Gold.Chemscore.Internal.Correction.Weighted>
   9.000000E+99

> <Gold.Protein.RotatedTorsions>
[ 6907 6896 6895 6894 ] final -158.49 input  -60.11 | X-H torsion
[ 7974 7965 7964 7962 ] final   79.91 input  175.53 | X-H torsion
[ 8008 7997 7996 7995 ] final   91.53 input   59.86 | X-H torsion
[ 10167 10162 10161 10158 ] final -139.90 input  -65.29 | X-H torsion
[ 10718 10713 10712 10709 ] final  161.07 input   66.30 | X-H torsion
[ 10763 10752 10751 10750 ] final   79.60 input  -60.55 | X-H torsion
[ 11005 11000 10999 10996 ] final   12.83 input  -57.11 | X-H torsion

> <Gold.Protein.ActiveResidues>
 VAL166  LYS551  ARG553  GLY616  TRP617  ASP618  TYR619  PRO620  LYS621  CYS622 
 ASP623  PHE694  ASN695  SER759  ASP760  ASP761  ALA762  ILE779  LEU786  VAL792 
 PHE793  MET794  SER795  GLU796  ALA797  LYS798  CYS799  TRP800  GLU811  SER814 

> <Gold.Protein.RotatedAtoms>
  151.3189  133.4048  159.2652 H   0  0  0  0  0  0  0  0  0  0  0  0  # atno 6907 bound_to 6896
  151.0051  134.9353  159.7986 H   0  0  0  0  0  0  0  0  0  0  0  0  # atno 6908 bound_to 6896
  152.5286  134.3154  159.9181 H   0  0  0  0  0  0  0  0  0  0  0  0  # atno 6909 bound_to 6896
  145.6580  139.2464  143.1939 H   0  0  0  0  0  0  0  0  0  0  0  0  # atno 7974 bound_to 7965
  156.0248  140.3336  155.7076 H   0  0  0  0  0  0  0  0  0  0  0  0  # atno 8008 bound_to 7997
  155.5971  140.0652  157.2761 H   0  0  0  0  0  0  0  0  0  0  0  0  # atno 8009 bound_to 7997
  154.4330  140.1817  156.1122 H   0  0  0  0  0  0  0  0  0  0  0  0  # atno 8010 bound_to 7997
  139.8334  143.7417  152.2665 H   0  0  0  0  0  0  0  0  0  0  0  0  # atno 10167 bound_to 10162
  157.1416  131.0542  151.2324 H   0  0  0  0  0  0  0  0  0  0  0  0  # atno 10718 bound_to 10713
  153.0966  135.4834  154.8789 H   0  0  0  0  0  0  0  0  0  0  0  0  # atno 10763 bound_to 10752
  154.7331  135.3064  154.8860 H   0  0  0  0  0  0  0  0  0  0  0  0  # atno 10764 bound_to 10752
  153.9490  135.6825  153.4797 H   0  0  0  0  0  0  0  0  0  0  0  0  # atno 10765 bound_to 10752
  140.4875  134.0873  155.7764 H   0  0  0  0  0  0  0  0  0  0  0  0  # atno 11005 bound_to 11000
  146.1149  140.7383  142.9485 LP  0  0  0  0  0  0  0  0  0  0  0  0  # atno 17320 bound_to 7965
  144.7099  140.3998  143.7089 LP  0  0  0  0  0  0  0  0  0  0  0  0  # atno 17321 bound_to 7965
  139.7632  144.7500  151.0334 LP  0  0  0  0  0  0  0  0  0  0  0  0  # atno 17342 bound_to 10162
  140.7805  143.4728  151.0123 LP  0  0  0  0  0  0  0  0  0  0  0  0  # atno 17343 bound_to 10162
  157.4302  130.7486  149.6984 LP  0  0  0  0  0  0  0  0  0  0  0  0  # atno 17370 bound_to 10713
  155.9787  130.4048  150.3629 LP  0  0  0  0  0  0  0  0  0  0  0  0  # atno 17371 bound_to 10713
  141.1500  133.8985  157.2120 LP  0  0  0  0  0  0  0  0  0  0  0  0  # atno 17394 bound_to 11000
  139.9789  135.0105  156.9700 LP  0  0  0  0  0  0  0  0  0  0  0  0  # atno 17395 bound_to 11000

$$$$
