AV-unprocessed.smi:3350|AV-procd|sdf|12942|dock9
  -GOLD-   2272019373D 1   1.00000     0.00000
 Structure written by MMmdl.
 41 42  0  0  0  0  0  0  0  0  1 V2000
  144.4467  136.9516  153.4033 C   0  0  0  0  0  0  0  0  0  0  0  0
  145.2615  135.7573  152.8889 C   0  0  1  0  0  0  0  0  0  0  0  0
  145.0858  135.5712  151.3674 C   0  0  0  0  0  0  0  0  0  0  0  0
  145.2356  134.1876  150.9511 N   0  0  0  0  0  0  0  0  0  0  0  0
  144.2948  133.3590  150.3767 C   0  0  0  0  0  0  0  0  0  0  0  0
  144.8922  132.1491  150.1686 C   0  0  0  0  0  0  0  0  0  0  0  0
  146.2167  132.3383  150.6531 C   0  0  0  0  0  0  0  0  0  0  0  0
  146.4203  133.5601  151.1181 N   0  0  0  0  0  0  0  0  0  0  0  0
  146.6687  135.9610  153.2303 N   0  0  0  0  0  0  0  0  0  0  0  0
  147.1810  135.9528  154.4696 C   0  0  0  0  0  0  0  0  0  0  0  0
  146.5174  135.7767  155.4917 O   0  0  0  0  0  0  0  0  0  0  0  0
  148.5062  136.1529  154.4565 N   0  0  0  0  0  0  0  0  0  0  0  0
  149.3710  136.1938  155.6331 C   0  0  1  0  0  0  0  0  0  0  0  0
  150.0917  134.8421  155.7523 C   0  0  0  0  0  0  0  0  0  0  0  0
  150.3570  137.3753  155.5203 C   0  0  2  0  0  0  0  0  0  0  0  0
  149.7213  138.7003  155.0936 C   0  0  0  0  0  0  0  0  0  0  0  0
  150.8638  139.4585  154.4338 C   0  0  0  0  0  0  0  0  0  0  0  0
  151.9475  138.3970  154.2307 C   0  0  0  0  0  0  0  0  0  0  0  0
  151.2978  137.1591  154.4791 O   0  0  0  0  0  0  0  0  0  0  0  0
  143.3838  136.8177  153.2002 H   0  0  0  0  0  0  0  0  0  0  0  0
  144.7610  137.8817  152.9287 H   0  0  0  0  0  0  0  0  0  0  0  0
  144.5625  137.0713  154.4811 H   0  0  0  0  0  0  0  0  0  0  0  0
  144.8809  134.8676  153.3943 H   0  0  0  0  0  0  0  0  0  0  0  0
  144.0916  135.9016  151.0643 H   0  0  0  0  0  0  0  0  0  0  0  0
  145.7979  136.1913  150.8201 H   0  0  0  0  0  0  0  0  0  0  0  0
  143.2889  133.6945  150.1712 H   0  0  0  0  0  0  0  0  0  0  0  0
  144.4500  131.2632  149.7376 H   0  0  0  0  0  0  0  0  0  0  0  0
  147.0312  131.6298  150.6790 H   0  0  0  0  0  0  0  0  0  0  0  0
  147.3034  136.1080  152.4594 H   0  0  0  0  0  0  0  0  0  0  0  0
  148.9545  136.2871  153.5621 H   0  0  0  0  0  0  0  0  0  0  0  0
  148.7641  136.3246  156.5310 H   0  0  0  0  0  0  0  0  0  0  0  0
  150.7029  134.7951  156.6537 H   0  0  0  0  0  0  0  0  0  0  0  0
  150.7449  134.6630  154.8976 H   0  0  0  0  0  0  0  0  0  0  0  0
  149.3763  134.0204  155.8030 H   0  0  0  0  0  0  0  0  0  0  0  0
  150.8985  137.5103  156.4590 H   0  0  0  0  0  0  0  0  0  0  0  0
  148.9339  138.5216  154.3600 H   0  0  0  0  0  0  0  0  0  0  0  0
  149.2827  139.2439  155.9309 H   0  0  0  0  0  0  0  0  0  0  0  0
  150.5430  139.8911  153.4856 H   0  0  0  0  0  0  0  0  0  0  0  0
  151.2293  140.2686  155.0656 H   0  0  0  0  0  0  0  0  0  0  0  0
  152.3790  138.4233  153.2298 H   0  0  0  0  0  0  0  0  0  0  0  0
  152.7542  138.5290  154.9533 H   0  0  0  0  0  0  0  0  0  0  0  0
  1  2  1  0  0  0  0
  1 20  1  0  0  0  0
  1 21  1  0  0  0  0
  1 22  1  0  0  0  0
  2  3  1  0  0  0  0
  2  9  1  0  0  0  0
  2 23  1  0  0  0  0
  3  4  1  0  0  0  0
  3 24  1  0  0  0  0
  3 25  1  0  0  0  0
  4  8  1  0  0  0  0
  4  5  1  0  0  0  0
  5  6  2  0  0  0  0
  5 26  1  0  0  0  0
  6  7  1  0  0  0  0
  6 27  1  0  0  0  0
  7  8  2  0  0  0  0
  7 28  1  0  0  0  0
  9 10  1  0  0  0  0
  9 29  1  0  0  0  0
 10 11  2  0  0  0  0
 10 12  1  0  0  0  0
 12 13  1  0  0  0  0
 12 30  1  0  0  0  0
 13 14  1  0  0  0  0
 13 15  1  0  0  0  0
 13 31  1  0  0  0  0
 14 32  1  0  0  0  0
 14 33  1  0  0  0  0
 14 34  1  0  0  0  0
 15 19  1  0  0  0  0
 15 16  1  0  0  0  0
 15 35  1  0  0  0  0
 16 17  1  0  0  0  0
 16 36  1  0  0  0  0
 16 37  1  0  0  0  0
 17 18  1  0  0  0  0
 17 38  1  0  0  0  0
 17 39  1  0  0  0  0
 18 19  1  0  0  0  0
 18 40  1  0  0  0  0
 18 41  1  0  0  0  0
M  END
> <s_m_source_file>
AV-unprocessed.smi

> <i_m_source_file_index>
3350

> <i_lp_mmshare_version>
43012

> <i_f3d_flags>
0

> <s_epik_input>
bjFbY0hdW2NIXVtjSF1uMVtDSDJdW0NAQEhdKFtDSDNdKVtOSF1DKD1PKVtOSF1bQ0BIXShbQ0gzXSlbQ0BASF0yW0NIMl1bQ0gyXVtDSDJdTzI=

> <s_epik_cmdline>
J2VwaWtfcHl0aG9uJywgJy1waCcsICc3LjAnLCAnLXRuJywgJzgnLCAnLW1hJywgJzIwMCcsICctbWV0YWxfYmluZGluZycsICctaW1hZScsICc8aW5maWxlLm1hZT4nLCAnLW9tYWUnLCAnPG91dGZpbGUubWFlPic=

> <r_lp_tautomer_probability>
1

> <r_epik_Ionization_Penalty>
6.42349e-05

> <r_epik_Ionization_Penalty_Charging>
0

> <r_epik_Ionization_Penalty_Neutral>
6.42349e-05

> <r_epik_State_Penalty>
-0

> <r_epik_Charging_Adjusted_Penalty>
0

> <i_epik_Tot_Q>
0

> <i_epik_Tot_abs_Q>
0

> <r_epik_Metal_State_Penalty>
-0

> <b_epik_Metal_Only>
0

> <s_lp_Force_Field>
OPLS_2005

> <r_lp_Energy>
15.8996

> <b_lp_Chiralities_Consistent>
1

> <s_lp_Variant>
AV-unprocessed.smi:3350-4

> <Gold.Version>
5.8.1

> <Gold.Id.Protein>
6NUR|6NUR_protein|mol2

> <Gold.PLP.Fitness>
43.9943

> <Gold.PLP.PLP>
-30.5185

> <Gold.PLP.part.hbond>
-3.0000

> <Gold.PLP.part.metal>
0.0000

> <Gold.PLP.part.buried>
-4.6536

> <Gold.PLP.part.nonpolar>
-23.6201

> <Gold.PLP.part.repulsive>
0.4287

> <Gold.PLP.ligand.clash>
0.0000

> <Gold.PLP.ligand.torsion>
0.7860

> <Gold.PLP.Chemscore.Hbond>
2.9920

> <Gold.PLP.Chemscore.CHOScore>
2.0000

> <Gold.PLP.Chemscore.Metal>
0.0000

> <Gold.Chemscore.Hbonds>
donor molecule, donor type, donor heavy atom, donor atom, acceptor molecule, acceptor atom, score
      L1  H     9    29       P1  7948  1.00
      L1  H    12    30       P1  7948  1.00
      P1  H 10752 10763       L1    19  0.49
      L1  C     5    26       P1 10186  1.00
      L1  C     7    28       P1 10747  1.00

> <Gold.PLP.Chemscore.Internal.Correction>
0.0718

> <Gold.Rescore>
     Score         DG    S(hbond)    S(metal)    S(lipo)     H(rot)  DE(clash)    DE(int)     intcor
     16.59     -17.33       2.46        0.00      70.99       1.82       0.01       0.74       ----

> <Gold.Chemscore.Fitness>
16.5889

> <Gold.Chemscore.DG>
-17.3330

> <Gold.Chemscore.ZeroCoef>
-5.4800

> <Gold.Chemscore.Hbond>
2.4567

> <Gold.Chemscore.Metal>
0.0000

> <Gold.Chemscore.Lipo>
70.9906

> <Gold.Chemscore.Internal_Hbond>
0.0000

> <Gold.Chemscore.DEClash>
0.0086

> <Gold.Chemscore.DEInternal>
0.7355

> <Gold.Chemscore.Rot>
1.8197

> <Gold.Chemscore.Internal.Correction>
   9.000000E+99

> <Gold.Chemscore.Hbonds>
donor molecule, donor type, donor heavy atom, donor atom, acceptor molecule, acceptor atom, score
      L1  H     9    29       P1  7948  0.94
      L1  H    12    30       P1  7948  0.96
      P1  H 10752 10763       L1    19  0.20

> <Gold.Chemscore.Hbond.Weighted>
-8.2055

> <Gold.Chemscore.Metal.Weighted>
-0.0000

> <Gold.Chemscore.Lipo.Weighted>
-8.3059

> <Gold.Chemscore.Internal_Hbond.Weighted>
0.0000

> <Gold.Chemscore.DEClash.Weighted>
0.0086

> <Gold.Chemscore.DEInternal.Weighted>
0.7355

> <Gold.Chemscore.Rot.Weighted>
4.6583

> <Gold.Chemscore.Internal.Correction.Weighted>
   9.000000E+99

> <Gold.Protein.RotatedTorsions>
[ 6907 6896 6895 6894 ] final  139.16 input  -60.11 | X-H torsion
[ 7974 7965 7964 7962 ] final  -23.09 input  175.53 | X-H torsion
[ 8008 7997 7996 7995 ] final  176.33 input   59.86 | X-H torsion
[ 10167 10162 10161 10158 ] final -143.73 input  -65.29 | X-H torsion
[ 10718 10713 10712 10709 ] final  101.80 input   66.30 | X-H torsion
[ 10763 10752 10751 10750 ] final   39.55 input  -60.55 | X-H torsion
[ 11005 11000 10999 10996 ] final -150.58 input  -57.11 | X-H torsion

> <Gold.Protein.ActiveResidues>
 VAL166  LYS551  ARG553  GLY616  TRP617  ASP618  TYR619  PRO620  LYS621  CYS622 
 ASP623  PHE694  ASN695  SER759  ASP760  ASP761  ALA762  ILE779  LEU786  VAL792 
 PHE793  MET794  SER795  GLU796  ALA797  LYS798  CYS799  TRP800  GLU811  SER814 

> <Gold.Protein.RotatedAtoms>
  152.2582  133.5274  159.5365 H   0  0  0  0  0  0  0  0  0  0  0  0  # atno 6907 bound_to 6896
  150.7116  134.0866  159.3926 H   0  0  0  0  0  0  0  0  0  0  0  0  # atno 6908 bound_to 6896
  151.8785  135.0463  160.0537 H   0  0  0  0  0  0  0  0  0  0  0  0  # atno 6909 bound_to 6896
  146.1637  140.4569  142.8561 H   0  0  0  0  0  0  0  0  0  0  0  0  # atno 7974 bound_to 7965
  156.0776  140.1386  156.9753 H   0  0  0  0  0  0  0  0  0  0  0  0  # atno 8008 bound_to 7997
  154.4566  140.0959  156.6825 H   0  0  0  0  0  0  0  0  0  0  0  0  # atno 8009 bound_to 7997
  155.5128  140.3454  155.4394 H   0  0  0  0  0  0  0  0  0  0  0  0  # atno 8010 bound_to 7997
  139.7966  143.7892  152.2655 H   0  0  0  0  0  0  0  0  0  0  0  0  # atno 10167 bound_to 10162
  157.6820  131.0736  150.5307 H   0  0  0  0  0  0  0  0  0  0  0  0  # atno 10718 bound_to 10713
  152.9964  135.6217  154.2483 H   0  0  0  0  0  0  0  0  0  0  0  0  # atno 10763 bound_to 10752
  154.2222  135.2795  155.2922 H   0  0  0  0  0  0  0  0  0  0  0  0  # atno 10764 bound_to 10752
  154.5519  135.5731  153.6988 H   0  0  0  0  0  0  0  0  0  0  0  0  # atno 10765 bound_to 10752
  140.7387  134.3539  157.5152 H   0  0  0  0  0  0  0  0  0  0  0  0  # atno 11005 bound_to 11000
  144.8062  140.6304  143.6445 LP  0  0  0  0  0  0  0  0  0  0  0  0  # atno 17320 bound_to 7965
  145.4523  139.1522  143.3911 LP  0  0  0  0  0  0  0  0  0  0  0  0  # atno 17321 bound_to 7965
  139.7999  144.7378  150.9839 LP  0  0  0  0  0  0  0  0  0  0  0  0  # atno 17342 bound_to 10162
  140.7820  143.4356  151.0629 LP  0  0  0  0  0  0  0  0  0  0  0  0  # atno 17343 bound_to 10162
  156.5617  130.4257  149.6060 LP  0  0  0  0  0  0  0  0  0  0  0  0  # atno 17370 bound_to 10713
  156.2815  130.7073  151.1899 LP  0  0  0  0  0  0  0  0  0  0  0  0  # atno 17371 bound_to 10713
  139.8811  134.9066  156.2926 LP  0  0  0  0  0  0  0  0  0  0  0  0  # atno 17394 bound_to 11000
  140.9856  133.7240  156.0737 LP  0  0  0  0  0  0  0  0  0  0  0  0  # atno 17395 bound_to 11000

$$$$
