#       Name:                AV-unprocessed.smi:1148
#       Creating user name   scv26
#       Creation time:       Fri Mar 27 03:46:20 2020


#       File generated by GOLD software.
#

@<TRIPOS>MOLECULE
AV-unprocessed.smi:1148
    52    54     1
SMALL
NO_CHARGES


@<TRIPOS>ATOM
      1 ****        -4.4639  -4.4977  -0.0031 C.3            1 S1                 0.0000
      2 ****        -3.8656  -3.2067   0.0371 O.3            1 S1                 0.0000
      3 ****        -4.6899  -2.0988   0.0928 C.ar           1 S1                 0.0000
      4 ****        -6.0323  -2.2946   0.1244 N.ar           1 S1                 0.0000
      5 ****        -6.8384  -1.2147   0.1813 C.ar           1 S1                 0.0000
      6 ****        -6.3555   0.1062   0.2173 C.ar           1 S1                 0.0000
      7 ****        -4.9638   0.3121   0.1840 C.ar           1 S1                 0.0000
      8 ****        -4.1049  -0.8110   0.1080 C.ar           1 S1                 0.0000
      9 ****        -2.6865  -0.7144   0.0865 N.am           1 S1                 0.0000
     10 ****        -1.9262   0.3036  -0.3508 C.2            1 S1                 0.0000
     11 ****        -2.3514   1.3643  -0.8086 O.2            1 S1                 0.0000
     12 ****        -0.6219   0.0119  -0.2459 N.am           1 S1                 0.0000
     13 ****         0.4739   0.8806  -0.6649 C.3            1 S1                 0.0000
     14 ****         1.7104   0.0226  -1.0092 C.3            1 S1                 0.0000
     15 ****         2.9381   0.9085  -1.2808 C.3            1 S1                 0.0000
     16 ****         3.1777   1.7533  -0.1029 N.am           1 S1                 0.0000
     17 ****         4.2109   1.6316   0.7675 C.2            1 S1                 0.0000
     18 ****         4.3670   2.4055   1.7133 O.2            1 S1                 0.0000
     19 ****         5.1525   0.4856   0.5520 C.3            1 S1                 0.0000
     20 ****         6.4493   0.4576   1.3413 C.3            1 S1                 0.0000
     21 ****         6.4698   0.7991  -0.1256 C.3            1 S1                 0.0000
     22 ****         2.0804   2.7080   0.0980 C.3            1 S1                 0.0000
     23 ****         0.7970   1.9240   0.4300 C.3            1 S1                 0.0000
     24 ****        -3.6821  -5.2557  -0.0481 H              1 S1                 0.0000
     25 ****        -5.0920  -4.6185  -0.8870 H              1 S1                 0.0000
     26 ****        -5.0600  -4.6906   0.8899 H              1 S1                 0.0000
     27 ****        -7.9004  -1.4097   0.2056 H              1 S1                 0.0000
     28 ****        -7.0368   0.9421   0.2736 H              1 S1                 0.0000
     29 ****        -4.5840   1.3209   0.2314 H              1 S1                 0.0000
     30 ****        -2.1935  -1.5535   0.3552 H              1 S1                 0.0000
     31 ****        -0.3664  -0.8844   0.1416 H              1 S1                 0.0000
     32 ****         0.1813   1.4137  -1.5717 H              1 S1                 0.0000
     33 ****         1.9347  -0.6566  -0.1850 H              1 S1                 0.0000
     34 ****         1.5027  -0.6024  -1.8784 H              1 S1                 0.0000
     35 ****         3.7930   0.2970  -1.5668 H              1 S1                 0.0000
     36 ****         2.7473   1.5466  -2.1448 H              1 S1                 0.0000
     37 ****         4.6998  -0.4849   0.3562 H              1 S1                 0.0000
     38 ****         6.6667   1.2644   2.0390 H              1 S1                 0.0000
     39 ****         6.8223  -0.5194   1.6421 H              1 S1                 0.0000
     40 ****         6.8562   0.0559  -0.8200 H              1 S1                 0.0000
     41 ****         6.6747   1.8337  -0.3959 H              1 S1                 0.0000
     42 ****         2.2847   3.4307   0.8889 H              1 S1                 0.0000
     43 ****         1.9375   3.2960  -0.8099 H              1 S1                 0.0000
     44 ****        -0.0379   2.6152   0.5514 H              1 S1                 0.0000
     45 ****         0.9250   1.4233   1.3910 H              1 S1                 0.0000
     46 ****        -3.3043  -3.1158  -0.7855 LP             1 S1                 0.0000
     47 ****        -3.2784  -3.1786   0.8461 LP             1 S1                 0.0000
     48 ****        -6.4151  -3.2183   0.1059 LP             1 S1                 0.0000
     49 ****        -3.3368   1.5199  -0.8774 LP             1 S1                 0.0000
     50 ****        -1.7114   2.0703  -1.1117 LP             1 S1                 0.0000
     51 ****         3.7200   3.1539   1.8590 LP             1 S1                 0.0000
     52 ****         5.1408   2.2853   2.3353 LP             1 S1                 0.0000
@<TRIPOS>BOND
    1    1    2 1     
    2    1   24 1     
    3    1   25 1     
    4    1   26 1     
    5    2    3 1     
    6    3    8 ar    
    7    3    4 ar    
    8    4    5 ar    
    9    5    6 ar    
   10    5   27 1     
   11    6    7 ar    
   12    6   28 1     
   13    7    8 ar    
   14    7   29 1     
   15    8    9 1     
   16    9   10 am    
   17    9   30 1     
   18   10   11 2     
   19   10   12 am    
   20   12   13 1     
   21   12   31 1     
   22   13   23 1     
   23   13   14 1     
   24   13   32 1     
   25   14   15 1     
   26   14   33 1     
   27   14   34 1     
   28   15   16 1     
   29   15   35 1     
   30   15   36 1     
   31   16   17 am    
   32   16   22 1     
   33   17   18 2     
   34   17   19 1     
   35   19   21 1     
   36   19   20 1     
   37   19   37 1     
   38   20   21 1     
   39   20   38 1     
   40   20   39 1     
   41   21   40 1     
   42   21   41 1     
   43   22   23 1     
   44   22   42 1     
   45   22   43 1     
   46   23   44 1     
   47   23   45 1     
   48    2   46 1     
   49    2   47 1     
   50    4   48 1     
   51   11   49 1     
   52   11   50 1     
   53   18   51 1     
   54   18   52 1     
@<TRIPOS>SUBSTRUCTURE
      1 S1             1
@<TRIPOS>SET
LONE_PAIRS      STATIC     ATOMS    <user>   **** ""
7 46 47 48 49 50 51 52
DONOR_HYDROGENS      STATIC     ATOMS    <user>   **** ""
2 30 31
ATOM$BLUE        STATIC     ATOMS    COLORGROUP SYSTEM
7 46 47 48 49 50 51 52
ATOM$RED        STATIC     ATOMS    COLORGROUP SYSTEM
2 30 31
