AV-unprocessed.smi:2837|AV-procd|sdf|10925|dock5
  -GOLD-   2272015373D 1   1.00000     0.00000
 Structure written by MMmdl.
 33 35  0  0  0  0  0  0  0  0  2 V2000
  143.7959  132.4875  149.4940 F   0  0  0  0  0  0  0  0  0  0  0  0
  144.2430  132.3685  150.7672 C   0  0  0  0  0  0  0  0  0  0  0  0
  144.9104  131.1922  150.8580 F   0  0  0  0  0  0  0  0  0  0  0  0
  145.0693  133.4073  151.0622 O   0  0  0  0  0  0  0  0  0  0  0  0
  144.5421  134.5522  151.6147 C   0  0  0  0  0  0  0  0  0  0  0  0
  143.8097  134.4403  152.8148 C   0  0  0  0  0  0  0  0  0  0  0  0
  143.2443  135.5900  153.4035 C   0  0  0  0  0  0  0  0  0  0  0  0
  143.4108  136.8465  152.7744 C   0  0  0  0  0  0  0  0  0  0  0  0
  142.8967  138.0554  153.2635 N   0  0  0  0  0  0  0  0  0  0  0  0
  142.1257  138.1053  154.5005 C   0  0  1  0  0  0  0  0  0  0  0  0
  141.5468  139.4925  154.7899 C   0  0  0  0  0  0  0  0  0  0  0  0
  140.0591  139.1765  154.9987 C   0  0  1  0  0  0  0  0  0  0  0  0
  139.3532  138.8859  153.6683 C   0  0  0  0  0  0  0  0  0  0  0  0
  139.9097  137.5077  153.3169 C   0  0  0  0  0  0  0  0  0  0  0  0
  140.8538  137.2332  154.5002 C   0  0  2  0  0  0  0  0  0  0  0  0
  140.1333  137.8687  155.5421 O   0  0  0  0  0  0  0  0  0  0  0  0
  144.1102  136.9107  151.6200 N   0  3  0  0  0  0  0  0  0  0  0  0
  144.6687  135.8334  151.0260 C   0  0  0  0  0  0  0  0  0  0  0  0
  143.3737  132.3462  151.4249 H   0  0  0  0  0  0  0  0  0  0  0  0
  143.6847  133.4757  153.2847 H   0  0  0  0  0  0  0  0  0  0  0  0
  142.6938  135.4878  154.3265 H   0  0  0  0  0  0  0  0  0  0  0  0
  142.8975  138.8714  152.6686 H   0  0  0  0  0  0  0  0  0  0  0  0
  142.7654  137.8224  155.3373 H   0  0  0  0  0  0  0  0  0  0  0  0
  141.9884  139.9033  155.6985 H   0  0  0  0  0  0  0  0  0  0  0  0
  141.7009  140.2127  153.9849 H   0  0  0  0  0  0  0  0  0  0  0  0
  139.5369  139.8976  155.6279 H   0  0  0  0  0  0  0  0  0  0  0  0
  138.2721  138.8380  153.8042 H   0  0  0  0  0  0  0  0  0  0  0  0
  139.5695  139.6379  152.9088 H   0  0  0  0  0  0  0  0  0  0  0  0
  139.1051  136.7721  153.2920 H   0  0  0  0  0  0  0  0  0  0  0  0
  140.4136  137.4849  152.3505 H   0  0  0  0  0  0  0  0  0  0  0  0
  141.0400  136.1736  154.6757 H   0  0  0  0  0  0  0  0  0  0  0  0
  145.1899  136.0355  150.1015 H   0  0  0  0  0  0  0  0  0  0  0  0
  144.2215  137.8193  151.1693 H   0  0  0  0  0  0  0  0  0  0  0  0
  1  2  1  0  0  0  0
  2  3  1  0  0  0  0
  2  4  1  0  0  0  0
  2 19  1  0  0  0  0
  4  5  1  0  0  0  0
  5 18  1  0  0  0  0
  5  6  2  0  0  0  0
  6  7  1  0  0  0  0
  6 20  1  0  0  0  0
  7  8  2  0  0  0  0
  7 21  1  0  0  0  0
  8  9  1  0  0  0  0
  8 17  1  0  0  0  0
  9 10  1  0  0  0  0
  9 22  1  0  0  0  0
 10 15  1  0  0  0  0
 10 11  1  0  0  0  0
 10 23  1  0  0  0  0
 11 12  1  0  0  0  0
 11 24  1  0  0  0  0
 11 25  1  0  0  0  0
 12 16  1  0  0  0  0
 12 13  1  0  0  0  0
 12 26  1  0  0  0  0
 13 14  1  0  0  0  0
 13 27  1  0  0  0  0
 13 28  1  0  0  0  0
 14 15  1  0  0  0  0
 14 29  1  0  0  0  0
 14 30  1  0  0  0  0
 15 16  1  0  0  0  0
 15 31  1  0  0  0  0
 17 18  2  0  0  0  0
 17 33  1  0  0  0  0
 18 32  1  0  0  0  0
M  CHG  1  17   1
M  END
> <s_m_source_file>
AV-unprocessed.smi

> <i_m_source_file_index>
2837

> <i_lp_mmshare_version>
43012

> <i_f3d_flags>
0

> <s_epik_input>
RltDSF0oRilPYzFbY0hdW2NIXWMobltjSF0xKVtOSF1bQ0BIXShbQ0gyXVtDQEBIXTIzKVtDQEBIXShPMylbQ0gyXVtDSDJdMg==

> <s_epik_cmdline>
J2VwaWtfcHl0aG9uJywgJy1waCcsICc3LjAnLCAnLXRuJywgJzgnLCAnLW1hJywgJzIwMCcsICctbWV0YWxfYmluZGluZycsICctaW1hZScsICc8aW5maWxlLm1hZT4nLCAnLW9tYWUnLCAnPG91dGZpbGUubWFlPic=

> <r_lp_tautomer_probability>
0.999429

> <r_epik_Ionization_Penalty>
2.29716

> <r_epik_Ionization_Penalty_Charging>
2.29716

> <r_epik_Ionization_Penalty_Neutral>
1.42285e-06

> <r_epik_State_Penalty>
2.44762

> <r_epik_Charging_Adjusted_Penalty>
4.74478

> <i_epik_Tot_Q>
1

> <i_epik_Tot_abs_Q>
1

> <r_epik_Metal_State_Penalty>
6.53078

> <b_epik_Metal_Only>
0

> <s_lp_Force_Field>
OPLS_2005

> <r_lp_Energy>
46.8356

> <b_lp_Chiralities_Consistent>
1

> <s_lp_Variant>
AV-unprocessed.smi:2837-6

> <Gold.Version>
5.8.1

> <Gold.Id.Protein>
6NUR|6NUR_protein|mol2

> <Gold.PLP.Fitness>
38.3726

> <Gold.PLP.PLP>
-31.5278

> <Gold.PLP.part.hbond>
-2.0000

> <Gold.PLP.part.metal>
0.0000

> <Gold.PLP.part.buried>
-6.0063

> <Gold.PLP.part.nonpolar>
-23.8531

> <Gold.PLP.part.repulsive>
0.1794

> <Gold.PLP.ligand.clash>
0.0000

> <Gold.PLP.ligand.torsion>
0.3996

> <Gold.PLP.Chemscore.Hbond>
2.5440

> <Gold.PLP.Chemscore.CHOScore>
0.0000

> <Gold.PLP.Chemscore.Metal>
0.0000

> <Gold.Chemscore.Hbonds>
donor molecule, donor type, donor heavy atom, donor atom, acceptor molecule, acceptor atom, score
      L1  H     9    22       P1 10175  1.76
      L1  H    17    33       P1 10171  0.82

> <Gold.PLP.Chemscore.Internal.Correction>
0.0119

> <Gold.Rescore>
     Score         DG    S(hbond)    S(metal)    S(lipo)     H(rot)  DE(clash)    DE(int)     intcor
     14.43     -14.73       1.75        0.00      58.36       1.34       0.06       0.23       ----

> <Gold.Chemscore.Fitness>
14.4284

> <Gold.Chemscore.DG>
-14.7266

> <Gold.Chemscore.ZeroCoef>
-5.4800

> <Gold.Chemscore.Hbond>
1.7487

> <Gold.Chemscore.Metal>
0.0000

> <Gold.Chemscore.Lipo>
58.3606

> <Gold.Chemscore.Internal_Hbond>
0.0000

> <Gold.Chemscore.DEClash>
0.0635

> <Gold.Chemscore.DEInternal>
0.2346

> <Gold.Chemscore.Rot>
1.3368

> <Gold.Chemscore.Internal.Correction>
   9.000000E+99

> <Gold.Chemscore.Hbonds>
donor molecule, donor type, donor heavy atom, donor atom, acceptor molecule, acceptor atom, score
      L1  H     9    22       P1 10175  0.87
      L1  H    17    33       P1 10171  0.80

> <Gold.Chemscore.Hbond.Weighted>
-5.8407

> <Gold.Chemscore.Metal.Weighted>
-0.0000

> <Gold.Chemscore.Lipo.Weighted>
-6.8282

> <Gold.Chemscore.Internal_Hbond.Weighted>
0.0000

> <Gold.Chemscore.DEClash.Weighted>
0.0635

> <Gold.Chemscore.DEInternal.Weighted>
0.2346

> <Gold.Chemscore.Rot.Weighted>
3.4223

> <Gold.Chemscore.Internal.Correction.Weighted>
   9.000000E+99

> <Gold.Protein.RotatedTorsions>
[ 6907 6896 6895 6894 ] final   -6.74 input  -60.11 | X-H torsion
[ 7974 7965 7964 7962 ] final  -32.98 input  175.53 | X-H torsion
[ 8008 7997 7996 7995 ] final  170.81 input   59.86 | X-H torsion
[ 10167 10162 10161 10158 ] final  -10.68 input  -65.29 | X-H torsion
[ 10718 10713 10712 10709 ] final -136.62 input   66.30 | X-H torsion
[ 10763 10752 10751 10750 ] final   91.98 input  -60.55 | X-H torsion
[ 11005 11000 10999 10996 ] final  -69.29 input  -57.11 | X-H torsion

> <Gold.Protein.ActiveResidues>
 VAL166  LYS551  ARG553  GLY616  TRP617  ASP618  TYR619  PRO620  LYS621  CYS622 
 ASP623  PHE694  ASN695  SER759  ASP760  ASP761  ALA762  ILE779  LEU786  VAL792 
 PHE793  MET794  SER795  GLU796  ALA797  LYS798  CYS799  TRP800  GLU811  SER814 

> <Gold.Protein.RotatedAtoms>
  151.4608  135.1038  159.9723 H   0  0  0  0  0  0  0  0  0  0  0  0  # atno 6907 bound_to 6896
  152.4854  133.8355  159.7136 H   0  0  0  0  0  0  0  0  0  0  0  0  # atno 6908 bound_to 6896
  150.8958  133.7122  159.2919 H   0  0  0  0  0  0  0  0  0  0  0  0  # atno 6909 bound_to 6896
  146.0947  140.5860  142.8848 H   0  0  0  0  0  0  0  0  0  0  0  0  # atno 7974 bound_to 7965
  156.1330  140.1528  156.9037 H   0  0  0  0  0  0  0  0  0  0  0  0  # atno 8008 bound_to 7997
  154.4924  140.0847  156.7664 H   0  0  0  0  0  0  0  0  0  0  0  0  # atno 8009 bound_to 7997
  155.4221  140.3423  155.4274 H   0  0  0  0  0  0  0  0  0  0  0  0  # atno 8010 bound_to 7997
  140.7120  143.5722  150.9081 H   0  0  0  0  0  0  0  0  0  0  0  0  # atno 10167 bound_to 10162
  156.2791  130.7310  151.1301 H   0  0  0  0  0  0  0  0  0  0  0  0  # atno 10718 bound_to 10713
  153.2142  135.4378  155.0414 H   0  0  0  0  0  0  0  0  0  0  0  0  # atno 10763 bound_to 10752
  154.8216  135.3340  154.7024 H   0  0  0  0  0  0  0  0  0  0  0  0  # atno 10764 bound_to 10752
  153.7460  135.7001  153.5012 H   0  0  0  0  0  0  0  0  0  0  0  0  # atno 10765 bound_to 10752
  141.1551  133.6761  156.6577 H   0  0  0  0  0  0  0  0  0  0  0  0  # atno 11005 bound_to 11000
  144.7386  140.4879  143.6885 LP  0  0  0  0  0  0  0  0  0  0  0  0  # atno 17320 bound_to 7965
  145.5972  139.1500  143.3149 LP  0  0  0  0  0  0  0  0  0  0  0  0  # atno 17321 bound_to 7965
  139.9448  143.6340  152.3044 LP  0  0  0  0  0  0  0  0  0  0  0  0  # atno 17342 bound_to 10162
  139.6838  144.7653  151.1561 LP  0  0  0  0  0  0  0  0  0  0  0  0  # atno 17343 bound_to 10162
  157.7308  131.0613  150.5706 LP  0  0  0  0  0  0  0  0  0  0  0  0  # atno 17370 bound_to 10713
  156.5810  130.4304  149.5977 LP  0  0  0  0  0  0  0  0  0  0  0  0  # atno 17371 bound_to 10713
  140.3271  134.7959  157.4298 LP  0  0  0  0  0  0  0  0  0  0  0  0  # atno 17394 bound_to 11000
  140.1047  134.5425  155.8320 LP  0  0  0  0  0  0  0  0  0  0  0  0  # atno 17395 bound_to 11000

$$$$
