AV-unprocessed.smi:275|AV-procd|sdf|2066|dock6
  -GOLD-   2262021313D 1   1.00000     0.00000
 Structure written by MMmdl.
 65 69  0  0  0  0  0  0  0  0  1 V2000
  148.0965  141.6635  157.7448 C   0  0  0  0  0  0  0  0  0  0  0  0
  149.2449  141.4415  156.7448 C   0  0  0  0  0  0  0  0  0  0  0  0
  149.0348  140.0929  156.0361 C   0  0  0  0  0  0  0  0  0  0  0  0
  150.6262  141.5062  157.4192 C   0  0  2  0  0  0  0  0  0  0  0  0
  150.6862  140.8140  158.7043 N   0  0  0  0  0  0  0  0  0  0  0  0
  151.1117  139.4583  158.6594 C   0  0  0  0  0  0  0  0  0  0  0  0
  150.3979  138.5096  157.9932 N   0  0  0  0  0  0  0  0  0  0  0  0
  150.8061  137.2375  157.9674 C   0  0  0  0  0  0  0  0  0  0  0  0
  151.8844  136.6964  158.5364 N   0  0  0  0  0  0  0  0  0  0  0  0
  152.6052  137.6377  159.2086 C   0  0  0  0  0  0  0  0  0  0  0  0
  152.2940  139.0219  159.3149 C   0  0  0  0  0  0  0  0  0  0  0  0
  153.2570  139.6676  160.0804 N   0  0  0  0  0  0  0  0  0  0  0  0
  154.0899  138.7183  160.4106 C   0  0  0  0  0  0  0  0  0  0  0  0
  153.7706  137.4673  159.9329 N   0  0  0  0  0  0  0  0  0  0  0  0
  154.5092  136.2361  160.1472 C   0  0  0  0  0  0  0  0  0  0  0  0
  155.7932  136.4363  160.9900 C   0  0  2  0  0  0  0  0  0  0  0  0
  156.9487  135.5061  160.5469 C   0  0  0  0  0  0  0  0  0  0  0  0
  157.2668  135.6893  159.1824 O   0  0  0  0  0  0  0  0  0  0  0  0
  155.4974  136.3352  162.5074 C   0  0  1  0  0  0  0  0  0  0  0  0
  154.3593  137.2126  162.9990 C   0  0  0  0  0  0  0  0  0  0  0  0
  154.0003  136.5651  164.3325 C   0  0  0  0  0  0  0  0  0  0  0  0
  154.2930  135.1804  164.1832 O   0  0  0  0  0  0  0  0  0  0  0  0
  155.0013  134.9606  162.9681 C   0  0  0  0  0  0  0  0  0  0  0  0
  151.6971  141.7454  159.1828 C   0  0  0  0  0  0  0  0  0  0  0  0
  151.1193  142.7600  158.1831 C   0  0  0  0  0  0  0  0  0  0  0  0
  152.1448  143.6256  157.4335 C   0  0  0  0  0  0  0  0  0  0  0  0
  152.7961  144.6909  158.3310 C   0  0  0  0  0  0  0  0  0  0  0  0
  151.7391  145.6060  158.9620 C   0  0  0  0  0  0  0  0  0  0  0  0
  150.6651  144.7897  159.6923 C   0  0  0  0  0  0  0  0  0  0  0  0
  150.0576  143.7189  158.7693 C   0  0  0  0  0  0  0  0  0  0  0  0
  148.1374  140.9429  158.5623 H   0  0  0  0  0  0  0  0  0  0  0  0
  147.1263  141.5599  157.2579 H   0  0  0  0  0  0  0  0  0  0  0  0
  148.1269  142.6619  158.1780 H   0  0  0  0  0  0  0  0  0  0  0  0
  149.1755  142.2227  155.9868 H   0  0  0  0  0  0  0  0  0  0  0  0
  149.0740  139.2669  156.7471 H   0  0  0  0  0  0  0  0  0  0  0  0
  149.7910  139.9047  155.2767 H   0  0  0  0  0  0  0  0  0  0  0  0
  148.0645  140.0570  155.5399 H   0  0  0  0  0  0  0  0  0  0  0  0
  151.4156  141.1571  156.7502 H   0  0  0  0  0  0  0  0  0  0  0  0
  150.1778  136.5559  157.4134 H   0  0  0  0  0  0  0  0  0  0  0  0
  154.9610  138.9036  161.0223 H   0  0  0  0  0  0  0  0  0  0  0  0
  153.8353  135.5300  160.6330 H   0  0  0  0  0  0  0  0  0  0  0  0
  154.7569  135.8071  159.1754 H   0  0  0  0  0  0  0  0  0  0  0  0
  156.1375  137.4544  160.8019 H   0  0  0  0  0  0  0  0  0  0  0  0
  157.8450  135.6852  161.1410 H   0  0  0  0  0  0  0  0  0  0  0  0
  156.6907  134.4600  160.7094 H   0  0  0  0  0  0  0  0  0  0  0  0
  158.1930  135.5406  159.0675 H   0  0  0  0  0  0  0  0  0  0  0  0
  156.3961  136.5842  163.0736 H   0  0  0  0  0  0  0  0  0  0  0  0
  154.6387  138.2607  163.1093 H   0  0  0  0  0  0  0  0  0  0  0  0
  153.5101  137.1551  162.3163 H   0  0  0  0  0  0  0  0  0  0  0  0
  154.6247  136.9666  165.1314 H   0  0  0  0  0  0  0  0  0  0  0  0
  152.9569  136.7252  164.6050 H   0  0  0  0  0  0  0  0  0  0  0  0
  154.3082  134.5348  162.2412 H   0  0  0  0  0  0  0  0  0  0  0  0
  155.8147  134.2496  163.1147 H   0  0  0  0  0  0  0  0  0  0  0  0
  151.5759  142.0150  160.2320 H   0  0  0  0  0  0  0  0  0  0  0  0
  152.7235  141.4535  158.9543 H   0  0  0  0  0  0  0  0  0  0  0  0
  152.9286  142.9983  157.0075 H   0  0  0  0  0  0  0  0  0  0  0  0
  151.6686  144.1159  156.5837 H   0  0  0  0  0  0  0  0  0  0  0  0
  153.3740  144.2031  159.1171 H   0  0  0  0  0  0  0  0  0  0  0  0
  153.5037  145.2849  157.7520 H   0  0  0  0  0  0  0  0  0  0  0  0
  152.2114  146.3070  159.6509 H   0  0  0  0  0  0  0  0  0  0  0  0
  151.2690  146.2071  158.1825 H   0  0  0  0  0  0  0  0  0  0  0  0
  151.1020  144.3153  160.5714 H   0  0  0  0  0  0  0  0  0  0  0  0
  149.8815  145.4529  160.0595 H   0  0  0  0  0  0  0  0  0  0  0  0
  149.5137  144.2232  157.9719 H   0  0  0  0  0  0  0  0  0  0  0  0
  149.3051  143.1620  159.3289 H   0  0  0  0  0  0  0  0  0  0  0  0
  1  2  1  0  0  0  0
  1 31  1  0  0  0  0
  1 32  1  0  0  0  0
  1 33  1  0  0  0  0
  2  3  1  0  0  0  0
  2  4  1  0  0  0  0
  2 34  1  0  0  0  0
  3 35  1  0  0  0  0
  3 36  1  0  0  0  0
  3 37  1  0  0  0  0
  4 25  1  0  0  0  0
  4  5  1  0  0  0  0
  4 38  1  0  0  0  0
  5  6  1  0  0  0  0
  5 24  1  0  0  0  0
  6 11  1  0  0  0  0
  6  7  2  0  0  0  0
  7  8  1  0  0  0  0
  8  9  2  0  0  0  0
  8 39  1  0  0  0  0
  9 10  1  0  0  0  0
 10 14  1  0  0  0  0
 10 11  2  0  0  0  0
 11 12  1  0  0  0  0
 12 13  2  0  0  0  0
 13 14  1  0  0  0  0
 13 40  1  0  0  0  0
 14 15  1  0  0  0  0
 15 16  1  0  0  0  0
 15 41  1  0  0  0  0
 15 42  1  0  0  0  0
 16 17  1  0  0  0  0
 16 19  1  0  0  0  0
 16 43  1  0  0  0  0
 17 18  1  0  0  0  0
 17 44  1  0  0  0  0
 17 45  1  0  0  0  0
 18 46  1  0  0  0  0
 19 23  1  0  0  0  0
 19 20  1  0  0  0  0
 19 47  1  0  0  0  0
 20 21  1  0  0  0  0
 20 48  1  0  0  0  0
 20 49  1  0  0  0  0
 21 22  1  0  0  0  0
 21 50  1  0  0  0  0
 21 51  1  0  0  0  0
 22 23  1  0  0  0  0
 23 52  1  0  0  0  0
 23 53  1  0  0  0  0
 24 25  1  0  0  0  0
 24 54  1  0  0  0  0
 24 55  1  0  0  0  0
 25 30  1  0  0  0  0
 25 26  1  0  0  0  0
 26 27  1  0  0  0  0
 26 56  1  0  0  0  0
 26 57  1  0  0  0  0
 27 28  1  0  0  0  0
 27 58  1  0  0  0  0
 27 59  1  0  0  0  0
 28 29  1  0  0  0  0
 28 60  1  0  0  0  0
 28 61  1  0  0  0  0
 29 30  1  0  0  0  0
 29 62  1  0  0  0  0
 29 63  1  0  0  0  0
 30 64  1  0  0  0  0
 30 65  1  0  0  0  0
M  END
> <s_m_source_file>
AV-unprocessed.smi

> <i_m_source_file_index>
275

> <i_lp_mmshare_version>
43012

> <i_f3d_flags>
0

> <s_epik_input>
W0NIMl0xW0NIMl1bQ0gyXVtDSDJdW0NIMl1DMTJbQ0BIXShbQ0hdKFtDSDNdKVtDSDNdKU4oW0NIMl0yKWMobltjSF1uMyljKGMzNCluW2NIXW40W0NIMl1bQ0BIXShbQ0gyXVtPSF0pW0NAQEhdNVtDSDJdW0NIMl1PW0NIMl01

> <s_epik_cmdline>
J2VwaWtfcHl0aG9uJywgJy1waCcsICc3LjAnLCAnLXRuJywgJzgnLCAnLW1hJywgJzIwMCcsICctbWV0YWxfYmluZGluZycsICctaW1hZScsICc8aW5maWxlLm1hZT4nLCAnLW9tYWUnLCAnPG91dGZpbGUubWFlPic=

> <r_lp_tautomer_probability>
1

> <r_epik_Ionization_Penalty>
0.00375122

> <r_epik_Ionization_Penalty_Charging>
0

> <r_epik_Ionization_Penalty_Neutral>
0.00375122

> <r_epik_State_Penalty>
0.00260593

> <r_epik_Charging_Adjusted_Penalty>
0.00260593

> <i_epik_Tot_Q>
0

> <i_epik_Tot_abs_Q>
0

> <r_epik_Metal_State_Penalty>
-0

> <b_epik_Metal_Only>
0

> <s_lp_Force_Field>
OPLS_2005

> <r_lp_Energy>
62.8916

> <b_lp_Chiralities_Consistent>
1

> <s_lp_Variant>
AV-unprocessed.smi:275-5

> <Gold.Version>
5.8.1

> <Gold.Id.Protein>
6NUR|6NUR_protein|mol2

> <Gold.PLP.Fitness>
44.7676

> <Gold.PLP.PLP>
-44.0163

> <Gold.PLP.part.hbond>
-1.0000

> <Gold.PLP.part.metal>
0.0000

> <Gold.PLP.part.buried>
-6.8743

> <Gold.PLP.part.nonpolar>
-35.6879

> <Gold.PLP.part.repulsive>
0.0769

> <Gold.PLP.ligand.clash>
0.0408

> <Gold.PLP.ligand.torsion>
0.7651

> <Gold.PLP.Chemscore.Hbond>
0.5606

> <Gold.PLP.Chemscore.CHOScore>
0.0000

> <Gold.PLP.Chemscore.Metal>
0.0000

> <Gold.Chemscore.Hbonds>
donor molecule, donor type, donor heavy atom, donor atom, acceptor molecule, acceptor atom, score
      P1  H  6896  6908       L1     9  0.56

> <Gold.PLP.Chemscore.Internal.Correction>
0.6407

> <Gold.Rescore>
     Score         DG    S(hbond)    S(metal)    S(lipo)     H(rot)  DE(clash)    DE(int)     intcor
     11.29     -15.15       0.47        0.00     124.81       2.54       0.26       3.60       ----

> <Gold.Chemscore.Fitness>
11.2911

> <Gold.Chemscore.DG>
-15.1525

> <Gold.Chemscore.ZeroCoef>
-5.4800

> <Gold.Chemscore.Hbond>
0.4690

> <Gold.Chemscore.Metal>
0.0000

> <Gold.Chemscore.Lipo>
124.8085

> <Gold.Chemscore.Internal_Hbond>
0.0000

> <Gold.Chemscore.DEClash>
0.2610

> <Gold.Chemscore.DEInternal>
3.6004

> <Gold.Chemscore.Rot>
2.5377

> <Gold.Chemscore.Internal.Correction>
   9.000000E+99

> <Gold.Chemscore.Hbonds>
donor molecule, donor type, donor heavy atom, donor atom, acceptor molecule, acceptor atom, score
      P1  H  6896  6908       L1     9  0.24

> <Gold.Chemscore.Hbond.Weighted>
-1.5665

> <Gold.Chemscore.Metal.Weighted>
-0.0000

> <Gold.Chemscore.Lipo.Weighted>
-14.6026

> <Gold.Chemscore.Internal_Hbond.Weighted>
0.0000

> <Gold.Chemscore.DEClash.Weighted>
0.2610

> <Gold.Chemscore.DEInternal.Weighted>
3.6004

> <Gold.Chemscore.Rot.Weighted>
6.4966

> <Gold.Chemscore.Internal.Correction.Weighted>
   9.000000E+99

> <Gold.Protein.RotatedTorsions>
[ 6907 6896 6895 6894 ] final -120.12 input  -60.11 | X-H torsion
[ 7974 7965 7964 7962 ] final -147.17 input  175.53 | X-H torsion
[ 8008 7997 7996 7995 ] final  -89.17 input   59.86 | X-H torsion
[ 10167 10162 10161 10158 ] final  -41.65 input  -65.29 | X-H torsion
[ 10718 10713 10712 10709 ] final  179.08 input   66.30 | X-H torsion
[ 10763 10752 10751 10750 ] final -176.80 input  -60.55 | X-H torsion
[ 11005 11000 10999 10996 ] final  -76.51 input  -57.11 | X-H torsion

> <Gold.Protein.ActiveResidues>
 VAL166  LYS551  ARG553  GLY616  TRP617  ASP618  TYR619  PRO620  LYS621  CYS622 
 ASP623  PHE694  ASN695  SER759  ASP760  ASP761  ALA762  ILE779  LEU786  VAL792 
 PHE793  MET794  SER795  GLU796  ALA797  LYS798  CYS799  TRP800  GLU811  SER814 

> <Gold.Protein.RotatedAtoms>
  150.8365  133.8006  159.3077 H   0  0  0  0  0  0  0  0  0  0  0  0  # atno 6907 bound_to 6896
  151.5720  135.1060  160.0007 H   0  0  0  0  0  0  0  0  0  0  0  0  # atno 6908 bound_to 6896
  152.4436  133.7452  159.6719 H   0  0  0  0  0  0  0  0  0  0  0  0  # atno 6909 bound_to 6896
  144.8111  140.5362  143.5642 H   0  0  0  0  0  0  0  0  0  0  0  0  # atno 7974 bound_to 7965
  154.6835  140.0545  157.0290 H   0  0  0  0  0  0  0  0  0  0  0  0  # atno 8008 bound_to 7997
  155.0918  140.3220  155.4553 H   0  0  0  0  0  0  0  0  0  0  0  0  # atno 8009 bound_to 7997
  156.2703  140.2046  156.6045 H   0  0  0  0  0  0  0  0  0  0  0  0  # atno 8010 bound_to 7997
  140.6995  143.3082  151.3097 H   0  0  0  0  0  0  0  0  0  0  0  0  # atno 10167 bound_to 10162
  156.8810  130.9816  151.3062 H   0  0  0  0  0  0  0  0  0  0  0  0  # atno 10718 bound_to 10713
  154.5679  135.2825  155.0856 H   0  0  0  0  0  0  0  0  0  0  0  0  # atno 10763 bound_to 10752
  154.2239  135.6386  153.5157 H   0  0  0  0  0  0  0  0  0  0  0  0  # atno 10764 bound_to 10752
  153.0048  135.5521  154.6293 H   0  0  0  0  0  0  0  0  0  0  0  0  # atno 10765 bound_to 10752
  141.1654  133.6986  156.7680 H   0  0  0  0  0  0  0  0  0  0  0  0  # atno 11005 bound_to 11000
  145.5322  139.1475  143.3493 LP  0  0  0  0  0  0  0  0  0  0  0  0  # atno 17320 bound_to 7965
  146.2410  140.5462  142.8934 LP  0  0  0  0  0  0  0  0  0  0  0  0  # atno 17321 bound_to 7965
  139.6495  144.0388  152.2616 LP  0  0  0  0  0  0  0  0  0  0  0  0  # atno 17342 bound_to 10162
  139.9920  144.6355  150.7806 LP  0  0  0  0  0  0  0  0  0  0  0  0  # atno 17343 bound_to 10162
  157.6140  130.8604  149.8998 LP  0  0  0  0  0  0  0  0  0  0  0  0  # atno 17370 bound_to 10713
  156.0677  130.3690  150.0843 LP  0  0  0  0  0  0  0  0  0  0  0  0  # atno 17371 bound_to 10713
  140.2485  134.8559  157.3644 LP  0  0  0  0  0  0  0  0  0  0  0  0  # atno 17394 bound_to 11000
  140.1726  134.4590  155.7822 LP  0  0  0  0  0  0  0  0  0  0  0  0  # atno 17395 bound_to 11000

$$$$
