AV-unprocessed.smi:562|AV-procd|sdf|2944|dock1
  -GOLD-   2262023443D 1   1.00000     0.00000
 Structure written by MMmdl.
 41 43  0  0  0  0  0  0  0  0  1 V2000
  154.0194  136.1949  158.3971 C   0  0  0  0  0  0  0  0  0  0  0  0
  152.9303  136.7790  159.0878 O   0  0  0  0  0  0  0  0  0  0  0  0
  151.9994  137.4006  158.2178 C   0  0  0  0  0  0  0  0  0  0  0  0
  152.6473  138.6303  157.5671 C   0  0  0  0  0  0  0  0  0  0  0  0
  151.6578  139.5087  156.9490 N   0  0  0  0  0  0  0  0  0  0  0  0
  151.3559  140.7959  157.2636 C   0  0  0  0  0  0  0  0  0  0  0  0
  152.0225  141.4809  158.3014 N   0  0  0  0  0  0  0  0  0  0  0  0
  152.6027  140.7920  159.3081 N   0  0  0  0  0  0  0  0  0  0  0  0
  153.1161  141.7178  160.1013 C   0  0  0  0  0  0  0  0  0  0  0  0
  153.8583  141.3013  161.3364 C   0  0  0  0  0  0  0  0  0  0  0  0
  152.8618  143.0350  159.6271 C   0  0  0  0  0  0  0  0  0  0  0  0
  152.1497  142.8472  158.4763 C   0  0  0  0  0  0  0  0  0  0  0  0
  151.5768  143.8458  157.5238 C   0  0  0  0  0  0  0  0  0  0  0  0
  150.4148  141.3572  156.4994 N   0  0  0  0  0  0  0  0  0  0  0  0
  150.0834  140.3358  155.6210 C   0  0  0  0  0  0  0  0  0  0  0  0
  150.8217  139.2236  155.8699 C   0  0  0  0  0  0  0  0  0  0  0  0
  150.6952  137.9971  155.0730 C   0  0  0  0  0  0  0  0  0  0  0  0
  151.3629  136.9854  155.2762 O   0  0  0  0  0  0  0  0  0  0  0  0
  149.7715  138.0983  154.0866 N   0  0  0  0  0  0  0  0  0  0  0  0
  148.9939  139.1824  153.7836 C   0  0  0  0  0  0  0  0  0  0  0  0
  148.1957  139.1245  152.8484 O   0  0  0  0  0  0  0  0  0  0  0  0
  149.1441  140.3096  154.5506 N   0  0  0  0  0  0  0  0  0  0  0  0
  148.3409  141.5002  154.2667 C   0  0  0  0  0  0  0  0  0  0  0  0
  149.6444  137.2812  153.5071 H   0  0  0  0  0  0  0  0  0  0  0  0
  154.6998  135.7334  159.1125 H   0  0  0  0  0  0  0  0  0  0  0  0
  154.5779  136.9460  157.8373 H   0  0  0  0  0  0  0  0  0  0  0  0
  153.6799  135.4216  157.7068 H   0  0  0  0  0  0  0  0  0  0  0  0
  151.6775  136.6967  157.4489 H   0  0  0  0  0  0  0  0  0  0  0  0
  151.1119  137.7014  158.7764 H   0  0  0  0  0  0  0  0  0  0  0  0
  153.2150  139.1967  158.3044 H   0  0  0  0  0  0  0  0  0  0  0  0
  153.3754  138.3118  156.8232 H   0  0  0  0  0  0  0  0  0  0  0  0
  154.2250  142.1679  161.8870 H   0  0  0  0  0  0  0  0  0  0  0  0
  154.7181  140.6793  161.0867 H   0  0  0  0  0  0  0  0  0  0  0  0
  153.2153  140.7303  162.0068 H   0  0  0  0  0  0  0  0  0  0  0  0
  153.1535  143.9765  160.0685 H   0  0  0  0  0  0  0  0  0  0  0  0
  152.0253  144.8280  157.6739 H   0  0  0  0  0  0  0  0  0  0  0  0
  150.5005  143.9406  157.6677 H   0  0  0  0  0  0  0  0  0  0  0  0
  151.7540  143.5527  156.4889 H   0  0  0  0  0  0  0  0  0  0  0  0
  147.2764  141.2642  154.3023 H   0  0  0  0  0  0  0  0  0  0  0  0
  148.5711  141.8862  153.2729 H   0  0  0  0  0  0  0  0  0  0  0  0
  148.5172  142.3056  154.9795 H   0  0  0  0  0  0  0  0  0  0  0  0
  1  2  1  0  0  0  0
  1 25  1  0  0  0  0
  1 26  1  0  0  0  0
  1 27  1  0  0  0  0
  2  3  1  0  0  0  0
  3  4  1  0  0  0  0
  3 28  1  0  0  0  0
  3 29  1  0  0  0  0
  4  5  1  0  0  0  0
  4 30  1  0  0  0  0
  4 31  1  0  0  0  0
  5 16  1  0  0  0  0
  5  6  1  0  0  0  0
  6  7  1  0  0  0  0
  6 14  2  0  0  0  0
  7 12  1  0  0  0  0
  7  8  1  0  0  0  0
  8  9  2  0  0  0  0
  9 10  1  0  0  0  0
  9 11  1  0  0  0  0
 10 32  1  0  0  0  0
 10 33  1  0  0  0  0
 10 34  1  0  0  0  0
 11 12  2  0  0  0  0
 11 35  1  0  0  0  0
 12 13  1  0  0  0  0
 13 36  1  0  0  0  0
 13 37  1  0  0  0  0
 13 38  1  0  0  0  0
 14 15  1  0  0  0  0
 15 22  1  0  0  0  0
 15 16  2  0  0  0  0
 16 17  1  0  0  0  0
 17 18  2  0  0  0  0
 17 19  1  0  0  0  0
 19 24  1  0  0  0  0
 19 20  1  0  0  0  0
 20 21  2  0  0  0  0
 20 22  1  0  0  0  0
 22 23  1  0  0  0  0
 23 39  1  0  0  0  0
 23 40  1  0  0  0  0
 23 41  1  0  0  0  0
M  END
> <s_m_source_file>
AV-unprocessed.smi

> <i_m_source_file_index>
562

> <i_lp_mmshare_version>
43012

> <i_f3d_flags>
0

> <s_epik_input>
W0NIM11uMWMoPU8pW25IXWMoPU8pYyhjMTIpbihbQ0gyXVtDSDJdT1tDSDNdKWMobjIpLW4zbmMoW0NIM10pW2NIXWMzW0NIM10=

> <s_epik_cmdline>
J2VwaWtfcHl0aG9uJywgJy1waCcsICc3LjAnLCAnLXRuJywgJzgnLCAnLW1hJywgJzIwMCcsICctbWV0YWxfYmluZGluZycsICctaW1hZScsICc8aW5maWxlLm1hZT4nLCAnLW9tYWUnLCAnPG91dGZpbGUubWFlPic=

> <r_lp_tautomer_probability>
1

> <r_epik_Ionization_Penalty>
0.00156925

> <r_epik_Ionization_Penalty_Charging>
0.000731299

> <r_epik_Ionization_Penalty_Neutral>
0.000837954

> <r_epik_State_Penalty>
-0

> <r_epik_Charging_Adjusted_Penalty>
0.000731299

> <i_epik_Tot_Q>
0

> <i_epik_Tot_abs_Q>
0

> <r_epik_Metal_State_Penalty>
0.260609

> <b_epik_Metal_Only>
0

> <s_lp_Force_Field>
OPLS_2005

> <r_lp_Energy>
24.6037

> <b_lp_Chiralities_Consistent>
1

> <s_lp_Variant>
AV-unprocessed.smi:562-1

> <Gold.Version>
5.8.1

> <Gold.Id.Protein>
6NUR|6NUR_protein|mol2

> <Gold.PLP.Fitness>
42.7019

> <Gold.PLP.PLP>
-36.6054

> <Gold.PLP.part.hbond>
-2.3543

> <Gold.PLP.part.metal>
0.0000

> <Gold.PLP.part.buried>
-5.1277

> <Gold.PLP.part.nonpolar>
-35.5019

> <Gold.PLP.part.repulsive>
5.1899

> <Gold.PLP.ligand.clash>
0.0000

> <Gold.PLP.ligand.torsion>
0.3031

> <Gold.PLP.Chemscore.Hbond>
2.1258

> <Gold.PLP.Chemscore.CHOScore>
0.0000

> <Gold.PLP.Chemscore.Metal>
0.0000

> <Gold.Chemscore.Hbonds>
donor molecule, donor type, donor heavy atom, donor atom, acceptor molecule, acceptor atom, score
      L1  H    19    24       P1  7948  0.98
      P1  H  6896  6908       L1     2  0.57
      P1  H 10752 10763       L1    18  0.57

> <Gold.PLP.Chemscore.Internal.Correction>
0.3255

> <Gold.Rescore>
     Score         DG    S(hbond)    S(metal)    S(lipo)     H(rot)  DE(clash)    DE(int)     intcor
     13.63     -16.63       1.84        0.00      76.31       1.53       0.00       2.99       ----

> <Gold.Chemscore.Fitness>
13.6337

> <Gold.Chemscore.DG>
-16.6262

> <Gold.Chemscore.ZeroCoef>
-5.4800

> <Gold.Chemscore.Hbond>
1.8404

> <Gold.Chemscore.Metal>
0.0000

> <Gold.Chemscore.Lipo>
76.3094

> <Gold.Chemscore.Internal_Hbond>
0.0000

> <Gold.Chemscore.DEClash>
0.0038

> <Gold.Chemscore.DEInternal>
2.9887

> <Gold.Chemscore.Rot>
1.5348

> <Gold.Chemscore.Internal.Correction>
   9.000000E+99

> <Gold.Chemscore.Hbonds>
donor molecule, donor type, donor heavy atom, donor atom, acceptor molecule, acceptor atom, score
      L1  H    19    24       P1  7948  0.71
      P1  H  6896  6908       L1     2  0.17
      P1  H 10752 10763       L1    18  0.56

> <Gold.Chemscore.Hbond.Weighted>
-6.1470

> <Gold.Chemscore.Metal.Weighted>
-0.0000

> <Gold.Chemscore.Lipo.Weighted>
-8.9282

> <Gold.Chemscore.Internal_Hbond.Weighted>
0.0000

> <Gold.Chemscore.DEClash.Weighted>
0.0038

> <Gold.Chemscore.DEInternal.Weighted>
2.9887

> <Gold.Chemscore.Rot.Weighted>
3.9290

> <Gold.Chemscore.Internal.Correction.Weighted>
   9.000000E+99

> <Gold.Protein.RotatedTorsions>
[ 6907 6896 6895 6894 ] final -104.05 input  -60.11 | X-H torsion
[ 7974 7965 7964 7962 ] final   23.52 input  175.53 | X-H torsion
[ 8008 7997 7996 7995 ] final  -58.65 input   59.86 | X-H torsion
[ 10167 10162 10161 10158 ] final    5.15 input  -65.29 | X-H torsion
[ 10718 10713 10712 10709 ] final  118.60 input   66.30 | X-H torsion
[ 10763 10752 10751 10750 ] final   60.54 input  -60.55 | X-H torsion
[ 11005 11000 10999 10996 ] final -123.53 input  -57.11 | X-H torsion

> <Gold.Protein.ActiveResidues>
 VAL166  LYS551  ARG553  GLY616  TRP617  ASP618  TYR619  PRO620  LYS621  CYS622 
 ASP623  PHE694  ASN695  SER759  ASP760  ASP761  ALA762  ILE779  LEU786  VAL792 
 PHE793  MET794  SER795  GLU796  ALA797  LYS798  CYS799  TRP800  GLU811  SER814 

> <Gold.Protein.RotatedAtoms>
  150.7269  134.0337  159.3741 H   0  0  0  0  0  0  0  0  0  0  0  0  # atno 6907 bound_to 6896
  151.8307  135.0620  160.0446 H   0  0  0  0  0  0  0  0  0  0  0  0  # atno 6908 bound_to 6896
  152.2935  133.5549  159.5609 H   0  0  0  0  0  0  0  0  0  0  0  0  # atno 6909 bound_to 6896
  146.1980  139.7733  142.8782 H   0  0  0  0  0  0  0  0  0  0  0  0  # atno 7974 bound_to 7965
  154.4318  140.1079  156.5991 H   0  0  0  0  0  0  0  0  0  0  0  0  # atno 8008 bound_to 7997
  155.5930  140.3492  155.4553 H   0  0  0  0  0  0  0  0  0  0  0  0  # atno 8009 bound_to 7997
  156.0232  140.1244  157.0325 H   0  0  0  0  0  0  0  0  0  0  0  0  # atno 8010 bound_to 7997
  140.6497  143.7574  150.7555 H   0  0  0  0  0  0  0  0  0  0  0  0  # atno 10167 bound_to 10162
  157.6019  131.1049  150.7778 H   0  0  0  0  0  0  0  0  0  0  0  0  # atno 10718 bound_to 10713
  152.9924  135.5532  154.5890 H   0  0  0  0  0  0  0  0  0  0  0  0  # atno 10763 bound_to 10752
  154.5256  135.2810  155.1227 H   0  0  0  0  0  0  0  0  0  0  0  0  # atno 10764 bound_to 10752
  154.2563  135.6389  153.5311 H   0  0  0  0  0  0  0  0  0  0  0  0  # atno 10765 bound_to 10752
  140.9912  134.0537  157.3652 H   0  0  0  0  0  0  0  0  0  0  0  0  # atno 11005 bound_to 11000
  145.3578  141.0320  143.3302 LP  0  0  0  0  0  0  0  0  0  0  0  0  # atno 17320 bound_to 7965
  144.8622  139.5160  143.6807 LP  0  0  0  0  0  0  0  0  0  0  0  0  # atno 17321 bound_to 7965
  140.1223  143.4601  152.2306 LP  0  0  0  0  0  0  0  0  0  0  0  0  # atno 17342 bound_to 10162
  139.5711  144.7463  151.3888 LP  0  0  0  0  0  0  0  0  0  0  0  0  # atno 17343 bound_to 10162
  156.8175  130.4973  149.5347 LP  0  0  0  0  0  0  0  0  0  0  0  0  # atno 17370 bound_to 10713
  156.1095  130.6029  151.0024 LP  0  0  0  0  0  0  0  0  0  0  0  0  # atno 17371 bound_to 10713
  139.8993  135.0158  156.7189 LP  0  0  0  0  0  0  0  0  0  0  0  0  # atno 17394 bound_to 11000
  140.7037  133.9283  155.8040 LP  0  0  0  0  0  0  0  0  0  0  0  0  # atno 17395 bound_to 11000

$$$$
