AV-unprocessed.smi:1613|AV-procd|sdf|6479|dock6
  -GOLD-   22720 7143D 1   1.00000     0.00000
 Structure written by MMmdl.
 53 55  0  0  0  0  0  0  0  0  2 V2000
  152.6092  139.9983  156.3508 O   0  0  0  0  0  0  0  0  0  0  0  0
  151.4763  139.8227  156.7961 C   0  0  0  0  0  0  0  0  0  0  0  0
  151.1551  140.2387  158.2428 C   0  0  0  0  0  0  0  0  0  0  0  0
  151.7224  141.5408  158.6443 N   0  0  0  0  0  0  0  0  0  0  0  0
  152.5345  141.5687  159.7908 C   0  0  0  0  0  0  0  0  0  0  0  0
  153.0632  142.7194  160.2319 C   0  0  0  0  0  0  0  0  0  0  0  0
  152.7449  143.9246  159.4552 C   0  0  0  0  0  0  0  0  0  0  0  0
  152.0062  143.9022  158.4096 N   0  0  0  0  0  0  0  0  0  0  0  0
  151.4547  142.6934  157.9462 C   0  0  0  0  0  0  0  0  0  0  0  0
  150.7363  142.6674  156.9468 O   0  0  0  0  0  0  0  0  0  0  0  0
  150.4770  139.3021  156.0661 N   0  0  0  0  0  0  0  0  0  0  0  0
  150.5188  138.9566  154.6486 C   0  0  2  0  0  0  0  0  0  0  0  0
  149.1020  138.7193  154.0884 C   0  0  0  0  0  0  0  0  0  0  0  0
  148.4373  137.4899  154.7340 C   0  0  0  0  0  0  0  0  0  0  0  0
  149.2793  136.2767  154.5711 N   0  3  2  0  0  0  0  0  0  0  0  0
  148.6294  135.0144  155.0156 C   0  0  0  0  0  0  0  0  0  0  0  0
  149.3495  133.7112  154.5742 C   0  0  0  0  0  0  0  0  0  0  0  0
  148.3436  132.6916  154.0002 C   0  0  0  0  0  0  0  0  0  0  0  0
  149.0373  131.3960  153.5497 C   0  0  0  0  0  0  0  0  0  0  0  0
  149.8315  130.7613  154.7005 C   0  0  0  0  0  0  0  0  0  0  0  0
  150.8350  131.7599  155.2947 C   0  0  0  0  0  0  0  0  0  0  0  0
  150.1375  133.0579  155.7334 C   0  0  0  0  0  0  0  0  0  0  0  0
  150.6612  136.4520  155.0935 C   0  0  0  0  0  0  0  0  0  0  0  0
  151.3485  137.6753  154.4558 C   0  0  0  0  0  0  0  0  0  0  0  0
  150.0703  140.2451  158.3586 H   0  0  0  0  0  0  0  0  0  0  0  0
  151.5081  139.4559  158.9167 H   0  0  0  0  0  0  0  0  0  0  0  0
  152.6896  140.6166  160.2773 H   0  0  0  0  0  0  0  0  0  0  0  0
  153.6925  142.8114  161.1045 H   0  0  0  0  0  0  0  0  0  0  0  0
  153.1828  144.8529  159.8309 H   0  0  0  0  0  0  0  0  0  0  0  0
  149.5884  139.1837  156.5309 H   0  0  0  0  0  0  0  0  0  0  0  0
  150.9953  139.7739  154.1045 H   0  0  0  0  0  0  0  0  0  0  0  0
  148.4768  139.6004  154.2367 H   0  0  0  0  0  0  0  0  0  0  0  0
  149.1612  138.5715  153.0094 H   0  0  0  0  0  0  0  0  0  0  0  0
  148.2613  137.6838  155.7919 H   0  0  0  0  0  0  0  0  0  0  0  0
  147.4632  137.3199  154.2746 H   0  0  0  0  0  0  0  0  0  0  0  0
  148.5245  135.0371  156.1010 H   0  0  0  0  0  0  0  0  0  0  0  0
  147.6075  135.0272  154.6341 H   0  0  0  0  0  0  0  0  0  0  0  0
  150.0547  133.9354  153.7750 H   0  0  0  0  0  0  0  0  0  0  0  0
  147.5861  132.4574  154.7494 H   0  0  0  0  0  0  0  0  0  0  0  0
  147.8145  133.1276  153.1520 H   0  0  0  0  0  0  0  0  0  0  0  0
  148.2968  130.6883  153.1758 H   0  0  0  0  0  0  0  0  0  0  0  0
  149.7075  131.6097  152.7165 H   0  0  0  0  0  0  0  0  0  0  0  0
  149.1441  130.4268  155.4784 H   0  0  0  0  0  0  0  0  0  0  0  0
  150.3547  129.8726  154.3467 H   0  0  0  0  0  0  0  0  0  0  0  0
  151.3473  131.3084  156.1448 H   0  0  0  0  0  0  0  0  0  0  0  0
  151.6054  131.9865  154.5579 H   0  0  0  0  0  0  0  0  0  0  0  0
  150.8848  133.7440  156.1293 H   0  0  0  0  0  0  0  0  0  0  0  0
  149.4606  132.8370  156.5600 H   0  0  0  0  0  0  0  0  0  0  0  0
  150.6475  136.5594  156.1781 H   0  0  0  0  0  0  0  0  0  0  0  0
  151.2476  135.5583  154.8774 H   0  0  0  0  0  0  0  0  0  0  0  0
  151.4910  137.4942  153.3897 H   0  0  0  0  0  0  0  0  0  0  0  0
  152.3462  137.8042  154.8773 H   0  0  0  0  0  0  0  0  0  0  0  0
  149.3922  136.1688  153.5731 H   0  0  0  0  0  0  0  0  0  0  0  0
  1  2  2  0  0  0  0
  2  3  1  0  0  0  0
  2 11  1  0  0  0  0
  3  4  1  0  0  0  0
  3 25  1  0  0  0  0
  3 26  1  0  0  0  0
  4  9  1  0  0  0  0
  4  5  1  0  0  0  0
  5  6  2  0  0  0  0
  5 27  1  0  0  0  0
  6  7  1  0  0  0  0
  6 28  1  0  0  0  0
  7  8  2  0  0  0  0
  7 29  1  0  0  0  0
  8  9  1  0  0  0  0
  9 10  2  0  0  0  0
 11 12  1  0  0  0  0
 11 30  1  0  0  0  0
 12 24  1  0  0  0  0
 12 13  1  0  0  0  0
 12 31  1  0  0  0  0
 13 14  1  0  0  0  0
 13 32  1  0  0  0  0
 13 33  1  0  0  0  0
 14 15  1  0  0  0  0
 14 34  1  0  0  0  0
 14 35  1  0  0  0  0
 15 16  1  0  0  0  0
 15 23  1  0  0  0  0
 15 53  1  0  0  0  0
 16 17  1  0  0  0  0
 16 36  1  0  0  0  0
 16 37  1  0  0  0  0
 17 22  1  0  0  0  0
 17 18  1  0  0  0  0
 17 38  1  0  0  0  0
 18 19  1  0  0  0  0
 18 39  1  0  0  0  0
 18 40  1  0  0  0  0
 19 20  1  0  0  0  0
 19 41  1  0  0  0  0
 19 42  1  0  0  0  0
 20 21  1  0  0  0  0
 20 43  1  0  0  0  0
 20 44  1  0  0  0  0
 21 22  1  0  0  0  0
 21 45  1  0  0  0  0
 21 46  1  0  0  0  0
 22 47  1  0  0  0  0
 22 48  1  0  0  0  0
 23 24  1  0  0  0  0
 23 49  1  0  0  0  0
 23 50  1  0  0  0  0
 24 51  1  0  0  0  0
 24 52  1  0  0  0  0
M  CHG  1  15   1
M  END
> <s_m_source_file>
AV-unprocessed.smi

> <i_m_source_file_index>
1613

> <i_lp_mmshare_version>
43012

> <i_f3d_flags>
0

> <s_epik_input>
Tz1jMW5bY0hdW2NIXVtjSF1uMVtDSDJdQyg9TylbTkhdW0NIXTJbQ0gyXVtDSDJdTihbQ0gyXVtDSDJdMilbQ0gyXVtDSF0zW0NIMl1bQ0gyXVtDSDJdW0NIMl1bQ0gyXTM=

> <s_epik_cmdline>
J2VwaWtfcHl0aG9uJywgJy1waCcsICc3LjAnLCAnLXRuJywgJzgnLCAnLW1hJywgJzIwMCcsICctbWV0YWxfYmluZGluZycsICctaW1hZScsICc8aW5maWxlLm1hZT4nLCAnLW9tYWUnLCAnPG91dGZpbGUubWFlPic=

> <r_lp_tautomer_probability>
1

> <r_epik_Ionization_Penalty>
0.00530026

> <r_epik_Ionization_Penalty_Charging>
0.00529416

> <r_epik_Ionization_Penalty_Neutral>
6.10215e-06

> <r_epik_State_Penalty>
0.00386377

> <r_epik_Charging_Adjusted_Penalty>
0.00915793

> <i_epik_Tot_Q>
1

> <i_epik_Tot_abs_Q>
1

> <r_epik_Metal_State_Penalty>
-0

> <b_epik_Metal_Only>
0

> <s_lp_Force_Field>
OPLS_2005

> <r_lp_Energy>
26.8521

> <b_lp_Chiralities_Consistent>
1

> <s_lp_Variant>
AV-unprocessed.smi:1613-2

> <Gold.Version>
5.8.1

> <Gold.Id.Protein>
6NUR|6NUR_protein|mol2

> <Gold.PLP.Fitness>
51.2083

> <Gold.PLP.PLP>
-44.3142

> <Gold.PLP.part.hbond>
-2.0000

> <Gold.PLP.part.metal>
0.0000

> <Gold.PLP.part.buried>
-4.4813

> <Gold.PLP.part.nonpolar>
-37.6584

> <Gold.PLP.part.repulsive>
0.2152

> <Gold.PLP.ligand.clash>
0.0000

> <Gold.PLP.ligand.torsion>
1.0986

> <Gold.PLP.Chemscore.Hbond>
3.0000

> <Gold.PLP.Chemscore.CHOScore>
0.0000

> <Gold.PLP.Chemscore.Metal>
0.0000

> <Gold.Chemscore.Hbonds>
donor molecule, donor type, donor heavy atom, donor atom, acceptor molecule, acceptor atom, score
      L1  H    15    53       P1  7948  2.00
      P1  H  7997  8010       L1     1  1.00

> <Gold.PLP.Chemscore.Internal.Correction>
0.0913

> <Gold.Rescore>
     Score         DG    S(hbond)    S(metal)    S(lipo)     H(rot)  DE(clash)    DE(int)     intcor
     17.54     -19.30       1.98        0.00     101.79       1.84       0.24       1.51       ----

> <Gold.Chemscore.Fitness>
17.5378

> <Gold.Chemscore.DG>
-19.2962

> <Gold.Chemscore.ZeroCoef>
-5.4800

> <Gold.Chemscore.Hbond>
1.9823

> <Gold.Chemscore.Metal>
0.0000

> <Gold.Chemscore.Lipo>
101.7942

> <Gold.Chemscore.Internal_Hbond>
0.0000

> <Gold.Chemscore.DEClash>
0.2450

> <Gold.Chemscore.DEInternal>
1.5135

> <Gold.Chemscore.Rot>
1.8417

> <Gold.Chemscore.Internal.Correction>
   9.000000E+99

> <Gold.Chemscore.Hbonds>
donor molecule, donor type, donor heavy atom, donor atom, acceptor molecule, acceptor atom, score
      L1  H    15    53       P1  7948  0.70
      P1  H  7997  8010       L1     1  0.99

> <Gold.Chemscore.Hbond.Weighted>
-6.6210

> <Gold.Chemscore.Metal.Weighted>
-0.0000

> <Gold.Chemscore.Lipo.Weighted>
-11.9099

> <Gold.Chemscore.Internal_Hbond.Weighted>
0.0000

> <Gold.Chemscore.DEClash.Weighted>
0.2450

> <Gold.Chemscore.DEInternal.Weighted>
1.5135

> <Gold.Chemscore.Rot.Weighted>
4.7147

> <Gold.Chemscore.Internal.Correction.Weighted>
   9.000000E+99

> <Gold.Protein.RotatedTorsions>
[ 6907 6896 6895 6894 ] final  110.03 input  -60.11 | X-H torsion
[ 7974 7965 7964 7962 ] final -153.51 input  175.53 | X-H torsion
[ 8008 7997 7996 7995 ] final   83.55 input   59.86 | X-H torsion
[ 10167 10162 10161 10158 ] final -105.32 input  -65.29 | X-H torsion
[ 10718 10713 10712 10709 ] final  -65.77 input   66.30 | X-H torsion
[ 10763 10752 10751 10750 ] final  121.25 input  -60.55 | X-H torsion
[ 11005 11000 10999 10996 ] final  132.90 input  -57.11 | X-H torsion

> <Gold.Protein.ActiveResidues>
 VAL166  LYS551  ARG553  GLY616  TRP617  ASP618  TYR619  PRO620  LYS621  CYS622 
 ASP623  PHE694  ASN695  SER759  ASP760  ASP761  ALA762  ILE779  LEU786  VAL792 
 PHE793  MET794  SER795  GLU796  ALA797  LYS798  CYS799  TRP800  GLU811  SER814 

> <Gold.Protein.RotatedAtoms>
  152.5039  133.8859  159.7369 H   0  0  0  0  0  0  0  0  0  0  0  0  # atno 6907 bound_to 6896
  150.9310  133.6758  159.2817 H   0  0  0  0  0  0  0  0  0  0  0  0  # atno 6908 bound_to 6896
  151.4102  135.0988  159.9635 H   0  0  0  0  0  0  0  0  0  0  0  0  # atno 6909 bound_to 6896
  144.7737  140.4515  143.5889 H   0  0  0  0  0  0  0  0  0  0  0  0  # atno 7974 bound_to 7965
  155.9253  140.3418  155.6206 H   0  0  0  0  0  0  0  0  0  0  0  0  # atno 8008 bound_to 7997
  155.7223  140.0785  157.2344 H   0  0  0  0  0  0  0  0  0  0  0  0  # atno 8009 bound_to 7997
  154.4076  140.1603  156.2403 H   0  0  0  0  0  0  0  0  0  0  0  0  # atno 8010 bound_to 7997
  140.1998  143.3827  152.1139 H   0  0  0  0  0  0  0  0  0  0  0  0  # atno 10167 bound_to 10162
  156.0650  130.4252  150.1612 H   0  0  0  0  0  0  0  0  0  0  0  0  # atno 10718 bound_to 10713
  153.6111  135.3430  155.2979 H   0  0  0  0  0  0  0  0  0  0  0  0  # atno 10763 bound_to 10752
  154.8618  135.4250  154.2309 H   0  0  0  0  0  0  0  0  0  0  0  0  # atno 10764 bound_to 10752
  153.3159  135.7035  153.7145 H   0  0  0  0  0  0  0  0  0  0  0  0  # atno 10765 bound_to 10752
  139.9818  134.9545  156.9648 H   0  0  0  0  0  0  0  0  0  0  0  0  # atno 11005 bound_to 11000
  145.6249  139.1529  143.3001 LP  0  0  0  0  0  0  0  0  0  0  0  0  # atno 17320 bound_to 7965
  146.1901  140.6357  142.9149 LP  0  0  0  0  0  0  0  0  0  0  0  0  # atno 17321 bound_to 7965
  139.5222  144.7055  151.5366 LP  0  0  0  0  0  0  0  0  0  0  0  0  # atno 17342 bound_to 10162
  140.6398  143.8911  150.6681 LP  0  0  0  0  0  0  0  0  0  0  0  0  # atno 17343 bound_to 10162
  156.9674  130.9824  151.3466 LP  0  0  0  0  0  0  0  0  0  0  0  0  # atno 17370 bound_to 10713
  157.5686  130.8294  149.8360 LP  0  0  0  0  0  0  0  0  0  0  0  0  # atno 17371 bound_to 10713
  140.5081  134.1030  155.7264 LP  0  0  0  0  0  0  0  0  0  0  0  0  # atno 17394 bound_to 11000
  141.1489  133.9005  157.2147 LP  0  0  0  0  0  0  0  0  0  0  0  0  # atno 17395 bound_to 11000

$$$$
