AV-unprocessed.smi:1535|AV-procd|sdf|6184|dock4
  -GOLD-   22720 6343D 1   1.00000     0.00000
 Structure written by MMmdl.
 47 48  0  0  0  0  0  0  0  0  2 V2000
  152.9771  143.0270  161.6138 C   0  0  0  0  0  0  0  0  0  0  0  0
  152.4037  142.6640  160.2550 C   0  0  0  0  0  0  0  0  0  0  0  0
  152.7847  141.4440  159.6520 C   0  0  0  0  0  0  0  0  0  0  0  0
  152.2727  141.0684  158.3911 C   0  0  0  0  0  0  0  0  0  0  0  0
  152.5058  139.9386  157.6262 N   0  0  0  0  0  0  0  0  0  0  0  0
  151.7425  140.1716  156.5628 C   0  0  0  0  0  0  0  0  0  0  0  0
  151.0513  141.3278  156.5418 N   0  0  0  0  0  0  0  0  0  0  0  0
  150.1690  141.8024  155.4915 C   0  0  0  0  0  0  0  0  0  0  0  0
  149.2915  140.6795  154.9033 C   0  0  2  0  0  0  0  0  0  0  0  0
  150.0826  139.9446  153.9917 O   0  0  0  0  0  0  0  0  0  0  0  0
  148.0391  141.2008  154.1634 C   0  0  0  0  0  0  0  0  0  0  0  0
  147.3639  142.3033  154.8973 N   0  3  1  0  0  0  0  0  0  0  0  0
  146.2805  142.9334  154.1030 C   0  0  0  0  0  0  0  0  0  0  0  0
  146.9122  141.8857  156.2514 C   0  0  0  0  0  0  0  0  0  0  0  0
  146.3638  143.0535  157.0944 C   0  0  1  0  0  0  0  0  0  0  0  0
  144.8445  143.1926  156.9352 C   0  0  0  0  0  0  0  0  0  0  0  0
  146.7272  142.9069  158.5133 C   0  0  0  0  0  0  0  0  0  0  0  0
  147.0168  142.7909  159.6268 N   0  0  0  0  0  0  0  0  0  0  0  0
  151.3642  141.9553  157.7427 C   0  0  0  0  0  0  0  0  0  0  0  0
  150.9765  143.1712  158.3330 C   0  0  0  0  0  0  0  0  0  0  0  0
  151.4960  143.5301  159.5943 C   0  0  0  0  0  0  0  0  0  0  0  0
  151.0703  144.8446  160.2240 C   0  0  0  0  0  0  0  0  0  0  0  0
  153.6765  142.2685  161.9667 H   0  0  0  0  0  0  0  0  0  0  0  0
  152.1803  143.1170  162.3524 H   0  0  0  0  0  0  0  0  0  0  0  0
  153.5118  143.9759  161.5629 H   0  0  0  0  0  0  0  0  0  0  0  0
  153.4749  140.7834  160.1558 H   0  0  0  0  0  0  0  0  0  0  0  0
  151.6908  139.4650  155.7470 H   0  0  0  0  0  0  0  0  0  0  0  0
  149.5437  142.5987  155.8983 H   0  0  0  0  0  0  0  0  0  0  0  0
  150.7827  142.2544  154.7109 H   0  0  0  0  0  0  0  0  0  0  0  0
  149.0046  140.0082  155.7116 H   0  0  0  0  0  0  0  0  0  0  0  0
  149.6411  139.9243  153.1556 H   0  0  0  0  0  0  0  0  0  0  0  0
  148.2876  141.5527  153.1611 H   0  0  0  0  0  0  0  0  0  0  0  0
  147.3578  140.3600  154.0254 H   0  0  0  0  0  0  0  0  0  0  0  0
  145.4504  142.2409  153.9573 H   0  0  0  0  0  0  0  0  0  0  0  0
  146.6319  143.2448  153.1203 H   0  0  0  0  0  0  0  0  0  0  0  0
  145.8969  143.8268  154.5935 H   0  0  0  0  0  0  0  0  0  0  0  0
  146.1655  141.0956  156.1575 H   0  0  0  0  0  0  0  0  0  0  0  0
  147.7531  141.4529  156.7951 H   0  0  0  0  0  0  0  0  0  0  0  0
  146.8102  143.9892  156.7603 H   0  0  0  0  0  0  0  0  0  0  0  0
  144.4679  144.0402  157.5088 H   0  0  0  0  0  0  0  0  0  0  0  0
  144.3263  142.2989  157.2844 H   0  0  0  0  0  0  0  0  0  0  0  0
  144.5703  143.3520  155.8918 H   0  0  0  0  0  0  0  0  0  0  0  0
  150.2836  143.8220  157.8206 H   0  0  0  0  0  0  0  0  0  0  0  0
  150.3521  145.3729  159.5962 H   0  0  0  0  0  0  0  0  0  0  0  0
  151.9331  145.4954  160.3668 H   0  0  0  0  0  0  0  0  0  0  0  0
  150.6024  144.6716  161.1935 H   0  0  0  0  0  0  0  0  0  0  0  0
  148.0763  143.0051  155.0442 H   0  0  0  0  0  0  0  0  0  0  0  0
  1  2  1  0  0  0  0
  1 23  1  0  0  0  0
  1 24  1  0  0  0  0
  1 25  1  0  0  0  0
  2 21  1  0  0  0  0
  2  3  2  0  0  0  0
  3  4  1  0  0  0  0
  3 26  1  0  0  0  0
  4 19  2  0  0  0  0
  4  5  1  0  0  0  0
  5  6  2  0  0  0  0
  6  7  1  0  0  0  0
  6 27  1  0  0  0  0
  7  8  1  0  0  0  0
  7 19  1  0  0  0  0
  8  9  1  0  0  0  0
  8 28  1  0  0  0  0
  8 29  1  0  0  0  0
  9 10  1  0  0  0  0
  9 11  1  0  0  0  0
  9 30  1  0  0  0  0
 10 31  1  0  0  0  0
 11 12  1  0  0  0  0
 11 32  1  0  0  0  0
 11 33  1  0  0  0  0
 12 13  1  0  0  0  0
 12 14  1  0  0  0  0
 12 47  1  0  0  0  0
 13 34  1  0  0  0  0
 13 35  1  0  0  0  0
 13 36  1  0  0  0  0
 14 15  1  0  0  0  0
 14 37  1  0  0  0  0
 14 38  1  0  0  0  0
 15 16  1  0  0  0  0
 15 17  1  0  0  0  0
 15 39  1  0  0  0  0
 16 40  1  0  0  0  0
 16 41  1  0  0  0  0
 16 42  1  0  0  0  0
 17 18  3  0  0  0  0
 19 20  1  0  0  0  0
 20 21  2  0  0  0  0
 20 43  1  0  0  0  0
 21 22  1  0  0  0  0
 22 44  1  0  0  0  0
 22 45  1  0  0  0  0
 22 46  1  0  0  0  0
M  CHG  1  12   1
M  END
> <s_m_source_file>
AV-unprocessed.smi

> <i_m_source_file_index>
1535

> <i_lp_mmshare_version>
43012

> <i_f3d_flags>
0

> <s_epik_input>
W0NIM11jKFtjSF0xKWMoW0NIM10pW2NIXWMoYzEyKW4oW2NIXW4yKVtDSDJdW0NASF0oW09IXSlbQ0gyXU4oW0NIM10pW0NIMl1bQ0BIXShbQ0gzXSlDI04=

> <s_epik_cmdline>
J2VwaWtfcHl0aG9uJywgJy1waCcsICc3LjAnLCAnLXRuJywgJzgnLCAnLW1hJywgJzIwMCcsICctbWV0YWxfYmluZGluZycsICctaW1hZScsICc8aW5maWxlLm1hZT4nLCAnLW9tYWUnLCAnPG91dGZpbGUubWFlPic=

> <r_epik_Ionization_Penalty>
2.21058

> <r_epik_Ionization_Penalty_Charging>
2.12381

> <r_epik_Ionization_Penalty_Neutral>
0.0867699

> <r_epik_State_Penalty>
2.36208

> <r_epik_Charging_Adjusted_Penalty>
4.48589

> <i_epik_Tot_Q>
1

> <i_epik_Tot_abs_Q>
1

> <r_epik_Metal_State_Penalty>
2.2818

> <b_epik_Metal_Only>
0

> <s_lp_Force_Field>
OPLS_2005

> <r_lp_Energy>
14.8259

> <b_lp_Chiralities_Consistent>
1

> <s_lp_Variant>
AV-unprocessed.smi:1535-15

> <Gold.Version>
5.8.1

> <Gold.Id.Protein>
6NUR|6NUR_protein|mol2

> <Gold.PLP.Fitness>
64.0973

> <Gold.PLP.PLP>
-47.7265

> <Gold.PLP.part.hbond>
-6.0000

> <Gold.PLP.part.metal>
0.0000

> <Gold.PLP.part.buried>
-6.8598

> <Gold.PLP.part.nonpolar>
-35.3560

> <Gold.PLP.part.repulsive>
0.1462

> <Gold.PLP.ligand.clash>
0.0000

> <Gold.PLP.ligand.torsion>
1.0811

> <Gold.PLP.Chemscore.Hbond>
6.0774

> <Gold.PLP.Chemscore.CHOScore>
0.0000

> <Gold.PLP.Chemscore.Metal>
0.0000

> <Gold.Chemscore.Hbonds>
donor molecule, donor type, donor heavy atom, donor atom, acceptor molecule, acceptor atom, score
      L1  H    10    31       P1  7957  1.00
      L1  H    12    47       P1  8028  2.00
      P1  H  6933  6944       L1    18  0.11
      P1  H  6934  6946       L1    18  0.48
      P1  H  7989  7998       L1    10  0.85
      P1  H  7997  8008       L1     5  0.72

> <Gold.PLP.Chemscore.Internal.Correction>
0.3007

> <Gold.Rescore>
     Score         DG    S(hbond)    S(metal)    S(lipo)     H(rot)  DE(clash)    DE(int)     intcor
     22.95     -24.21       3.69        0.00     111.76       2.60       0.04       1.23       ----

> <Gold.Chemscore.Fitness>
22.9483

> <Gold.Chemscore.DG>
-24.2147

> <Gold.Chemscore.ZeroCoef>
-5.4800

> <Gold.Chemscore.Hbond>
3.6895

> <Gold.Chemscore.Metal>
0.0000

> <Gold.Chemscore.Lipo>
111.7580

> <Gold.Chemscore.Internal_Hbond>
0.0000

> <Gold.Chemscore.DEClash>
0.0396

> <Gold.Chemscore.DEInternal>
1.2268

> <Gold.Chemscore.Rot>
2.6031

> <Gold.Chemscore.Internal.Correction>
   9.000000E+99

> <Gold.Chemscore.Hbonds>
donor molecule, donor type, donor heavy atom, donor atom, acceptor molecule, acceptor atom, score
      L1  H    10    31       P1  7957  0.92
      L1  H    12    47       P1  8028  0.92
      P1  H  6933  6944       L1    18  0.12
      P1  H  6934  6946       L1    18  0.46
      P1  H  7989  7998       L1    10  0.13
      P1  H  7997  8008       L1     5  0.10

> <Gold.Chemscore.Hbond.Weighted>
-12.3230

> <Gold.Chemscore.Metal.Weighted>
-0.0000

> <Gold.Chemscore.Lipo.Weighted>
-13.0757

> <Gold.Chemscore.Internal_Hbond.Weighted>
0.0000

> <Gold.Chemscore.DEClash.Weighted>
0.0396

> <Gold.Chemscore.DEInternal.Weighted>
1.2268

> <Gold.Chemscore.Rot.Weighted>
6.6640

> <Gold.Chemscore.Internal.Correction.Weighted>
   9.000000E+99

> <Gold.Protein.RotatedTorsions>
[ 6907 6896 6895 6894 ] final -150.78 input  -60.11 | X-H torsion
[ 7974 7965 7964 7962 ] final   61.99 input  175.53 | X-H torsion
[ 8008 7997 7996 7995 ] final  -61.42 input   59.86 | X-H torsion
[ 10167 10162 10161 10158 ] final  -21.82 input  -65.29 | X-H torsion
[ 10718 10713 10712 10709 ] final   16.84 input   66.30 | X-H torsion
[ 10763 10752 10751 10750 ] final   20.63 input  -60.55 | X-H torsion
[ 11005 11000 10999 10996 ] final   24.43 input  -57.11 | X-H torsion

> <Gold.Protein.ActiveResidues>
 VAL166  LYS551  ARG553  GLY616  TRP617  ASP618  TYR619  PRO620  LYS621  CYS622 
 ASP623  PHE694  ASN695  SER759  ASP760  ASP761  ALA762  ILE779  LEU786  VAL792 
 PHE793  MET794  SER795  GLU796  ALA797  LYS798  CYS799  TRP800  GLU811  SER814 

> <Gold.Protein.RotatedAtoms>
  151.2035  133.4597  159.2596 H   0  0  0  0  0  0  0  0  0  0  0  0  # atno 6907 bound_to 6896
  151.1046  134.9992  159.8475 H   0  0  0  0  0  0  0  0  0  0  0  0  # atno 6908 bound_to 6896
  152.5446  134.1959  159.8745 H   0  0  0  0  0  0  0  0  0  0  0  0  # atno 6909 bound_to 6896
  145.8785  139.3427  143.0720 H   0  0  0  0  0  0  0  0  0  0  0  0  # atno 7974 bound_to 7965
  154.4447  140.1018  156.6428 H   0  0  0  0  0  0  0  0  0  0  0  0  # atno 8008 bound_to 7997
  155.5482  140.3485  155.4444 H   0  0  0  0  0  0  0  0  0  0  0  0  # atno 8009 bound_to 7997
  156.0548  140.1312  156.9998 H   0  0  0  0  0  0  0  0  0  0  0  0  # atno 8010 bound_to 7997
  140.7283  143.4592  151.0404 H   0  0  0  0  0  0  0  0  0  0  0  0  # atno 10167 bound_to 10162
  157.0736  130.6358  149.5811 H   0  0  0  0  0  0  0  0  0  0  0  0  # atno 10718 bound_to 10713
  153.1061  135.6685  153.9583 H   0  0  0  0  0  0  0  0  0  0  0  0  # atno 10763 bound_to 10752
  153.9140  135.3022  155.3450 H   0  0  0  0  0  0  0  0  0  0  0  0  # atno 10764 bound_to 10752
  154.7482  135.5047  153.9318 H   0  0  0  0  0  0  0  0  0  0  0  0  # atno 10765 bound_to 10752
  140.3588  134.2148  155.7674 H   0  0  0  0  0  0  0  0  0  0  0  0  # atno 11005 bound_to 11000
  145.9052  140.9217  143.0482 LP  0  0  0  0  0  0  0  0  0  0  0  0  # atno 17320 bound_to 7965
  144.6727  140.1086  143.7456 LP  0  0  0  0  0  0  0  0  0  0  0  0  # atno 17321 bound_to 7965
  139.8275  143.7736  152.3179 LP  0  0  0  0  0  0  0  0  0  0  0  0  # atno 17342 bound_to 10162
  139.7840  144.7434  151.0048 LP  0  0  0  0  0  0  0  0  0  0  0  0  # atno 17343 bound_to 10162
  155.9943  130.5007  150.7415 LP  0  0  0  0  0  0  0  0  0  0  0  0  # atno 17370 bound_to 10713
  157.4858  131.0906  151.0484 LP  0  0  0  0  0  0  0  0  0  0  0  0  # atno 17371 bound_to 10713
  141.1990  133.8021  157.0555 LP  0  0  0  0  0  0  0  0  0  0  0  0  # atno 17394 bound_to 11000
  140.0643  134.9737  157.1359 LP  0  0  0  0  0  0  0  0  0  0  0  0  # atno 17395 bound_to 11000

$$$$
