#       Name:                AV-unprocessed.smi:670
#       Creating user name   scv26
#       Creation time:       Fri Mar 27 00:22:53 2020


#       File generated by GOLD software.
#

@<TRIPOS>MOLECULE
AV-unprocessed.smi:670
    54    55     1
SMALL
NO_CHARGES


@<TRIPOS>ATOM
      1 ****        -2.1162   0.2617  -1.6661 C.3            1 S1                 0.0000
      2 ****        -2.5387   0.9368  -0.3520 C.3            1 S1                 0.0000
      3 ****        -1.5181   1.9984   0.1053 C.3            1 S1                 0.0000
      4 ****        -1.9702   2.6871   1.4035 C.3            1 S1                 0.0000
      5 ****        -2.2390   1.6637   2.5184 C.3            1 S1                 0.0000
      6 ****        -3.2485   0.5936   2.0676 C.3            1 S1                 0.0000
      7 ****        -2.7993  -0.0967   0.7653 C.3            1 S1                 0.0000
      8 ****        -1.5883  -0.7992   1.0058 O.3            1 S1                 0.0000
      9 ****        -1.7442  -2.1647   1.3525 C.3            1 S1                 0.0000
     10 ****        -0.3560  -2.7690   1.6077 C.3            1 S1                 0.0000
     11 ****         0.4799  -2.6986   0.4126 N.am           1 S1                 0.0000
     12 ****         1.3221  -1.6951   0.1190 C.2            1 S1                 0.0000
     13 ****         1.5085  -0.7321   0.8650 O.2            1 S1                 0.0000
     14 ****         2.0568  -1.8101  -1.2253 C.3            1 S1                 0.0000
     15 ****         2.9230  -0.6604  -1.5266 N.am           1 S1                 0.0000
     16 ****         4.2574  -0.8622  -1.2080 N.2            1 S1                 0.0000
     17 ****         5.1180   0.0777  -1.4087 C.2            1 S1                 0.0000
     18 ****         6.4287  -0.1638  -1.0772 O.3            1 S1                 0.0000
     19 ****         4.7194   1.3510  -1.9677 C.2            1 S1                 0.0000
     20 ****         3.4181   1.5368  -2.2795 C.2            1 S1                 0.0000
     21 ****         2.4160   0.4911  -2.0661 C.2            1 S1                 0.0000
     22 ****         1.2262   0.6334  -2.3452 O.2            1 S1                 0.0000
     23 ****         6.8933   0.6301  -1.2922 H              1 S1                 0.0000
     24 ****        -1.1841  -0.2910  -1.5485 H              1 S1                 0.0000
     25 ****        -1.9680   0.9974  -2.4569 H              1 S1                 0.0000
     26 ****        -2.8758  -0.4416  -2.0077 H              1 S1                 0.0000
     27 ****        -3.4800   1.4519  -0.5492 H              1 S1                 0.0000
     28 ****        -0.5417   1.5352   0.2567 H              1 S1                 0.0000
     29 ****        -1.3831   2.7468  -0.6762 H              1 S1                 0.0000
     30 ****        -1.2121   3.4003   1.7284 H              1 S1                 0.0000
     31 ****        -2.8758   3.2645   1.2135 H              1 S1                 0.0000
     32 ****        -1.3022   1.1847   2.8062 H              1 S1                 0.0000
     33 ****        -2.6099   2.1726   3.4084 H              1 S1                 0.0000
     34 ****        -3.3882  -0.1424   2.8595 H              1 S1                 0.0000
     35 ****        -4.2219   1.0601   1.9105 H              1 S1                 0.0000
     36 ****        -3.5789  -0.7826   0.4278 H              1 S1                 0.0000
     37 ****        -2.3614  -2.2587   2.2466 H              1 S1                 0.0000
     38 ****        -2.2464  -2.7018   0.5463 H              1 S1                 0.0000
     39 ****         0.1253  -2.2721   2.4517 H              1 S1                 0.0000
     40 ****        -0.4594  -3.8176   1.8869 H              1 S1                 0.0000
     41 ****         0.3890  -3.4523  -0.2529 H              1 S1                 0.0000
     42 ****         2.6474  -2.7281  -1.2134 H              1 S1                 0.0000
     43 ****         1.3217  -1.9462  -2.0208 H              1 S1                 0.0000
     44 ****         5.4507   2.1289  -2.1295 H              1 S1                 0.0000
     45 ****         3.1058   2.4825  -2.6977 H              1 S1                 0.0000
     46 ****        -1.1085  -0.3422   1.7548 LP             1 S1                 0.0000
     47 ****        -1.0325  -0.7518   0.1759 LP             1 S1                 0.0000
     48 ****         1.0209  -0.6726   1.7361 LP             1 S1                 0.0000
     49 ****         2.1474  -0.0101   0.5994 LP             1 S1                 0.0000
     50 ****         4.5527  -1.7364  -0.8226 LP             1 S1                 0.0000
     51 ****         6.7872  -0.9329  -1.6063 LP             1 S1                 0.0000
     52 ****         6.5113  -0.3637  -0.1008 LP             1 S1                 0.0000
     53 ****         0.5810  -0.1124  -2.1792 LP             1 S1                 0.0000
     54 ****         0.9043   1.4949  -2.7379 LP             1 S1                 0.0000
@<TRIPOS>BOND
    1    1    2 1     
    2    1   24 1     
    3    1   25 1     
    4    1   26 1     
    5    2    7 1     
    6    2    3 1     
    7    2   27 1     
    8    3    4 1     
    9    3   28 1     
   10    3   29 1     
   11    4    5 1     
   12    4   30 1     
   13    4   31 1     
   14    5    6 1     
   15    5   32 1     
   16    5   33 1     
   17    6    7 1     
   18    6   34 1     
   19    6   35 1     
   20    7    8 1     
   21    7   36 1     
   22    8    9 1     
   23    9   10 1     
   24    9   37 1     
   25    9   38 1     
   26   10   11 1     
   27   10   39 1     
   28   10   40 1     
   29   11   12 am    
   30   11   41 1     
   31   12   13 2     
   32   12   14 1     
   33   14   42 1     
   34   14   43 1     
   35   14   15 1     
   36   15   16 1     
   37   15   21 am    
   38   16   17 2     
   39   17   18 1     
   40   17   19 1     
   41   18   23 1     
   42   19   44 1     
   43   19   20 2     
   44   20   45 1     
   45   20   21 1     
   46   21   22 2     
   47    8   46 1     
   48    8   47 1     
   49   13   48 1     
   50   13   49 1     
   51   16   50 1     
   52   18   51 1     
   53   18   52 1     
   54   22   53 1     
   55   22   54 1     
@<TRIPOS>SUBSTRUCTURE
      1 S1             1
@<TRIPOS>SET
LONE_PAIRS      STATIC     ATOMS    <user>   **** ""
9 46 47 48 49 50 51 52 53 54
DONOR_HYDROGENS      STATIC     ATOMS    <user>   **** ""
2 41 23
ATOM$BLUE        STATIC     ATOMS    COLORGROUP SYSTEM
9 46 47 48 49 50 51 52 53 54
ATOM$RED        STATIC     ATOMS    COLORGROUP SYSTEM
2 41 23
