AV-unprocessed.smi:708|AV-procd|sdf|3457|dock8
  -GOLD-   22720 0443D 1   1.00000     0.00000
 Structure written by MMmdl.
 42 43  0  0  0  0  0  0  0  0  1 V2000
  145.2492  136.2234  155.1676 O   0  0  0  0  0  0  0  0  0  0  0  0
  145.7431  136.2340  154.0397 C   0  0  0  0  0  0  0  0  0  0  0  0
  144.8497  136.1220  152.7978 C   0  0  0  0  0  0  0  0  0  0  0  0
  144.8830  134.7785  152.1970 N   0  0  0  0  0  0  0  0  0  0  0  0
  146.1429  134.2707  151.8217 C   0  0  0  0  0  0  0  0  0  0  0  0
  146.2813  133.0584  151.2617 C   0  0  0  0  0  0  0  0  0  0  0  0
  145.0936  132.2665  151.0447 C   0  0  0  0  0  0  0  0  0  0  0  0
  143.8843  132.7408  151.4037 C   0  0  0  0  0  0  0  0  0  0  0  0
  143.7283  134.0636  152.0197 C   0  0  0  0  0  0  0  0  0  0  0  0
  142.6275  134.5024  152.3552 O   0  0  0  0  0  0  0  0  0  0  0  0
  147.0613  136.3326  153.8125 N   0  0  0  0  0  0  0  0  0  0  0  0
  148.0831  136.5096  154.8386 C   0  0  0  0  0  0  0  0  0  0  0  0
  149.1040  137.6119  154.4801 C   0  0  0  0  0  0  0  0  0  0  0  0
  150.5628  137.2116  154.8074 C   0  0  0  0  0  0  0  0  0  0  0  0
  151.5345  138.3753  154.5445 C   0  0  0  0  0  0  0  0  0  0  0  0
  151.1062  139.5376  155.3326 N   0  0  0  0  0  0  0  0  0  0  0  0
  151.7971  139.9817  156.4128 C   0  0  0  0  0  0  0  0  0  0  0  0
  152.8583  139.4626  156.7646 O   0  0  0  0  0  0  0  0  0  0  0  0
  151.2601  141.1661  157.2366 C   0  0  0  0  0  0  0  0  0  0  0  0
  151.1171  142.2357  156.4529 F   0  0  0  0  0  0  0  0  0  0  0  0
  150.0917  140.8424  157.7925 F   0  0  0  0  0  0  0  0  0  0  0  0
  152.1223  141.4669  158.2092 F   0  0  0  0  0  0  0  0  0  0  0  0
  149.7987  140.0311  154.8833 C   0  0  0  0  0  0  0  0  0  0  0  0
  148.7381  138.9499  155.1596 C   0  0  0  0  0  0  0  0  0  0  0  0
  143.8213  136.3880  153.0511 H   0  0  0  0  0  0  0  0  0  0  0  0
  145.1725  136.8774  152.0804 H   0  0  0  0  0  0  0  0  0  0  0  0
  146.9814  134.9215  152.0228 H   0  0  0  0  0  0  0  0  0  0  0  0
  147.2554  132.6838  150.9835 H   0  0  0  0  0  0  0  0  0  0  0  0
  145.1752  131.2887  150.5933 H   0  0  0  0  0  0  0  0  0  0  0  0
  143.0070  132.1339  151.2340 H   0  0  0  0  0  0  0  0  0  0  0  0
  147.3774  136.3238  152.8536 H   0  0  0  0  0  0  0  0  0  0  0  0
  147.6058  136.7292  155.7951 H   0  0  0  0  0  0  0  0  0  0  0  0
  148.5969  135.5558  154.9631 H   0  0  0  0  0  0  0  0  0  0  0  0
  149.0516  137.7801  153.4035 H   0  0  0  0  0  0  0  0  0  0  0  0
  150.6379  136.9046  155.8515 H   0  0  0  0  0  0  0  0  0  0  0  0
  150.8650  136.3515  154.2092 H   0  0  0  0  0  0  0  0  0  0  0  0
  152.5555  138.0624  154.7672 H   0  0  0  0  0  0  0  0  0  0  0  0
  151.5317  138.6342  153.4847 H   0  0  0  0  0  0  0  0  0  0  0  0
  149.4991  140.9672  155.3494 H   0  0  0  0  0  0  0  0  0  0  0  0
  149.8435  140.2435  153.8141 H   0  0  0  0  0  0  0  0  0  0  0  0
  147.7640  139.2913  154.8076 H   0  0  0  0  0  0  0  0  0  0  0  0
  148.6433  138.8050  156.2366 H   0  0  0  0  0  0  0  0  0  0  0  0
  1  2  2  0  0  0  0
  2  3  1  0  0  0  0
  2 11  1  0  0  0  0
  3  4  1  0  0  0  0
  3 25  1  0  0  0  0
  3 26  1  0  0  0  0
  4  9  1  0  0  0  0
  4  5  1  0  0  0  0
  5  6  2  0  0  0  0
  5 27  1  0  0  0  0
  6  7  1  0  0  0  0
  6 28  1  0  0  0  0
  7  8  2  0  0  0  0
  7 29  1  0  0  0  0
  8  9  1  0  0  0  0
  8 30  1  0  0  0  0
  9 10  2  0  0  0  0
 11 12  1  0  0  0  0
 11 31  1  0  0  0  0
 12 13  1  0  0  0  0
 12 32  1  0  0  0  0
 12 33  1  0  0  0  0
 13 24  1  0  0  0  0
 13 14  1  0  0  0  0
 13 34  1  0  0  0  0
 14 15  1  0  0  0  0
 14 35  1  0  0  0  0
 14 36  1  0  0  0  0
 15 16  1  0  0  0  0
 15 37  1  0  0  0  0
 15 38  1  0  0  0  0
 16 17  1  0  0  0  0
 16 23  1  0  0  0  0
 17 18  2  0  0  0  0
 17 19  1  0  0  0  0
 19 20  1  0  0  0  0
 19 21  1  0  0  0  0
 19 22  1  0  0  0  0
 23 24  1  0  0  0  0
 23 39  1  0  0  0  0
 23 40  1  0  0  0  0
 24 41  1  0  0  0  0
 24 42  1  0  0  0  0
M  END
> <s_m_source_file>
AV-unprocessed.smi

> <i_m_source_file_index>
708

> <i_lp_mmshare_version>
43012

> <i_f3d_flags>
0

> <s_epik_input>
Tz1jMVtjSF1bY0hdW2NIXVtjSF1uMVtDSDJdQyg9TylbTkhdW0NIMl1bQ0hdMltDSDJdW0NIMl1OKEMoPU8pQyhGKShGKUYpW0NIMl1bQ0gyXTI=

> <s_epik_cmdline>
J2VwaWtfcHl0aG9uJywgJy1waCcsICc3LjAnLCAnLXRuJywgJzgnLCAnLW1hJywgJzIwMCcsICctbWV0YWxfYmluZGluZycsICctaW1hZScsICc8aW5maWxlLm1hZT4nLCAnLW9tYWUnLCAnPG91dGZpbGUubWFlPic=

> <r_lp_tautomer_probability>
1

> <r_epik_Ionization_Penalty>
3.72594e-07

> <r_epik_Ionization_Penalty_Charging>
3.54487e-07

> <r_epik_Ionization_Penalty_Neutral>
1.81071e-08

> <r_epik_State_Penalty>
-0

> <r_epik_Charging_Adjusted_Penalty>
3.54487e-07

> <i_epik_Tot_Q>
0

> <i_epik_Tot_abs_Q>
0

> <r_epik_Metal_State_Penalty>
-0

> <b_epik_Metal_Only>
0

> <s_lp_Force_Field>
OPLS_2005

> <r_lp_Energy>
36.5202

> <b_lp_Chiralities_Consistent>
1

> <s_lp_Variant>
AV-unprocessed.smi:708-1

> <Gold.Version>
5.8.1

> <Gold.Id.Protein>
6NUR|6NUR_protein|mol2

> <Gold.PLP.Fitness>
43.1727

> <Gold.PLP.PLP>
-36.5859

> <Gold.PLP.part.hbond>
-2.0000

> <Gold.PLP.part.metal>
0.0000

> <Gold.PLP.part.buried>
-3.4392

> <Gold.PLP.part.nonpolar>
-31.2657

> <Gold.PLP.part.repulsive>
0.2297

> <Gold.PLP.ligand.clash>
0.0000

> <Gold.PLP.ligand.torsion>
0.8945

> <Gold.PLP.Chemscore.Hbond>
1.7840

> <Gold.PLP.Chemscore.CHOScore>
1.0000

> <Gold.PLP.Chemscore.Metal>
0.0000

> <Gold.Chemscore.Hbonds>
donor molecule, donor type, donor heavy atom, donor atom, acceptor molecule, acceptor atom, score
      L1  H    11    31       P1  7948  0.82
      P1  H  7997  8009       L1    18  1.00
      L1  C     5    27       P1  7948  1.00

> <Gold.PLP.Chemscore.Internal.Correction>
0.0238

> <Gold.Rescore>
     Score         DG    S(hbond)    S(metal)    S(lipo)     H(rot)  DE(clash)    DE(int)     intcor
     12.18     -14.53       1.92        0.00      64.35       1.91       0.11       2.24       ----

> <Gold.Chemscore.Fitness>
12.1807

> <Gold.Chemscore.DG>
-14.5326

> <Gold.Chemscore.ZeroCoef>
-5.4800

> <Gold.Chemscore.Hbond>
1.9196

> <Gold.Chemscore.Metal>
0.0000

> <Gold.Chemscore.Lipo>
64.3487

> <Gold.Chemscore.Internal_Hbond>
0.0000

> <Gold.Chemscore.DEClash>
0.1107

> <Gold.Chemscore.DEInternal>
2.2411

> <Gold.Chemscore.Rot>
1.9093

> <Gold.Chemscore.Internal.Correction>
   9.000000E+99

> <Gold.Chemscore.Hbonds>
donor molecule, donor type, donor heavy atom, donor atom, acceptor molecule, acceptor atom, score
      L1  H    11    31       P1  7948  0.81
      P1  H  7997  8009       L1    18  0.97

> <Gold.Chemscore.Hbond.Weighted>
-6.4115

> <Gold.Chemscore.Metal.Weighted>
-0.0000

> <Gold.Chemscore.Lipo.Weighted>
-7.5288

> <Gold.Chemscore.Internal_Hbond.Weighted>
0.0000

> <Gold.Chemscore.DEClash.Weighted>
0.1107

> <Gold.Chemscore.DEInternal.Weighted>
2.2411

> <Gold.Chemscore.Rot.Weighted>
4.8877

> <Gold.Chemscore.Internal.Correction.Weighted>
   9.000000E+99

> <Gold.Protein.RotatedTorsions>
[ 6907 6896 6895 6894 ] final   85.31 input  -60.11 | X-H torsion
[ 7974 7965 7964 7962 ] final   58.91 input  175.53 | X-H torsion
[ 8008 7997 7996 7995 ] final -158.81 input   59.86 | X-H torsion
[ 10167 10162 10161 10158 ] final  171.42 input  -65.29 | X-H torsion
[ 10718 10713 10712 10709 ] final  132.96 input   66.30 | X-H torsion
[ 10763 10752 10751 10750 ] final -160.56 input  -60.55 | X-H torsion
[ 11005 11000 10999 10996 ] final   44.45 input  -57.11 | X-H torsion

> <Gold.Protein.ActiveResidues>
 VAL166  LYS551  ARG553  GLY616  TRP617  ASP618  TYR619  PRO620  LYS621  CYS622 
 ASP623  PHE694  ASN695  SER759  ASP760  ASP761  ALA762  ILE779  LEU786  VAL792 
 PHE793  MET794  SER795  GLU796  ALA797  LYS798  CYS799  TRP800  GLU811  SER814 

> <Gold.Protein.RotatedAtoms>
  152.5372  134.2606  159.8933 H   0  0  0  0  0  0  0  0  0  0  0  0  # atno 6907 bound_to 6896
  151.2566  133.4316  159.2621 H   0  0  0  0  0  0  0  0  0  0  0  0  # atno 6908 bound_to 6896
  151.0490  134.9674  159.8258 H   0  0  0  0  0  0  0  0  0  0  0  0  # atno 6909 bound_to 6896
  145.9130  139.3669  143.0524 H   0  0  0  0  0  0  0  0  0  0  0  0  # atno 7974 bound_to 7965
  155.7532  140.0829  157.2191 H   0  0  0  0  0  0  0  0  0  0  0  0  # atno 8008 bound_to 7997
  154.4010  140.1556  156.2803 H   0  0  0  0  0  0  0  0  0  0  0  0  # atno 8009 bound_to 7997
  155.8911  140.3415  155.5959 H   0  0  0  0  0  0  0  0  0  0  0  0  # atno 8010 bound_to 7997
  139.5046  144.3488  151.9944 H   0  0  0  0  0  0  0  0  0  0  0  0  # atno 10167 bound_to 10162
  157.4820  131.1086  150.9669 H   0  0  0  0  0  0  0  0  0  0  0  0  # atno 10718 bound_to 10713
  154.7380  135.3062  154.8778 H   0  0  0  0  0  0  0  0  0  0  0  0  # atno 10763 bound_to 10752
  153.9601  135.6754  153.4749 H   0  0  0  0  0  0  0  0  0  0  0  0  # atno 10764 bound_to 10752
  153.0981  135.4925  154.8740 H   0  0  0  0  0  0  0  0  0  0  0  0  # atno 10765 bound_to 10752
  140.1551  134.4412  155.8355 H   0  0  0  0  0  0  0  0  0  0  0  0  # atno 11005 bound_to 11000
  145.8648  140.9454  143.0681 LP  0  0  0  0  0  0  0  0  0  0  0  0  # atno 17320 bound_to 7965
  144.6745  140.0577  143.7477 LP  0  0  0  0  0  0  0  0  0  0  0  0  # atno 17321 bound_to 7965
  140.2925  144.3738  150.6084 LP  0  0  0  0  0  0  0  0  0  0  0  0  # atno 17342 bound_to 10162
  140.5935  143.2167  151.7207 LP  0  0  0  0  0  0  0  0  0  0  0  0  # atno 17343 bound_to 10162
  157.0399  130.5745  149.5354 LP  0  0  0  0  0  0  0  0  0  0  0  0  # atno 17370 bound_to 10713
  156.0127  130.5219  150.8038 LP  0  0  0  0  0  0  0  0  0  0  0  0  # atno 17371 bound_to 10713
  141.2203  133.6889  156.7492 LP  0  0  0  0  0  0  0  0  0  0  0  0  # atno 17394 bound_to 11000
  140.2558  134.8505  157.3711 LP  0  0  0  0  0  0  0  0  0  0  0  0  # atno 17395 bound_to 11000

$$$$
