AV-unprocessed.smi:1867|AV-procd|sdf|7582|dock2
  -GOLD-   22720 9293D 1   1.00000     0.00000
 Structure written by MMmdl.
 52 55  0  0  0  0  0  0  0  0  4 V2000
  149.3019  137.1295  156.7456 O   0  0  0  0  0  0  0  0  0  0  0  0
  148.8667  137.5209  155.6658 C   0  0  0  0  0  0  0  0  0  0  0  0
  149.0736  138.8067  155.2867 N   0  0  0  0  0  0  0  0  0  0  0  0
  149.7381  139.8791  155.9465 C   0  0  0  0  0  0  0  0  0  0  0  0
  150.6149  139.5355  156.9972 C   0  0  0  0  0  0  0  0  0  0  0  0
  151.3070  140.5443  157.6974 C   0  0  0  0  0  0  0  0  0  0  0  0
  151.1140  141.8997  157.3430 C   0  0  0  0  0  0  0  0  0  0  0  0
  151.7734  142.9600  157.9929 N   0  0  0  0  0  0  0  0  0  0  0  0
  151.3267  144.3359  157.8420 C   0  0  0  0  0  0  0  0  0  0  0  0
  152.1751  145.1272  158.8356 C   0  0  0  0  0  0  0  0  0  0  0  0
  152.3897  144.1312  159.9752 C   0  0  0  0  0  0  0  0  0  0  0  0
  152.4301  142.7656  159.2782 C   0  0  0  0  0  0  0  0  0  0  0  0
  150.2666  142.1862  156.3266 N   0  3  0  0  0  0  0  0  0  0  0  0
  149.5837  141.2515  155.6305 C   0  0  0  0  0  0  0  0  0  0  0  0
  148.1750  136.6760  154.8429 N   0  5  0  0  0  0  0  0  0  0  0  0
  147.4260  135.4478  155.1713 C   0  0  2  0  0  0  0  0  0  0  0  0
  148.4200  134.2886  155.3757 C   0  0  0  0  0  0  0  0  0  0  0  0
  148.5920  133.6265  153.9918 C   0  0  0  0  0  0  0  0  0  0  0  0
  147.6619  134.3366  153.0909 N   0  3  1  0  0  0  0  0  0  0  0  0
  147.0927  133.5657  151.9633 C   0  0  0  0  0  0  0  0  0  0  0  0
  146.2052  134.4886  151.1035 C   0  0  0  0  0  0  0  0  0  0  0  0
  145.1309  135.2035  151.9484 C   0  0  0  0  0  0  0  0  0  0  0  0
  145.7659  135.9405  153.1435 C   0  0  0  0  0  0  0  0  0  0  0  0
  146.6351  134.9496  153.9497 C   0  0  2  0  0  0  0  0  0  0  0  0
  148.6761  139.0456  154.3899 H   0  0  0  0  0  0  0  0  0  0  0  0
  150.7622  138.4998  157.2671 H   0  0  0  0  0  0  0  0  0  0  0  0
  151.9822  140.2647  158.4925 H   0  0  0  0  0  0  0  0  0  0  0  0
  151.4613  144.6947  156.8210 H   0  0  0  0  0  0  0  0  0  0  0  0
  150.2687  144.4063  158.0985 H   0  0  0  0  0  0  0  0  0  0  0  0
  153.1347  145.3817  158.3831 H   0  0  0  0  0  0  0  0  0  0  0  0
  151.6978  146.0526  159.1591 H   0  0  0  0  0  0  0  0  0  0  0  0
  153.2890  144.3369  160.5566 H   0  0  0  0  0  0  0  0  0  0  0  0
  151.5371  144.1689  160.6547 H   0  0  0  0  0  0  0  0  0  0  0  0
  151.9370  142.0048  159.8842 H   0  0  0  0  0  0  0  0  0  0  0  0
  153.4594  142.4509  159.1033 H   0  0  0  0  0  0  0  0  0  0  0  0
  148.9486  141.6548  154.8579 H   0  0  0  0  0  0  0  0  0  0  0  0
  146.7716  135.5586  156.0369 H   0  0  0  0  0  0  0  0  0  0  0  0
  149.3711  134.6124  155.8016 H   0  0  0  0  0  0  0  0  0  0  0  0
  147.9941  133.5629  156.0696 H   0  0  0  0  0  0  0  0  0  0  0  0
  149.6121  133.7171  153.6169 H   0  0  0  0  0  0  0  0  0  0  0  0
  148.3463  132.5647  154.0465 H   0  0  0  0  0  0  0  0  0  0  0  0
  147.9009  133.1507  151.3603 H   0  0  0  0  0  0  0  0  0  0  0  0
  146.5105  132.7261  152.3462 H   0  0  0  0  0  0  0  0  0  0  0  0
  146.8310  135.2353  150.6129 H   0  0  0  0  0  0  0  0  0  0  0  0
  145.7317  133.9135  150.3072 H   0  0  0  0  0  0  0  0  0  0  0  0
  144.5725  135.9058  151.3290 H   0  0  0  0  0  0  0  0  0  0  0  0
  144.4095  134.4715  152.3134 H   0  0  0  0  0  0  0  0  0  0  0  0
  146.3617  136.7745  152.7677 H   0  0  0  0  0  0  0  0  0  0  0  0
  144.9839  136.3711  153.7707 H   0  0  0  0  0  0  0  0  0  0  0  0
  145.9804  134.1484  154.3003 H   0  0  0  0  0  0  0  0  0  0  0  0
  148.1834  135.1109  152.7043 H   0  0  0  0  0  0  0  0  0  0  0  0
  150.1330  143.1645  156.0707 H   0  0  0  0  0  0  0  0  0  0  0  0
  1  2  2  0  0  0  0
  2  3  1  0  0  0  0
  2 15  1  0  0  0  0
  3  4  1  0  0  0  0
  3 25  1  0  0  0  0
  4 14  1  0  0  0  0
  4  5  2  0  0  0  0
  5  6  1  0  0  0  0
  5 26  1  0  0  0  0
  6  7  2  0  0  0  0
  6 27  1  0  0  0  0
  7  8  1  0  0  0  0
  7 13  1  0  0  0  0
  8 12  1  0  0  0  0
  8  9  1  0  0  0  0
  9 10  1  0  0  0  0
  9 28  1  0  0  0  0
  9 29  1  0  0  0  0
 10 11  1  0  0  0  0
 10 30  1  0  0  0  0
 10 31  1  0  0  0  0
 11 12  1  0  0  0  0
 11 32  1  0  0  0  0
 11 33  1  0  0  0  0
 12 34  1  0  0  0  0
 12 35  1  0  0  0  0
 13 14  2  0  0  0  0
 13 52  1  0  0  0  0
 14 36  1  0  0  0  0
 15 16  1  0  0  0  0
 16 24  1  0  0  0  0
 16 17  1  0  0  0  0
 16 37  1  0  0  0  0
 17 18  1  0  0  0  0
 17 38  1  0  0  0  0
 17 39  1  0  0  0  0
 18 19  1  0  0  0  0
 18 40  1  0  0  0  0
 18 41  1  0  0  0  0
 19 24  1  0  0  0  0
 19 20  1  0  0  0  0
 19 51  1  0  0  0  0
 20 21  1  0  0  0  0
 20 42  1  0  0  0  0
 20 43  1  0  0  0  0
 21 22  1  0  0  0  0
 21 44  1  0  0  0  0
 21 45  1  0  0  0  0
 22 23  1  0  0  0  0
 22 46  1  0  0  0  0
 22 47  1  0  0  0  0
 23 24  1  0  0  0  0
 23 48  1  0  0  0  0
 23 49  1  0  0  0  0
 24 50  1  0  0  0  0
M  CHG  1  13   1
M  CHG  1  15  -1
M  CHG  1  19   1
M  END
> <s_m_source_file>
AV-unprocessed.smi

> <i_m_source_file_index>
1867

> <i_lp_mmshare_version>
43012

> <i_f3d_flags>
0

> <s_epik_input>
W0NIMl0xW0NIMl1bQ0gyXVtDSDJdW0NASF0oTjEyKVtDQEBIXShbQ0gyXVtDSDJdMilbTkhdQyg9TylbTkhdYzNbY0hdW2NIXWMobltjSF0zKU40W0NIMl1bQ0gyXVtDSDJdW0NIMl00

> <s_epik_cmdline>
J2VwaWtfcHl0aG9uJywgJy1waCcsICc3LjAnLCAnLXRuJywgJzgnLCAnLW1hJywgJzIwMCcsICctbWV0YWxfYmluZGluZycsICctaW1hZScsICc8aW5maWxlLm1hZT4nLCAnLW9tYWUnLCAnPG91dGZpbGUubWFlPic=

> <r_lp_tautomer_probability>
0.999994

> <r_epik_Ionization_Penalty>
8.56137

> <r_epik_Ionization_Penalty_Charging>
8.56136

> <r_epik_Ionization_Penalty_Neutral>
3.91889e-06

> <r_epik_State_Penalty>
8.16255

> <r_epik_Charging_Adjusted_Penalty>
16.7239

> <i_epik_Tot_Q>
1

> <i_epik_Tot_abs_Q>
3

> <r_epik_Metal_State_Penalty>
4.14279

> <b_epik_Metal_Only>
1

> <s_lp_Force_Field>
OPLS_2005

> <r_lp_Energy>
67.5686

> <b_lp_Chiralities_Consistent>
1

> <s_lp_Variant>
AV-unprocessed.smi:1867-23

> <Gold.Version>
5.8.1

> <Gold.Id.Protein>
6NUR|6NUR_protein|mol2

> <Gold.PLP.Fitness>
50.1702

> <Gold.PLP.PLP>
-38.7762

> <Gold.PLP.part.hbond>
-2.0000

> <Gold.PLP.part.metal>
0.0000

> <Gold.PLP.part.buried>
-4.3767

> <Gold.PLP.part.nonpolar>
-33.3020

> <Gold.PLP.part.repulsive>
0.4219

> <Gold.PLP.ligand.clash>
0.0000

> <Gold.PLP.ligand.torsion>
0.4583

> <Gold.PLP.Chemscore.Hbond>
4.0000

> <Gold.PLP.Chemscore.CHOScore>
0.0000

> <Gold.PLP.Chemscore.Metal>
0.0000

> <Gold.Chemscore.Hbonds>
donor molecule, donor type, donor heavy atom, donor atom, acceptor molecule, acceptor atom, score
      L1  H    13    52       P1  8028  1.98
      L1  H    19    51       P1  7948  2.00

> <Gold.PLP.Chemscore.Internal.Correction>
0.3105

> <Gold.Rescore>
     Score         DG    S(hbond)    S(metal)    S(lipo)     H(rot)  DE(clash)    DE(int)     intcor
     19.30     -21.23       1.96        0.00     100.64       1.00       0.00       1.93       ----

> <Gold.Chemscore.Fitness>
19.3012

> <Gold.Chemscore.DG>
-21.2348

> <Gold.Chemscore.ZeroCoef>
-5.4800

> <Gold.Chemscore.Hbond>
1.9581

> <Gold.Chemscore.Metal>
0.0000

> <Gold.Chemscore.Lipo>
100.6401

> <Gold.Chemscore.Internal_Hbond>
0.0000

> <Gold.Chemscore.DEClash>
0.0004

> <Gold.Chemscore.DEInternal>
1.9332

> <Gold.Chemscore.Rot>
1.0000

> <Gold.Chemscore.Internal.Correction>
   9.000000E+99

> <Gold.Chemscore.Hbonds>
donor molecule, donor type, donor heavy atom, donor atom, acceptor molecule, acceptor atom, score
      L1  H    13    52       P1  8028  0.87
      L1  H    19    51       P1  7948  0.88

> <Gold.Chemscore.Hbond.Weighted>
-6.5399

> <Gold.Chemscore.Metal.Weighted>
-0.0000

> <Gold.Chemscore.Lipo.Weighted>
-11.7749

> <Gold.Chemscore.Internal_Hbond.Weighted>
0.0000

> <Gold.Chemscore.DEClash.Weighted>
0.0004

> <Gold.Chemscore.DEInternal.Weighted>
1.9332

> <Gold.Chemscore.Rot.Weighted>
2.5600

> <Gold.Chemscore.Internal.Correction.Weighted>
   9.000000E+99

> <Gold.Protein.RotatedTorsions>
[ 6907 6896 6895 6894 ] final   58.84 input  -60.11 | X-H torsion
[ 7974 7965 7964 7962 ] final  -53.46 input  175.53 | X-H torsion
[ 8008 7997 7996 7995 ] final -139.01 input   59.86 | X-H torsion
[ 10167 10162 10161 10158 ] final  -86.55 input  -65.29 | X-H torsion
[ 10718 10713 10712 10709 ] final  145.00 input   66.30 | X-H torsion
[ 10763 10752 10751 10750 ] final -156.57 input  -60.55 | X-H torsion
[ 11005 11000 10999 10996 ] final  117.98 input  -57.11 | X-H torsion

> <Gold.Protein.ActiveResidues>
 VAL166  LYS551  ARG553  GLY616  TRP617  ASP618  TYR619  PRO620  LYS621  CYS622 
 ASP623  PHE694  ASN695  SER759  ASP760  ASP761  ALA762  ILE779  LEU786  VAL792 
 PHE793  MET794  SER795  GLU796  ALA797  LYS798  CYS799  TRP800  GLU811  SER814 

> <Gold.Protein.RotatedAtoms>
  152.3861  134.6515  160.0124 H   0  0  0  0  0  0  0  0  0  0  0  0  # atno 6907 bound_to 6896
  151.6764  133.3307  159.3217 H   0  0  0  0  0  0  0  0  0  0  0  0  # atno 6908 bound_to 6896
  150.7787  134.6755  159.6460 H   0  0  0  0  0  0  0  0  0  0  0  0  # atno 6909 bound_to 6896
  145.8965  140.8028  142.9765 H   0  0  0  0  0  0  0  0  0  0  0  0  # atno 7974 bound_to 7965
  155.4378  140.0529  157.3013 H   0  0  0  0  0  0  0  0  0  0  0  0  # atno 8008 bound_to 7997
  154.4831  140.2090  155.9674 H   0  0  0  0  0  0  0  0  0  0  0  0  # atno 8009 bound_to 7997
  156.1236  140.3184  155.8248 H   0  0  0  0  0  0  0  0  0  0  0  0  # atno 8010 bound_to 7997
  140.3931  143.2696  151.9239 H   0  0  0  0  0  0  0  0  0  0  0  0  # atno 10167 bound_to 10162
  157.3505  131.0950  151.1004 H   0  0  0  0  0  0  0  0  0  0  0  0  # atno 10718 bound_to 10713
  154.7703  135.3143  154.8204 H   0  0  0  0  0  0  0  0  0  0  0  0  # atno 10763 bound_to 10752
  153.8941  135.6822  153.4763 H   0  0  0  0  0  0  0  0  0  0  0  0  # atno 10764 bound_to 10752
  153.1315  135.4778  154.9291 H   0  0  0  0  0  0  0  0  0  0  0  0  # atno 10765 bound_to 10752
  139.9093  134.9616  156.7433 H   0  0  0  0  0  0  0  0  0  0  0  0  # atno 11005 bound_to 11000
  144.6733  140.1611  143.7422 LP  0  0  0  0  0  0  0  0  0  0  0  0  # atno 17320 bound_to 7965
  145.8844  139.2340  143.1586 LP  0  0  0  0  0  0  0  0  0  0  0  0  # atno 17321 bound_to 7965
  139.4788  144.5708  151.8091 LP  0  0  0  0  0  0  0  0  0  0  0  0  # atno 17342 bound_to 10162
  140.4819  144.1437  150.5934 LP  0  0  0  0  0  0  0  0  0  0  0  0  # atno 17343 bound_to 10162
  157.2182  130.6469  149.5800 LP  0  0  0  0  0  0  0  0  0  0  0  0  # atno 17370 bound_to 10713
  155.9721  130.4638  150.6194 LP  0  0  0  0  0  0  0  0  0  0  0  0  # atno 17371 bound_to 10713
  140.6832  133.9456  155.7922 LP  0  0  0  0  0  0  0  0  0  0  0  0  # atno 17394 bound_to 11000
  141.0495  134.0505  157.3801 LP  0  0  0  0  0  0  0  0  0  0  0  0  # atno 17395 bound_to 11000

$$$$
