#       Name:                AV-unprocessed.smi:426
#       Creating user name   scv26
#       Creation time:       Thu Mar 26 22:50:19 2020


#       File generated by GOLD software.
#

@<TRIPOS>MOLECULE
AV-unprocessed.smi:426
    43    44     1
SMALL
NO_CHARGES


@<TRIPOS>ATOM
      1 ****        -4.9677  -1.7142   2.3948 C.3            1 S1                 0.0000
      2 ****        -4.4819  -1.5185   0.9487 C.3            1 S1                 0.0000
      3 ****        -5.0655  -2.5925   0.0155 C.3            1 S1                 0.0000
      4 ****        -2.9483  -1.5203   0.8821 C.2            1 S1                 0.0000
      5 ****        -2.3253  -2.5076   1.2723 O.2            1 S1                 0.0000
      6 ****        -2.3817  -0.3969   0.4027 N.am           1 S1                 0.0000
      7 ****        -1.0058  -0.1031   0.1972 C.ar           1 S1                 0.0000
      8 ****         0.0228  -1.0718   0.1313 C.ar           1 S1                 0.0000
      9 ****         1.3457  -0.6483  -0.0994 C.ar           1 S1                 0.0000
     10 ****         1.6138   0.7303  -0.2709 C.ar           1 S1                 0.0000
     11 ****         2.9327   1.1746  -0.5116 N.3            1 S1                 0.0000
     12 ****         3.1946   2.6116  -0.4472 C.3            1 S1                 0.0000
     13 ****         4.7087   2.8824  -0.4479 C.3            1 S1                 0.0000
     14 ****         5.3060   2.2655  -1.5832 O.3            1 S1                 0.0000
     15 ****         5.1354   0.8523  -1.5674 C.3            1 S1                 0.0000
     16 ****         3.6366   0.5070  -1.6041 C.3            1 S1                 0.0000
     17 ****         0.6244   1.6553  -0.2101 N.ar           1 S1                 0.0000
     18 ****        -0.6418   1.2453   0.0118 C.ar           1 S1                 0.0000
     19 ****        -4.5491  -0.9579   3.0601 H              1 S1                 0.0000
     20 ****        -4.6869  -2.6936   2.7847 H              1 S1                 0.0000
     21 ****        -6.0535  -1.6361   2.4545 H              1 S1                 0.0000
     22 ****        -4.8406  -0.5467   0.6051 H              1 S1                 0.0000
     23 ****        -4.7162  -2.4597  -1.0094 H              1 S1                 0.0000
     24 ****        -6.1545  -2.5427  -0.0019 H              1 S1                 0.0000
     25 ****        -4.7864  -3.5975   0.3351 H              1 S1                 0.0000
     26 ****        -3.0180   0.3587   0.1930 H              1 S1                 0.0000
     27 ****        -0.1697  -2.1272   0.2408 H              1 S1                 0.0000
     28 ****         2.1352  -1.3839  -0.1325 H              1 S1                 0.0000
     29 ****         2.7274   3.1025  -1.3022 H              1 S1                 0.0000
     30 ****         2.7532   3.0363   0.4552 H              1 S1                 0.0000
     31 ****         4.8980   3.9552  -0.4859 H              1 S1                 0.0000
     32 ****         5.1714   2.5098   0.4675 H              1 S1                 0.0000
     33 ****         5.6400   0.4246  -2.4337 H              1 S1                 0.0000
     34 ****         5.6099   0.4273  -0.6814 H              1 S1                 0.0000
     35 ****         3.5235  -0.5750  -1.5579 H              1 S1                 0.0000
     36 ****         3.2025   0.8309  -2.5509 H              1 S1                 0.0000
     37 ****        -1.3895   2.0246   0.0440 H              1 S1                 0.0000
     38 ****        -2.8183  -3.3009   1.6295 LP             1 S1                 0.0000
     39 ****        -1.3261  -2.5164   1.2322 LP             1 S1                 0.0000
     40 ****         3.3623   0.8419   0.3279 LP             1 S1                 0.0000
     41 ****         6.2841   2.4735  -1.5875 LP             1 S1                 0.0000
     42 ****         4.8833   2.6334  -2.4114 LP             1 S1                 0.0000
     43 ****         0.8300   2.6268  -0.3279 LP             1 S1                 0.0000
@<TRIPOS>BOND
    1    1    2 1     
    2    1   19 1     
    3    1   20 1     
    4    1   21 1     
    5    2    3 1     
    6    2    4 1     
    7    2   22 1     
    8    3   23 1     
    9    3   24 1     
   10    3   25 1     
   11    4    5 2     
   12    4    6 am    
   13    6    7 1     
   14    6   26 1     
   15    7   18 ar    
   16    7    8 ar    
   17    8    9 ar    
   18    8   27 1     
   19    9   10 ar    
   20    9   28 1     
   21   10   11 1     
   22   10   17 ar    
   23   11   16 1     
   24   11   12 1     
   25   12   13 1     
   26   12   29 1     
   27   12   30 1     
   28   13   14 1     
   29   13   31 1     
   30   13   32 1     
   31   14   15 1     
   32   15   16 1     
   33   15   33 1     
   34   15   34 1     
   35   16   35 1     
   36   16   36 1     
   37   17   18 ar    
   38   18   37 1     
   39    5   38 1     
   40    5   39 1     
   41   11   40 1     
   42   14   41 1     
   43   14   42 1     
   44   17   43 1     
@<TRIPOS>SUBSTRUCTURE
      1 S1             1
@<TRIPOS>SET
LONE_PAIRS      STATIC     ATOMS    <user>   **** ""
6 38 39 40 41 42 43
DONOR_HYDROGENS      STATIC     ATOMS    <user>   **** ""
1 26
ATOM$BLUE        STATIC     ATOMS    COLORGROUP SYSTEM
6 38 39 40 41 42 43
ATOM$RED        STATIC     ATOMS    COLORGROUP SYSTEM
1 26
