AV-unprocessed.smi:2227|AV-procd|sdf|9022|dock8
  -GOLD-   2272012223D 1   1.00000     0.00000
 Structure written by MMmdl.
 42 44  0  0  0  0  0  0  0  0  1 V2000
  151.5849  137.3203  154.5071 C   0  0  0  0  0  0  0  0  0  0  0  0
  151.6359  138.8090  154.8788 C   0  0  0  0  0  0  0  0  0  0  0  0
  152.1697  139.0293  156.3018 C   0  0  0  0  0  0  0  0  0  0  0  0
  150.2996  139.4709  154.6755 C   0  0  0  0  0  0  0  0  0  0  0  0
  149.2643  138.8576  154.1066 N   0  0  0  0  0  0  0  0  0  0  0  0
  148.2490  139.8056  154.0836 C   0  0  0  0  0  0  0  0  0  0  0  0
  148.7084  140.9745  154.6376 C   0  0  0  0  0  0  0  0  0  0  0  0
  150.0293  140.7528  155.0090 N   0  0  0  0  0  0  0  0  0  0  0  0
  150.8995  141.7427  155.6278 C   0  0  0  0  0  0  0  0  0  0  0  0
  150.7750  141.7264  157.1536 C   0  0  0  0  0  0  0  0  0  0  0  0
  149.8910  141.0616  157.6935 O   0  0  0  0  0  0  0  0  0  0  0  0
  151.6624  142.4711  157.8312 N   0  0  0  0  0  0  0  0  0  0  0  0
  151.7119  142.6322  159.2801 C   0  0  0  0  0  0  0  0  0  0  0  0
  151.0815  143.9439  159.7112 C   0  0  0  0  0  0  0  0  0  0  0  0
  151.7044  145.2739  159.3575 C   0  0  0  0  0  0  0  0  0  0  0  0
  151.7071  144.7935  160.7911 C   0  0  0  0  0  0  0  0  0  0  0  0
  153.1237  142.5203  159.8332 C   0  0  0  0  0  0  0  0  0  0  0  0
  153.6908  141.1971  160.2922 C   0  0  0  0  0  0  0  0  0  0  0  0
  153.3749  142.2749  161.3028 C   0  0  0  0  0  0  0  0  0  0  0  0
  151.2654  137.1874  153.4729 H   0  0  0  0  0  0  0  0  0  0  0  0
  150.8871  136.7749  155.1434 H   0  0  0  0  0  0  0  0  0  0  0  0
  152.5650  136.8546  154.6126 H   0  0  0  0  0  0  0  0  0  0  0  0
  152.3607  139.2711  154.2118 H   0  0  0  0  0  0  0  0  0  0  0  0
  152.2563  140.0928  156.5267 H   0  0  0  0  0  0  0  0  0  0  0  0
  153.1580  138.5852  156.4235 H   0  0  0  0  0  0  0  0  0  0  0  0
  151.5119  138.5827  157.0481 H   0  0  0  0  0  0  0  0  0  0  0  0
  147.2771  139.5763  153.6723 H   0  0  0  0  0  0  0  0  0  0  0  0
  148.2186  141.9252  154.7889 H   0  0  0  0  0  0  0  0  0  0  0  0
  151.9330  141.5226  155.3580 H   0  0  0  0  0  0  0  0  0  0  0  0
  150.6737  142.7274  155.2167 H   0  0  0  0  0  0  0  0  0  0  0  0
  152.3519  142.9808  157.2983 H   0  0  0  0  0  0  0  0  0  0  0  0
  151.1174  141.8334  159.7288 H   0  0  0  0  0  0  0  0  0  0  0  0
  149.9930  143.9220  159.7039 H   0  0  0  0  0  0  0  0  0  0  0  0
  152.6568  145.2703  158.8314 H   0  0  0  0  0  0  0  0  0  0  0  0
  151.0327  146.0906  159.1012 H   0  0  0  0  0  0  0  0  0  0  0  0
  151.0374  145.2885  161.4913 H   0  0  0  0  0  0  0  0  0  0  0  0
  152.6595  144.4699  161.2055 H   0  0  0  0  0  0  0  0  0  0  0  0
  153.8299  143.1914  159.3479 H   0  0  0  0  0  0  0  0  0  0  0  0
  153.0384  140.3266  160.2732 H   0  0  0  0  0  0  0  0  0  0  0  0
  154.7387  140.9987  160.0768 H   0  0  0  0  0  0  0  0  0  0  0  0
  154.2119  142.7965  161.7622 H   0  0  0  0  0  0  0  0  0  0  0  0
  152.5155  142.1111  161.9493 H   0  0  0  0  0  0  0  0  0  0  0  0
  1  2  1  0  0  0  0
  1 20  1  0  0  0  0
  1 21  1  0  0  0  0
  1 22  1  0  0  0  0
  2  3  1  0  0  0  0
  2  4  1  0  0  0  0
  2 23  1  0  0  0  0
  3 24  1  0  0  0  0
  3 25  1  0  0  0  0
  3 26  1  0  0  0  0
  4  8  1  0  0  0  0
  4  5  2  0  0  0  0
  5  6  1  0  0  0  0
  6  7  2  0  0  0  0
  6 27  1  0  0  0  0
  7  8  1  0  0  0  0
  7 28  1  0  0  0  0
  8  9  1  0  0  0  0
  9 10  1  0  0  0  0
  9 29  1  0  0  0  0
  9 30  1  0  0  0  0
 10 11  2  0  0  0  0
 10 12  1  0  0  0  0
 12 13  1  0  0  0  0
 12 31  1  0  0  0  0
 13 14  1  0  0  0  0
 13 17  1  0  0  0  0
 13 32  1  0  0  0  0
 14 16  1  0  0  0  0
 14 15  1  0  0  0  0
 14 33  1  0  0  0  0
 15 16  1  0  0  0  0
 15 34  1  0  0  0  0
 15 35  1  0  0  0  0
 16 36  1  0  0  0  0
 16 37  1  0  0  0  0
 17 19  1  0  0  0  0
 17 18  1  0  0  0  0
 17 38  1  0  0  0  0
 18 19  1  0  0  0  0
 18 39  1  0  0  0  0
 18 40  1  0  0  0  0
 19 41  1  0  0  0  0
 19 42  1  0  0  0  0
M  END
> <s_m_source_file>
AV-unprocessed.smi

> <i_m_source_file_index>
2227

> <i_lp_mmshare_version>
43012

> <i_f3d_flags>
0

> <s_epik_input>
W0NIM11bQ0hdKFtDSDNdKWMxbltjSF1bY0hdbjFbQ0gyXUMoPU8pW05IXVtDSF0oW0NIXTJbQ0gyXVtDSDJdMilbQ0hdM1tDSDJdW0NIMl0z

> <s_epik_cmdline>
J2VwaWtfcHl0aG9uJywgJy1waCcsICc3LjAnLCAnLXRuJywgJzgnLCAnLW1hJywgJzIwMCcsICctbWV0YWxfYmluZGluZycsICctaW1hZScsICc8aW5maWxlLm1hZT4nLCAnLW9tYWUnLCAnPG91dGZpbGUubWFlPic=

> <r_lp_tautomer_probability>
1

> <r_epik_Ionization_Penalty>
0.615412

> <r_epik_Ionization_Penalty_Charging>
0.615412

> <r_epik_Ionization_Penalty_Neutral>
4.7269e-08

> <r_epik_State_Penalty>
0.630977

> <r_epik_Charging_Adjusted_Penalty>
1.24639

> <i_epik_Tot_Q>
0

> <i_epik_Tot_abs_Q>
0

> <r_epik_Metal_State_Penalty>
0.305199

> <b_epik_Metal_Only>
0

> <s_lp_Force_Field>
OPLS_2005

> <r_lp_Energy>
23.5493

> <b_lp_Chiralities_Consistent>
1

> <s_lp_Variant>
AV-unprocessed.smi:2227-2

> <Gold.Version>
5.8.1

> <Gold.Id.Protein>
6NUR|6NUR_protein|mol2

> <Gold.PLP.Fitness>
46.7541

> <Gold.PLP.PLP>
-45.6478

> <Gold.PLP.part.hbond>
0.0000

> <Gold.PLP.part.metal>
0.0000

> <Gold.PLP.part.buried>
-2.9708

> <Gold.PLP.part.nonpolar>
-42.6963

> <Gold.PLP.part.repulsive>
0.3299

> <Gold.PLP.ligand.clash>
0.0000

> <Gold.PLP.ligand.torsion>
2.0326

> <Gold.PLP.Chemscore.Hbond>
0.0000

> <Gold.PLP.Chemscore.CHOScore>
0.9937

> <Gold.PLP.Chemscore.Metal>
0.0000

> <Gold.PLP.Chemscore.Internal.Correction>
2.1906

> <Gold.Rescore>
     Score         DG    S(hbond)    S(metal)    S(lipo)     H(rot)  DE(clash)    DE(int)     intcor
     12.84     -15.14       0.00        0.00     118.96       1.66       0.21       2.09       ----

> <Gold.Chemscore.Fitness>
12.8432

> <Gold.Chemscore.DG>
-15.1423

> <Gold.Chemscore.ZeroCoef>
-5.4800

> <Gold.Chemscore.Hbond>
0.0000

> <Gold.Chemscore.Metal>
0.0000

> <Gold.Chemscore.Lipo>
118.9644

> <Gold.Chemscore.Internal_Hbond>
0.0000

> <Gold.Chemscore.DEClash>
0.2127

> <Gold.Chemscore.DEInternal>
2.0864

> <Gold.Chemscore.Rot>
1.6627

> <Gold.Chemscore.Internal.Correction>
   9.000000E+99

> <Gold.Chemscore.Hbond.Weighted>
-0.0000

> <Gold.Chemscore.Metal.Weighted>
-0.0000

> <Gold.Chemscore.Lipo.Weighted>
-13.9188

> <Gold.Chemscore.Internal_Hbond.Weighted>
0.0000

> <Gold.Chemscore.DEClash.Weighted>
0.2127

> <Gold.Chemscore.DEInternal.Weighted>
2.0864

> <Gold.Chemscore.Rot.Weighted>
4.2565

> <Gold.Chemscore.Internal.Correction.Weighted>
   9.000000E+99

> <Gold.Protein.RotatedTorsions>
[ 6907 6896 6895 6894 ] final   60.09 input  -60.11 | X-H torsion
[ 7974 7965 7964 7962 ] final  -55.83 input  175.53 | X-H torsion
[ 8008 7997 7996 7995 ] final  -29.29 input   59.86 | X-H torsion
[ 10167 10162 10161 10158 ] final   81.89 input  -65.29 | X-H torsion
[ 10718 10713 10712 10709 ] final -135.22 input   66.30 | X-H torsion
[ 10763 10752 10751 10750 ] final  126.76 input  -60.55 | X-H torsion
[ 11005 11000 10999 10996 ] final  147.06 input  -57.11 | X-H torsion

> <Gold.Protein.ActiveResidues>
 VAL166  LYS551  ARG553  GLY616  TRP617  ASP618  TYR619  PRO620  LYS621  CYS622 
 ASP623  PHE694  ASN695  SER759  ASP760  ASP761  ALA762  ILE779  LEU786  VAL792 
 PHE793  MET794  SER795  GLU796  ALA797  LYS798  CYS799  TRP800  GLU811  SER814 

> <Gold.Protein.RotatedAtoms>
  152.3973  134.6345  160.0083 H   0  0  0  0  0  0  0  0  0  0  0  0  # atno 6907 bound_to 6896
  151.6561  133.3313  159.3171 H   0  0  0  0  0  0  0  0  0  0  0  0  # atno 6908 bound_to 6896
  150.7878  134.6921  159.6547 H   0  0  0  0  0  0  0  0  0  0  0  0  # atno 6909 bound_to 6896
  145.8697  140.8225  142.9895 H   0  0  0  0  0  0  0  0  0  0  0  0  # atno 7974 bound_to 7965
  154.4296  140.1822  156.1224 H   0  0  0  0  0  0  0  0  0  0  0  0  # atno 8008 bound_to 7997
  156.0132  140.3348  155.6937 H   0  0  0  0  0  0  0  0  0  0  0  0  # atno 8009 bound_to 7997
  155.6081  140.0647  157.2705 H   0  0  0  0  0  0  0  0  0  0  0  0  # atno 8010 bound_to 7997
  139.9345  144.6130  150.8312 H   0  0  0  0  0  0  0  0  0  0  0  0  # atno 10167 bound_to 10162
  156.2638  130.7225  151.1169 H   0  0  0  0  0  0  0  0  0  0  0  0  # atno 10718 bound_to 10713
  153.6986  135.3287  155.3219 H   0  0  0  0  0  0  0  0  0  0  0  0  # atno 10763 bound_to 10752
  154.8419  135.4449  154.1434 H   0  0  0  0  0  0  0  0  0  0  0  0  # atno 10764 bound_to 10752
  153.2495  135.6980  153.7772 H   0  0  0  0  0  0  0  0  0  0  0  0  # atno 10765 bound_to 10752
  140.0844  134.9078  157.1553 H   0  0  0  0  0  0  0  0  0  0  0  0  # atno 11005 bound_to 11000
  144.6726  140.1219  143.7449 LP  0  0  0  0  0  0  0  0  0  0  0  0  # atno 17320 bound_to 7965
  145.9152  139.2511  143.1414 LP  0  0  0  0  0  0  0  0  0  0  0  0  # atno 17321 bound_to 7965
  140.7628  143.3208  151.2627 LP  0  0  0  0  0  0  0  0  0  0  0  0  # atno 17342 bound_to 10162
  139.6755  143.9945  152.2778 LP  0  0  0  0  0  0  0  0  0  0  0  0  # atno 17343 bound_to 10162
  157.7260  131.0649  150.5929 LP  0  0  0  0  0  0  0  0  0  0  0  0  # atno 17370 bound_to 10713
  156.6019  130.4356  149.5894 LP  0  0  0  0  0  0  0  0  0  0  0  0  # atno 17371 bound_to 10713
  140.3441  134.2671  155.7208 LP  0  0  0  0  0  0  0  0  0  0  0  0  # atno 17394 bound_to 11000
  141.2058  133.7851  157.0214 LP  0  0  0  0  0  0  0  0  0  0  0  0  # atno 17395 bound_to 11000

$$$$
