AV-unprocessed.smi:2073|AV-procd|sdf|8450|dock6
  -GOLD-   2272011143D 1   1.00000     0.00000
 Structure written by MMmdl.
 28 28  0  0  0  0  0  0  0  0  1 V2000
  152.5597  143.1259  159.6317 C   0  0  0  0  0  0  0  0  0  0  0  0
  152.5282  141.5901  159.7052 C   0  0  0  0  0  0  0  0  0  0  0  0
  153.8166  141.0356  160.3349 C   0  0  0  0  0  0  0  0  0  0  0  0
  152.2986  140.9835  158.3141 C   0  0  0  0  0  0  0  0  0  0  0  0
  153.1352  140.2133  157.8405 O   0  0  0  0  0  0  0  0  0  0  0  0
  151.1610  141.3503  157.6936 N   0  0  0  0  0  0  0  0  0  0  0  0
  150.6949  140.9629  156.4102 C   0  0  0  0  0  0  0  0  0  0  0  0
  149.4336  141.1113  155.9907 N   0  0  0  0  0  0  0  0  0  0  0  0
  149.2468  140.6310  154.6900 C   0  0  0  0  0  0  0  0  0  0  0  0
  147.8902  140.7065  154.0520 C   0  0  0  0  0  0  0  0  0  0  0  0
  147.5024  139.3472  153.4668 C   0  0  0  0  0  0  0  0  0  0  0  0
  148.1899  138.9227  152.4028 N   0  0  0  0  0  0  0  0  0  0  0  0
  146.5961  138.6870  153.9704 O   0  0  0  0  0  0  0  0  0  0  0  0
  150.3963  140.1290  154.1287 C   0  0  0  0  0  0  0  0  0  0  0  0
  151.7548  140.2295  155.2168 S   0  0  0  0  0  0  0  0  0  0  0  0
  151.6505  143.5205  159.1762 H   0  0  0  0  0  0  0  0  0  0  0  0
  153.4083  143.4834  159.0467 H   0  0  0  0  0  0  0  0  0  0  0  0
  152.6403  143.5615  160.6279 H   0  0  0  0  0  0  0  0  0  0  0  0
  151.6934  141.3046  160.3478 H   0  0  0  0  0  0  0  0  0  0  0  0
  153.7987  139.9460  160.3817 H   0  0  0  0  0  0  0  0  0  0  0  0
  153.9404  141.4038  161.3535 H   0  0  0  0  0  0  0  0  0  0  0  0
  154.7008  141.3306  159.7683 H   0  0  0  0  0  0  0  0  0  0  0  0
  150.5633  141.9889  158.1976 H   0  0  0  0  0  0  0  0  0  0  0  0
  147.1365  141.0207  154.7756 H   0  0  0  0  0  0  0  0  0  0  0  0
  147.8812  141.4534  153.2570 H   0  0  0  0  0  0  0  0  0  0  0  0
  147.9750  138.0263  151.9897 H   0  0  0  0  0  0  0  0  0  0  0  0
  148.9291  139.4948  152.0213 H   0  0  0  0  0  0  0  0  0  0  0  0
  150.5236  139.7036  153.1443 H   0  0  0  0  0  0  0  0  0  0  0  0
  1  2  1  0  0  0  0
  1 16  1  0  0  0  0
  1 17  1  0  0  0  0
  1 18  1  0  0  0  0
  2  3  1  0  0  0  0
  2  4  1  0  0  0  0
  2 19  1  0  0  0  0
  3 20  1  0  0  0  0
  3 21  1  0  0  0  0
  3 22  1  0  0  0  0
  4  5  2  0  0  0  0
  4  6  1  0  0  0  0
  6  7  1  0  0  0  0
  6 23  1  0  0  0  0
  7 15  1  0  0  0  0
  7  8  2  0  0  0  0
  8  9  1  0  0  0  0
  9 10  1  0  0  0  0
  9 14  2  0  0  0  0
 10 11  1  0  0  0  0
 10 24  1  0  0  0  0
 10 25  1  0  0  0  0
 11 12  1  0  0  0  0
 11 13  2  0  0  0  0
 12 26  1  0  0  0  0
 12 27  1  0  0  0  0
 14 15  1  0  0  0  0
 14 28  1  0  0  0  0
M  END
> <s_m_source_file>
AV-unprocessed.smi

> <i_m_source_file_index>
2073

> <i_lp_mmshare_version>
43012

> <i_f3d_flags>
0

> <s_epik_input>
W0NIM11bQ0hdKFtDSDNdKUMoPU8pW05IXWMxbmMoW2NIXXMxKVtDSDJdQyg9TylbTkgyXQ==

> <s_epik_cmdline>
J2VwaWtfcHl0aG9uJywgJy1waCcsICc3LjAnLCAnLXRuJywgJzgnLCAnLW1hJywgJzIwMCcsICctbWV0YWxfYmluZGluZycsICctaW1hZScsICc8aW5maWxlLm1hZT4nLCAnLW9tYWUnLCAnPG91dGZpbGUubWFlPic=

> <r_lp_tautomer_probability>
1

> <r_epik_Ionization_Penalty>
0.000158353

> <r_epik_Ionization_Penalty_Charging>
0

> <r_epik_Ionization_Penalty_Neutral>
0.000158353

> <r_epik_State_Penalty>
-0

> <r_epik_Charging_Adjusted_Penalty>
0

> <i_epik_Tot_Q>
0

> <i_epik_Tot_abs_Q>
0

> <r_epik_Metal_State_Penalty>
0.0986865

> <b_epik_Metal_Only>
0

> <s_lp_Force_Field>
OPLS_2005

> <r_lp_Energy>
2.86857

> <b_lp_Chiralities_Consistent>
1

> <s_lp_Variant>
AV-unprocessed.smi:2073-1

> <Gold.Version>
5.8.1

> <Gold.Id.Protein>
6NUR|6NUR_protein|mol2

> <Gold.PLP.Fitness>
38.1360

> <Gold.PLP.PLP>
-28.4062

> <Gold.PLP.part.hbond>
-2.8221

> <Gold.PLP.part.metal>
0.0000

> <Gold.PLP.part.buried>
-0.3553

> <Gold.PLP.part.nonpolar>
-25.6830

> <Gold.PLP.part.repulsive>
0.3358

> <Gold.PLP.ligand.clash>
0.0000

> <Gold.PLP.ligand.torsion>
0.2355

> <Gold.PLP.Chemscore.Hbond>
2.4960

> <Gold.PLP.Chemscore.CHOScore>
0.8986

> <Gold.PLP.Chemscore.Metal>
0.0000

> <Gold.Chemscore.Hbonds>
donor molecule, donor type, donor heavy atom, donor atom, acceptor molecule, acceptor atom, score
      L1  H    12    26       P1  7948  0.69
      L1  H    12    27       P1  7957  0.21
      P1  H  7997  8010       L1     5  0.83
      L1  C    14    28       P1  7957  1.00

> <Gold.PLP.Chemscore.Internal.Correction>
0.0171

> <Gold.Rescore>
     Score         DG    S(hbond)    S(metal)    S(lipo)     H(rot)  DE(clash)    DE(int)     intcor
     14.30     -16.17       2.59        0.00      59.55       1.93       0.19       1.68       ----

> <Gold.Chemscore.Fitness>
14.3034

> <Gold.Chemscore.DG>
-16.1654

> <Gold.Chemscore.ZeroCoef>
-5.4800

> <Gold.Chemscore.Hbond>
2.5941

> <Gold.Chemscore.Metal>
0.0000

> <Gold.Chemscore.Lipo>
59.5534

> <Gold.Chemscore.Internal_Hbond>
0.0000

> <Gold.Chemscore.DEClash>
0.1866

> <Gold.Chemscore.DEInternal>
1.6754

> <Gold.Chemscore.Rot>
1.9323

> <Gold.Chemscore.Internal.Correction>
   9.000000E+99

> <Gold.Chemscore.Hbonds>
donor molecule, donor type, donor heavy atom, donor atom, acceptor molecule, acceptor atom, score
      L1  H    12    26       P1  7948  0.66
      L1  H    12    27       P1  7957  0.21
      P1  H  7997  8010       L1     5  0.81

> <Gold.Chemscore.Hbond.Weighted>
-8.6644

> <Gold.Chemscore.Metal.Weighted>
-0.0000

> <Gold.Chemscore.Lipo.Weighted>
-6.9678

> <Gold.Chemscore.Internal_Hbond.Weighted>
0.0000

> <Gold.Chemscore.DEClash.Weighted>
0.1866

> <Gold.Chemscore.DEInternal.Weighted>
1.6754

> <Gold.Chemscore.Rot.Weighted>
4.9468

> <Gold.Chemscore.Internal.Correction.Weighted>
   9.000000E+99

> <Gold.Protein.RotatedTorsions>
[ 6907 6896 6895 6894 ] final   11.53 input  -60.11 | X-H torsion
[ 7974 7965 7964 7962 ] final  -13.81 input  175.53 | X-H torsion
[ 8008 7997 7996 7995 ] final   28.19 input   59.86 | X-H torsion
[ 10167 10162 10161 10158 ] final  -73.50 input  -65.29 | X-H torsion
[ 10718 10713 10712 10709 ] final  105.50 input   66.30 | X-H torsion
[ 10763 10752 10751 10750 ] final  143.93 input  -60.55 | X-H torsion
[ 11005 11000 10999 10996 ] final   48.39 input  -57.11 | X-H torsion

> <Gold.Protein.ActiveResidues>
 VAL166  LYS551  ARG553  GLY616  TRP617  ASP618  TYR619  PRO620  LYS621  CYS622 
 ASP623  PHE694  ASN695  SER759  ASP760  ASP761  ALA762  ILE779  LEU786  VAL792 
 PHE793  MET794  SER795  GLU796  ALA797  LYS798  CYS799  TRP800  GLU811  SER814 

> <Gold.Protein.RotatedAtoms>
  151.7558  135.0822  160.0337 H   0  0  0  0  0  0  0  0  0  0  0  0  # atno 6907 bound_to 6896
  152.3386  133.6036  159.5869 H   0  0  0  0  0  0  0  0  0  0  0  0  # atno 6908 bound_to 6896
  150.7465  133.9673  159.3576 H   0  0  0  0  0  0  0  0  0  0  0  0  # atno 6909 bound_to 6896
  146.2099  140.3258  142.8394 H   0  0  0  0  0  0  0  0  0  0  0  0  # atno 7974 bound_to 7965
  155.0548  140.3184  155.4680 H   0  0  0  0  0  0  0  0  0  0  0  0  # atno 8008 bound_to 7997
  156.2826  140.2139  156.5618 H   0  0  0  0  0  0  0  0  0  0  0  0  # atno 8009 bound_to 7997
  154.7180  140.0492  157.0601 H   0  0  0  0  0  0  0  0  0  0  0  0  # atno 8010 bound_to 7997
  140.5105  143.2346  151.7601 H   0  0  0  0  0  0  0  0  0  0  0  0  # atno 10167 bound_to 10162
  157.6703  131.0829  150.5866 H   0  0  0  0  0  0  0  0  0  0  0  0  # atno 10718 bound_to 10713
  153.9805  135.2942  155.3420 H   0  0  0  0  0  0  0  0  0  0  0  0  # atno 10763 bound_to 10752
  154.7271  135.5084  153.8907 H   0  0  0  0  0  0  0  0  0  0  0  0  # atno 10764 bound_to 10752
  153.0856  135.6692  154.0069 H   0  0  0  0  0  0  0  0  0  0  0  0  # atno 10765 bound_to 10752
  140.1195  134.4848  155.8609 H   0  0  0  0  0  0  0  0  0  0  0  0  # atno 11005 bound_to 11000
  144.8887  140.7496  143.5940 LP  0  0  0  0  0  0  0  0  0  0  0  0  # atno 17320 bound_to 7965
  145.3180  139.1797  143.4603 LP  0  0  0  0  0  0  0  0  0  0  0  0  # atno 17321 bound_to 7965
  139.4895  144.4397  151.9779 LP  0  0  0  0  0  0  0  0  0  0  0  0  # atno 17342 bound_to 10162
  140.3489  144.3113  150.5953 LP  0  0  0  0  0  0  0  0  0  0  0  0  # atno 17343 bound_to 10162
  156.6166  130.4394  149.5838 LP  0  0  0  0  0  0  0  0  0  0  0  0  # atno 17370 bound_to 10713
  156.2388  130.6839  151.1536 LP  0  0  0  0  0  0  0  0  0  0  0  0  # atno 17371 bound_to 10713
  141.2148  133.6755  156.6861 LP  0  0  0  0  0  0  0  0  0  0  0  0  # atno 17394 bound_to 11000
  140.2984  134.8184  157.4076 LP  0  0  0  0  0  0  0  0  0  0  0  0  # atno 17395 bound_to 11000

$$$$
