AV-unprocessed.smi:3131|AV-procd|sdf|11928|dock6
  -GOLD-   2272017313D 1   1.00000     0.00000
 Structure written by MMmdl.
 43 43  0  0  0  0  0  0  0  0  2 V2000
  150.8707  138.9794  154.3512 C   0  0  0  0  0  0  0  0  0  0  0  0
  149.3412  138.8377  154.3663 C   0  0  0  0  0  0  0  0  0  0  0  0
  148.5872  139.9352  153.5781 C   0  0  0  0  0  0  0  0  0  0  0  0
  148.3785  141.2000  154.4474 C   0  0  0  0  0  0  0  0  0  0  0  0
  149.6563  141.7180  155.1241 C   0  0  0  0  0  0  0  0  0  0  0  0
  147.2382  139.4086  153.0389 C   0  0  0  0  0  0  0  0  0  0  0  0
  147.4283  138.4759  151.9104 N   0  3  0  0  0  0  0  0  0  0  0  0
  146.1783  137.8878  151.3845 C   0  0  0  0  0  0  0  0  0  0  0  0
  145.6652  136.7413  152.2825 C   0  0  2  0  0  0  0  0  0  0  0  0
  144.4351  137.1947  153.0867 C   0  0  0  0  0  0  0  0  0  0  0  0
  146.6751  136.4665  153.2364 O   0  0  0  0  0  0  0  0  0  0  0  0
  145.3199  135.5200  151.4566 C   0  0  0  0  0  0  0  0  0  0  0  0
  144.3040  135.4010  150.4628 C   0  0  0  0  0  0  0  0  0  0  0  0
  144.2627  134.2039  149.9036 N   0  0  0  0  0  0  0  0  0  0  0  0
  145.2390  133.5112  150.5229 N   0  0  0  0  0  0  0  0  0  0  0  0
  145.4773  132.1318  150.1554 C   0  0  0  0  0  0  0  0  0  0  0  0
  145.8919  134.2768  151.4643 C   0  0  0  0  0  0  0  0  0  0  0  0
  151.3291  138.2365  155.0043 H   0  0  0  0  0  0  0  0  0  0  0  0
  151.1795  139.9635  154.7047 H   0  0  0  0  0  0  0  0  0  0  0  0
  151.2876  138.8305  153.3559 H   0  0  0  0  0  0  0  0  0  0  0  0
  149.0617  137.8526  153.9907 H   0  0  0  0  0  0  0  0  0  0  0  0
  149.0314  138.8554  155.4101 H   0  0  0  0  0  0  0  0  0  0  0  0
  149.2021  140.2147  152.7209 H   0  0  0  0  0  0  0  0  0  0  0  0
  147.9919  142.0140  153.8340 H   0  0  0  0  0  0  0  0  0  0  0  0
  147.6139  141.0108  155.2020 H   0  0  0  0  0  0  0  0  0  0  0  0
  149.4600  142.6533  155.6488 H   0  0  0  0  0  0  0  0  0  0  0  0
  150.4399  141.9112  154.3908 H   0  0  0  0  0  0  0  0  0  0  0  0
  150.0476  141.0141  155.8577 H   0  0  0  0  0  0  0  0  0  0  0  0
  146.6946  138.8718  153.8153 H   0  0  0  0  0  0  0  0  0  0  0  0
  146.6064  140.2406  152.7245 H   0  0  0  0  0  0  0  0  0  0  0  0
  147.8796  138.9773  151.1586 H   0  0  0  0  0  0  0  0  0  0  0  0
  145.4240  138.6702  151.2874 H   0  0  0  0  0  0  0  0  0  0  0  0
  146.3690  137.5095  150.3789 H   0  0  0  0  0  0  0  0  0  0  0  0
  143.6053  137.4579  152.4298 H   0  0  0  0  0  0  0  0  0  0  0  0
  144.6571  138.0705  153.6979 H   0  0  0  0  0  0  0  0  0  0  0  0
  144.0859  136.4066  153.7553 H   0  0  0  0  0  0  0  0  0  0  0  0
  147.4821  136.2821  152.7797 H   0  0  0  0  0  0  0  0  0  0  0  0
  143.6029  136.1515  150.1284 H   0  0  0  0  0  0  0  0  0  0  0  0
  146.3294  131.7382  150.7104 H   0  0  0  0  0  0  0  0  0  0  0  0
  145.6881  132.0644  149.0877 H   0  0  0  0  0  0  0  0  0  0  0  0
  144.5965  131.5316  150.3858 H   0  0  0  0  0  0  0  0  0  0  0  0
  146.7046  133.8790  152.0544 H   0  0  0  0  0  0  0  0  0  0  0  0
  148.0363  137.7244  152.2035 H   0  0  0  0  0  0  0  0  0  0  0  0
  1  2  1  0  0  0  0
  1 18  1  0  0  0  0
  1 19  1  0  0  0  0
  1 20  1  0  0  0  0
  2  3  1  0  0  0  0
  2 21  1  0  0  0  0
  2 22  1  0  0  0  0
  3  4  1  0  0  0  0
  3  6  1  0  0  0  0
  3 23  1  0  0  0  0
  4  5  1  0  0  0  0
  4 24  1  0  0  0  0
  4 25  1  0  0  0  0
  5 26  1  0  0  0  0
  5 27  1  0  0  0  0
  5 28  1  0  0  0  0
  6  7  1  0  0  0  0
  6 29  1  0  0  0  0
  6 30  1  0  0  0  0
  7  8  1  0  0  0  0
  7 31  1  0  0  0  0
  7 43  1  0  0  0  0
  8  9  1  0  0  0  0
  8 32  1  0  0  0  0
  8 33  1  0  0  0  0
  9 10  1  0  0  0  0
  9 11  1  0  0  0  0
  9 12  1  0  0  0  0
 10 34  1  0  0  0  0
 10 35  1  0  0  0  0
 10 36  1  0  0  0  0
 11 37  1  0  0  0  0
 12 17  2  0  0  0  0
 12 13  1  0  0  0  0
 13 14  2  0  0  0  0
 13 38  1  0  0  0  0
 14 15  1  0  0  0  0
 15 16  1  0  0  0  0
 15 17  1  0  0  0  0
 16 39  1  0  0  0  0
 16 40  1  0  0  0  0
 16 41  1  0  0  0  0
 17 42  1  0  0  0  0
M  CHG  1   7   1
M  END
> <s_m_source_file>
AV-unprocessed.smi

> <i_m_source_file_index>
3131

> <i_lp_mmshare_version>
43012

> <i_f3d_flags>
0

> <s_epik_input>
W0NIM11bQ0gyXVtDSF0oW0NIMl1bQ0gzXSlbQ0gyXVtOSF1bQ0gyXVtDQEBdKFtDSDNdKShbT0hdKWMxW2NIXW5uKFtDSDNdKVtjSF0x

> <s_epik_cmdline>
J2VwaWtfcHl0aG9uJywgJy1waCcsICc3LjAnLCAnLXRuJywgJzgnLCAnLW1hJywgJzIwMCcsICctbWV0YWxfYmluZGluZycsICctaW1hZScsICc8aW5maWxlLm1hZT4nLCAnLW9tYWUnLCAnPG91dGZpbGUubWFlPic=

> <r_lp_tautomer_probability>
1

> <r_epik_Ionization_Penalty>
0.00304809

> <r_epik_Ionization_Penalty_Charging>
0.00302982

> <r_epik_Ionization_Penalty_Neutral>
1.82731e-05

> <r_epik_State_Penalty>
0.00212874

> <r_epik_Charging_Adjusted_Penalty>
0.00515857

> <i_epik_Tot_Q>
1

> <i_epik_Tot_abs_Q>
1

> <r_epik_Metal_State_Penalty>
-0

> <b_epik_Metal_Only>
0

> <s_lp_Force_Field>
OPLS_2005

> <r_lp_Energy>
9.85369

> <b_lp_Chiralities_Consistent>
1

> <s_lp_Variant>
AV-unprocessed.smi:3131-2

> <Gold.Version>
5.8.1

> <Gold.Id.Protein>
6NUR|6NUR_protein|mol2

> <Gold.PLP.Fitness>
44.8904

> <Gold.PLP.PLP>
-33.8478

> <Gold.PLP.part.hbond>
-3.0000

> <Gold.PLP.part.metal>
0.0000

> <Gold.PLP.part.buried>
2.6916

> <Gold.PLP.part.nonpolar>
-34.2471

> <Gold.PLP.part.repulsive>
1.2778

> <Gold.PLP.ligand.clash>
0.0000

> <Gold.PLP.ligand.torsion>
1.5821

> <Gold.PLP.Chemscore.Hbond>
3.6560

> <Gold.PLP.Chemscore.CHOScore>
1.0000

> <Gold.PLP.Chemscore.Metal>
0.0000

> <Gold.Chemscore.Hbonds>
donor molecule, donor type, donor heavy atom, donor atom, acceptor molecule, acceptor atom, score
      L1  H     7    31       P1  7957  0.64
      L1  H     7    43       P1  7948  1.98
      L1  H    11    37       P1  7948  1.00
      L1  C    13    38       P1 10171  1.00

> <Gold.PLP.Chemscore.Internal.Correction>
0.2388

> <Gold.Rescore>
     Score         DG    S(hbond)    S(metal)    S(lipo)     H(rot)  DE(clash)    DE(int)     intcor
     14.62     -17.63       2.71        0.00      77.63       2.34       0.05       2.95       ----

> <Gold.Chemscore.Fitness>
14.6235

> <Gold.Chemscore.DG>
-17.6298

> <Gold.Chemscore.ZeroCoef>
-5.4800

> <Gold.Chemscore.Hbond>
2.7138

> <Gold.Chemscore.Metal>
0.0000

> <Gold.Chemscore.Lipo>
77.6320

> <Gold.Chemscore.Internal_Hbond>
0.0000

> <Gold.Chemscore.DEClash>
0.0542

> <Gold.Chemscore.DEInternal>
2.9521

> <Gold.Chemscore.Rot>
2.3426

> <Gold.Chemscore.Internal.Correction>
   9.000000E+99

> <Gold.Chemscore.Hbonds>
donor molecule, donor type, donor heavy atom, donor atom, acceptor molecule, acceptor atom, score
      L1  H     7    31       P1  7957  0.28
      L1  H     7    43       P1  7948  0.94
      L1  H    11    37       P1  7948  1.00

> <Gold.Chemscore.Hbond.Weighted>
-9.0640

> <Gold.Chemscore.Metal.Weighted>
-0.0000

> <Gold.Chemscore.Lipo.Weighted>
-9.0829

> <Gold.Chemscore.Internal_Hbond.Weighted>
0.0000

> <Gold.Chemscore.DEClash.Weighted>
0.0542

> <Gold.Chemscore.DEInternal.Weighted>
2.9521

> <Gold.Chemscore.Rot.Weighted>
5.9972

> <Gold.Chemscore.Internal.Correction.Weighted>
   9.000000E+99

> <Gold.Protein.RotatedTorsions>
[ 6907 6896 6895 6894 ] final -164.10 input  -60.11 | X-H torsion
[ 7974 7965 7964 7962 ] final   99.00 input  175.53 | X-H torsion
[ 8008 7997 7996 7995 ] final  -48.11 input   59.86 | X-H torsion
[ 10167 10162 10161 10158 ] final -124.47 input  -65.29 | X-H torsion
[ 10718 10713 10712 10709 ] final   -5.42 input   66.30 | X-H torsion
[ 10763 10752 10751 10750 ] final   52.15 input  -60.55 | X-H torsion
[ 11005 11000 10999 10996 ] final -167.70 input  -57.11 | X-H torsion

> <Gold.Protein.ActiveResidues>
 VAL166  LYS551  ARG553  GLY616  TRP617  ASP618  TYR619  PRO620  LYS621  CYS622 
 ASP623  PHE694  ASN695  SER759  ASP760  ASP761  ALA762  ILE779  LEU786  VAL792 
 PHE793  MET794  SER795  GLU796  ALA797  LYS798  CYS799  TRP800  GLU811  SER814 

> <Gold.Protein.RotatedAtoms>
  151.4064  133.3741  159.2738 H   0  0  0  0  0  0  0  0  0  0  0  0  # atno 6907 bound_to 6896
  150.9395  134.8806  159.7614 H   0  0  0  0  0  0  0  0  0  0  0  0  # atno 6908 bound_to 6896
  152.5065  134.4014  159.9470 H   0  0  0  0  0  0  0  0  0  0  0  0  # atno 6909 bound_to 6896
  145.4047  139.2342  143.3281 H   0  0  0  0  0  0  0  0  0  0  0  0  # atno 7974 bound_to 7965
  154.4024  140.1330  156.4285 H   0  0  0  0  0  0  0  0  0  0  0  0  # atno 8008 bound_to 7997
  155.7574  140.3487  155.5160 H   0  0  0  0  0  0  0  0  0  0  0  0  # atno 8009 bound_to 7997
  155.8891  140.1000  157.1421 H   0  0  0  0  0  0  0  0  0  0  0  0  # atno 8010 bound_to 7997
  139.9924  143.5627  152.2336 H   0  0  0  0  0  0  0  0  0  0  0  0  # atno 10167 bound_to 10162
  156.7468  130.5227  149.5812 H   0  0  0  0  0  0  0  0  0  0  0  0  # atno 10718 bound_to 10713
  152.9787  135.5822  154.4531 H   0  0  0  0  0  0  0  0  0  0  0  0  # atno 10763 bound_to 10752
  154.4118  135.2770  155.2034 H   0  0  0  0  0  0  0  0  0  0  0  0  # atno 10764 bound_to 10752
  154.3821  135.6144  153.5850 H   0  0  0  0  0  0  0  0  0  0  0  0  # atno 10765 bound_to 10752
  140.5503  134.5434  157.5121 H   0  0  0  0  0  0  0  0  0  0  0  0  # atno 11005 bound_to 11000
  146.2734  140.4750  142.8805 LP  0  0  0  0  0  0  0  0  0  0  0  0  # atno 17320 bound_to 7965
  144.8350  140.6767  143.6266 LP  0  0  0  0  0  0  0  0  0  0  0  0  # atno 17321 bound_to 7965
  139.6330  144.7646  151.2496 LP  0  0  0  0  0  0  0  0  0  0  0  0  # atno 17342 bound_to 10162
  140.7450  143.6446  150.8304 LP  0  0  0  0  0  0  0  0  0  0  0  0  # atno 17343 bound_to 10162
  156.1428  130.6256  151.0490 LP  0  0  0  0  0  0  0  0  0  0  0  0  # atno 17370 bound_to 10713
  157.6794  131.0842  150.7408 LP  0  0  0  0  0  0  0  0  0  0  0  0  # atno 17371 bound_to 10713
  139.9458  134.7704  156.0565 LP  0  0  0  0  0  0  0  0  0  0  0  0  # atno 17394 bound_to 11000
  141.1175  133.6623  156.3131 LP  0  0  0  0  0  0  0  0  0  0  0  0  # atno 17395 bound_to 11000

$$$$
