AV-unprocessed.smi:1550|AV-procd|sdf|6225|dock3
  -GOLD-   22720 6403D 1   1.00000     0.00000
 Structure written by MMmdl.
 43 44  0  0  0  0  0  0  0  0  1 V2000
  150.8454  138.3704  156.3831 C   0  0  0  0  0  0  0  0  0  0  0  0
  151.0478  138.4950  157.9005 C   0  0  1  0  0  0  0  0  0  0  0  0
  150.8311  139.8590  158.2514 O   0  0  0  0  0  0  0  0  0  0  0  0
  151.8996  140.7480  157.9448 C   0  0  0  0  0  0  0  0  0  0  0  0
  151.6115  142.1046  158.6006 C   0  0  2  0  0  0  0  0  0  0  0  0
  151.3031  143.1963  157.5572 C   0  0  0  0  0  0  0  0  0  0  0  0
  151.1069  144.5548  158.2404 C   0  0  0  0  0  0  0  0  0  0  0  0
  152.3140  144.8639  159.1323 C   0  0  0  0  0  0  0  0  0  0  0  0
  152.5864  143.6912  160.0874 C   0  0  0  0  0  0  0  0  0  0  0  0
  152.7671  142.4912  159.3420 O   0  0  0  0  0  0  0  0  0  0  0  0
  150.0774  137.5853  158.6713 C   0  0  0  0  0  0  0  0  0  0  0  0
  150.5259  136.7223  159.4257 O   0  0  0  0  0  0  0  0  0  0  0  0
  148.7682  137.8206  158.4548 N   0  0  0  0  0  0  0  0  0  0  0  0
  147.6480  137.1475  158.9699 C   0  0  0  0  0  0  0  0  0  0  0  0
  147.6579  136.3679  160.0825 C   0  0  0  0  0  0  0  0  0  0  0  0
  146.4655  135.6864  160.5575 C   0  0  0  0  0  0  0  0  0  0  0  0
  146.4701  134.8848  161.8499 C   0  0  0  0  0  0  0  0  0  0  0  0
  145.2405  134.4838  162.1762 F   0  0  0  0  0  0  0  0  0  0  0  0
  147.2358  133.8037  161.7085 F   0  0  0  0  0  0  0  0  0  0  0  0
  146.9562  135.6081  162.8587 F   0  0  0  0  0  0  0  0  0  0  0  0
  145.3420  135.8727  159.8401 C   0  0  0  0  0  0  0  0  0  0  0  0
  145.3292  136.6522  158.6813 N   0  0  0  0  0  0  0  0  0  0  0  0
  146.4082  137.3025  158.1911 C   0  0  0  0  0  0  0  0  0  0  0  0
  146.3165  137.9690  157.1607 O   0  0  0  0  0  0  0  0  0  0  0  0
  144.4510  136.7273  158.1881 H   0  0  0  0  0  0  0  0  0  0  0  0
  150.9782  137.3409  156.0488 H   0  0  0  0  0  0  0  0  0  0  0  0
  151.5669  138.9863  155.8459 H   0  0  0  0  0  0  0  0  0  0  0  0
  149.8487  138.6956  156.0820 H   0  0  0  0  0  0  0  0  0  0  0  0
  152.0793  138.2211  158.1315 H   0  0  0  0  0  0  0  0  0  0  0  0
  152.8623  140.3644  158.2849 H   0  0  0  0  0  0  0  0  0  0  0  0
  151.9588  140.8664  156.8618 H   0  0  0  0  0  0  0  0  0  0  0  0
  150.7594  141.9984  159.2746 H   0  0  0  0  0  0  0  0  0  0  0  0
  152.1228  143.2632  156.8405 H   0  0  0  0  0  0  0  0  0  0  0  0
  150.4102  142.9353  156.9882 H   0  0  0  0  0  0  0  0  0  0  0  0
  150.9713  145.3404  157.4967 H   0  0  0  0  0  0  0  0  0  0  0  0
  150.1994  144.5345  158.8451 H   0  0  0  0  0  0  0  0  0  0  0  0
  153.1936  145.0385  158.5114 H   0  0  0  0  0  0  0  0  0  0  0  0
  152.1416  145.7800  159.6977 H   0  0  0  0  0  0  0  0  0  0  0  0
  153.4879  143.8840  160.6691 H   0  0  0  0  0  0  0  0  0  0  0  0
  151.7684  143.5700  160.7993 H   0  0  0  0  0  0  0  0  0  0  0  0
  148.5489  138.6141  157.8697 H   0  0  0  0  0  0  0  0  0  0  0  0
  148.5663  136.2104  160.6410 H   0  0  0  0  0  0  0  0  0  0  0  0
  144.3805  135.4514  160.0946 H   0  0  0  0  0  0  0  0  0  0  0  0
  1  2  1  0  0  0  0
  1 26  1  0  0  0  0
  1 27  1  0  0  0  0
  1 28  1  0  0  0  0
  2  3  1  0  0  0  0
  2 11  1  0  0  0  0
  2 29  1  0  0  0  0
  3  4  1  0  0  0  0
  4  5  1  0  0  0  0
  4 30  1  0  0  0  0
  4 31  1  0  0  0  0
  5 10  1  0  0  0  0
  5  6  1  0  0  0  0
  5 32  1  0  0  0  0
  6  7  1  0  0  0  0
  6 33  1  0  0  0  0
  6 34  1  0  0  0  0
  7  8  1  0  0  0  0
  7 35  1  0  0  0  0
  7 36  1  0  0  0  0
  8  9  1  0  0  0  0
  8 37  1  0  0  0  0
  8 38  1  0  0  0  0
  9 10  1  0  0  0  0
  9 39  1  0  0  0  0
  9 40  1  0  0  0  0
 11 12  2  0  0  0  0
 11 13  1  0  0  0  0
 13 14  1  0  0  0  0
 13 41  1  0  0  0  0
 14 23  1  0  0  0  0
 14 15  2  0  0  0  0
 15 16  1  0  0  0  0
 15 42  1  0  0  0  0
 16 17  1  0  0  0  0
 16 21  2  0  0  0  0
 17 18  1  0  0  0  0
 17 19  1  0  0  0  0
 17 20  1  0  0  0  0
 21 22  1  0  0  0  0
 21 43  1  0  0  0  0
 22 25  1  0  0  0  0
 22 23  1  0  0  0  0
 23 24  2  0  0  0  0
M  END
> <s_m_source_file>
AV-unprocessed.smi

> <i_m_source_file_index>
1550

> <i_lp_mmshare_version>
43012

> <i_f3d_flags>
0

> <s_epik_input>
TzFbQ0gyXVtDSDJdW0NIMl1bQ0gyXVtDQEhdMVtDSDJdT1tDQEBIXShbQ0gzXSlDKD1PKVtOSF1jMltjSF1jKEMoRikoRilGKVtjSF1bbkhdYzI9Tw==

> <s_epik_cmdline>
J2VwaWtfcHl0aG9uJywgJy1waCcsICc3LjAnLCAnLXRuJywgJzgnLCAnLW1hJywgJzIwMCcsICctbWV0YWxfYmluZGluZycsICctaW1hZScsICc8aW5maWxlLm1hZT4nLCAnLW9tYWUnLCAnPG91dGZpbGUubWFlPic=

> <r_lp_tautomer_probability>
0.999

> <r_epik_Ionization_Penalty>
0.00891333

> <r_epik_Ionization_Penalty_Charging>
0.00891323

> <r_epik_Ionization_Penalty_Neutral>
1.00146e-07

> <r_epik_State_Penalty>
0.00674197

> <r_epik_Charging_Adjusted_Penalty>
0.0156552

> <i_epik_Tot_Q>
0

> <i_epik_Tot_abs_Q>
0

> <r_epik_Metal_State_Penalty>
0.321024

> <b_epik_Metal_Only>
0

> <s_lp_Force_Field>
OPLS_2005

> <r_lp_Energy>
24.7831

> <b_lp_Chiralities_Consistent>
1

> <s_lp_Variant>
AV-unprocessed.smi:1550-2

> <Gold.Version>
5.8.1

> <Gold.Id.Protein>
6NUR|6NUR_protein|mol2

> <Gold.PLP.Fitness>
42.5632

> <Gold.PLP.PLP>
-42.7457

> <Gold.PLP.part.hbond>
-1.0000

> <Gold.PLP.part.metal>
0.0000

> <Gold.PLP.part.buried>
-7.1326

> <Gold.PLP.part.nonpolar>
-36.0718

> <Gold.PLP.part.repulsive>
0.1908

> <Gold.PLP.ligand.clash>
1.0952

> <Gold.PLP.ligand.torsion>
1.0947

> <Gold.PLP.Chemscore.Hbond>
1.0000

> <Gold.PLP.Chemscore.CHOScore>
0.0000

> <Gold.PLP.Chemscore.Metal>
0.0000

> <Gold.Chemscore.Hbonds>
donor molecule, donor type, donor heavy atom, donor atom, acceptor molecule, acceptor atom, score
      P1  H  6896  6909       L1    12  1.00

> <Gold.PLP.Chemscore.Internal.Correction>
0.1020

> <Gold.Rescore>
     Score         DG    S(hbond)    S(metal)    S(lipo)     H(rot)  DE(clash)    DE(int)     intcor
     13.81     -16.14       1.00        0.00     103.24       1.86       0.06       2.27       ----

> <Gold.Chemscore.Fitness>
13.8114

> <Gold.Chemscore.DG>
-16.1438

> <Gold.Chemscore.ZeroCoef>
-5.4800

> <Gold.Chemscore.Hbond>
0.9997

> <Gold.Chemscore.Metal>
0.0000

> <Gold.Chemscore.Lipo>
103.2381

> <Gold.Chemscore.Internal_Hbond>
0.0000

> <Gold.Chemscore.DEClash>
0.0644

> <Gold.Chemscore.DEInternal>
2.2680

> <Gold.Chemscore.Rot>
1.8571

> <Gold.Chemscore.Internal.Correction>
   9.000000E+99

> <Gold.Chemscore.Hbonds>
donor molecule, donor type, donor heavy atom, donor atom, acceptor molecule, acceptor atom, score
      P1  H  6896  6909       L1    12  1.00

> <Gold.Chemscore.Hbond.Weighted>
-3.3391

> <Gold.Chemscore.Metal.Weighted>
-0.0000

> <Gold.Chemscore.Lipo.Weighted>
-12.0789

> <Gold.Chemscore.Internal_Hbond.Weighted>
0.0000

> <Gold.Chemscore.DEClash.Weighted>
0.0644

> <Gold.Chemscore.DEInternal.Weighted>
2.2680

> <Gold.Chemscore.Rot.Weighted>
4.7541

> <Gold.Chemscore.Internal.Correction.Weighted>
   9.000000E+99

> <Gold.Protein.RotatedTorsions>
[ 6907 6896 6895 6894 ] final   89.47 input  -60.11 | X-H torsion
[ 7974 7965 7964 7962 ] final   94.60 input  175.53 | X-H torsion
[ 8008 7997 7996 7995 ] final  -45.58 input   59.86 | X-H torsion
[ 10167 10162 10161 10158 ] final -119.47 input  -65.29 | X-H torsion
[ 10718 10713 10712 10709 ] final   87.41 input   66.30 | X-H torsion
[ 10763 10752 10751 10750 ] final  -69.26 input  -60.55 | X-H torsion
[ 11005 11000 10999 10996 ] final   49.93 input  -57.11 | X-H torsion

> <Gold.Protein.ActiveResidues>
 VAL166  LYS551  ARG553  GLY616  TRP617  ASP618  TYR619  PRO620  LYS621  CYS622 
 ASP623  PHE694  ASN695  SER759  ASP760  ASP761  ALA762  ILE779  LEU786  VAL792 
 PHE793  MET794  SER795  GLU796  ALA797  LYS798  CYS799  TRP800  GLU811  SER814 

> <Gold.Protein.RotatedAtoms>
  152.5436  134.1961  159.8692 H   0  0  0  0  0  0  0  0  0  0  0  0  # atno 6907 bound_to 6896
  151.1953  133.4636  159.2603 H   0  0  0  0  0  0  0  0  0  0  0  0  # atno 6908 bound_to 6896
  151.1043  135.0002  159.8519 H   0  0  0  0  0  0  0  0  0  0  0  0  # atno 6909 bound_to 6896
  145.4634  139.2285  143.2975 H   0  0  0  0  0  0  0  0  0  0  0  0  # atno 7974 bound_to 7965
  154.4002  140.1393  156.3870 H   0  0  0  0  0  0  0  0  0  0  0  0  # atno 8008 bound_to 7997
  155.7950  140.3477  155.5350 H   0  0  0  0  0  0  0  0  0  0  0  0  # atno 8009 bound_to 7997
  155.8541  140.0946  157.1646 H   0  0  0  0  0  0  0  0  0  0  0  0  # atno 8010 bound_to 7997
  140.0463  143.5103  152.2104 H   0  0  0  0  0  0  0  0  0  0  0  0  # atno 10167 bound_to 10162
  157.6940  131.0254  150.3119 H   0  0  0  0  0  0  0  0  0  0  0  0  # atno 10718 bound_to 10713
  154.4009  135.6031  153.5896 H   0  0  0  0  0  0  0  0  0  0  0  0  # atno 10763 bound_to 10752
  152.9788  135.5906  154.4185 H   0  0  0  0  0  0  0  0  0  0  0  0  # atno 10764 bound_to 10752
  154.3984  135.2842  155.2090 H   0  0  0  0  0  0  0  0  0  0  0  0  # atno 10765 bound_to 10752
  140.1061  134.5017  155.8719 H   0  0  0  0  0  0  0  0  0  0  0  0  # atno 11005 bound_to 11000
  146.2438  140.5405  142.8922 LP  0  0  0  0  0  0  0  0  0  0  0  0  # atno 17320 bound_to 7965
  144.7989  140.6176  143.6491 LP  0  0  0  0  0  0  0  0  0  0  0  0  # atno 17321 bound_to 7965
  139.5981  144.7574  151.3237 LP  0  0  0  0  0  0  0  0  0  0  0  0  # atno 17342 bound_to 10162
  140.7237  143.7064  150.7804 LP  0  0  0  0  0  0  0  0  0  0  0  0  # atno 17343 bound_to 10162
  156.3619  130.3848  149.7244 LP  0  0  0  0  0  0  0  0  0  0  0  0  # atno 17370 bound_to 10713
  156.4687  130.7986  151.3005 LP  0  0  0  0  0  0  0  0  0  0  0  0  # atno 17371 bound_to 10713
  141.2118  133.6712  156.6613 LP  0  0  0  0  0  0  0  0  0  0  0  0  # atno 17394 bound_to 11000
  140.3154  134.8052  157.4210 LP  0  0  0  0  0  0  0  0  0  0  0  0  # atno 17395 bound_to 11000

$$$$
