AV-unprocessed.smi:2439|AV-procd|sdf|9614|dock8
  -GOLD-   2272013243D 1   1.00000     0.00000
 Structure written by MMmdl.
 40 42  0  0  0  0  0  0  0  0  1 V2000
  155.5118  140.7286  158.5986 N   0  0  0  0  0  0  0  0  0  0  0  0
  154.8291  141.3511  159.2952 C   0  0  0  0  0  0  0  0  0  0  0  0
  153.9686  142.1352  160.1726 C   0  0  0  0  0  0  0  0  0  0  0  0
  154.2839  142.2144  161.5454 C   0  0  0  0  0  0  0  0  0  0  0  0
  153.4570  142.9695  162.3970 C   0  0  0  0  0  0  0  0  0  0  0  0
  152.3431  143.6207  161.8372 C   0  0  0  0  0  0  0  0  0  0  0  0
  152.0313  143.5550  160.5263 N   0  0  0  0  0  0  0  0  0  0  0  0
  152.8203  142.8256  159.6990 C   0  0  0  0  0  0  0  0  0  0  0  0
  152.4717  142.7758  158.3361 N   0  0  0  0  0  0  0  0  0  0  0  0
  151.0904  142.9122  157.8883 C   0  0  0  0  0  0  0  0  0  0  0  0
  150.5800  141.6540  157.1671 C   0  0  1  0  0  0  0  0  0  0  0  0
  149.1327  141.8313  156.6731 C   0  0  0  0  0  0  0  0  0  0  0  0
  148.6685  140.6708  155.9240 N   0  0  0  0  0  0  0  0  0  0  0  0
  147.2956  140.8540  155.4559 C   0  0  0  0  0  0  0  0  0  0  0  0
  146.7691  139.6286  154.6922 C   0  0  0  0  0  0  0  0  0  0  0  0
  147.6941  139.2977  153.5123 C   0  0  0  0  0  0  0  0  0  0  0  0
  149.1441  139.1600  154.0017 C   0  0  0  0  0  0  0  0  0  0  0  0
  149.5764  140.4046  154.8042 C   0  0  2  0  0  0  0  0  0  0  0  0
  151.0304  140.2572  155.2974 C   0  0  0  0  0  0  0  0  0  0  0  0
  151.4119  141.4141  156.0349 O   0  0  0  0  0  0  0  0  0  0  0  0
  155.1483  141.7043  161.9463 H   0  0  0  0  0  0  0  0  0  0  0  0
  153.6720  143.0482  163.4524 H   0  0  0  0  0  0  0  0  0  0  0  0
  151.6852  144.2113  162.4577 H   0  0  0  0  0  0  0  0  0  0  0  0
  153.1549  142.4456  157.6694 H   0  0  0  0  0  0  0  0  0  0  0  0
  150.4533  143.1470  158.7415 H   0  0  0  0  0  0  0  0  0  0  0  0
  151.0278  143.7716  157.2206 H   0  0  0  0  0  0  0  0  0  0  0  0
  150.6251  140.7951  157.8391 H   0  0  0  0  0  0  0  0  0  0  0  0
  148.4769  142.0021  157.5275 H   0  0  0  0  0  0  0  0  0  0  0  0
  149.0694  142.7237  156.0482 H   0  0  0  0  0  0  0  0  0  0  0  0
  146.6420  141.0506  156.3066 H   0  0  0  0  0  0  0  0  0  0  0  0
  147.2379  141.7337  154.8130 H   0  0  0  0  0  0  0  0  0  0  0  0
  146.7116  138.7736  155.3673 H   0  0  0  0  0  0  0  0  0  0  0  0
  145.7556  139.8137  154.3355 H   0  0  0  0  0  0  0  0  0  0  0  0
  147.3698  138.3799  153.0212 H   0  0  0  0  0  0  0  0  0  0  0  0
  147.6338  140.0912  152.7665 H   0  0  0  0  0  0  0  0  0  0  0  0
  149.2335  138.2698  154.6260 H   0  0  0  0  0  0  0  0  0  0  0  0
  149.8080  139.0102  153.1496 H   0  0  0  0  0  0  0  0  0  0  0  0
  149.5482  141.2605  154.1274 H   0  0  0  0  0  0  0  0  0  0  0  0
  151.1437  139.3697  155.9221 H   0  0  0  0  0  0  0  0  0  0  0  0
  151.7096  140.1417  154.4523 H   0  0  0  0  0  0  0  0  0  0  0  0
  1  2  3  0  0  0  0
  2  3  1  0  0  0  0
  3  8  1  0  0  0  0
  3  4  2  0  0  0  0
  4  5  1  0  0  0  0
  4 21  1  0  0  0  0
  5  6  2  0  0  0  0
  5 22  1  0  0  0  0
  6  7  1  0  0  0  0
  6 23  1  0  0  0  0
  7  8  2  0  0  0  0
  8  9  1  0  0  0  0
  9 10  1  0  0  0  0
  9 24  1  0  0  0  0
 10 11  1  0  0  0  0
 10 25  1  0  0  0  0
 10 26  1  0  0  0  0
 11 20  1  0  0  0  0
 11 12  1  0  0  0  0
 11 27  1  0  0  0  0
 12 13  1  0  0  0  0
 12 28  1  0  0  0  0
 12 29  1  0  0  0  0
 13 18  1  0  0  0  0
 13 14  1  0  0  0  0
 14 15  1  0  0  0  0
 14 30  1  0  0  0  0
 14 31  1  0  0  0  0
 15 16  1  0  0  0  0
 15 32  1  0  0  0  0
 15 33  1  0  0  0  0
 16 17  1  0  0  0  0
 16 34  1  0  0  0  0
 16 35  1  0  0  0  0
 17 18  1  0  0  0  0
 17 36  1  0  0  0  0
 17 37  1  0  0  0  0
 18 19  1  0  0  0  0
 18 38  1  0  0  0  0
 19 20  1  0  0  0  0
 19 39  1  0  0  0  0
 19 40  1  0  0  0  0
M  END
> <s_m_source_file>
AV-unprocessed.smi

> <i_m_source_file_index>
2439

> <i_lp_mmshare_version>
43012

> <i_f3d_flags>
0

> <s_epik_input>
TiNDYzFbY0hdW2NIXVtjSF1uYzFbTkhdW0NIMl1bQ0BIXShbQ0gyXTIpT1tDSDJdW0NAQEhdKE4yMylbQ0gyXVtDSDJdW0NIMl1bQ0gyXTM=

> <s_epik_cmdline>
J2VwaWtfcHl0aG9uJywgJy1waCcsICc3LjAnLCAnLXRuJywgJzgnLCAnLW1hJywgJzIwMCcsICctbWV0YWxfYmluZGluZycsICctaW1hZScsICc8aW5maWxlLm1hZT4nLCAnLW9tYWUnLCAnPG91dGZpbGUubWFlPic=

> <r_epik_Ionization_Penalty>
1.22355

> <r_epik_Ionization_Penalty_Charging>
0

> <r_epik_Ionization_Penalty_Neutral>
1.22355

> <r_epik_State_Penalty>
1.29103

> <r_epik_Charging_Adjusted_Penalty>
1.29103

> <i_epik_Tot_Q>
0

> <i_epik_Tot_abs_Q>
0

> <r_epik_Metal_State_Penalty>
1.29103

> <b_epik_Metal_Only>
0

> <s_lp_Force_Field>
OPLS_2005

> <r_lp_Energy>
37.4095

> <b_lp_Chiralities_Consistent>
1

> <s_lp_Variant>
AV-unprocessed.smi:2439-12

> <Gold.Version>
5.8.1

> <Gold.Id.Protein>
6NUR|6NUR_protein|mol2

> <Gold.PLP.Fitness>
41.9517

> <Gold.PLP.PLP>
-39.2932

> <Gold.PLP.part.hbond>
-1.0000

> <Gold.PLP.part.metal>
0.0000

> <Gold.PLP.part.buried>
0.5137

> <Gold.PLP.part.nonpolar>
-37.7955

> <Gold.PLP.part.repulsive>
0.2287

> <Gold.PLP.ligand.clash>
0.0000

> <Gold.PLP.ligand.torsion>
0.1714

> <Gold.PLP.Chemscore.Hbond>
1.0000

> <Gold.PLP.Chemscore.CHOScore>
0.0000

> <Gold.PLP.Chemscore.Metal>
0.0000

> <Gold.Chemscore.Hbonds>
donor molecule, donor type, donor heavy atom, donor atom, acceptor molecule, acceptor atom, score
      P1  H  7997  8009       L1     1  0.32

> <Gold.PLP.Chemscore.Internal.Correction>
0.0012

> <Gold.Rescore>
     Score         DG    S(hbond)    S(metal)    S(lipo)     H(rot)  DE(clash)    DE(int)     intcor
     15.85     -17.85       0.91        0.00     107.00       1.25       1.98       0.02       ----

> <Gold.Chemscore.Fitness>
15.8498

> <Gold.Chemscore.DG>
-17.8493

> <Gold.Chemscore.ZeroCoef>
-5.4800

> <Gold.Chemscore.Hbond>
0.9122

> <Gold.Chemscore.Metal>
0.0000

> <Gold.Chemscore.Lipo>
106.9967

> <Gold.Chemscore.Internal_Hbond>
0.0000

> <Gold.Chemscore.DEClash>
1.9797

> <Gold.Chemscore.DEInternal>
0.0199

> <Gold.Chemscore.Rot>
1.2485

> <Gold.Chemscore.Internal.Correction>
   9.000000E+99

> <Gold.Chemscore.Hbonds>
donor molecule, donor type, donor heavy atom, donor atom, acceptor molecule, acceptor atom, score
      P1  H  7997  8009       L1     1  0.32

> <Gold.Chemscore.Hbond.Weighted>
-3.0469

> <Gold.Chemscore.Metal.Weighted>
-0.0000

> <Gold.Chemscore.Lipo.Weighted>
-12.5186

> <Gold.Chemscore.Internal_Hbond.Weighted>
0.0000

> <Gold.Chemscore.DEClash.Weighted>
1.9797

> <Gold.Chemscore.DEInternal.Weighted>
0.0199

> <Gold.Chemscore.Rot.Weighted>
3.1961

> <Gold.Chemscore.Internal.Correction.Weighted>
   9.000000E+99

> <Gold.Protein.RotatedTorsions>
[ 6907 6896 6895 6894 ] final -108.66 input  -60.11 | X-H torsion
[ 7974 7965 7964 7962 ] final  158.05 input  175.53 | X-H torsion
[ 8008 7997 7996 7995 ] final  108.02 input   59.86 | X-H torsion
[ 10167 10162 10161 10158 ] final  173.51 input  -65.29 | X-H torsion
[ 10718 10713 10712 10709 ] final  149.90 input   66.30 | X-H torsion
[ 10763 10752 10751 10750 ] final  -24.41 input  -60.55 | X-H torsion
[ 11005 11000 10999 10996 ] final  108.03 input  -57.11 | X-H torsion

> <Gold.Protein.ActiveResidues>
 VAL166  LYS551  ARG553  GLY616  TRP617  ASP618  TYR619  PRO620  LYS621  CYS622 
 ASP623  PHE694  ASN695  SER759  ASP760  ASP761  ALA762  ILE779  LEU786  VAL792 
 PHE793  MET794  SER795  GLU796  ALA797  LYS798  CYS799  TRP800  GLU811  SER814 

> <Gold.Protein.RotatedAtoms>
  150.7515  133.9644  159.3525 H   0  0  0  0  0  0  0  0  0  0  0  0  # atno 6907 bound_to 6896
  151.7572  135.0816  160.0349 H   0  0  0  0  0  0  0  0  0  0  0  0  # atno 6908 bound_to 6896
  152.3427  133.6049  159.5924 H   0  0  0  0  0  0  0  0  0  0  0  0  # atno 6909 bound_to 6896
  144.7868  139.7425  143.6237 H   0  0  0  0  0  0  0  0  0  0  0  0  # atno 7974 bound_to 7965
  156.1870  140.3084  155.9257 H   0  0  0  0  0  0  0  0  0  0  0  0  # atno 8008 bound_to 7997
  155.3259  140.0458  157.3058 H   0  0  0  0  0  0  0  0  0  0  0  0  # atno 8009 bound_to 7997
  154.5407  140.2260  155.8655 H   0  0  0  0  0  0  0  0  0  0  0  0  # atno 8010 bound_to 7997
  139.5111  144.3252  152.0164 H   0  0  0  0  0  0  0  0  0  0  0  0  # atno 10167 bound_to 10162
  157.2902  131.0852  151.1467 H   0  0  0  0  0  0  0  0  0  0  0  0  # atno 10718 bound_to 10713
  153.6833  135.6965  153.5111 H   0  0  0  0  0  0  0  0  0  0  0  0  # atno 10763 bound_to 10752
  153.2468  135.4288  155.0755 H   0  0  0  0  0  0  0  0  0  0  0  0  # atno 10764 bound_to 10752
  154.8394  135.3521  154.6376 H   0  0  0  0  0  0  0  0  0  0  0  0  # atno 10765 bound_to 10752
  139.8837  134.9418  156.5910 H   0  0  0  0  0  0  0  0  0  0  0  0  # atno 11005 bound_to 11000
  146.2103  139.5455  142.9685 LP  0  0  0  0  0  0  0  0  0  0  0  0  # atno 17320 bound_to 7965
  145.5901  141.0371  143.2075 LP  0  0  0  0  0  0  0  0  0  0  0  0  # atno 17321 bound_to 7965
  140.2693  144.3981  150.6157 LP  0  0  0  0  0  0  0  0  0  0  0  0  # atno 17342 bound_to 10162
  140.6100  143.2169  151.6905 LP  0  0  0  0  0  0  0  0  0  0  0  0  # atno 17343 bound_to 10162
  157.2866  130.6776  149.6093 LP  0  0  0  0  0  0  0  0  0  0  0  0  # atno 17370 bound_to 10713
  155.9667  130.4433  150.5417 LP  0  0  0  0  0  0  0  0  0  0  0  0  # atno 17371 bound_to 10713
  140.7955  133.8547  155.8682 LP  0  0  0  0  0  0  0  0  0  0  0  0  # atno 17394 bound_to 11000
  140.9639  134.1620  157.4632 LP  0  0  0  0  0  0  0  0  0  0  0  0  # atno 17395 bound_to 11000

$$$$
