#       Name:                AV-unprocessed.smi:2417
#       Creating user name   scv26
#       Creation time:       Fri Mar 27 13:18:08 2020


#       File generated by GOLD software.
#

@<TRIPOS>MOLECULE
AV-unprocessed.smi:2417
    45    46     1
SMALL
NO_CHARGES


@<TRIPOS>ATOM
      1 ****        -2.5429   5.5051   0.3716 C.3            1 S1                 0.0000
      2 ****        -1.9778   4.0984   0.2827 C.2            1 S1                 0.0000
      3 ****        -1.6637   3.6543  -1.0051 N.2            1 S1                 0.0000
      4 ****        -1.1783   2.4685  -1.1779 C.2            1 S1                 0.0000
      5 ****        -0.9537   1.5988  -0.0982 N.am           1 S1                 0.0000
      6 ****        -0.3967   0.2771  -0.4306 C.3            1 S1                 0.0000
      7 ****         1.1301   0.2107  -0.2011 C.3            1 S1                 0.0000
      8 ****         1.8212   0.7637  -1.3034 O.3            1 S1                 0.0000
      9 ****         1.6455  -1.2237   0.0058 C.3            1 S1                 0.0000
     10 ****         1.0783  -2.0902  -0.9696 O.3            1 S1                 0.0000
     11 ****         1.4050  -3.4282  -0.9250 C.ar           1 S1                 0.0000
     12 ****         0.8236  -4.2604  -1.9041 C.ar           1 S1                 0.0000
     13 ****         1.1006  -5.6407  -1.9343 C.ar           1 S1                 0.0000
     14 ****         1.9666  -6.2049  -0.9797 C.ar           1 S1                 0.0000
     15 ****         2.2345  -7.5319  -1.0069 F              1 S1                 0.0000
     16 ****         2.5539  -5.3867   0.0031 C.ar           1 S1                 0.0000
     17 ****         2.2768  -4.0058   0.0330 C.ar           1 S1                 0.0000
     18 ****        -1.2249   1.9549   1.1907 C.2            1 S1                 0.0000
     19 ****        -1.0110   1.1883   2.1318 O.2            1 S1                 0.0000
     20 ****        -1.7801   3.3061   1.3716 C.2            1 S1                 0.0000
     21 ****        -2.1017   3.7363   2.7974 C.3            1 S1                 0.0000
     22 ****        -3.5413   5.4897   0.8096 H              1 S1                 0.0000
     23 ****        -2.6180   5.9661  -0.6140 H              1 S1                 0.0000
     24 ****        -1.9007   6.1364   0.9862 H              1 S1                 0.0000
     25 ****        -0.9126   2.0763  -2.1611 H              1 S1                 0.0000
     26 ****        -0.8873  -0.4692   0.1972 H              1 S1                 0.0000
     27 ****        -0.6425  -0.0282  -1.4500 H              1 S1                 0.0000
     28 ****         1.4076   0.7916   0.6793 H              1 S1                 0.0000
     29 ****         1.5835   1.6750  -1.3819 H              1 S1                 0.0000
     30 ****         2.7361  -1.2462  -0.0327 H              1 S1                 0.0000
     31 ****         1.3422  -1.5616   0.9982 H              1 S1                 0.0000
     32 ****         0.1575  -3.8352  -2.6406 H              1 S1                 0.0000
     33 ****         0.6483  -6.2660  -2.6899 H              1 S1                 0.0000
     34 ****         3.2191  -5.8185   0.7362 H              1 S1                 0.0000
     35 ****         2.7465  -3.4115   0.8017 H              1 S1                 0.0000
     36 ****        -1.2010   3.7061   3.4113 H              1 S1                 0.0000
     37 ****        -2.8350   3.0601   3.2380 H              1 S1                 0.0000
     38 ****        -2.5072   4.7447   2.8609 H              1 S1                 0.0000
     39 ****        -1.8143   4.2531  -1.7917 LP             1 S1                 0.0000
     40 ****         1.5677   0.2763  -2.1389 LP             1 S1                 0.0000
     41 ****         2.8072   0.6841  -1.1572 LP             1 S1                 0.0000
     42 ****         1.3560  -1.7475  -1.8671 LP             1 S1                 0.0000
     43 ****         0.0843  -2.0252  -0.8810 LP             1 S1                 0.0000
     44 ****        -0.6295   0.2801   1.9601 LP             1 S1                 0.0000
     45 ****        -1.2190   1.4746   3.0671 LP             1 S1                 0.0000
@<TRIPOS>BOND
    1    1    2 1     
    2    1   22 1     
    3    1   23 1     
    4    1   24 1     
    5    2   20 2     
    6    2    3 1     
    7    3    4 2     
    8    4    5 1     
    9    4   25 1     
   10    5    6 1     
   11    5   18 am    
   12    6    7 1     
   13    6   26 1     
   14    6   27 1     
   15    7    8 1     
   16    7    9 1     
   17    7   28 1     
   18    8   29 1     
   19    9   10 1     
   20    9   30 1     
   21    9   31 1     
   22   10   11 1     
   23   11   17 ar    
   24   11   12 ar    
   25   12   13 ar    
   26   12   32 1     
   27   13   14 ar    
   28   13   33 1     
   29   14   15 1     
   30   14   16 ar    
   31   16   17 ar    
   32   16   34 1     
   33   17   35 1     
   34   18   19 2     
   35   18   20 1     
   36   20   21 1     
   37   21   36 1     
   38   21   37 1     
   39   21   38 1     
   40    3   39 1     
   41    8   40 1     
   42    8   41 1     
   43   10   42 1     
   44   10   43 1     
   45   19   44 1     
   46   19   45 1     
@<TRIPOS>SUBSTRUCTURE
      1 S1             1
@<TRIPOS>SET
LONE_PAIRS      STATIC     ATOMS    <user>   **** ""
7 39 40 41 42 43 44 45
DONOR_HYDROGENS      STATIC     ATOMS    <user>   **** ""
1 29
ATOM$BLUE        STATIC     ATOMS    COLORGROUP SYSTEM
7 39 40 41 42 43 44 45
ATOM$RED        STATIC     ATOMS    COLORGROUP SYSTEM
1 29
