AV-unprocessed.smi:3138|AV-procd|sdf|11954|dock9
  -GOLD-   2272017353D 1   1.00000     0.00000
 Structure written by MMmdl.
 38 39  0  0  0  0  0  0  0  0  2 V2000
  151.2537  141.5442  155.4344 O   0  0  0  0  0  0  0  0  0  0  0  0
  150.2504  141.6255  156.1458 C   0  0  0  0  0  0  0  0  0  0  0  0
  150.4046  142.1467  157.5828 C   0  0  0  0  0  0  0  0  0  0  0  0
  149.8681  143.5133  157.7487 N   0  3  0  0  0  0  0  0  0  0  0  0
  150.6598  144.3678  158.6555 C   0  0  0  0  0  0  0  0  0  0  0  0
  152.1591  144.0283  158.5842 C   0  0  0  0  0  0  0  0  0  0  0  0
  152.6374  143.3171  159.7580 N   0  0  0  0  0  0  0  0  0  0  0  0
  152.4345  143.6265  161.0869 C   0  0  0  0  0  0  0  0  0  0  0  0
  153.0515  142.6602  161.8286 C   0  0  0  0  0  0  0  0  0  0  0  0
  153.6008  141.7830  160.8525 C   0  0  0  0  0  0  0  0  0  0  0  0
  153.3462  142.1760  159.6147 N   0  0  0  0  0  0  0  0  0  0  0  0
  149.0194  141.2686  155.7048 N   0  0  0  0  0  0  0  0  0  0  0  0
  148.7010  140.8015  154.3480 C   0  0  0  0  0  0  0  0  0  0  0  0
  147.8854  141.8905  153.6278 C   0  0  0  0  0  0  0  0  0  0  0  0
  146.6188  142.2476  154.4287 C   0  0  0  0  0  0  0  0  0  0  0  0
  146.9436  142.5486  155.9044 C   0  0  0  0  0  0  0  0  0  0  0  0
  147.8071  141.4310  156.5184 C   0  0  0  0  0  0  0  0  0  0  0  0
  149.8827  141.4765  158.2673 H   0  0  0  0  0  0  0  0  0  0  0  0
  151.4616  142.1527  157.8531 H   0  0  0  0  0  0  0  0  0  0  0  0
  149.8390  143.9530  156.8395 H   0  0  0  0  0  0  0  0  0  0  0  0
  150.5086  145.4121  158.3800 H   0  0  0  0  0  0  0  0  0  0  0  0
  150.2923  144.2557  159.6764 H   0  0  0  0  0  0  0  0  0  0  0  0
  152.3661  143.4239  157.7001 H   0  0  0  0  0  0  0  0  0  0  0  0
  152.7436  144.9434  158.4812 H   0  0  0  0  0  0  0  0  0  0  0  0
  151.8754  144.4987  161.3925 H   0  0  0  0  0  0  0  0  0  0  0  0
  153.0982  142.5869  162.9052 H   0  0  0  0  0  0  0  0  0  0  0  0
  154.1697  140.8775  161.0053 H   0  0  0  0  0  0  0  0  0  0  0  0
  149.5758  140.5407  153.7546 H   0  0  0  0  0  0  0  0  0  0  0  0
  148.1154  139.8834  154.4156 H   0  0  0  0  0  0  0  0  0  0  0  0
  148.5010  142.7818  153.4988 H   0  0  0  0  0  0  0  0  0  0  0  0
  147.6108  141.5557  152.6272 H   0  0  0  0  0  0  0  0  0  0  0  0
  146.1105  143.0978  153.9729 H   0  0  0  0  0  0  0  0  0  0  0  0
  145.9207  141.4108  154.3820 H   0  0  0  0  0  0  0  0  0  0  0  0
  147.4749  143.4986  155.9750 H   0  0  0  0  0  0  0  0  0  0  0  0
  146.0208  142.6669  156.4731 H   0  0  0  0  0  0  0  0  0  0  0  0
  147.2518  140.4920  156.5318 H   0  0  0  0  0  0  0  0  0  0  0  0
  148.0230  141.6616  157.5626 H   0  0  0  0  0  0  0  0  0  0  0  0
  148.9243  143.4461  158.1021 H   0  0  0  0  0  0  0  0  0  0  0  0
  1  2  2  0  0  0  0
  2  3  1  0  0  0  0
  2 12  1  0  0  0  0
  3  4  1  0  0  0  0
  3 18  1  0  0  0  0
  3 19  1  0  0  0  0
  4  5  1  0  0  0  0
  4 20  1  0  0  0  0
  4 38  1  0  0  0  0
  5  6  1  0  0  0  0
  5 21  1  0  0  0  0
  5 22  1  0  0  0  0
  6  7  1  0  0  0  0
  6 23  1  0  0  0  0
  6 24  1  0  0  0  0
  7 11  1  0  0  0  0
  7  8  1  0  0  0  0
  8  9  2  0  0  0  0
  8 25  1  0  0  0  0
  9 10  1  0  0  0  0
  9 26  1  0  0  0  0
 10 11  2  0  0  0  0
 10 27  1  0  0  0  0
 12 17  1  0  0  0  0
 12 13  1  0  0  0  0
 13 14  1  0  0  0  0
 13 28  1  0  0  0  0
 13 29  1  0  0  0  0
 14 15  1  0  0  0  0
 14 30  1  0  0  0  0
 14 31  1  0  0  0  0
 15 16  1  0  0  0  0
 15 32  1  0  0  0  0
 15 33  1  0  0  0  0
 16 17  1  0  0  0  0
 16 34  1  0  0  0  0
 16 35  1  0  0  0  0
 17 36  1  0  0  0  0
 17 37  1  0  0  0  0
M  CHG  1   4   1
M  END
> <s_m_source_file>
AV-unprocessed.smi

> <i_m_source_file_index>
3138

> <i_lp_mmshare_version>
43012

> <i_f3d_flags>
0

> <s_epik_input>
W0NIMl0xW0NIMl1bQ0gyXVtDSDJdW0NIMl1OMUMoPU8pW0NIMl1bTkhdW0NIMl1bQ0gyXW4yW2NIXVtjSF1bY0hdbjI=

> <s_epik_cmdline>
J2VwaWtfcHl0aG9uJywgJy1waCcsICc3LjAnLCAnLXRuJywgJzgnLCAnLW1hJywgJzIwMCcsICctbWV0YWxfYmluZGluZycsICctaW1hZScsICc8aW5maWxlLm1hZT4nLCAnLW9tYWUnLCAnPG91dGZpbGUubWFlPic=

> <r_lp_tautomer_probability>
1

> <r_epik_Ionization_Penalty>
0.202061

> <r_epik_Ionization_Penalty_Charging>
0.202058

> <r_epik_Ionization_Penalty_Neutral>
2.33614e-06

> <r_epik_State_Penalty>
0.191938

> <r_epik_Charging_Adjusted_Penalty>
0.393996

> <i_epik_Tot_Q>
1

> <i_epik_Tot_abs_Q>
1

> <r_epik_Metal_State_Penalty>
0.192416

> <b_epik_Metal_Only>
0

> <s_lp_Force_Field>
OPLS_2005

> <r_lp_Energy>
21.8037

> <b_lp_Chiralities_Consistent>
1

> <s_lp_Variant>
AV-unprocessed.smi:3138-1

> <Gold.Version>
5.8.1

> <Gold.Id.Protein>
6NUR|6NUR_protein|mol2

> <Gold.PLP.Fitness>
44.8337

> <Gold.PLP.PLP>
-39.7506

> <Gold.PLP.part.hbond>
-2.2526

> <Gold.PLP.part.metal>
0.0000

> <Gold.PLP.part.buried>
-4.1810

> <Gold.PLP.part.nonpolar>
-33.4742

> <Gold.PLP.part.repulsive>
0.0851

> <Gold.PLP.ligand.clash>
0.0000

> <Gold.PLP.ligand.torsion>
1.0057

> <Gold.PLP.Chemscore.Hbond>
2.3448

> <Gold.PLP.Chemscore.CHOScore>
0.0000

> <Gold.PLP.Chemscore.Metal>
0.0000

> <Gold.Chemscore.Hbonds>
donor molecule, donor type, donor heavy atom, donor atom, acceptor molecule, acceptor atom, score
      L1  H     4    20       P1  8028  1.86
      P1  H  7989  7998       L1     1  0.34

> <Gold.PLP.Chemscore.Internal.Correction>
0.0603

> <Gold.Rescore>
     Score         DG    S(hbond)    S(metal)    S(lipo)     H(rot)  DE(clash)    DE(int)     intcor
     14.78     -15.94       1.46        0.00      88.07       1.84       0.21       0.95       ----

> <Gold.Chemscore.Fitness>
14.7763

> <Gold.Chemscore.DG>
-15.9389

> <Gold.Chemscore.ZeroCoef>
-5.4800

> <Gold.Chemscore.Hbond>
1.4567

> <Gold.Chemscore.Metal>
0.0000

> <Gold.Chemscore.Lipo>
88.0717

> <Gold.Chemscore.Internal_Hbond>
0.0000

> <Gold.Chemscore.DEClash>
0.2098

> <Gold.Chemscore.DEInternal>
0.9528

> <Gold.Chemscore.Rot>
1.8402

> <Gold.Chemscore.Internal.Correction>
   9.000000E+99

> <Gold.Chemscore.Hbonds>
donor molecule, donor type, donor heavy atom, donor atom, acceptor molecule, acceptor atom, score
      L1  H     4    20       P1  8028  0.88
      P1  H  7989  7998       L1     1  0.32

> <Gold.Chemscore.Hbond.Weighted>
-4.8655

> <Gold.Chemscore.Metal.Weighted>
-0.0000

> <Gold.Chemscore.Lipo.Weighted>
-10.3044

> <Gold.Chemscore.Internal_Hbond.Weighted>
0.0000

> <Gold.Chemscore.DEClash.Weighted>
0.2098

> <Gold.Chemscore.DEInternal.Weighted>
0.9528

> <Gold.Chemscore.Rot.Weighted>
4.7110

> <Gold.Chemscore.Internal.Correction.Weighted>
   9.000000E+99

> <Gold.Protein.RotatedTorsions>
[ 6907 6896 6895 6894 ] final   78.54 input  -60.11 | X-H torsion
[ 7974 7965 7964 7962 ] final   82.82 input  175.53 | X-H torsion
[ 8008 7997 7996 7995 ] final  174.08 input   59.86 | X-H torsion
[ 10167 10162 10161 10158 ] final  -41.33 input  -65.29 | X-H torsion
[ 10718 10713 10712 10709 ] final  128.54 input   66.30 | X-H torsion
[ 10763 10752 10751 10750 ] final  176.29 input  -60.55 | X-H torsion
[ 11005 11000 10999 10996 ] final  143.17 input  -57.11 | X-H torsion

> <Gold.Protein.ActiveResidues>
 VAL166  LYS551  ARG553  GLY616  TRP617  ASP618  TYR619  PRO620  LYS621  CYS622 
 ASP623  PHE694  ASN695  SER759  ASP760  ASP761  ALA762  ILE779  LEU786  VAL792 
 PHE793  MET794  SER795  GLU796  ALA797  LYS798  CYS799  TRP800  GLU811  SER814 

> <Gold.Protein.RotatedAtoms>
  152.5163  134.3648  159.9297 H   0  0  0  0  0  0  0  0  0  0  0  0  # atno 6907 bound_to 6896
  151.3601  133.3886  159.2696 H   0  0  0  0  0  0  0  0  0  0  0  0  # atno 6908 bound_to 6896
  150.9659  134.9058  159.7817 H   0  0  0  0  0  0  0  0  0  0  0  0  # atno 6909 bound_to 6896
  145.6200  139.2384  143.2144 H   0  0  0  0  0  0  0  0  0  0  0  0  # atno 7974 bound_to 7965
  156.1010  140.1443  156.9467 H   0  0  0  0  0  0  0  0  0  0  0  0  # atno 8008 bound_to 7997
  154.4702  140.0912  156.7171 H   0  0  0  0  0  0  0  0  0  0  0  0  # atno 8009 bound_to 7997
  155.4759  140.3443  155.4335 H   0  0  0  0  0  0  0  0  0  0  0  0  # atno 8010 bound_to 7997
  140.7006  143.3101  151.3051 H   0  0  0  0  0  0  0  0  0  0  0  0  # atno 10167 bound_to 10162
  157.5235  131.1098  150.9117 H   0  0  0  0  0  0  0  0  0  0  0  0  # atno 10718 bound_to 10713
  154.4791  135.2774  155.1584 H   0  0  0  0  0  0  0  0  0  0  0  0  # atno 10763 bound_to 10752
  154.3302  135.6191  153.5551 H   0  0  0  0  0  0  0  0  0  0  0  0  # atno 10764 bound_to 10752
  152.9873  135.5763  154.5188 H   0  0  0  0  0  0  0  0  0  0  0  0  # atno 10765 bound_to 10752
  140.0533  134.9244  157.1056 H   0  0  0  0  0  0  0  0  0  0  0  0  # atno 11005 bound_to 11000
  146.1438  140.7020  142.9354 LP  0  0  0  0  0  0  0  0  0  0  0  0  # atno 17320 bound_to 7965
  144.7235  140.4450  143.6990 LP  0  0  0  0  0  0  0  0  0  0  0  0  # atno 17321 bound_to 7965
  139.6520  144.0345  152.2633 LP  0  0  0  0  0  0  0  0  0  0  0  0  # atno 17342 bound_to 10162
  139.9884  144.6379  150.7837 LP  0  0  0  0  0  0  0  0  0  0  0  0  # atno 17343 bound_to 10162
  156.9720  130.5494  149.5291 LP  0  0  0  0  0  0  0  0  0  0  0  0  # atno 17370 bound_to 10713
  156.0370  130.5457  150.8679 LP  0  0  0  0  0  0  0  0  0  0  0  0  # atno 17371 bound_to 10713
  140.3883  134.2212  155.7167 LP  0  0  0  0  0  0  0  0  0  0  0  0  # atno 17394 bound_to 11000
  141.1940  133.8137  157.0774 LP  0  0  0  0  0  0  0  0  0  0  0  0  # atno 17395 bound_to 11000

$$$$
