AV-unprocessed.smi:1523|AV-procd|sdf|6138|dock9
  -GOLD-   22720 6283D 1   1.00000     0.00000
 Structure written by MMmdl.
 37 38  0  0  0  0  0  0  0  0  1 V2000
  151.0499  144.8443  159.6786 C   0  0  0  0  0  0  0  0  0  0  0  0
  151.7243  143.7413  160.4197 C   0  0  0  0  0  0  0  0  0  0  0  0
  152.4182  142.7691  159.8224 N   0  0  0  0  0  0  0  0  0  0  0  0
  152.9548  141.8527  160.7327 C   0  0  0  0  0  0  0  0  0  0  0  0
  153.7714  140.6979  160.2377 C   0  0  0  0  0  0  0  0  0  0  0  0
  152.8948  139.5613  159.6868 C   0  0  0  0  0  0  0  0  0  0  0  0
  152.4729  139.8261  158.3163 N   0  0  0  0  0  0  0  0  0  0  0  0
  151.2519  140.2474  157.9449 C   0  0  0  0  0  0  0  0  0  0  0  0
  150.3544  140.4501  158.7638 O   0  0  0  0  0  0  0  0  0  0  0  0
  151.0939  140.4262  156.6082 N   0  0  0  0  0  0  0  0  0  0  0  0
  151.8735  139.7747  155.5401 C   0  0  0  0  0  0  0  0  0  0  0  0
  150.9817  138.7338  154.8392 C   0  0  0  0  0  0  0  0  0  0  0  0
  149.7009  139.3955  154.2921 C   0  0  0  0  0  0  0  0  0  0  0  0
  148.8243  138.4062  153.7962 O   0  0  0  0  0  0  0  0  0  0  0  0
  148.9887  140.2318  155.3741 C   0  0  0  0  0  0  0  0  0  0  0  0
  149.9753  141.2008  156.0527 C   0  0  0  0  0  0  0  0  0  0  0  0
  152.6530  142.1483  162.0388 C   0  0  0  0  0  0  0  0  0  0  0  0
  151.6811  143.5879  162.1719 S   0  0  0  0  0  0  0  0  0  0  0  0
  151.6024  145.0857  158.7701 H   0  0  0  0  0  0  0  0  0  0  0  0
  150.9961  145.7379  160.3007 H   0  0  0  0  0  0  0  0  0  0  0  0
  150.0377  144.5453  159.4059 H   0  0  0  0  0  0  0  0  0  0  0  0
  154.4591  141.0388  159.4626 H   0  0  0  0  0  0  0  0  0  0  0  0
  154.3980  140.3156  161.0447 H   0  0  0  0  0  0  0  0  0  0  0  0
  153.4539  138.6252  159.6898 H   0  0  0  0  0  0  0  0  0  0  0  0
  152.0243  139.4044  160.3263 H   0  0  0  0  0  0  0  0  0  0  0  0
  153.1602  139.6765  157.5924 H   0  0  0  0  0  0  0  0  0  0  0  0
  152.1942  140.5309  154.8220 H   0  0  0  0  0  0  0  0  0  0  0  0
  152.7931  139.3028  155.8861 H   0  0  0  0  0  0  0  0  0  0  0  0
  151.5326  138.2535  154.0299 H   0  0  0  0  0  0  0  0  0  0  0  0
  150.7218  137.9469  155.5493 H   0  0  0  0  0  0  0  0  0  0  0  0
  149.9689  140.0506  153.4621 H   0  0  0  0  0  0  0  0  0  0  0  0
  149.2502  137.9568  153.0821 H   0  0  0  0  0  0  0  0  0  0  0  0
  148.1592  140.7875  154.9356 H   0  0  0  0  0  0  0  0  0  0  0  0
  148.5564  139.5730  156.1292 H   0  0  0  0  0  0  0  0  0  0  0  0
  149.4535  141.7929  156.8059 H   0  0  0  0  0  0  0  0  0  0  0  0
  150.3569  141.9189  155.3257 H   0  0  0  0  0  0  0  0  0  0  0  0
  152.9439  141.6086  162.9280 H   0  0  0  0  0  0  0  0  0  0  0  0
  1  2  1  0  0  0  0
  1 19  1  0  0  0  0
  1 20  1  0  0  0  0
  1 21  1  0  0  0  0
  2 18  1  0  0  0  0
  2  3  2  0  0  0  0
  3  4  1  0  0  0  0
  4  5  1  0  0  0  0
  4 17  2  0  0  0  0
  5  6  1  0  0  0  0
  5 22  1  0  0  0  0
  5 23  1  0  0  0  0
  6  7  1  0  0  0  0
  6 24  1  0  0  0  0
  6 25  1  0  0  0  0
  7  8  1  0  0  0  0
  7 26  1  0  0  0  0
  8  9  2  0  0  0  0
  8 10  1  0  0  0  0
 10 16  1  0  0  0  0
 10 11  1  0  0  0  0
 11 12  1  0  0  0  0
 11 27  1  0  0  0  0
 11 28  1  0  0  0  0
 12 13  1  0  0  0  0
 12 29  1  0  0  0  0
 12 30  1  0  0  0  0
 13 14  1  0  0  0  0
 13 15  1  0  0  0  0
 13 31  1  0  0  0  0
 14 32  1  0  0  0  0
 15 16  1  0  0  0  0
 15 33  1  0  0  0  0
 15 34  1  0  0  0  0
 16 35  1  0  0  0  0
 16 36  1  0  0  0  0
 17 18  1  0  0  0  0
 17 37  1  0  0  0  0
M  END
> <s_m_source_file>
AV-unprocessed.smi

> <i_m_source_file_index>
1523

> <i_lp_mmshare_version>
43012

> <i_f3d_flags>
0

> <s_epik_input>
W0NIM11jMW5jKFtjSF1zMSlbQ0gyXVtDSDJdW05IXUMoPU8pTjJbQ0gyXVtDSDJdW0NIXShbT0hdKVtDSDJdW0NIMl0y

> <s_epik_cmdline>
J2VwaWtfcHl0aG9uJywgJy1waCcsICc3LjAnLCAnLXRuJywgJzgnLCAnLW1hJywgJzIwMCcsICctbWV0YWxfYmluZGluZycsICctaW1hZScsICc8aW5maWxlLm1hZT4nLCAnLW9tYWUnLCAnPG91dGZpbGUubWFlPic=

> <r_epik_Ionization_Penalty>
0.00204564

> <r_epik_Ionization_Penalty_Charging>
0

> <r_epik_Ionization_Penalty_Neutral>
0.00204564

> <r_epik_State_Penalty>
0.00135655

> <r_epik_Charging_Adjusted_Penalty>
0.00135655

> <i_epik_Tot_Q>
0

> <i_epik_Tot_abs_Q>
0

> <r_epik_Metal_State_Penalty>
-0

> <b_epik_Metal_Only>
0

> <s_lp_Force_Field>
OPLS_2005

> <r_lp_Energy>
24.1717

> <b_lp_Chiralities_Consistent>
1

> <s_lp_Variant>
AV-unprocessed.smi:1523-1

> <Gold.Version>
5.8.1

> <Gold.Id.Protein>
6NUR|6NUR_protein|mol2

> <Gold.PLP.Fitness>
47.4425

> <Gold.PLP.PLP>
-45.9591

> <Gold.PLP.part.hbond>
-2.0000

> <Gold.PLP.part.metal>
0.0000

> <Gold.PLP.part.buried>
-3.1021

> <Gold.PLP.part.nonpolar>
-40.6708

> <Gold.PLP.part.repulsive>
0.0908

> <Gold.PLP.ligand.clash>
0.0000

> <Gold.PLP.ligand.torsion>
0.6598

> <Gold.PLP.Chemscore.Hbond>
0.9280

> <Gold.PLP.Chemscore.CHOScore>
0.0000

> <Gold.PLP.Chemscore.Metal>
0.0000

> <Gold.Chemscore.Hbonds>
donor molecule, donor type, donor heavy atom, donor atom, acceptor molecule, acceptor atom, score
      L1  H    14    32       P1  7948  0.68

> <Gold.PLP.Chemscore.Internal.Correction>
0.0191

> <Gold.Rescore>
     Score         DG    S(hbond)    S(metal)    S(lipo)     H(rot)  DE(clash)    DE(int)     intcor
     16.17     -17.12       1.00        0.00     111.67       1.86       0.13       0.81       ----

> <Gold.Chemscore.Fitness>
16.1704

> <Gold.Chemscore.DG>
-17.1168

> <Gold.Chemscore.ZeroCoef>
-5.4800

> <Gold.Chemscore.Hbond>
0.9983

> <Gold.Chemscore.Metal>
0.0000

> <Gold.Chemscore.Lipo>
111.6742

> <Gold.Chemscore.Internal_Hbond>
0.0000

> <Gold.Chemscore.DEClash>
0.1321

> <Gold.Chemscore.DEInternal>
0.8143

> <Gold.Chemscore.Rot>
1.8607

> <Gold.Chemscore.Internal.Correction>
   9.000000E+99

> <Gold.Chemscore.Hbonds>
donor molecule, donor type, donor heavy atom, donor atom, acceptor molecule, acceptor atom, score
      L1  H    14    32       P1  7948  0.63

> <Gold.Chemscore.Hbond.Weighted>
-3.3342

> <Gold.Chemscore.Metal.Weighted>
-0.0000

> <Gold.Chemscore.Lipo.Weighted>
-13.0659

> <Gold.Chemscore.Internal_Hbond.Weighted>
0.0000

> <Gold.Chemscore.DEClash.Weighted>
0.1321

> <Gold.Chemscore.DEInternal.Weighted>
0.8143

> <Gold.Chemscore.Rot.Weighted>
4.7633

> <Gold.Chemscore.Internal.Correction.Weighted>
   9.000000E+99

> <Gold.Protein.RotatedTorsions>
[ 6907 6896 6895 6894 ] final  -87.67 input  -60.11 | X-H torsion
[ 7974 7965 7964 7962 ] final  118.13 input  175.53 | X-H torsion
[ 8008 7997 7996 7995 ] final  -80.19 input   59.86 | X-H torsion
[ 10167 10162 10161 10158 ] final   24.56 input  -65.29 | X-H torsion
[ 10718 10713 10712 10709 ] final  164.92 input   66.30 | X-H torsion
[ 10763 10752 10751 10750 ] final -112.13 input  -60.55 | X-H torsion
[ 11005 11000 10999 10996 ] final -170.67 input  -57.11 | X-H torsion

> <Gold.Protein.ActiveResidues>
 VAL166  LYS551  ARG553  GLY616  TRP617  ASP618  TYR619  PRO620  LYS621  CYS622 
 ASP623  PHE694  ASN695  SER759  ASP760  ASP761  ALA762  ILE779  LEU786  VAL792 
 PHE793  MET794  SER795  GLU796  ALA797  LYS798  CYS799  TRP800  GLU811  SER814 

> <Gold.Protein.RotatedAtoms>
  150.6867  134.2860  159.4646 H   0  0  0  0  0  0  0  0  0  0  0  0  # atno 6907 bound_to 6896
  152.0769  134.9494  160.0583 H   0  0  0  0  0  0  0  0  0  0  0  0  # atno 6908 bound_to 6896
  152.0862  133.4142  159.4560 H   0  0  0  0  0  0  0  0  0  0  0  0  # atno 6909 bound_to 6896
  145.1590  139.3166  143.4527 H   0  0  0  0  0  0  0  0  0  0  0  0  # atno 7974 bound_to 7965
  154.5858  140.0667  156.9170 H   0  0  0  0  0  0  0  0  0  0  0  0  # atno 8008 bound_to 7997
  155.2381  140.3342  155.4277 H   0  0  0  0  0  0  0  0  0  0  0  0  # atno 8009 bound_to 7997
  156.2222  140.1803  156.7434 H   0  0  0  0  0  0  0  0  0  0  0  0  # atno 8010 bound_to 7997
  140.5178  144.0053  150.6402 H   0  0  0  0  0  0  0  0  0  0  0  0  # atno 10167 bound_to 10162
  157.0875  131.0409  151.2550 H   0  0  0  0  0  0  0  0  0  0  0  0  # atno 10718 bound_to 10713
  154.8334  135.4502  154.1145 H   0  0  0  0  0  0  0  0  0  0  0  0  # atno 10763 bound_to 10752
  153.2398  135.6915  153.7802 H   0  0  0  0  0  0  0  0  0  0  0  0  # atno 10764 bound_to 10752
  153.7153  135.3350  155.3231 H   0  0  0  0  0  0  0  0  0  0  0  0  # atno 10765 bound_to 10752
  140.5169  134.5747  157.5036 H   0  0  0  0  0  0  0  0  0  0  0  0  # atno 11005 bound_to 11000
  146.3485  140.1693  142.8590 LP  0  0  0  0  0  0  0  0  0  0  0  0  # atno 17320 bound_to 7965
  145.0351  140.8902  143.5086 LP  0  0  0  0  0  0  0  0  0  0  0  0  # atno 17321 bound_to 7965
  140.3393  143.3029  152.0605 LP  0  0  0  0  0  0  0  0  0  0  0  0  # atno 17342 bound_to 10162
  139.4914  144.6454  151.6790 LP  0  0  0  0  0  0  0  0  0  0  0  0  # atno 17343 bound_to 10162
  157.4749  130.7730  149.7358 LP  0  0  0  0  0  0  0  0  0  0  0  0  # atno 17370 bound_to 10713
  155.9907  130.3943  150.3018 LP  0  0  0  0  0  0  0  0  0  0  0  0  # atno 17371 bound_to 10713
  139.9627  134.7424  156.0202 LP  0  0  0  0  0  0  0  0  0  0  0  0  # atno 17394 bound_to 11000
  141.1355  133.6576  156.3583 LP  0  0  0  0  0  0  0  0  0  0  0  0  # atno 17395 bound_to 11000

$$$$
