AV-unprocessed.smi:892|AV-procd|sdf|4065|dock2
  -GOLD-   22720 1553D 1   1.00000     0.00000
 Structure written by MMmdl.
 36 37  0  0  0  0  0  0  0  0  1 V2000
  150.0403  134.8317  154.9875 C   0  0  0  0  0  0  0  0  0  0  0  0
  150.4495  136.1841  154.6414 N   0  0  0  0  0  0  0  0  0  0  0  0
  151.4100  136.8685  155.2801 C   0  0  0  0  0  0  0  0  0  0  0  0
  152.0519  136.4104  156.2254 O   0  0  0  0  0  0  0  0  0  0  0  0
  151.6935  138.2851  154.7770 C   0  0  0  0  0  0  0  0  0  0  0  0
  151.4389  139.2880  155.8567 C   0  0  0  0  0  0  0  0  0  0  0  0
  150.2306  139.4409  156.3862 N   0  0  0  0  0  0  0  0  0  0  0  0
  150.4197  140.4517  157.3391 O   0  0  0  0  0  0  0  0  0  0  0  0
  151.7320  140.7841  157.2719 C   0  0  0  0  0  0  0  0  0  0  0  0
  152.2594  141.8546  158.1757 C   0  0  0  0  0  0  0  0  0  0  0  0
  152.0736  141.4698  159.6593 C   0  0  0  0  0  0  0  0  0  0  0  0
  152.9668  142.2788  160.6151 C   0  0  0  0  0  0  0  0  0  0  0  0
  152.3834  143.6216  161.0893 C   0  0  0  0  0  0  0  0  0  0  0  0
  151.6173  144.4487  160.0419 C   0  0  0  0  0  0  0  0  0  0  0  0
  152.2003  144.4164  158.6200 C   0  0  0  0  0  0  0  0  0  0  0  0
  151.6810  143.2299  157.7892 C   0  0  0  0  0  0  0  0  0  0  0  0
  152.4166  140.0877  156.3675 N   0  0  0  0  0  0  0  0  0  0  0  0
  149.2638  134.4920  154.3024 H   0  0  0  0  0  0  0  0  0  0  0  0
  149.6403  134.7961  156.0016 H   0  0  0  0  0  0  0  0  0  0  0  0
  150.8814  134.1404  154.9197 H   0  0  0  0  0  0  0  0  0  0  0  0
  149.9679  136.6316  153.8747 H   0  0  0  0  0  0  0  0  0  0  0  0
  152.7297  138.3553  154.4430 H   0  0  0  0  0  0  0  0  0  0  0  0
  151.0670  138.5092  153.9125 H   0  0  0  0  0  0  0  0  0  0  0  0
  153.3330  141.8979  157.9860 H   0  0  0  0  0  0  0  0  0  0  0  0
  151.0253  141.5207  159.9560 H   0  0  0  0  0  0  0  0  0  0  0  0
  152.3609  140.4230  159.7686 H   0  0  0  0  0  0  0  0  0  0  0  0
  153.1743  141.6756  161.4999 H   0  0  0  0  0  0  0  0  0  0  0  0
  153.9396  142.4462  160.1514 H   0  0  0  0  0  0  0  0  0  0  0  0
  151.7166  143.4435  161.9339 H   0  0  0  0  0  0  0  0  0  0  0  0
  153.2022  144.2223  161.4870 H   0  0  0  0  0  0  0  0  0  0  0  0
  150.5754  144.1274  160.0130 H   0  0  0  0  0  0  0  0  0  0  0  0
  151.5872  145.4820  160.3893 H   0  0  0  0  0  0  0  0  0  0  0  0
  151.8929  145.3313  158.1119 H   0  0  0  0  0  0  0  0  0  0  0  0
  153.2903  144.4395  158.6400 H   0  0  0  0  0  0  0  0  0  0  0  0
  151.9225  143.4183  156.7421 H   0  0  0  0  0  0  0  0  0  0  0  0
  150.5916  143.2030  157.8379 H   0  0  0  0  0  0  0  0  0  0  0  0
  1  2  1  0  0  0  0
  1 18  1  0  0  0  0
  1 19  1  0  0  0  0
  1 20  1  0  0  0  0
  2  3  1  0  0  0  0
  2 21  1  0  0  0  0
  3  4  2  0  0  0  0
  3  5  1  0  0  0  0
  5  6  1  0  0  0  0
  5 22  1  0  0  0  0
  5 23  1  0  0  0  0
  6 17  1  0  0  0  0
  6  7  2  0  0  0  0
  7  8  1  0  0  0  0
  8  9  1  0  0  0  0
  9 10  1  0  0  0  0
  9 17  2  0  0  0  0
 10 16  1  0  0  0  0
 10 11  1  0  0  0  0
 10 24  1  0  0  0  0
 11 12  1  0  0  0  0
 11 25  1  0  0  0  0
 11 26  1  0  0  0  0
 12 13  1  0  0  0  0
 12 27  1  0  0  0  0
 12 28  1  0  0  0  0
 13 14  1  0  0  0  0
 13 29  1  0  0  0  0
 13 30  1  0  0  0  0
 14 15  1  0  0  0  0
 14 31  1  0  0  0  0
 14 32  1  0  0  0  0
 15 16  1  0  0  0  0
 15 33  1  0  0  0  0
 15 34  1  0  0  0  0
 16 35  1  0  0  0  0
 16 36  1  0  0  0  0
M  END
> <s_m_source_file>
AV-unprocessed.smi

> <i_m_source_file_index>
892

> <i_lp_mmshare_version>
43012

> <i_f3d_flags>
0

> <s_epik_input>
W0NIM11bTkhdQyg9TylbQ0gyXWMxbm9jKG4xKVtDSF0yW0NIMl1bQ0gyXVtDSDJdW0NIMl1bQ0gyXVtDSDJdMg==

> <s_epik_cmdline>
J2VwaWtfcHl0aG9uJywgJy1waCcsICc3LjAnLCAnLXRuJywgJzgnLCAnLW1hJywgJzIwMCcsICctbWV0YWxfYmluZGluZycsICctaW1hZScsICc8aW5maWxlLm1hZT4nLCAnLW9tYWUnLCAnPG91dGZpbGUubWFlPic=

> <r_lp_tautomer_probability>
1

> <r_epik_Ionization_Penalty>
1.02916e-07

> <r_epik_Ionization_Penalty_Charging>
0

> <r_epik_Ionization_Penalty_Neutral>
1.02916e-07

> <r_epik_State_Penalty>
-0

> <r_epik_Charging_Adjusted_Penalty>
0

> <i_epik_Tot_Q>
0

> <i_epik_Tot_abs_Q>
0

> <r_epik_Metal_State_Penalty>
-0

> <b_epik_Metal_Only>
0

> <s_lp_Force_Field>
OPLS_2005

> <r_lp_Energy>
13.6586

> <b_lp_Chiralities_Consistent>
1

> <s_lp_Variant>
AV-unprocessed.smi:892-1

> <Gold.Version>
5.8.1

> <Gold.Id.Protein>
6NUR|6NUR_protein|mol2

> <Gold.PLP.Fitness>
44.0369

> <Gold.PLP.PLP>
-36.4358

> <Gold.PLP.part.hbond>
-4.0000

> <Gold.PLP.part.metal>
0.0000

> <Gold.PLP.part.buried>
-2.0854

> <Gold.PLP.part.nonpolar>
-29.3867

> <Gold.PLP.part.repulsive>
0.1017

> <Gold.PLP.ligand.clash>
0.0000

> <Gold.PLP.ligand.torsion>
0.0722

> <Gold.PLP.Chemscore.Hbond>
2.5555

> <Gold.PLP.Chemscore.CHOScore>
0.0000

> <Gold.PLP.Chemscore.Metal>
0.0000

> <Gold.Chemscore.Hbonds>
donor molecule, donor type, donor heavy atom, donor atom, acceptor molecule, acceptor atom, score
      L1  H     2    21       P1  7948  0.39
      P1  H  7997  8009       L1    17  1.00
      P1  H 10752 10763       L1     4  0.25

> <Gold.PLP.Chemscore.Internal.Correction>
0.0791

> <Gold.Rescore>
     Score         DG    S(hbond)    S(metal)    S(lipo)     H(rot)  DE(clash)    DE(int)     intcor
     15.89     -16.18       1.17        0.00      92.99       1.60       0.17       0.13       ----

> <Gold.Chemscore.Fitness>
15.8893

> <Gold.Chemscore.DG>
-16.1823

> <Gold.Chemscore.ZeroCoef>
-5.4800

> <Gold.Chemscore.Hbond>
1.1744

> <Gold.Chemscore.Metal>
0.0000

> <Gold.Chemscore.Lipo>
92.9892

> <Gold.Chemscore.Internal_Hbond>
0.0000

> <Gold.Chemscore.DEClash>
0.1659

> <Gold.Chemscore.DEInternal>
0.1271

> <Gold.Chemscore.Rot>
1.6016

> <Gold.Chemscore.Internal.Correction>
   9.000000E+99

> <Gold.Chemscore.Hbonds>
donor molecule, donor type, donor heavy atom, donor atom, acceptor molecule, acceptor atom, score
      L1  H     2    21       P1  7948  0.13
      P1  H  7997  8009       L1    17  0.94

> <Gold.Chemscore.Hbond.Weighted>
-3.9226

> <Gold.Chemscore.Metal.Weighted>
-0.0000

> <Gold.Chemscore.Lipo.Weighted>
-10.8797

> <Gold.Chemscore.Internal_Hbond.Weighted>
0.0000

> <Gold.Chemscore.DEClash.Weighted>
0.1659

> <Gold.Chemscore.DEInternal.Weighted>
0.1271

> <Gold.Chemscore.Rot.Weighted>
4.1000

> <Gold.Chemscore.Internal.Correction.Weighted>
   9.000000E+99

> <Gold.Protein.RotatedTorsions>
[ 6907 6896 6895 6894 ] final  -86.15 input  -60.11 | X-H torsion
[ 7974 7965 7964 7962 ] final  -84.79 input  175.53 | X-H torsion
[ 8008 7997 7996 7995 ] final -170.27 input   59.86 | X-H torsion
[ 10167 10162 10161 10158 ] final   43.70 input  -65.29 | X-H torsion
[ 10718 10713 10712 10709 ] final  151.30 input   66.30 | X-H torsion
[ 10763 10752 10751 10750 ] final   77.85 input  -60.55 | X-H torsion
[ 11005 11000 10999 10996 ] final   76.10 input  -57.11 | X-H torsion

> <Gold.Protein.ActiveResidues>
 VAL166  LYS551  ARG553  GLY616  TRP617  ASP618  TYR619  PRO620  LYS621  CYS622 
 ASP623  PHE694  ASN695  SER759  ASP760  ASP761  ALA762  ILE779  LEU786  VAL792 
 PHE793  MET794  SER795  GLU796  ALA797  LYS798  CYS799  TRP800  GLU811  SER814 

> <Gold.Protein.RotatedAtoms>
  150.6867  134.3094  159.4739 H   0  0  0  0  0  0  0  0  0  0  0  0  # atno 6907 bound_to 6896
  152.0982  134.9358  160.0579 H   0  0  0  0  0  0  0  0  0  0  0  0  # atno 6908 bound_to 6896
  152.0647  133.4044  159.4470 H   0  0  0  0  0  0  0  0  0  0  0  0  # atno 6909 bound_to 6896
  145.5019  140.9546  143.1755 H   0  0  0  0  0  0  0  0  0  0  0  0  # atno 7974 bound_to 7965
  155.9162  140.1066  157.1242 H   0  0  0  0  0  0  0  0  0  0  0  0  # atno 8008 bound_to 7997
  154.4047  140.1265  156.4685 H   0  0  0  0  0  0  0  0  0  0  0  0  # atno 8009 bound_to 7997
  155.7251  140.3469  155.5036 H   0  0  0  0  0  0  0  0  0  0  0  0  # atno 8010 bound_to 7997
  140.3418  144.2461  150.6155 H   0  0  0  0  0  0  0  0  0  0  0  0  # atno 10167 bound_to 10162
  157.2725  131.0819  151.1590 H   0  0  0  0  0  0  0  0  0  0  0  0  # atno 10718 bound_to 10713
  153.0829  135.4899  154.8540 H   0  0  0  0  0  0  0  0  0  0  0  0  # atno 10763 bound_to 10752
  154.7174  135.3032  154.9104 H   0  0  0  0  0  0  0  0  0  0  0  0  # atno 10764 bound_to 10752
  153.9779  135.6793  153.4802 H   0  0  0  0  0  0  0  0  0  0  0  0  # atno 10765 bound_to 10752
  139.9313  134.7573  156.1353 H   0  0  0  0  0  0  0  0  0  0  0  0  # atno 11005 bound_to 11000
  144.7775  139.6597  143.7168 LP  0  0  0  0  0  0  0  0  0  0  0  0  # atno 17320 bound_to 7965
  146.2221  139.5654  142.9612 LP  0  0  0  0  0  0  0  0  0  0  0  0  # atno 17321 bound_to 7965
  140.5302  143.2245  151.8251 LP  0  0  0  0  0  0  0  0  0  0  0  0  # atno 17342 bound_to 10162
  139.4839  144.4730  151.9402 LP  0  0  0  0  0  0  0  0  0  0  0  0  # atno 17343 bound_to 10162
  157.3056  130.6864  149.6187 LP  0  0  0  0  0  0  0  0  0  0  0  0  # atno 17370 bound_to 10713
  155.9663  130.4379  150.5194 LP  0  0  0  0  0  0  0  0  0  0  0  0  # atno 17371 bound_to 10713
  141.0903  133.6717  156.2527 LP  0  0  0  0  0  0  0  0  0  0  0  0  # atno 17394 bound_to 11000
  140.6194  134.5377  157.5545 LP  0  0  0  0  0  0  0  0  0  0  0  0  # atno 17395 bound_to 11000

$$$$
