AV-unprocessed.smi:2061|AV-procd|sdf|8384|dock8
  -GOLD-   2272011 63D 1   1.00000     0.00000
 Structure written by MMmdl.
 45 46  0  0  0  0  0  0  0  0  3 V2000
  151.1886  141.0629  155.6371 C   0  0  0  0  0  0  0  0  0  0  0  0
  151.4894  139.6049  155.5562 C   0  0  0  0  0  0  0  0  0  0  0  0
  151.4258  138.5923  156.4709 C   0  0  0  0  0  0  0  0  0  0  0  0
  151.8428  137.4551  155.7264 C   0  0  0  0  0  0  0  0  0  0  0  0
  151.9611  136.2036  156.1965 N   0  5  0  0  0  0  0  0  0  0  0  0
  150.9066  135.3581  156.1606 C   0  0  0  0  0  0  0  0  0  0  0  0
  150.3009  134.8992  157.1319 O   0  0  0  0  0  0  0  0  0  0  0  0
  150.5332  135.0163  154.9194 N   0  0  0  0  0  0  0  0  0  0  0  0
  149.4463  134.1036  154.5789 C   0  0  0  0  0  0  0  0  0  0  0  0
  148.0436  134.6901  154.8875 C   0  0  2  0  0  0  0  0  0  0  0  0
  147.3875  133.9180  156.0581 C   0  0  0  0  0  0  0  0  0  0  0  0
  147.2136  134.7112  153.6396 N   0  3  1  0  0  0  0  0  0  0  0  0
  147.0002  133.3968  152.9762 C   0  0  0  0  0  0  0  0  0  0  0  0
  146.2153  133.5622  151.6611 C   0  0  1  0  0  0  0  0  0  0  0  0
  145.8923  132.2109  151.0141 C   0  0  0  0  0  0  0  0  0  0  0  0
  144.9829  134.2294  151.9102 O   0  0  0  0  0  0  0  0  0  0  0  0
  145.1153  135.5079  152.5264 C   0  0  2  0  0  0  0  0  0  0  0  0
  145.6907  136.5683  151.5700 C   0  0  0  0  0  0  0  0  0  0  0  0
  145.8990  135.3768  153.8454 C   0  0  0  0  0  0  0  0  0  0  0  0
  152.1491  137.7546  154.4753 N   0  0  0  0  0  0  0  0  0  0  0  0
  151.9184  139.1302  154.3559 O   0  0  0  0  0  0  0  0  0  0  0  0
  151.6682  141.5080  156.5088 H   0  0  0  0  0  0  0  0  0  0  0  0
  150.1148  141.2301  155.7190 H   0  0  0  0  0  0  0  0  0  0  0  0
  151.5461  141.5885  154.7512 H   0  0  0  0  0  0  0  0  0  0  0  0
  151.1261  138.6535  157.5062 H   0  0  0  0  0  0  0  0  0  0  0  0
  151.0518  135.4192  154.1523 H   0  0  0  0  0  0  0  0  0  0  0  0
  149.5544  133.8254  153.5312 H   0  0  0  0  0  0  0  0  0  0  0  0
  149.5928  133.1854  155.1483 H   0  0  0  0  0  0  0  0  0  0  0  0
  148.1566  135.7227  155.2218 H   0  0  0  0  0  0  0  0  0  0  0  0
  148.0294  133.8985  156.9386 H   0  0  0  0  0  0  0  0  0  0  0  0
  147.1783  132.8830  155.7858 H   0  0  0  0  0  0  0  0  0  0  0  0
  146.4572  134.3833  156.3841 H   0  0  0  0  0  0  0  0  0  0  0  0
  147.9520  132.9291  152.7266 H   0  0  0  0  0  0  0  0  0  0  0  0
  146.4727  132.7260  153.6564 H   0  0  0  0  0  0  0  0  0  0  0  0
  146.8087  134.1400  150.9521 H   0  0  0  0  0  0  0  0  0  0  0  0
  146.8030  131.6590  150.7803 H   0  0  0  0  0  0  0  0  0  0  0  0
  145.3391  132.3466  150.0844 H   0  0  0  0  0  0  0  0  0  0  0  0
  145.2853  131.5912  151.6748 H   0  0  0  0  0  0  0  0  0  0  0  0
  144.1021  135.8262  152.7742 H   0  0  0  0  0  0  0  0  0  0  0  0
  145.6567  137.5577  152.0266 H   0  0  0  0  0  0  0  0  0  0  0  0
  145.1132  136.6131  150.6464 H   0  0  0  0  0  0  0  0  0  0  0  0
  146.7296  136.3711  151.3066 H   0  0  0  0  0  0  0  0  0  0  0  0
  145.3140  134.7895  154.5553 H   0  0  0  0  0  0  0  0  0  0  0  0
  146.0140  136.3644  154.2884 H   0  0  0  0  0  0  0  0  0  0  0  0
  147.7278  135.2725  152.9759 H   0  0  0  0  0  0  0  0  0  0  0  0
  1  2  1  0  0  0  0
  1 22  1  0  0  0  0
  1 23  1  0  0  0  0
  1 24  1  0  0  0  0
  2 21  1  0  0  0  0
  2  3  2  0  0  0  0
  3  4  1  0  0  0  0
  3 25  1  0  0  0  0
  4  5  1  0  0  0  0
  4 20  2  0  0  0  0
  5  6  1  0  0  0  0
  6  7  2  0  0  0  0
  6  8  1  0  0  0  0
  8  9  1  0  0  0  0
  8 26  1  0  0  0  0
  9 10  1  0  0  0  0
  9 27  1  0  0  0  0
  9 28  1  0  0  0  0
 10 11  1  0  0  0  0
 10 12  1  0  0  0  0
 10 29  1  0  0  0  0
 11 30  1  0  0  0  0
 11 31  1  0  0  0  0
 11 32  1  0  0  0  0
 12 19  1  0  0  0  0
 12 13  1  0  0  0  0
 12 45  1  0  0  0  0
 13 14  1  0  0  0  0
 13 33  1  0  0  0  0
 13 34  1  0  0  0  0
 14 15  1  0  0  0  0
 14 16  1  0  0  0  0
 14 35  1  0  0  0  0
 15 36  1  0  0  0  0
 15 37  1  0  0  0  0
 15 38  1  0  0  0  0
 16 17  1  0  0  0  0
 17 18  1  0  0  0  0
 17 19  1  0  0  0  0
 17 39  1  0  0  0  0
 18 40  1  0  0  0  0
 18 41  1  0  0  0  0
 18 42  1  0  0  0  0
 19 43  1  0  0  0  0
 19 44  1  0  0  0  0
 20 21  1  0  0  0  0
M  CHG  1   5  -1
M  CHG  1  12   1
M  END
> <s_m_source_file>
AV-unprocessed.smi

> <i_m_source_file_index>
2061

> <i_lp_mmshare_version>
43012

> <i_f3d_flags>
0

> <s_epik_input>
W0NIM11jMVtjSF1jKG5vMSlbTkhdQyg9TylbTkhdW0NIMl1bQ0BIXShbQ0gzXSlOMltDSDJdW0NAQEhdKFtDSDNdKU9bQ0BASF0oW0NIM10pW0NIMl0y

> <s_epik_cmdline>
J2VwaWtfcHl0aG9uJywgJy1waCcsICc3LjAnLCAnLXRuJywgJzgnLCAnLW1hJywgJzIwMCcsICctbWV0YWxfYmluZGluZycsICctaW1hZScsICc8aW5maWxlLm1hZT4nLCAnLW9tYWUnLCAnPG91dGZpbGUubWFlPic=

> <r_epik_Ionization_Penalty>
6.73511

> <r_epik_Ionization_Penalty_Charging>
6.73502

> <r_epik_Ionization_Penalty_Neutral>
9.50841e-05

> <r_epik_State_Penalty>
6.93549

> <r_epik_Charging_Adjusted_Penalty>
13.6705

> <i_epik_Tot_Q>
0

> <i_epik_Tot_abs_Q>
2

> <r_epik_Metal_State_Penalty>
2.87211

> <b_epik_Metal_Only>
1

> <s_lp_Force_Field>
OPLS_2005

> <r_lp_Energy>
11.3742

> <b_lp_Chiralities_Consistent>
1

> <s_lp_Variant>
AV-unprocessed.smi:2061-25

> <Gold.Version>
5.8.1

> <Gold.Id.Protein>
6NUR|6NUR_protein|mol2

> <Gold.PLP.Fitness>
37.9784

> <Gold.PLP.PLP>
-26.8909

> <Gold.PLP.part.hbond>
-4.2914

> <Gold.PLP.part.metal>
0.0000

> <Gold.PLP.part.buried>
-4.5781

> <Gold.PLP.part.nonpolar>
-19.4035

> <Gold.PLP.part.repulsive>
0.3961

> <Gold.PLP.ligand.clash>
0.0000

> <Gold.PLP.ligand.torsion>
2.1731

> <Gold.PLP.Chemscore.Hbond>
5.1030

> <Gold.PLP.Chemscore.CHOScore>
0.0000

> <Gold.PLP.Chemscore.Metal>
0.0000

> <Gold.Chemscore.Hbonds>
donor molecule, donor type, donor heavy atom, donor atom, acceptor molecule, acceptor atom, score
      L1  H    12    45       P1  7948  2.00
      P1  H  6896  6907       L1     7  0.04
      P1  H  7989  7998       L1    21  0.58
      P1  H 10752 10763       L1     5  1.90

> <Gold.PLP.Chemscore.Internal.Correction>
0.1248

> <Gold.Rescore>
     Score         DG    S(hbond)    S(metal)    S(lipo)     H(rot)  DE(clash)    DE(int)     intcor
     14.21     -16.58       2.37        0.00      61.20       1.56       0.13       2.24       ----

> <Gold.Chemscore.Fitness>
14.2135

> <Gold.Chemscore.DG>
-16.5833

> <Gold.Chemscore.ZeroCoef>
-5.4800

> <Gold.Chemscore.Hbond>
2.3722

> <Gold.Chemscore.Metal>
0.0000

> <Gold.Chemscore.Lipo>
61.2044

> <Gold.Chemscore.Internal_Hbond>
0.0000

> <Gold.Chemscore.DEClash>
0.1250

> <Gold.Chemscore.DEInternal>
2.2448

> <Gold.Chemscore.Rot>
1.5550

> <Gold.Chemscore.Internal.Correction>
   9.000000E+99

> <Gold.Chemscore.Hbonds>
donor molecule, donor type, donor heavy atom, donor atom, acceptor molecule, acceptor atom, score
      L1  H    12    45       P1  7948  1.00
      P1  H  6896  6907       L1     7  0.06
      P1  H  7989  7998       L1    21  0.05
      P1  H 10752 10763       L1     5  0.07

> <Gold.Chemscore.Hbond.Weighted>
-7.9233

> <Gold.Chemscore.Metal.Weighted>
-0.0000

> <Gold.Chemscore.Lipo.Weighted>
-7.1609

> <Gold.Chemscore.Internal_Hbond.Weighted>
0.0000

> <Gold.Chemscore.DEClash.Weighted>
0.1250

> <Gold.Chemscore.DEInternal.Weighted>
2.2448

> <Gold.Chemscore.Rot.Weighted>
3.9809

> <Gold.Chemscore.Internal.Correction.Weighted>
   9.000000E+99

> <Gold.Protein.RotatedTorsions>
[ 6907 6896 6895 6894 ] final -114.67 input  -60.11 | X-H torsion
[ 7974 7965 7964 7962 ] final -144.23 input  175.53 | X-H torsion
[ 8008 7997 7996 7995 ] final -168.96 input   59.86 | X-H torsion
[ 10167 10162 10161 10158 ] final   93.16 input  -65.29 | X-H torsion
[ 10718 10713 10712 10709 ] final  -92.50 input   66.30 | X-H torsion
[ 10763 10752 10751 10750 ] final   78.12 input  -60.55 | X-H torsion
[ 11005 11000 10999 10996 ] final  -51.70 input  -57.11 | X-H torsion

> <Gold.Protein.ActiveResidues>
 VAL166  LYS551  ARG553  GLY616  TRP617  ASP618  TYR619  PRO620  LYS621  CYS622 
 ASP623  PHE694  ASN695  SER759  ASP760  ASP761  ALA762  ILE779  LEU786  VAL792 
 PHE793  MET794  SER795  GLU796  ALA797  LYS798  CYS799  TRP800  GLU811  SER814 

> <Gold.Protein.RotatedAtoms>
  150.7919  133.8768  159.3274 H   0  0  0  0  0  0  0  0  0  0  0  0  # atno 6907 bound_to 6896
  151.6603  135.0988  160.0188 H   0  0  0  0  0  0  0  0  0  0  0  0  # atno 6908 bound_to 6896
  152.3995  133.6757  159.6339 H   0  0  0  0  0  0  0  0  0  0  0  0  # atno 6909 bound_to 6896
  144.8312  140.5735  143.5514 H   0  0  0  0  0  0  0  0  0  0  0  0  # atno 7974 bound_to 7965
  155.8985  140.1037  157.1367 H   0  0  0  0  0  0  0  0  0  0  0  0  # atno 8008 bound_to 7997
  154.4023  140.1297  156.4470 H   0  0  0  0  0  0  0  0  0  0  0  0  # atno 8009 bound_to 7997
  155.7451  140.3466  155.5125 H   0  0  0  0  0  0  0  0  0  0  0  0  # atno 8010 bound_to 7997
  139.8206  144.6733  150.9523 H   0  0  0  0  0  0  0  0  0  0  0  0  # atno 10167 bound_to 10162
  156.0003  130.4989  150.5634 H   0  0  0  0  0  0  0  0  0  0  0  0  # atno 10718 bound_to 10713
  153.0850  135.4888  154.8579 H   0  0  0  0  0  0  0  0  0  0  0  0  # atno 10763 bound_to 10752
  154.7199  135.3037  154.9066 H   0  0  0  0  0  0  0  0  0  0  0  0  # atno 10764 bound_to 10752
  153.9733  135.6798  153.4801 H   0  0  0  0  0  0  0  0  0  0  0  0  # atno 10765 bound_to 10752
  141.0885  133.6637  156.3916 H   0  0  0  0  0  0  0  0  0  0  0  0  # atno 11005 bound_to 11000
  145.4891  139.1490  143.3719 LP  0  0  0  0  0  0  0  0  0  0  0  0  # atno 17320 bound_to 7965
  146.2615  140.5029  142.8851 LP  0  0  0  0  0  0  0  0  0  0  0  0  # atno 17321 bound_to 7965
  140.7813  143.4095  151.1016 LP  0  0  0  0  0  0  0  0  0  0  0  0  # atno 17342 bound_to 10162
  139.7756  143.8430  152.3128 LP  0  0  0  0  0  0  0  0  0  0  0  0  # atno 17343 bound_to 10162
  157.3540  131.0738  151.1690 LP  0  0  0  0  0  0  0  0  0  0  0  0  # atno 17370 bound_to 10713
  157.2497  130.6608  149.5926 LP  0  0  0  0  0  0  0  0  0  0  0  0  # atno 17371 bound_to 10713
  140.5307  134.6215  157.5349 LP  0  0  0  0  0  0  0  0  0  0  0  0  # atno 17394 bound_to 11000
  139.9707  134.7298  156.0048 LP  0  0  0  0  0  0  0  0  0  0  0  0  # atno 17395 bound_to 11000

$$$$
