AV-unprocessed.smi:36|AV-procd|sdf|281|dock5
  -GOLD-   2262016 53D 1   1.00000     0.00000
 Structure written by MMmdl.
 64 67  0  0  0  0  0  0  0  0  1 V2000
  148.5427  132.1794  162.3481 C   0  0  0  0  0  0  0  0  0  0  0  0
  147.2020  132.5328  161.6823 C   0  0  0  0  0  0  0  0  0  0  0  0
  146.6977  131.3376  160.8566 C   0  0  0  0  0  0  0  0  0  0  0  0
  146.1641  132.8945  162.7579 C   0  0  0  0  0  0  0  0  0  0  0  0
  147.4441  134.0315  160.5223 Si  0  0  0  0  0  0  0  0  0  0  0  0
  145.8636  134.3853  159.5278 C   0  0  0  0  0  0  0  0  0  0  0  0
  147.9538  135.5822  161.4956 C   0  0  0  0  0  0  0  0  0  0  0  0
  148.6829  133.6578  159.4328 O   0  0  0  0  0  0  0  0  0  0  0  0
  148.4678  132.9684  158.2191 C   0  0  0  0  0  0  0  0  0  0  0  0
  149.7184  133.0889  157.3383 C   0  0  2  0  0  0  0  0  0  0  0  0
  150.4352  134.2525  157.7517 O   0  0  0  0  0  0  0  0  0  0  0  0
  150.8396  134.9592  156.6285 C   0  0  2  0  0  0  0  0  0  0  0  0
  150.9873  136.3979  156.9947 N   0  0  0  0  0  0  0  0  0  0  0  0
  150.6843  136.9992  158.1958 C   0  0  0  0  0  0  0  0  0  0  0  0
  150.8978  138.2869  158.2463 N   0  0  0  0  0  0  0  0  0  0  0  0
  151.3790  138.5980  156.9808 C   0  0  0  0  0  0  0  0  0  0  0  0
  151.7970  139.8025  156.3573 C   0  0  0  0  0  0  0  0  0  0  0  0
  151.7700  140.9690  157.0440 N   0  0  0  0  0  0  0  0  0  0  0  0
  152.0496  141.1864  158.4525 C   0  0  0  0  0  0  0  0  0  0  0  0
  152.4298  140.2788  159.1930 O   0  0  0  0  0  0  0  0  0  0  0  0
  151.9362  142.6029  158.9363 C   0  0  0  0  0  0  0  0  0  0  0  0
  151.4345  143.6049  158.0759 C   0  0  0  0  0  0  0  0  0  0  0  0
  151.3395  144.9400  158.5147 C   0  0  0  0  0  0  0  0  0  0  0  0
  151.7540  145.2859  159.8147 C   0  0  0  0  0  0  0  0  0  0  0  0
  152.2662  144.2961  160.6746 C   0  0  0  0  0  0  0  0  0  0  0  0
  152.3605  142.9603  160.2372 C   0  0  0  0  0  0  0  0  0  0  0  0
  152.2238  139.7241  155.0691 N   0  0  0  0  0  0  0  0  0  0  0  0
  152.2320  138.5488  154.4329 C   0  0  0  0  0  0  0  0  0  0  0  0
  151.8655  137.3501  154.8906 N   0  0  0  0  0  0  0  0  0  0  0  0
  151.4407  137.4197  156.1858 C   0  0  0  0  0  0  0  0  0  0  0  0
  149.7448  134.7539  155.5923 C   0  0  0  0  0  0  0  0  0  0  0  0
  149.3818  133.3026  155.8463 C   0  0  1  0  0  0  0  0  0  0  0  0
  150.1734  132.4535  155.0379 O   0  0  0  0  0  0  0  0  0  0  0  0
  148.4396  131.3241  163.0168 H   0  0  0  0  0  0  0  0  0  0  0  0
  148.9255  133.0123  162.9382 H   0  0  0  0  0  0  0  0  0  0  0  0
  149.3004  131.9256  161.6063 H   0  0  0  0  0  0  0  0  0  0  0  0
  147.4165  131.0523  160.0882 H   0  0  0  0  0  0  0  0  0  0  0  0
  145.7573  131.5710  160.3560 H   0  0  0  0  0  0  0  0  0  0  0  0
  146.5278  130.4637  161.4865 H   0  0  0  0  0  0  0  0  0  0  0  0
  145.9809  132.0557  163.4305 H   0  0  0  0  0  0  0  0  0  0  0  0
  145.2095  133.1719  162.3096 H   0  0  0  0  0  0  0  0  0  0  0  0
  146.4976  133.7353  163.3667 H   0  0  0  0  0  0  0  0  0  0  0  0
  145.0183  134.6016  160.1808 H   0  0  0  0  0  0  0  0  0  0  0  0
  145.5840  133.5356  158.9055 H   0  0  0  0  0  0  0  0  0  0  0  0
  145.9891  135.2426  158.8670 H   0  0  0  0  0  0  0  0  0  0  0  0
  147.1947  135.8666  162.2240 H   0  0  0  0  0  0  0  0  0  0  0  0
  148.1052  136.4357  160.8353 H   0  0  0  0  0  0  0  0  0  0  0  0
  148.8853  135.4259  162.0393 H   0  0  0  0  0  0  0  0  0  0  0  0
  148.2645  131.9202  158.4412 H   0  0  0  0  0  0  0  0  0  0  0  0
  147.5902  133.3706  157.7114 H   0  0  0  0  0  0  0  0  0  0  0  0
  150.3477  132.2070  157.4702 H   0  0  0  0  0  0  0  0  0  0  0  0
  151.8244  134.6288  156.2943 H   0  0  0  0  0  0  0  0  0  0  0  0
  150.2968  136.4486  159.0406 H   0  0  0  0  0  0  0  0  0  0  0  0
  151.5225  141.7899  156.5109 H   0  0  0  0  0  0  0  0  0  0  0  0
  151.1140  143.3558  157.0744 H   0  0  0  0  0  0  0  0  0  0  0  0
  150.9500  145.6991  157.8525 H   0  0  0  0  0  0  0  0  0  0  0  0
  151.6824  146.3100  160.1502 H   0  0  0  0  0  0  0  0  0  0  0  0
  152.5899  144.5620  161.6702 H   0  0  0  0  0  0  0  0  0  0  0  0
  152.7655  142.2181  160.9098 H   0  0  0  0  0  0  0  0  0  0  0  0
  152.5822  138.5726  153.4115 H   0  0  0  0  0  0  0  0  0  0  0  0
  148.8948  135.3985  155.8187 H   0  0  0  0  0  0  0  0  0  0  0  0
  150.0988  134.9688  154.5833 H   0  0  0  0  0  0  0  0  0  0  0  0
  148.3323  133.1109  155.6196 H   0  0  0  0  0  0  0  0  0  0  0  0
  150.7256  132.9894  154.4892 H   0  0  0  0  0  0  0  0  0  0  0  0
  1  2  1  0  0  0  0
  1 34  1  0  0  0  0
  1 35  1  0  0  0  0
  1 36  1  0  0  0  0
  2  3  1  0  0  0  0
  2  4  1  0  0  0  0
  2  5  1  0  0  0  0
  3 37  1  0  0  0  0
  3 38  1  0  0  0  0
  3 39  1  0  0  0  0
  4 40  1  0  0  0  0
  4 41  1  0  0  0  0
  4 42  1  0  0  0  0
  5  6  1  0  0  0  0
  5  7  1  0  0  0  0
  5  8  1  0  0  0  0
  6 43  1  0  0  0  0
  6 44  1  0  0  0  0
  6 45  1  0  0  0  0
  7 46  1  0  0  0  0
  7 47  1  0  0  0  0
  7 48  1  0  0  0  0
  8  9  1  0  0  0  0
  9 10  1  0  0  0  0
  9 49  1  0  0  0  0
  9 50  1  0  0  0  0
 10 32  1  0  0  0  0
 10 11  1  0  0  0  0
 10 51  1  0  0  0  0
 11 12  1  0  0  0  0
 12 13  1  0  0  0  0
 12 31  1  0  0  0  0
 12 52  1  0  0  0  0
 13 30  1  0  0  0  0
 13 14  1  0  0  0  0
 14 15  2  0  0  0  0
 14 53  1  0  0  0  0
 15 16  1  0  0  0  0
 16 30  2  0  0  0  0
 16 17  1  0  0  0  0
 17 18  1  0  0  0  0
 17 27  2  0  0  0  0
 18 19  1  0  0  0  0
 18 54  1  0  0  0  0
 19 20  2  0  0  0  0
 19 21  1  0  0  0  0
 21 26  1  0  0  0  0
 21 22  2  0  0  0  0
 22 23  1  0  0  0  0
 22 55  1  0  0  0  0
 23 24  2  0  0  0  0
 23 56  1  0  0  0  0
 24 25  1  0  0  0  0
 24 57  1  0  0  0  0
 25 26  2  0  0  0  0
 25 58  1  0  0  0  0
 26 59  1  0  0  0  0
 27 28  1  0  0  0  0
 28 29  2  0  0  0  0
 28 60  1  0  0  0  0
 29 30  1  0  0  0  0
 31 32  1  0  0  0  0
 31 61  1  0  0  0  0
 31 62  1  0  0  0  0
 32 33  1  0  0  0  0
 32 63  1  0  0  0  0
 33 64  1  0  0  0  0
M  END
> <s_m_source_file>
AV-unprocessed.smi

> <i_m_source_file_index>
36

> <i_lp_mmshare_version>
43012

> <i_f3d_flags>
0

> <s_epik_input>
W0NIM11DKFtDSDNdKShbQ0gzXSlbU2ldKFtDSDNdKShbQ0gzXSlPW0NIMl1bQ0BASF0xT1tDQEhdKFtDSDJdW0NASF0xW09IXSluKFtjSF1uMiljKGMyMyluW2NIXW5jM1tOSF1DKD1PKWM0W2NIXVtjSF1bY0hdW2NIXVtjSF00

> <s_epik_cmdline>
J2VwaWtfcHl0aG9uJywgJy1waCcsICc3LjAnLCAnLXRuJywgJzgnLCAnLW1hJywgJzIwMCcsICctbWV0YWxfYmluZGluZycsICctaW1hZScsICc8aW5maWxlLm1hZT4nLCAnLW9tYWUnLCAnPG91dGZpbGUubWFlPic=

> <r_lp_tautomer_probability>
1

> <r_epik_Ionization_Penalty>
0.00150433

> <r_epik_Ionization_Penalty_Charging>
0

> <r_epik_Ionization_Penalty_Neutral>
0.00150433

> <r_epik_State_Penalty>
0.00724046

> <r_epik_Charging_Adjusted_Penalty>
0.00724046

> <i_epik_Tot_Q>
0

> <i_epik_Tot_abs_Q>
0

> <r_epik_Metal_State_Penalty>
0.323355

> <b_epik_Metal_Only>
0

> <s_epik_Chemistry_Notes>
This compound contains an acetal/aminal-like group ( X-CH(R)-Y where X, Y are N, S, or O) that may be acid/base labile, releasing an aldehyde.

> <s_lp_Force_Field>
OPLS_2005

> <r_lp_Energy>
37.1131

> <b_lp_Chiralities_Consistent>
1

> <s_lp_Variant>
AV-unprocessed.smi:36-3

> <Gold.Version>
5.8.1

> <Gold.Id.Protein>
6NUR|6NUR_protein|mol2

> <Gold.PLP.Fitness>
57.0676

> <Gold.PLP.PLP>
-52.3613

> <Gold.PLP.part.hbond>
-3.8673

> <Gold.PLP.part.metal>
0.0000

> <Gold.PLP.part.buried>
-7.5050

> <Gold.PLP.part.nonpolar>
-41.6182

> <Gold.PLP.part.repulsive>
0.2425

> <Gold.PLP.ligand.clash>
0.0000

> <Gold.PLP.ligand.torsion>
1.4541

> <Gold.PLP.Chemscore.Hbond>
2.4075

> <Gold.PLP.Chemscore.CHOScore>
0.0000

> <Gold.PLP.Chemscore.Metal>
0.0000

> <Gold.Chemscore.Hbonds>
donor molecule, donor type, donor heavy atom, donor atom, acceptor molecule, acceptor atom, score
      P1  H  6896  6909       L1    11  0.69
      P1  H  7989  7998       L1    27  0.67
      P1  H 10752 10764       L1    29  0.86

> <Gold.PLP.Chemscore.Internal.Correction>
0.3919

> <Gold.Rescore>
     Score         DG    S(hbond)    S(metal)    S(lipo)     H(rot)  DE(clash)    DE(int)     intcor
     16.63     -18.30       1.94        0.00     113.35       2.70       0.05       1.63       ----

> <Gold.Chemscore.Fitness>
16.6294

> <Gold.Chemscore.DG>
-18.3019

> <Gold.Chemscore.ZeroCoef>
-5.4800

> <Gold.Chemscore.Hbond>
1.9409

> <Gold.Chemscore.Metal>
0.0000

> <Gold.Chemscore.Lipo>
113.3501

> <Gold.Chemscore.Internal_Hbond>
0.0000

> <Gold.Chemscore.DEClash>
0.0472

> <Gold.Chemscore.DEInternal>
1.6254

> <Gold.Chemscore.Rot>
2.7041

> <Gold.Chemscore.Internal.Correction>
   9.000000E+99

> <Gold.Chemscore.Hbonds>
donor molecule, donor type, donor heavy atom, donor atom, acceptor molecule, acceptor atom, score
      P1  H  6896  6909       L1    11  0.17
      P1  H  7989  7998       L1    27  0.11
      P1  H 10752 10764       L1    29  0.68

> <Gold.Chemscore.Hbond.Weighted>
-6.4825

> <Gold.Chemscore.Metal.Weighted>
-0.0000

> <Gold.Chemscore.Lipo.Weighted>
-13.2620

> <Gold.Chemscore.Internal_Hbond.Weighted>
0.0000

> <Gold.Chemscore.DEClash.Weighted>
0.0472

> <Gold.Chemscore.DEInternal.Weighted>
1.6254

> <Gold.Chemscore.Rot.Weighted>
6.9225

> <Gold.Chemscore.Internal.Correction.Weighted>
   9.000000E+99

> <Gold.Protein.RotatedTorsions>
[ 6907 6896 6895 6894 ] final    0.90 input  -60.11 | X-H torsion
[ 7974 7965 7964 7962 ] final  -92.80 input  175.53 | X-H torsion
[ 8008 7997 7996 7995 ] final -127.87 input   59.86 | X-H torsion
[ 10167 10162 10161 10158 ] final  -62.37 input  -65.29 | X-H torsion
[ 10718 10713 10712 10709 ] final  120.54 input   66.30 | X-H torsion
[ 10763 10752 10751 10750 ] final  -66.52 input  -60.55 | X-H torsion
[ 11005 11000 10999 10996 ] final  -88.21 input  -57.11 | X-H torsion

> <Gold.Protein.ActiveResidues>
 VAL166  LYS551  ARG553  GLY616  TRP617  ASP618  TYR619  PRO620  LYS621  CYS622 
 ASP623  PHE694  ASN695  SER759  ASP760  ASP761  ALA762  ILE779  LEU786  VAL792 
 PHE793  MET794  SER795  GLU796  ALA797  LYS798  CYS799  TRP800  GLU811  SER814 

> <Gold.Protein.RotatedAtoms>
  151.5840  135.1057  160.0023 H   0  0  0  0  0  0  0  0  0  0  0  0  # atno 6907 bound_to 6896
  152.4340  133.7323  159.6605 H   0  0  0  0  0  0  0  0  0  0  0  0  # atno 6908 bound_to 6896
  150.8235  133.8141  159.3151 H   0  0  0  0  0  0  0  0  0  0  0  0  # atno 6909 bound_to 6896
  145.3950  140.9532  143.2319 H   0  0  0  0  0  0  0  0  0  0  0  0  # atno 7974 bound_to 7965
  155.2533  140.0433  157.2989 H   0  0  0  0  0  0  0  0  0  0  0  0  # atno 8008 bound_to 7997
  154.5755  140.2386  155.8098 H   0  0  0  0  0  0  0  0  0  0  0  0  # atno 8009 bound_to 7997
  156.2155  140.2986  155.9837 H   0  0  0  0  0  0  0  0  0  0  0  0  # atno 8010 bound_to 7997
  140.5943  143.2348  151.6070 H   0  0  0  0  0  0  0  0  0  0  0  0  # atno 10167 bound_to 10162
  157.5883  131.1067  150.8050 H   0  0  0  0  0  0  0  0  0  0  0  0  # atno 10718 bound_to 10713
  154.3610  135.6116  153.5690 H   0  0  0  0  0  0  0  0  0  0  0  0  # atno 10763 bound_to 10752
  152.9793  135.5815  154.4633 H   0  0  0  0  0  0  0  0  0  0  0  0  # atno 10764 bound_to 10752
  154.4371  135.2849  155.1851 H   0  0  0  0  0  0  0  0  0  0  0  0  # atno 10765 bound_to 10752
  141.1605  133.7556  156.9418 H   0  0  0  0  0  0  0  0  0  0  0  0  # atno 11005 bound_to 11000
  144.8414  139.5466  143.6898 LP  0  0  0  0  0  0  0  0  0  0  0  0  # atno 17320 bound_to 7965
  146.2779  139.6801  142.9249 LP  0  0  0  0  0  0  0  0  0  0  0  0  # atno 17321 bound_to 7965
  139.5248  144.3093  152.1006 LP  0  0  0  0  0  0  0  0  0  0  0  0  # atno 17342 bound_to 10162
  140.2263  144.4415  150.6319 LP  0  0  0  0  0  0  0  0  0  0  0  0  # atno 17343 bound_to 10162
  156.8479  130.5070  149.5314 LP  0  0  0  0  0  0  0  0  0  0  0  0  # atno 17370 bound_to 10713
  156.0934  130.5914  150.9773 LP  0  0  0  0  0  0  0  0  0  0  0  0  # atno 17371 bound_to 10713
  140.1317  134.9352  157.2345 LP  0  0  0  0  0  0  0  0  0  0  0  0  # atno 17394 bound_to 11000
  140.2945  134.3202  155.7306 LP  0  0  0  0  0  0  0  0  0  0  0  0  # atno 17395 bound_to 11000

$$$$
