AV-unprocessed.smi:101|AV-procd|sdf|917|dock3
  -GOLD-   2262017423D 1   1.00000     0.00000
 Structure written by MMmdl.
 44 46  0  0  0  0  0  0  0  0  1 V2000
  151.9861  137.4821  154.2912 C   0  0  0  0  0  0  0  0  0  0  0  0
  151.0967  138.6431  154.7066 C   0  0  0  0  0  0  0  0  0  0  0  0
  149.7909  138.7236  154.3445 C   0  0  0  0  0  0  0  0  0  0  0  0
  148.9501  139.7738  154.7025 N   0  0  0  0  0  0  0  0  0  0  0  0
  147.4795  139.8180  154.3150 C   0  0  2  0  0  0  0  0  0  0  0  0
  146.8180  138.7189  154.8598 O   0  0  0  0  0  0  0  0  0  0  0  0
  146.8329  137.6601  153.9135 C   0  0  1  0  0  0  0  0  0  0  0  0
  145.8146  136.5917  154.3187 C   0  0  0  0  0  0  0  0  0  0  0  0
  145.7249  135.6616  153.2525 O   0  0  0  0  0  0  0  0  0  0  0  0
  146.4839  134.5521  153.2473 C   0  0  0  0  0  0  0  0  0  0  0  0
  147.5070  134.4209  153.9218 O   0  0  0  0  0  0  0  0  0  0  0  0
  145.9542  133.4980  152.3343 C   0  0  0  0  0  0  0  0  0  0  0  0
  146.5194  132.2019  152.3693 C   0  0  0  0  0  0  0  0  0  0  0  0
  146.0404  131.1875  151.5177 C   0  0  0  0  0  0  0  0  0  0  0  0
  144.9902  131.4566  150.6207 C   0  0  0  0  0  0  0  0  0  0  0  0
  144.4194  132.7418  150.5760 C   0  0  0  0  0  0  0  0  0  0  0  0
  144.8971  133.7578  151.4265 C   0  0  0  0  0  0  0  0  0  0  0  0
  146.5132  138.3995  152.6173 C   0  0  2  0  0  0  0  0  0  0  0  0
  146.9896  137.6695  151.5045 O   0  0  0  0  0  0  0  0  0  0  0  0
  147.2838  139.7102  152.7814 C   0  0  1  0  0  0  0  0  0  0  0  0
  146.5276  140.7897  152.2718 O   0  0  0  0  0  0  0  0  0  0  0  0
  149.4492  140.7889  155.5460 C   0  0  0  0  0  0  0  0  0  0  0  0
  148.7512  141.7146  155.9583 O   0  0  0  0  0  0  0  0  0  0  0  0
  150.7914  140.7110  155.9121 N   0  0  0  0  0  0  0  0  0  0  0  0
  151.6782  139.6988  155.5394 C   0  0  0  0  0  0  0  0  0  0  0  0
  152.8463  139.7433  155.9214 O   0  0  0  0  0  0  0  0  0  0  0  0
  151.1522  141.4447  156.5047 H   0  0  0  0  0  0  0  0  0  0  0  0
  151.4498  136.7574  153.6773 H   0  0  0  0  0  0  0  0  0  0  0  0
  152.3649  136.9592  155.1700 H   0  0  0  0  0  0  0  0  0  0  0  0
  152.8376  137.8426  153.7129 H   0  0  0  0  0  0  0  0  0  0  0  0
  149.4044  137.9107  153.7489 H   0  0  0  0  0  0  0  0  0  0  0  0
  147.1022  140.7400  154.7620 H   0  0  0  0  0  0  0  0  0  0  0  0
  147.8334  137.2265  153.8539 H   0  0  0  0  0  0  0  0  0  0  0  0
  146.1154  136.1012  155.2455 H   0  0  0  0  0  0  0  0  0  0  0  0
  144.8358  137.0448  154.4805 H   0  0  0  0  0  0  0  0  0  0  0  0
  147.3272  131.9718  153.0493 H   0  0  0  0  0  0  0  0  0  0  0  0
  146.4801  130.2016  151.5533 H   0  0  0  0  0  0  0  0  0  0  0  0
  144.6229  130.6783  149.9683 H   0  0  0  0  0  0  0  0  0  0  0  0
  143.6131  132.9500  149.8882 H   0  0  0  0  0  0  0  0  0  0  0  0
  144.4360  134.7330  151.3659 H   0  0  0  0  0  0  0  0  0  0  0  0
  145.4390  138.5751  152.5363 H   0  0  0  0  0  0  0  0  0  0  0  0
  147.2975  136.8291  151.8087 H   0  0  0  0  0  0  0  0  0  0  0  0
  148.2508  139.6638  152.2783 H   0  0  0  0  0  0  0  0  0  0  0  0
  145.6557  140.7383  152.6334 H   0  0  0  0  0  0  0  0  0  0  0  0
  1  2  1  0  0  0  0
  1 28  1  0  0  0  0
  1 29  1  0  0  0  0
  1 30  1  0  0  0  0
  2 25  1  0  0  0  0
  2  3  2  0  0  0  0
  3  4  1  0  0  0  0
  3 31  1  0  0  0  0
  4  5  1  0  0  0  0
  4 22  1  0  0  0  0
  5 20  1  0  0  0  0
  5  6  1  0  0  0  0
  5 32  1  0  0  0  0
  6  7  1  0  0  0  0
  7  8  1  0  0  0  0
  7 18  1  0  0  0  0
  7 33  1  0  0  0  0
  8  9  1  0  0  0  0
  8 34  1  0  0  0  0
  8 35  1  0  0  0  0
  9 10  1  0  0  0  0
 10 11  2  0  0  0  0
 10 12  1  0  0  0  0
 12 17  1  0  0  0  0
 12 13  2  0  0  0  0
 13 14  1  0  0  0  0
 13 36  1  0  0  0  0
 14 15  2  0  0  0  0
 14 37  1  0  0  0  0
 15 16  1  0  0  0  0
 15 38  1  0  0  0  0
 16 17  2  0  0  0  0
 16 39  1  0  0  0  0
 17 40  1  0  0  0  0
 18 19  1  0  0  0  0
 18 20  1  0  0  0  0
 18 41  1  0  0  0  0
 19 42  1  0  0  0  0
 20 21  1  0  0  0  0
 20 43  1  0  0  0  0
 21 44  1  0  0  0  0
 22 23  2  0  0  0  0
 22 24  1  0  0  0  0
 24 27  1  0  0  0  0
 24 25  1  0  0  0  0
 25 26  2  0  0  0  0
M  END
> <s_m_source_file>
AV-unprocessed.smi

> <i_m_source_file_index>
101

> <i_lp_mmshare_version>
43012

> <i_f3d_flags>
0

> <s_epik_input>
Tz1jMVtuSF1jKD1PKW4oW2NIXWMxW0NIM10pW0NAQEhdMk9bQ0BIXShbQ0BASF0oW09IXSlbQ0BIXTJbT0hdKVtDSDJdT0MoPU8pYzNbY0hdW2NIXVtjSF1bY0hdW2NIXTM=

> <s_epik_cmdline>
J2VwaWtfcHl0aG9uJywgJy1waCcsICc3LjAnLCAnLXRuJywgJzgnLCAnLW1hJywgJzIwMCcsICctbWV0YWxfYmluZGluZycsICctaW1hZScsICc8aW5maWxlLm1hZT4nLCAnLW9tYWUnLCAnPG91dGZpbGUubWFlPic=

> <r_lp_tautomer_probability>
0.999537

> <r_epik_Ionization_Penalty>
0.00263537

> <r_epik_Ionization_Penalty_Charging>
0.00263428

> <r_epik_Ionization_Penalty_Neutral>
1.09111e-06

> <r_epik_State_Penalty>
0.00183335

> <r_epik_Charging_Adjusted_Penalty>
0.00446763

> <i_epik_Tot_Q>
0

> <i_epik_Tot_abs_Q>
0

> <r_epik_Metal_State_Penalty>
1.00528

> <b_epik_Metal_Only>
0

> <s_epik_Chemistry_Notes>
This compound has an ester and may undergo hydrolysis at high or low pH. This compound contains an acetal/aminal-like group ( X-CH(R)-Y where X, Y are N, S, or O) that may be acid/base labile, releasing an aldehyde.

> <s_lp_Force_Field>
OPLS_2005

> <r_lp_Energy>
27.5612

> <b_lp_Chiralities_Consistent>
1

> <s_lp_Variant>
AV-unprocessed.smi:101-5

> <Gold.Version>
5.8.1

> <Gold.Id.Protein>
6NUR|6NUR_protein|mol2

> <Gold.PLP.Fitness>
47.3601

> <Gold.PLP.PLP>
-35.2786

> <Gold.PLP.part.hbond>
-3.9322

> <Gold.PLP.part.metal>
0.0000

> <Gold.PLP.part.buried>
-0.7219

> <Gold.PLP.part.nonpolar>
-33.2507

> <Gold.PLP.part.repulsive>
1.4526

> <Gold.PLP.ligand.clash>
0.0000

> <Gold.PLP.ligand.torsion>
0.6060

> <Gold.PLP.Chemscore.Hbond>
3.4100

> <Gold.PLP.Chemscore.CHOScore>
1.0000

> <Gold.PLP.Chemscore.Metal>
0.0000

> <Gold.Chemscore.Hbonds>
donor molecule, donor type, donor heavy atom, donor atom, acceptor molecule, acceptor atom, score
      L1  H    19    42       P1  7948  0.54
      L1  H    21    44       P1 10175  1.00
      P1  H  7954  7966       L1    19  0.95
      P1  H  7997  8009       L1    26  1.00
      L1  C     3    31       P1  7948  0.98

> <Gold.PLP.Chemscore.Internal.Correction>
0.0635

> <Gold.Rescore>
     Score         DG    S(hbond)    S(metal)    S(lipo)     H(rot)  DE(clash)    DE(int)     intcor
     11.71     -14.40       2.16        0.00      87.30       3.32       0.86       1.84       ----

> <Gold.Chemscore.Fitness>
11.7079

> <Gold.Chemscore.DG>
-14.4043

> <Gold.Chemscore.ZeroCoef>
-5.4800

> <Gold.Chemscore.Hbond>
2.1565

> <Gold.Chemscore.Metal>
0.0000

> <Gold.Chemscore.Lipo>
87.2954

> <Gold.Chemscore.Internal_Hbond>
0.0000

> <Gold.Chemscore.DEClash>
0.8603

> <Gold.Chemscore.DEInternal>
1.8360

> <Gold.Chemscore.Rot>
3.3172

> <Gold.Chemscore.Internal.Correction>
   9.000000E+99

> <Gold.Chemscore.Hbonds>
donor molecule, donor type, donor heavy atom, donor atom, acceptor molecule, acceptor atom, score
      L1  H    19    42       P1  7948  0.54
      L1  H    21    44       P1 10175  0.32
      P1  H  7954  7966       L1    19  0.21
      P1  H  7997  8009       L1    26  0.97

> <Gold.Chemscore.Hbond.Weighted>
-7.2027

> <Gold.Chemscore.Metal.Weighted>
-0.0000

> <Gold.Chemscore.Lipo.Weighted>
-10.2136

> <Gold.Chemscore.Internal_Hbond.Weighted>
0.0000

> <Gold.Chemscore.DEClash.Weighted>
0.8603

> <Gold.Chemscore.DEInternal.Weighted>
1.8360

> <Gold.Chemscore.Rot.Weighted>
8.4920

> <Gold.Chemscore.Internal.Correction.Weighted>
   9.000000E+99

> <Gold.Protein.RotatedTorsions>
[ 6907 6896 6895 6894 ] final  -49.15 input  -60.11 | X-H torsion
[ 7974 7965 7964 7962 ] final  149.75 input  175.53 | X-H torsion
[ 8008 7997 7996 7995 ] final -157.53 input   59.86 | X-H torsion
[ 10167 10162 10161 10158 ] final   55.91 input  -65.29 | X-H torsion
[ 10718 10713 10712 10709 ] final  -70.40 input   66.30 | X-H torsion
[ 10763 10752 10751 10750 ] final  105.07 input  -60.55 | X-H torsion
[ 11005 11000 10999 10996 ] final   -1.09 input  -57.11 | X-H torsion

> <Gold.Protein.ActiveResidues>
 VAL166  LYS551  ARG553  GLY616  TRP617  ASP618  TYR619  PRO620  LYS621  CYS622 
 ASP623  PHE694  ASN695  SER759  ASP760  ASP761  ALA762  ILE779  LEU786  VAL792 
 PHE793  MET794  SER795  GLU796  ALA797  LYS798  CYS799  TRP800  GLU811  SER814 

> <Gold.Protein.RotatedAtoms>
  150.8833  134.8228  159.7240 H   0  0  0  0  0  0  0  0  0  0  0  0  # atno 6907 bound_to 6896
  152.4792  134.4761  159.9661 H   0  0  0  0  0  0  0  0  0  0  0  0  # atno 6908 bound_to 6896
  151.4833  133.3502  159.2877 H   0  0  0  0  0  0  0  0  0  0  0  0  # atno 6909 bound_to 6896
  144.8415  139.6320  143.6014 H   0  0  0  0  0  0  0  0  0  0  0  0  # atno 7974 bound_to 7965
  155.7338  140.0805  157.2277 H   0  0  0  0  0  0  0  0  0  0  0  0  # atno 8008 bound_to 7997
  154.4030  140.1590  156.2593 H   0  0  0  0  0  0  0  0  0  0  0  0  # atno 8009 bound_to 7997
  155.9085  140.3405  155.6083 H   0  0  0  0  0  0  0  0  0  0  0  0  # atno 8010 bound_to 7997
  140.2144  144.3855  150.6476 H   0  0  0  0  0  0  0  0  0  0  0  0  # atno 10167 bound_to 10162
  156.0410  130.4331  150.2290 H   0  0  0  0  0  0  0  0  0  0  0  0  # atno 10718 bound_to 10713
  153.3745  135.3922  155.1812 H   0  0  0  0  0  0  0  0  0  0  0  0  # atno 10763 bound_to 10752
  154.8699  135.3710  154.4936 H   0  0  0  0  0  0  0  0  0  0  0  0  # atno 10764 bound_to 10752
  153.5406  135.7084  153.5699 H   0  0  0  0  0  0  0  0  0  0  0  0  # atno 10765 bound_to 10752
  140.6435  133.9468  155.8339 H   0  0  0  0  0  0  0  0  0  0  0  0  # atno 11005 bound_to 11000
  146.2706  139.6627  142.9298 LP  0  0  0  0  0  0  0  0  0  0  0  0  # atno 17320 bound_to 7965
  145.4685  141.0435  143.2712 LP  0  0  0  0  0  0  0  0  0  0  0  0  # atno 17321 bound_to 7965
  140.6300  143.2186  151.6515 LP  0  0  0  0  0  0  0  0  0  0  0  0  # atno 17342 bound_to 10162
  139.5168  144.3336  152.0804 LP  0  0  0  0  0  0  0  0  0  0  0  0  # atno 17343 bound_to 10162
  157.0385  131.0028  151.3291 LP  0  0  0  0  0  0  0  0  0  0  0  0  # atno 17370 bound_to 10713
  157.5226  130.8008  149.7826 LP  0  0  0  0  0  0  0  0  0  0  0  0  # atno 17371 bound_to 10713
  141.0589  134.0375  157.3685 LP  0  0  0  0  0  0  0  0  0  0  0  0  # atno 17394 bound_to 11000
  139.9071  135.0182  156.7535 LP  0  0  0  0  0  0  0  0  0  0  0  0  # atno 17395 bound_to 11000

$$$$
