AV-unprocessed.smi:425|AV-procd|sdf|2540|dock3
  -GOLD-   2262022503D 1   1.00000     0.00000
 Structure written by MMmdl.
 27 27  0  0  0  0  0  0  0  0  2 V2000
  151.9853  137.0071  154.6071 O   0  0  0  0  0  0  0  0  0  0  0  0
  150.8379  137.2039  155.0629 C   0  0  0  0  0  0  0  0  0  0  0  0
  150.3190  136.5923  156.0224 O   0  5  0  0  0  0  0  0  0  0  0  0
  149.9893  138.2761  154.3839 C   0  0  0  0  0  0  0  0  0  0  0  0
  150.4685  139.6000  154.7638 N   0  0  0  0  0  0  0  0  0  0  0  0
  150.3868  140.1445  155.9866 C   0  0  0  0  0  0  0  0  0  0  0  0
  149.8531  139.5845  156.9455 O   0  0  0  0  0  0  0  0  0  0  0  0
  150.9935  141.5482  156.1292 C   0  0  0  0  0  0  0  0  0  0  0  0
  151.6167  141.7890  157.4417 N   0  0  0  0  0  0  0  0  0  0  0  0
  151.3120  143.0084  158.0758 C   0  0  0  0  0  0  0  0  0  0  0  0
  151.8158  143.3563  159.2742 C   0  0  0  0  0  0  0  0  0  0  0  0
  151.4181  144.6536  159.9606 C   0  0  0  0  0  0  0  0  0  0  0  0
  151.8740  145.7124  159.2911 F   0  0  0  0  0  0  0  0  0  0  0  0
  150.0905  144.7427  160.0255 F   0  0  0  0  0  0  0  0  0  0  0  0
  151.8979  144.7053  161.2038 F   0  0  0  0  0  0  0  0  0  0  0  0
  152.6814  142.3865  159.9149 C   0  0  0  0  0  0  0  0  0  0  0  0
  152.9766  141.2064  159.3334 C   0  0  0  0  0  0  0  0  0  0  0  0
  154.0157  140.0877  160.1419 Cl  0  0  0  0  0  0  0  0  0  0  0  0
  152.4304  140.8532  158.0165 C   0  0  0  0  0  0  0  0  0  0  0  0
  152.6854  139.7836  157.4612 O   0  0  0  0  0  0  0  0  0  0  0  0
  150.0696  138.1695  153.3017 H   0  0  0  0  0  0  0  0  0  0  0  0
  148.9385  138.1255  154.6376 H   0  0  0  0  0  0  0  0  0  0  0  0
  150.9304  140.1298  154.0391 H   0  0  0  0  0  0  0  0  0  0  0  0
  151.7177  141.7051  155.3275 H   0  0  0  0  0  0  0  0  0  0  0  0
  150.2063  142.2811  155.9462 H   0  0  0  0  0  0  0  0  0  0  0  0
  150.6292  143.6411  157.5271 H   0  0  0  0  0  0  0  0  0  0  0  0
  153.1048  142.6135  160.8823 H   0  0  0  0  0  0  0  0  0  0  0  0
  1  2  2  0  0  0  0
  2  3  1  0  0  0  0
  2  4  1  0  0  0  0
  4  5  1  0  0  0  0
  4 21  1  0  0  0  0
  4 22  1  0  0  0  0
  5  6  1  0  0  0  0
  5 23  1  0  0  0  0
  6  7  2  0  0  0  0
  6  8  1  0  0  0  0
  8  9  1  0  0  0  0
  8 24  1  0  0  0  0
  8 25  1  0  0  0  0
  9 19  1  0  0  0  0
  9 10  1  0  0  0  0
 10 11  2  0  0  0  0
 10 26  1  0  0  0  0
 11 12  1  0  0  0  0
 11 16  1  0  0  0  0
 12 13  1  0  0  0  0
 12 14  1  0  0  0  0
 12 15  1  0  0  0  0
 16 17  2  0  0  0  0
 16 27  1  0  0  0  0
 17 18  1  0  0  0  0
 17 19  1  0  0  0  0
 19 20  2  0  0  0  0
M  CHG  1   3  -1
M  END
> <s_m_source_file>
AV-unprocessed.smi

> <i_m_source_file_index>
425

> <i_lp_mmshare_version>
43012

> <i_f3d_flags>
0

> <s_epik_input>
Tz1DKFtPSF0pW0NIMl1bTkhdQyg9TylbQ0gyXW4xW2NIXWMoQyhGKShGKUYpW2NIXWMoQ2wpYzE9Tw==

> <s_epik_cmdline>
J2VwaWtfcHl0aG9uJywgJy1waCcsICc3LjAnLCAnLXRuJywgJzgnLCAnLW1hJywgJzIwMCcsICctbWV0YWxfYmluZGluZycsICctaW1hZScsICc8aW5maWxlLm1hZT4nLCAnLW9tYWUnLCAnPG91dGZpbGUubWFlPic=

> <r_lp_tautomer_probability>
1

> <r_epik_Ionization_Penalty>
0.000221532

> <r_epik_Ionization_Penalty_Charging>
0.000221514

> <r_epik_Ionization_Penalty_Neutral>
1.82818e-08

> <r_epik_State_Penalty>
-0

> <r_epik_Charging_Adjusted_Penalty>
0.000221514

> <i_epik_Tot_Q>
-1

> <i_epik_Tot_abs_Q>
1

> <r_epik_Metal_State_Penalty>
-0

> <b_epik_Metal_Only>
0

> <s_lp_Force_Field>
OPLS_2005

> <r_lp_Energy>
5.93432

> <b_lp_Chiralities_Consistent>
1

> <s_lp_Variant>
AV-unprocessed.smi:425-1

> <Gold.Version>
5.8.1

> <Gold.Id.Protein>
6NUR|6NUR_protein|mol2

> <Gold.PLP.Fitness>
48.9422

> <Gold.PLP.PLP>
-40.2270

> <Gold.PLP.part.hbond>
-2.0000

> <Gold.PLP.part.metal>
0.0000

> <Gold.PLP.part.buried>
-4.2514

> <Gold.PLP.part.nonpolar>
-34.1598

> <Gold.PLP.part.repulsive>
0.3090

> <Gold.PLP.ligand.clash>
0.0000

> <Gold.PLP.ligand.torsion>
0.8468

> <Gold.PLP.Chemscore.Hbond>
3.0000

> <Gold.PLP.Chemscore.CHOScore>
0.4403

> <Gold.PLP.Chemscore.Metal>
0.0000

> <Gold.Chemscore.Hbonds>
donor molecule, donor type, donor heavy atom, donor atom, acceptor molecule, acceptor atom, score
      P1  H  7997  8008       L1    20  1.00
      P1  H 10752 10764       L1     1  1.95
      L1  C    10    26       P1  8028  0.44

> <Gold.PLP.Chemscore.Internal.Correction>
0.0880

> <Gold.Rescore>
     Score         DG    S(hbond)    S(metal)    S(lipo)     H(rot)  DE(clash)    DE(int)     intcor
     10.93     -13.05       1.79        0.00      71.73       2.65       0.24       1.88       ----

> <Gold.Chemscore.Fitness>
10.9273

> <Gold.Chemscore.DG>
-13.0479

> <Gold.Chemscore.ZeroCoef>
-5.4800

> <Gold.Chemscore.Hbond>
1.7880

> <Gold.Chemscore.Metal>
0.0000

> <Gold.Chemscore.Lipo>
71.7281

> <Gold.Chemscore.Internal_Hbond>
0.0000

> <Gold.Chemscore.DEClash>
0.2388

> <Gold.Chemscore.DEInternal>
1.8818

> <Gold.Chemscore.Rot>
2.6548

> <Gold.Chemscore.Internal.Correction>
   9.000000E+99

> <Gold.Chemscore.Hbonds>
donor molecule, donor type, donor heavy atom, donor atom, acceptor molecule, acceptor atom, score
      P1  H  7997  8008       L1    20  0.39
      P1  H 10752 10764       L1     1  0.93

> <Gold.Chemscore.Hbond.Weighted>
-5.9721

> <Gold.Chemscore.Metal.Weighted>
-0.0000

> <Gold.Chemscore.Lipo.Weighted>
-8.3922

> <Gold.Chemscore.Internal_Hbond.Weighted>
0.0000

> <Gold.Chemscore.DEClash.Weighted>
0.2388

> <Gold.Chemscore.DEInternal.Weighted>
1.8818

> <Gold.Chemscore.Rot.Weighted>
6.7963

> <Gold.Chemscore.Internal.Correction.Weighted>
   9.000000E+99

> <Gold.Protein.RotatedTorsions>
[ 6907 6896 6895 6894 ] final -100.83 input  -60.11 | X-H torsion
[ 7974 7965 7964 7962 ] final  106.20 input  175.53 | X-H torsion
[ 8008 7997 7996 7995 ] final  -61.33 input   59.86 | X-H torsion
[ 10167 10162 10161 10158 ] final   61.99 input  -65.29 | X-H torsion
[ 10718 10713 10712 10709 ] final  -84.70 input   66.30 | X-H torsion
[ 10763 10752 10751 10750 ] final  -63.98 input  -60.55 | X-H torsion
[ 11005 11000 10999 10996 ] final  -80.63 input  -57.11 | X-H torsion

> <Gold.Protein.ActiveResidues>
 VAL166  LYS551  ARG553  GLY616  TRP617  ASP618  TYR619  PRO620  LYS621  CYS622 
 ASP623  PHE694  ASN695  SER759  ASP760  ASP761  ALA762  ILE779  LEU786  VAL792 
 PHE793  MET794  SER795  GLU796  ALA797  LYS798  CYS799  TRP800  GLU811  SER814 

> <Gold.Protein.RotatedAtoms>
  150.7131  134.0827  159.3903 H   0  0  0  0  0  0  0  0  0  0  0  0  # atno 6907 bound_to 6896
  151.8811  135.0451  160.0498 H   0  0  0  0  0  0  0  0  0  0  0  0  # atno 6908 bound_to 6896
  152.2567  133.5226  159.5394 H   0  0  0  0  0  0  0  0  0  0  0  0  # atno 6909 bound_to 6896
  145.3097  139.2544  143.3769 H   0  0  0  0  0  0  0  0  0  0  0  0  # atno 7974 bound_to 7965
  154.4442  140.1020  156.6414 H   0  0  0  0  0  0  0  0  0  0  0  0  # atno 8008 bound_to 7997
  155.5497  140.3485  155.4447 H   0  0  0  0  0  0  0  0  0  0  0  0  # atno 8009 bound_to 7997
  156.0537  140.1310  157.0010 H   0  0  0  0  0  0  0  0  0  0  0  0  # atno 8010 bound_to 7997
  140.1488  144.4483  150.6770 H   0  0  0  0  0  0  0  0  0  0  0  0  # atno 10167 bound_to 10162
  156.0003  130.4706  150.4450 H   0  0  0  0  0  0  0  0  0  0  0  0  # atno 10718 bound_to 10713
  154.3233  135.6192  153.5517 H   0  0  0  0  0  0  0  0  0  0  0  0  # atno 10763 bound_to 10752
  152.9818  135.5729  154.5045 H   0  0  0  0  0  0  0  0  0  0  0  0  # atno 10764 bound_to 10752
  154.4718  135.2859  155.1614 H   0  0  0  0  0  0  0  0  0  0  0  0  # atno 10765 bound_to 10752
  141.1667  133.7159  156.8302 H   0  0  0  0  0  0  0  0  0  0  0  0  # atno 11005 bound_to 11000
  146.3122  140.3630  142.8666 LP  0  0  0  0  0  0  0  0  0  0  0  0  # atno 17320 bound_to 7965
  144.9026  140.7661  143.5857 LP  0  0  0  0  0  0  0  0  0  0  0  0  # atno 17321 bound_to 7965
  140.6715  143.2288  151.5613 LP  0  0  0  0  0  0  0  0  0  0  0  0  # atno 17342 bound_to 10162
  139.5436  144.2581  152.1399 LP  0  0  0  0  0  0  0  0  0  0  0  0  # atno 17343 bound_to 10162
  157.2487  131.0541  151.2392 LP  0  0  0  0  0  0  0  0  0  0  0  0  # atno 17370 bound_to 10713
  157.3549  130.7101  149.6464 LP  0  0  0  0  0  0  0  0  0  0  0  0  # atno 17371 bound_to 10713
  140.2056  134.8865  157.3218 LP  0  0  0  0  0  0  0  0  0  0  0  0  # atno 17394 bound_to 11000
  140.2140  134.4103  155.7598 LP  0  0  0  0  0  0  0  0  0  0  0  0  # atno 17395 bound_to 11000

$$$$
