#       Name:                AV-unprocessed.smi:100
#       Creating user name   scv26
#       Creation time:       Thu Mar 26 17:40:18 2020


#       File generated by GOLD software.
#

@<TRIPOS>MOLECULE
AV-unprocessed.smi:100
    40    42     1
SMALL
NO_CHARGES


@<TRIPOS>ATOM
      1 ****        -5.1419   0.2396  -0.1630 N.pl3          1 S1                 0.0000
      2 ****        -3.9633   0.8627  -0.0278 C.ar           1 S1                 0.0000
      3 ****        -3.9600   2.1545   0.3784 N.ar           1 S1                 0.0000
      4 ****        -2.7959   2.7975   0.5221 C.ar           1 S1                 0.0000
      5 ****        -1.5568   2.3411   0.3160 N.ar           1 S1                 0.0000
      6 ****        -1.5665   1.0392  -0.0945 C.ar           1 S1                 0.0000
      7 ****        -2.7206   0.2325  -0.2885 C.ar           1 S1                 0.0000
      8 ****        -2.3439  -1.0374  -0.7049 N.2            1 S1                 0.0000
      9 ****        -1.0392  -0.9795  -0.7511 C.2            1 S1                 0.0000
     10 ****        -0.4895   0.2354  -0.3959 N.pl3          1 S1                 0.0000
     11 ****         0.9505   0.6492  -0.3401 C.3            1 S1                 0.0000
     12 ****         1.7033  -0.2769  -1.0694 O.3            1 S1                 0.0000
     13 ****         2.3869  -1.1489  -0.1749 C.3            1 S1                 0.0000
     14 ****         3.5848  -1.8045  -0.8763 C.3            1 S1                 0.0000
     15 ****         3.1528  -2.9304  -1.6097 O.3            1 S1                 0.0000
     16 ****         2.7781  -0.1703   0.9283 C.3            1 S1                 0.0000
     17 ****         3.1913  -0.7561   2.0538 F              1 S1                 0.0000
     18 ****         1.5117   0.6537   1.1031 C.3            1 S1                 0.0000
     19 ****         0.6458   0.0615   2.0590 O.3            1 S1                 0.0000
     20 ****        -5.1678  -0.7244  -0.4637 H              1 S1                 0.0000
     21 ****        -5.9997   0.7328   0.0375 H              1 S1                 0.0000
     22 ****        -2.8676   3.8243   0.8495 H              1 S1                 0.0000
     23 ****        -0.4434  -1.8299  -1.0490 H              1 S1                 0.0000
     24 ****         0.9806   1.6234  -0.8300 H              1 S1                 0.0000
     25 ****         1.7025  -1.9000   0.2243 H              1 S1                 0.0000
     26 ****         4.0986  -1.0986  -1.5296 H              1 S1                 0.0000
     27 ****         4.3083  -2.1515  -0.1380 H              1 S1                 0.0000
     28 ****         3.9044  -3.3262  -2.0241 H              1 S1                 0.0000
     29 ****         3.5914   0.4713   0.5856 H              1 S1                 0.0000
     30 ****         1.7339   1.6757   1.4116 H              1 S1                 0.0000
     31 ****        -0.1686   0.5414   2.0613 H              1 S1                 0.0000
     32 ****        -4.8218   2.6244   0.5696 LP             1 S1                 0.0000
     33 ****        -0.7275   2.8845   0.4460 LP             1 S1                 0.0000
     34 ****        -2.9340  -1.8157  -0.9196 LP             1 S1                 0.0000
     35 ****         2.3699   0.2082  -1.6353 LP             1 S1                 0.0000
     36 ****         1.0950  -0.8120  -1.6557 LP             1 S1                 0.0000
     37 ****         2.4943  -2.6463  -2.3066 LP             1 S1                 0.0000
     38 ****         2.7220  -3.5893  -0.9930 LP             1 S1                 0.0000
     39 ****         1.0649   0.1031   2.9660 LP             1 S1                 0.0000
     40 ****         0.4748  -0.8929   1.8143 LP             1 S1                 0.0000
@<TRIPOS>BOND
    1    1    2 1     
    2    1   20 1     
    3    1   21 1     
    4    2    7 ar    
    5    2    3 ar    
    6    3    4 ar    
    7    4    5 ar    
    8    4   22 1     
    9    5    6 ar    
   10    6   10 1     
   11    6    7 ar    
   12    7    8 1     
   13    8    9 2     
   14    9   10 1     
   15    9   23 1     
   16   10   11 1     
   17   11   18 1     
   18   11   12 1     
   19   11   24 1     
   20   12   13 1     
   21   13   14 1     
   22   13   16 1     
   23   13   25 1     
   24   14   15 1     
   25   14   26 1     
   26   14   27 1     
   27   15   28 1     
   28   16   17 1     
   29   16   18 1     
   30   16   29 1     
   31   18   19 1     
   32   18   30 1     
   33   19   31 1     
   34    3   32 1     
   35    5   33 1     
   36    8   34 1     
   37   12   35 1     
   38   12   36 1     
   39   15   37 1     
   40   15   38 1     
   41   19   39 1     
   42   19   40 1     
@<TRIPOS>SUBSTRUCTURE
      1 S1             1
@<TRIPOS>SET
LONE_PAIRS      STATIC     ATOMS    <user>   **** ""
9 32 33 34 35 36 37 38 39 40
DONOR_HYDROGENS      STATIC     ATOMS    <user>   **** ""
4 20 21 28 31
ATOM$BLUE        STATIC     ATOMS    COLORGROUP SYSTEM
9 32 33 34 35 36 37 38 39 40
ATOM$RED        STATIC     ATOMS    COLORGROUP SYSTEM
4 20 21 28 31
