AV-unprocessed.smi:283|AV-procd|sdf|2126|dock2
  -GOLD-   2262021433D 1   1.00000     0.00000
 Structure written by MMmdl.
 48 51  0  0  0  0  0  0  0  0  1 V2000
  149.4392  141.0177  157.6035 C   0  0  0  0  0  0  0  0  0  0  0  0
  150.9759  140.9609  157.6758 C   0  0  1  0  0  0  0  0  0  0  0  0
  151.5543  140.6393  156.3716 N   0  0  0  0  0  0  0  0  0  0  0  0
  151.4585  139.4016  155.8371 C   0  0  0  0  0  0  0  0  0  0  0  0
  151.8786  139.1425  154.5709 N   0  0  0  0  0  0  0  0  0  0  0  0
  151.7679  137.9092  154.0675 C   0  0  0  0  0  0  0  0  0  0  0  0
  151.2738  136.8121  154.6466 N   0  0  0  0  0  0  0  0  0  0  0  0
  150.8460  137.0711  155.9160 C   0  0  0  0  0  0  0  0  0  0  0  0
  150.9036  138.3275  156.5793 C   0  0  0  0  0  0  0  0  0  0  0  0
  150.3816  138.2062  157.8608 N   0  0  0  0  0  0  0  0  0  0  0  0
  150.0377  136.9486  157.9447 C   0  0  0  0  0  0  0  0  0  0  0  0
  150.2832  136.1944  156.8164 N   0  0  0  0  0  0  0  0  0  0  0  0
  150.0242  134.7431  156.5707 C   0  0  2  0  0  0  0  0  0  0  0  0
  149.3329  134.6302  155.3599 O   0  0  0  0  0  0  0  0  0  0  0  0
  148.0275  134.0932  155.5657 C   0  0  2  0  0  0  0  0  0  0  0  0
  147.0388  134.7484  154.5888 C   0  0  0  0  0  0  0  0  0  0  0  0
  147.4580  134.5502  153.2555 O   0  0  0  0  0  0  0  0  0  0  0  0
  147.7386  134.3543  157.0457 C   0  0  1  0  0  0  0  0  0  0  0  0
  146.7799  133.4749  157.6011 O   0  0  0  0  0  0  0  0  0  0  0  0
  149.1139  134.1971  157.6774 C   0  0  1  0  0  0  0  0  0  0  0  0
  149.4403  132.8531  157.9814 O   0  0  0  0  0  0  0  0  0  0  0  0
  151.5189  142.2667  158.2544 C   0  0  0  0  0  0  0  0  0  0  0  0
  151.0760  143.5075  157.7375 C   0  0  0  0  0  0  0  0  0  0  0  0
  151.5606  144.7196  158.2643 C   0  0  0  0  0  0  0  0  0  0  0  0
  152.4896  144.7060  159.3197 C   0  0  0  0  0  0  0  0  0  0  0  0
  152.9278  143.4790  159.8505 C   0  0  0  0  0  0  0  0  0  0  0  0
  152.4459  142.2620  159.3280 C   0  0  0  0  0  0  0  0  0  0  0  0
  153.0067  140.7867  160.0350 Cl  0  0  0  0  0  0  0  0  0  0  0  0
  151.0151  134.2887  156.5246 H   0  0  0  0  0  0  0  0  0  0  0  0
  148.0936  133.0196  155.3791 H   0  0  0  0  0  0  0  0  0  0  0  0
  147.3975  135.3819  157.1796 H   0  0  0  0  0  0  0  0  0  0  0  0
  149.2121  134.7826  158.5930 H   0  0  0  0  0  0  0  0  0  0  0  0
  149.0094  141.2100  158.5869 H   0  0  0  0  0  0  0  0  0  0  0  0
  149.0132  140.0816  157.2431 H   0  0  0  0  0  0  0  0  0  0  0  0
  149.1048  141.8118  156.9352 H   0  0  0  0  0  0  0  0  0  0  0  0
  151.2638  140.1590  158.3544 H   0  0  0  0  0  0  0  0  0  0  0  0
  151.9494  141.4199  155.8674 H   0  0  0  0  0  0  0  0  0  0  0  0
  152.1262  137.7843  153.0564 H   0  0  0  0  0  0  0  0  0  0  0  0
  149.5938  136.5385  158.8398 H   0  0  0  0  0  0  0  0  0  0  0  0
  146.0316  134.3528  154.7209 H   0  0  0  0  0  0  0  0  0  0  0  0
  146.9895  135.8220  154.7712 H   0  0  0  0  0  0  0  0  0  0  0  0
  148.0997  135.2104  153.0406 H   0  0  0  0  0  0  0  0  0  0  0  0
  146.2488  133.9635  158.2120 H   0  0  0  0  0  0  0  0  0  0  0  0
  148.7303  132.4782  158.4801 H   0  0  0  0  0  0  0  0  0  0  0  0
  150.3555  143.5411  156.9339 H   0  0  0  0  0  0  0  0  0  0  0  0
  151.2168  145.6602  157.8596 H   0  0  0  0  0  0  0  0  0  0  0  0
  152.8618  145.6351  159.7256 H   0  0  0  0  0  0  0  0  0  0  0  0
  153.6359  143.4725  160.6662 H   0  0  0  0  0  0  0  0  0  0  0  0
  1  2  1  0  0  0  0
  1 33  1  0  0  0  0
  1 34  1  0  0  0  0
  1 35  1  0  0  0  0
  2  3  1  0  0  0  0
  2 22  1  0  0  0  0
  2 36  1  0  0  0  0
  3  4  1  0  0  0  0
  3 37  1  0  0  0  0
  4  9  1  0  0  0  0
  4  5  2  0  0  0  0
  5  6  1  0  0  0  0
  6  7  2  0  0  0  0
  6 38  1  0  0  0  0
  7  8  1  0  0  0  0
  8 12  1  0  0  0  0
  8  9  2  0  0  0  0
  9 10  1  0  0  0  0
 10 11  2  0  0  0  0
 11 12  1  0  0  0  0
 11 39  1  0  0  0  0
 12 13  1  0  0  0  0
 13 29  1  0  0  0  0
 13 20  1  0  0  0  0
 13 14  1  0  0  0  0
 14 15  1  0  0  0  0
 15 30  1  0  0  0  0
 15 16  1  0  0  0  0
 15 18  1  0  0  0  0
 16 17  1  0  0  0  0
 16 40  1  0  0  0  0
 16 41  1  0  0  0  0
 17 42  1  0  0  0  0
 18 31  1  0  0  0  0
 18 19  1  0  0  0  0
 18 20  1  0  0  0  0
 19 43  1  0  0  0  0
 20 32  1  0  0  0  0
 20 21  1  0  0  0  0
 21 44  1  0  0  0  0
 22 27  1  0  0  0  0
 22 23  2  0  0  0  0
 23 24  1  0  0  0  0
 23 45  1  0  0  0  0
 24 25  2  0  0  0  0
 24 46  1  0  0  0  0
 25 26  1  0  0  0  0
 25 47  1  0  0  0  0
 26 27  2  0  0  0  0
 26 48  1  0  0  0  0
 27 28  1  0  0  0  0
M  END
> <s_m_source_file>
AV-unprocessed.smi

> <i_m_source_file_index>
283

> <i_lp_mmshare_version>
43012

> <i_f3d_flags>
0

> <s_epik_input>
Q2xjMVtjSF1bY0hdW2NIXVtjSF1jMVtDQEhdKFtDSDNdKVtOSF1jKG5bY0hdbjIpYyhjMjMpbltjSF1uM1tDQEBIXTRPW0NASF0oW0NIMl1bT0hdKVtDQEBIXShbT0hdKVtDQEhdNFtPSF0=

> <s_epik_cmdline>
J2VwaWtfcHl0aG9uJywgJy1waCcsICc3LjAnLCAnLXRuJywgJzgnLCAnLW1hJywgJzIwMCcsICctbWV0YWxfYmluZGluZycsICctaW1hZScsICc8aW5maWxlLm1hZT4nLCAnLW9tYWUnLCAnPG91dGZpbGUubWFlPic=

> <r_lp_tautomer_probability>
1

> <r_epik_Ionization_Penalty>
0.000266407

> <r_epik_Ionization_Penalty_Charging>
0

> <r_epik_Ionization_Penalty_Neutral>
0.000266407

> <r_epik_State_Penalty>
-0

> <r_epik_Charging_Adjusted_Penalty>
0

> <i_epik_Tot_Q>
0

> <i_epik_Tot_abs_Q>
0

> <r_epik_Metal_State_Penalty>
-0

> <b_epik_Metal_Only>
0

> <s_epik_Chemistry_Notes>
This compound contains an acetal/aminal-like group ( X-CH(R)-Y where X, Y are N, S, or O) that may be acid/base labile, releasing an aldehyde.

> <s_lp_Force_Field>
OPLS_2005

> <r_lp_Energy>
43.9323

> <b_lp_Chiralities_Consistent>
1

> <s_lp_Variant>
AV-unprocessed.smi:283-2

> <Gold.Version>
5.8.1

> <Gold.Id.Protein>
6NUR|6NUR_protein|mol2

> <Gold.PLP.Fitness>
50.7225

> <Gold.PLP.PLP>
-38.8260

> <Gold.PLP.part.hbond>
-4.0000

> <Gold.PLP.part.metal>
0.0000

> <Gold.PLP.part.buried>
-4.8842

> <Gold.PLP.part.nonpolar>
-30.6506

> <Gold.PLP.part.repulsive>
0.4668

> <Gold.PLP.ligand.clash>
0.0000

> <Gold.PLP.ligand.torsion>
0.6904

> <Gold.PLP.Chemscore.Hbond>
3.5376

> <Gold.PLP.Chemscore.CHOScore>
0.8472

> <Gold.PLP.Chemscore.Metal>
0.0000

> <Gold.Chemscore.Hbonds>
donor molecule, donor type, donor heavy atom, donor atom, acceptor molecule, acceptor atom, score
      L1  H    17    42       P1  7948  1.00
      P1  H  6896  6909       L1    21  0.36
      P1  H  7989  7998       L1     5  0.95
      P1  H 10752 10764       L1     7  0.91
      L1  C     6    38       P1  7949  0.79

> <Gold.PLP.Chemscore.Internal.Correction>
0.1229

> <Gold.Rescore>
     Score         DG    S(hbond)    S(metal)    S(lipo)     H(rot)  DE(clash)    DE(int)     intcor
     10.58     -13.65       2.35        0.00      92.25       4.10       0.36       2.71       ----

> <Gold.Chemscore.Fitness>
10.5778

> <Gold.Chemscore.DG>
-13.6498

> <Gold.Chemscore.ZeroCoef>
-5.4800

> <Gold.Chemscore.Hbond>
2.3545

> <Gold.Chemscore.Metal>
0.0000

> <Gold.Chemscore.Lipo>
92.2547

> <Gold.Chemscore.Internal_Hbond>
0.0000

> <Gold.Chemscore.DEClash>
0.3647

> <Gold.Chemscore.DEInternal>
2.7073

> <Gold.Chemscore.Rot>
4.0968

> <Gold.Chemscore.Internal.Correction>
   9.000000E+99

> <Gold.Chemscore.Hbonds>
donor molecule, donor type, donor heavy atom, donor atom, acceptor molecule, acceptor atom, score
      L1  H    17    42       P1  7948  0.94
      P1  H  6896  6909       L1    21  0.03
      P1  H  7989  7998       L1     5  0.56
      P1  H 10752 10764       L1     7  0.18

> <Gold.Chemscore.Hbond.Weighted>
-7.8639

> <Gold.Chemscore.Metal.Weighted>
-0.0000

> <Gold.Chemscore.Lipo.Weighted>
-10.7938

> <Gold.Chemscore.Internal_Hbond.Weighted>
0.0000

> <Gold.Chemscore.DEClash.Weighted>
0.3647

> <Gold.Chemscore.DEInternal.Weighted>
2.7073

> <Gold.Chemscore.Rot.Weighted>
10.4879

> <Gold.Chemscore.Internal.Correction.Weighted>
   9.000000E+99

> <Gold.Protein.RotatedTorsions>
[ 6907 6896 6895 6894 ] final  -30.62 input  -60.11 | X-H torsion
[ 7974 7965 7964 7962 ] final -174.08 input  175.53 | X-H torsion
[ 8008 7997 7996 7995 ] final  126.67 input   59.86 | X-H torsion
[ 10167 10162 10161 10158 ] final   91.89 input  -65.29 | X-H torsion
[ 10718 10713 10712 10709 ] final -132.45 input   66.30 | X-H torsion
[ 10763 10752 10751 10750 ] final  -62.27 input  -60.55 | X-H torsion
[ 11005 11000 10999 10996 ] final   64.53 input  -57.11 | X-H torsion

> <Gold.Protein.ActiveResidues>
 VAL166  LYS551  ARG553  GLY616  TRP617  ASP618  TYR619  PRO620  LYS621  CYS622 
 ASP623  PHE694  ASN695  SER759  ASP760  ASP761  ALA762  ILE779  LEU786  VAL792 
 PHE793  MET794  SER795  GLU796  ALA797  LYS798  CYS799  TRP800  GLU811  SER814 

> <Gold.Protein.RotatedAtoms>
  151.1031  134.9984  159.8457 H   0  0  0  0  0  0  0  0  0  0  0  0  # atno 6907 bound_to 6896
  152.5438  134.1926  159.8690 H   0  0  0  0  0  0  0  0  0  0  0  0  # atno 6908 bound_to 6896
  151.1970  133.4589  159.2629 H   0  0  0  0  0  0  0  0  0  0  0  0  # atno 6909 bound_to 6896
  144.7134  140.1525  143.6383 H   0  0  0  0  0  0  0  0  0  0  0  0  # atno 7974 bound_to 7965
  156.2870  140.2687  156.2149 H   0  0  0  0  0  0  0  0  0  0  0  0  # atno 8008 bound_to 7997
  155.0226  140.0386  157.2461 H   0  0  0  0  0  0  0  0  0  0  0  0  # atno 8009 bound_to 7997
  154.7422  140.2727  155.6368 H   0  0  0  0  0  0  0  0  0  0  0  0  # atno 8010 bound_to 7997
  139.8330  144.6678  150.9376 H   0  0  0  0  0  0  0  0  0  0  0  0  # atno 10167 bound_to 10162
  156.2347  130.7059  151.0895 H   0  0  0  0  0  0  0  0  0  0  0  0  # atno 10718 bound_to 10713
  154.2974  135.6241  153.5410 H   0  0  0  0  0  0  0  0  0  0  0  0  # atno 10763 bound_to 10752
  152.9845  135.5670  154.5323 H   0  0  0  0  0  0  0  0  0  0  0  0  # atno 10764 bound_to 10752
  154.4946  135.2869  155.1446 H   0  0  0  0  0  0  0  0  0  0  0  0  # atno 10765 bound_to 10752
  139.9953  134.6527  156.0021 H   0  0  0  0  0  0  0  0  0  0  0  0  # atno 11005 bound_to 11000
  145.9104  139.2483  143.1441 LP  0  0  0  0  0  0  0  0  0  0  0  0  # atno 17320 bound_to 7965
  145.9722  140.8751  143.0157 LP  0  0  0  0  0  0  0  0  0  0  0  0  # atno 17321 bound_to 7965
  140.7805  143.3983  151.1192 LP  0  0  0  0  0  0  0  0  0  0  0  0  # atno 17342 bound_to 10162
  139.7635  143.8600  152.3105 LP  0  0  0  0  0  0  0  0  0  0  0  0  # atno 17343 bound_to 10162
  157.7149  131.0715  150.6364 LP  0  0  0  0  0  0  0  0  0  0  0  0  # atno 17370 bound_to 10713
  156.6434  130.4465  149.5744 LP  0  0  0  0  0  0  0  0  0  0  0  0  # atno 17371 bound_to 10713
  141.1599  133.6539  156.4284 LP  0  0  0  0  0  0  0  0  0  0  0  0  # atno 17394 bound_to 11000
  140.4830  134.6647  157.5179 LP  0  0  0  0  0  0  0  0  0  0  0  0  # atno 17395 bound_to 11000

$$$$
