AV-unprocessed.smi:1556|AV-procd|sdf|6268|dock9
  -GOLD-   22720 6463D 1   1.00000     0.00000
 Structure written by MMmdl.
 37 38  0  0  0  0  0  0  0  0  1 V2000
  144.3920  132.5420  149.4027 C   0  0  0  0  0  0  0  0  0  0  0  0
  144.8130  133.5859  150.3121 N   0  0  0  0  0  0  0  0  0  0  0  0
  144.0905  134.6618  150.7810 C   0  0  0  0  0  0  0  0  0  0  0  0
  144.9080  135.3740  151.6125 C   0  0  0  0  0  0  0  0  0  0  0  0
  144.6030  136.6329  152.3752 C   0  0  0  0  0  0  0  0  0  0  0  0
  145.5919  137.7584  152.0308 C   0  0  0  0  0  0  0  0  0  0  0  0
  146.8973  137.5253  152.6366 N   0  0  0  0  0  0  0  0  0  0  0  0
  147.4476  138.2867  153.5977 C   0  0  0  0  0  0  0  0  0  0  0  0
  146.9031  139.2849  154.0655 O   0  0  0  0  0  0  0  0  0  0  0  0
  148.6608  137.8817  154.0136 N   0  0  0  0  0  0  0  0  0  0  0  0
  149.5160  138.4872  155.0351 C   0  0  2  0  0  0  0  0  0  0  0  0
  149.5784  140.0167  154.8637 C   0  0  0  0  0  0  0  0  0  0  0  0
  150.7398  140.5629  155.7045 C   0  0  0  0  0  0  0  0  0  0  0  0
  151.9921  139.2257  155.7775 S   0  0  0  0  0  0  0  0  0  0  0  0
  153.1240  139.5570  154.8989 O   0  0  0  0  0  0  0  0  0  0  0  0
  152.2078  138.8543  157.1840 O   0  0  0  0  0  0  0  0  0  0  0  0
  150.9551  137.9520  154.9675 C   0  0  0  0  0  0  0  0  0  0  0  0
  146.1272  134.6377  151.5864 C   0  0  0  0  0  0  0  0  0  0  0  0
  146.0676  133.5701  150.8071 N   0  0  0  0  0  0  0  0  0  0  0  0
  143.3400  132.6710  149.1467 H   0  0  0  0  0  0  0  0  0  0  0  0
  144.5254  131.5668  149.8717 H   0  0  0  0  0  0  0  0  0  0  0  0
  144.9872  132.5861  148.4903 H   0  0  0  0  0  0  0  0  0  0  0  0
  143.0651  134.8312  150.4870 H   0  0  0  0  0  0  0  0  0  0  0  0
  143.5863  136.9660  152.1636 H   0  0  0  0  0  0  0  0  0  0  0  0
  144.6339  136.4427  153.4487 H   0  0  0  0  0  0  0  0  0  0  0  0
  145.7269  137.8203  150.9507 H   0  0  0  0  0  0  0  0  0  0  0  0
  145.1977  138.7249  152.3499 H   0  0  0  0  0  0  0  0  0  0  0  0
  147.4182  136.7267  152.3048 H   0  0  0  0  0  0  0  0  0  0  0  0
  149.0500  137.0807  153.5372 H   0  0  0  0  0  0  0  0  0  0  0  0
  149.1109  138.2874  156.0288 H   0  0  0  0  0  0  0  0  0  0  0  0
  149.7685  140.2525  153.8154 H   0  0  0  0  0  0  0  0  0  0  0  0
  148.6347  140.4940  155.1291 H   0  0  0  0  0  0  0  0  0  0  0  0
  151.1784  141.4678  155.2836 H   0  0  0  0  0  0  0  0  0  0  0  0
  150.4153  140.7751  156.7233 H   0  0  0  0  0  0  0  0  0  0  0  0
  151.0837  136.9912  155.4661 H   0  0  0  0  0  0  0  0  0  0  0  0
  151.2924  137.8571  153.9347 H   0  0  0  0  0  0  0  0  0  0  0  0
  147.0498  134.8490  152.1066 H   0  0  0  0  0  0  0  0  0  0  0  0
  1  2  1  0  0  0  0
  1 20  1  0  0  0  0
  1 21  1  0  0  0  0
  1 22  1  0  0  0  0
  2 19  1  0  0  0  0
  2  3  1  0  0  0  0
  3  4  2  0  0  0  0
  3 23  1  0  0  0  0
  4  5  1  0  0  0  0
  4 18  1  0  0  0  0
  5  6  1  0  0  0  0
  5 24  1  0  0  0  0
  5 25  1  0  0  0  0
  6  7  1  0  0  0  0
  6 26  1  0  0  0  0
  6 27  1  0  0  0  0
  7  8  1  0  0  0  0
  7 28  1  0  0  0  0
  8  9  2  0  0  0  0
  8 10  1  0  0  0  0
 10 11  1  0  0  0  0
 10 29  1  0  0  0  0
 11 17  1  0  0  0  0
 11 12  1  0  0  0  0
 11 30  1  0  0  0  0
 12 13  1  0  0  0  0
 12 31  1  0  0  0  0
 12 32  1  0  0  0  0
 13 14  1  0  0  0  0
 13 33  1  0  0  0  0
 13 34  1  0  0  0  0
 14 15  2  0  0  0  0
 14 16  2  0  0  0  0
 14 17  1  0  0  0  0
 17 35  1  0  0  0  0
 17 36  1  0  0  0  0
 18 19  2  0  0  0  0
 18 37  1  0  0  0  0
M  END
> <s_m_source_file>
AV-unprocessed.smi

> <i_m_source_file_index>
1556

> <i_lp_mmshare_version>
43012

> <i_f3d_flags>
0

> <s_epik_input>
W0NIM11uMVtjSF1jKFtjSF1uMSlbQ0gyXVtDSDJdW05IXUMoPU8pW05IXVtDQEBIXShbQ0gyXTIpW0NIMl1bQ0gyXVMyKD1PKT1P

> <s_epik_cmdline>
J2VwaWtfcHl0aG9uJywgJy1waCcsICc3LjAnLCAnLXRuJywgJzgnLCAnLW1hJywgJzIwMCcsICctbWV0YWxfYmluZGluZycsICctaW1hZScsICc8aW5maWxlLm1hZT4nLCAnLW9tYWUnLCAnPG91dGZpbGUubWFlPic=

> <r_lp_tautomer_probability>
1

> <r_epik_Ionization_Penalty>
0.000530192

> <r_epik_Ionization_Penalty_Charging>
0

> <r_epik_Ionization_Penalty_Neutral>
0.000530192

> <r_epik_State_Penalty>
-0

> <r_epik_Charging_Adjusted_Penalty>
0

> <i_epik_Tot_Q>
0

> <i_epik_Tot_abs_Q>
0

> <r_epik_Metal_State_Penalty>
-0

> <b_epik_Metal_Only>
0

> <s_lp_Force_Field>
OPLS_2005

> <r_lp_Energy>
8.62968

> <b_lp_Chiralities_Consistent>
1

> <s_lp_Variant>
AV-unprocessed.smi:1556-1

> <Gold.Version>
5.8.1

> <Gold.Id.Protein>
6NUR|6NUR_protein|mol2

> <Gold.PLP.Fitness>
45.3794

> <Gold.PLP.PLP>
-31.6342

> <Gold.PLP.part.hbond>
-3.8927

> <Gold.PLP.part.metal>
0.0000

> <Gold.PLP.part.buried>
-0.4369

> <Gold.PLP.part.nonpolar>
-27.7185

> <Gold.PLP.part.repulsive>
0.4292

> <Gold.PLP.ligand.clash>
0.0000

> <Gold.PLP.ligand.torsion>
0.2604

> <Gold.PLP.Chemscore.Hbond>
2.7542

> <Gold.PLP.Chemscore.CHOScore>
2.0000

> <Gold.PLP.Chemscore.Metal>
0.0000

> <Gold.Chemscore.Hbonds>
donor molecule, donor type, donor heavy atom, donor atom, acceptor molecule, acceptor atom, score
      L1  H     7    28       P1  7948  0.86
      L1  H    10    29       P1  7948  0.80
      P1  H  7989  7998       L1    15  0.02
      P1  H  7997  8009       L1    15  1.00
      L1  C     3    23       P1 10186  1.00
      L1  C    18    37       P1  7948  1.00

> <Gold.PLP.Chemscore.Internal.Correction>
0.0032

> <Gold.Rescore>
     Score         DG    S(hbond)    S(metal)    S(lipo)     H(rot)  DE(clash)    DE(int)     intcor
     14.48     -16.22       2.44        0.00      61.98       1.82       0.11       1.62       ----

> <Gold.Chemscore.Fitness>
14.4822

> <Gold.Chemscore.DG>
-16.2151

> <Gold.Chemscore.ZeroCoef>
-5.4800

> <Gold.Chemscore.Hbond>
2.4395

> <Gold.Chemscore.Metal>
0.0000

> <Gold.Chemscore.Lipo>
61.9775

> <Gold.Chemscore.Internal_Hbond>
0.0000

> <Gold.Chemscore.DEClash>
0.1119

> <Gold.Chemscore.DEInternal>
1.6210

> <Gold.Chemscore.Rot>
1.8220

> <Gold.Chemscore.Internal.Correction>
   9.000000E+99

> <Gold.Chemscore.Hbonds>
donor molecule, donor type, donor heavy atom, donor atom, acceptor molecule, acceptor atom, score
      L1  H     7    28       P1  7948  0.85
      L1  H    10    29       P1  7948  0.79
      P1  H  7997  8009       L1    15  0.65

> <Gold.Chemscore.Hbond.Weighted>
-8.1480

> <Gold.Chemscore.Metal.Weighted>
-0.0000

> <Gold.Chemscore.Lipo.Weighted>
-7.2514

> <Gold.Chemscore.Internal_Hbond.Weighted>
0.0000

> <Gold.Chemscore.DEClash.Weighted>
0.1119

> <Gold.Chemscore.DEInternal.Weighted>
1.6210

> <Gold.Chemscore.Rot.Weighted>
4.6642

> <Gold.Chemscore.Internal.Correction.Weighted>
   9.000000E+99

> <Gold.Protein.RotatedTorsions>
[ 6907 6896 6895 6894 ] final   65.19 input  -60.11 | X-H torsion
[ 7974 7965 7964 7962 ] final  145.36 input  175.53 | X-H torsion
[ 8008 7997 7996 7995 ] final -137.41 input   59.86 | X-H torsion
[ 10167 10162 10161 10158 ] final  -52.92 input  -65.29 | X-H torsion
[ 10718 10713 10712 10709 ] final  -46.73 input   66.30 | X-H torsion
[ 10763 10752 10751 10750 ] final   75.20 input  -60.55 | X-H torsion
[ 11005 11000 10999 10996 ] final  -76.00 input  -57.11 | X-H torsion

> <Gold.Protein.ActiveResidues>
 VAL166  LYS551  ARG553  GLY616  TRP617  ASP618  TYR619  PRO620  LYS621  CYS622 
 ASP623  PHE694  ASN695  SER759  ASP760  ASP761  ALA762  ILE779  LEU786  VAL792 
 PHE793  MET794  SER795  GLU796  ALA797  LYS798  CYS799  TRP800  GLU811  SER814 

> <Gold.Protein.RotatedAtoms>
  152.4389  134.5631  159.9899 H   0  0  0  0  0  0  0  0  0  0  0  0  # atno 6907 bound_to 6896
  151.5734  133.3381  159.3002 H   0  0  0  0  0  0  0  0  0  0  0  0  # atno 6908 bound_to 6896
  150.8292  134.7571  159.6903 H   0  0  0  0  0  0  0  0  0  0  0  0  # atno 6909 bound_to 6896
  144.8759  139.5774  143.5865 H   0  0  0  0  0  0  0  0  0  0  0  0  # atno 7974 bound_to 7965
  155.4113  140.0512  157.3031 H   0  0  0  0  0  0  0  0  0  0  0  0  # atno 8008 bound_to 7997
  154.4945  140.2133  155.9437 H   0  0  0  0  0  0  0  0  0  0  0  0  # atno 8009 bound_to 7997
  156.1387  140.3158  155.8466 H   0  0  0  0  0  0  0  0  0  0  0  0  # atno 8010 bound_to 7997
  140.6512  143.2567  151.4717 H   0  0  0  0  0  0  0  0  0  0  0  0  # atno 10167 bound_to 10162
  156.2154  130.4163  149.9060 H   0  0  0  0  0  0  0  0  0  0  0  0  # atno 10718 bound_to 10713
  153.0639  135.4997  154.8155 H   0  0  0  0  0  0  0  0  0  0  0  0  # atno 10763 bound_to 10752
  154.6924  135.2987  154.9463 H   0  0  0  0  0  0  0  0  0  0  0  0  # atno 10764 bound_to 10752
  154.0213  135.6741  153.4825 H   0  0  0  0  0  0  0  0  0  0  0  0  # atno 10765 bound_to 10752
  141.1650  133.6967  156.7602 H   0  0  0  0  0  0  0  0  0  0  0  0  # atno 11005 bound_to 11000
  146.2962  139.7285  142.9125 LP  0  0  0  0  0  0  0  0  0  0  0  0  # atno 17320 bound_to 7965
  145.4044  141.0389  143.3052 LP  0  0  0  0  0  0  0  0  0  0  0  0  # atno 17321 bound_to 7965
  139.5728  144.1889  152.1860 LP  0  0  0  0  0  0  0  0  0  0  0  0  # atno 17342 bound_to 10162
  140.1190  144.5390  150.6875 LP  0  0  0  0  0  0  0  0  0  0  0  0  # atno 17343 bound_to 10162
  156.6724  130.8826  151.3564 LP  0  0  0  0  0  0  0  0  0  0  0  0  # atno 17370 bound_to 10713
  157.7060  130.9386  150.0934 LP  0  0  0  0  0  0  0  0  0  0  0  0  # atno 17371 bound_to 10713
  140.2539  134.8519  157.3694 LP  0  0  0  0  0  0  0  0  0  0  0  0  # atno 17394 bound_to 11000
  140.1676  134.4650  155.7853 LP  0  0  0  0  0  0  0  0  0  0  0  0  # atno 17395 bound_to 11000

$$$$
