AV-unprocessed.smi:55|AV-procd|sdf|573|dock2
  -GOLD-   2262016473D 1   1.00000     0.00000
 Structure written by MMmdl.
 30 31  0  0  0  0  0  0  0  0  2 V2000
  150.7368  143.0917  158.6350 C   0  0  0  0  0  0  0  0  0  0  0  0
  151.0694  141.9508  157.6890 C   0  0  0  0  0  0  0  0  0  0  0  0
  150.3717  141.7297  156.5525 C   0  0  0  0  0  0  0  0  0  0  0  0
  150.6797  140.6892  155.6907 N   0  0  0  0  0  0  0  0  0  0  0  0
  149.8892  140.4403  154.4192 C   0  0  2  0  0  0  0  0  0  0  0  0
  148.7490  141.4658  154.2722 C   0  0  0  0  0  0  0  0  0  0  0  0
  147.5138  140.5966  154.1080 C   0  0  1  0  0  0  0  0  0  0  0  0
  147.2245  140.3906  152.7371 O   0  0  0  0  0  0  0  0  0  0  0  0
  147.9194  139.2968  154.8108 C   0  0  1  0  0  0  0  0  0  0  0  0
  147.1274  138.0434  154.4004 C   0  0  0  0  0  0  0  0  0  0  0  0
  147.1965  137.8622  153.0021 O   0  0  0  0  0  0  0  0  0  0  0  0
  149.2947  139.1750  154.4642 O   0  0  0  0  0  0  0  0  0  0  0  0
  151.7446  139.8073  156.0143 C   0  0  0  0  0  0  0  0  0  0  0  0
  151.9814  138.8791  155.2405 O   0  0  0  0  0  0  0  0  0  0  0  0
  152.4555  140.0243  157.1573 N   0  5  0  0  0  0  0  0  0  0  0  0
  152.1833  141.0515  158.0121 C   0  0  0  0  0  0  0  0  0  0  0  0
  152.8389  141.2411  159.0364 O   0  0  0  0  0  0  0  0  0  0  0  0
  150.6215  140.4679  153.6106 H   0  0  0  0  0  0  0  0  0  0  0  0
  146.6387  141.0487  154.5763 H   0  0  0  0  0  0  0  0  0  0  0  0
  147.8340  139.4569  155.8873 H   0  0  0  0  0  0  0  0  0  0  0  0
  149.8727  143.6578  158.2860 H   0  0  0  0  0  0  0  0  0  0  0  0
  151.5806  143.7775  158.7147 H   0  0  0  0  0  0  0  0  0  0  0  0
  150.5092  142.7081  159.6300 H   0  0  0  0  0  0  0  0  0  0  0  0
  149.5511  142.3924  156.3257 H   0  0  0  0  0  0  0  0  0  0  0  0
  148.6680  142.0641  155.1813 H   0  0  0  0  0  0  0  0  0  0  0  0
  148.9314  142.1368  153.4318 H   0  0  0  0  0  0  0  0  0  0  0  0
  148.0190  140.5108  152.2400 H   0  0  0  0  0  0  0  0  0  0  0  0
  147.5603  137.1570  154.8648 H   0  0  0  0  0  0  0  0  0  0  0  0
  146.0875  138.1063  154.7225 H   0  0  0  0  0  0  0  0  0  0  0  0
  148.0010  137.4110  152.7969 H   0  0  0  0  0  0  0  0  0  0  0  0
  1  2  1  0  0  0  0
  1 21  1  0  0  0  0
  1 22  1  0  0  0  0
  1 23  1  0  0  0  0
  2 16  1  0  0  0  0
  2  3  2  0  0  0  0
  3  4  1  0  0  0  0
  3 24  1  0  0  0  0
  4  5  1  0  0  0  0
  4 13  1  0  0  0  0
  5 18  1  0  0  0  0
  5 12  1  0  0  0  0
  5  6  1  0  0  0  0
  6  7  1  0  0  0  0
  6 25  1  0  0  0  0
  6 26  1  0  0  0  0
  7 19  1  0  0  0  0
  7  8  1  0  0  0  0
  7  9  1  0  0  0  0
  8 27  1  0  0  0  0
  9 20  1  0  0  0  0
  9 10  1  0  0  0  0
  9 12  1  0  0  0  0
 10 11  1  0  0  0  0
 10 28  1  0  0  0  0
 10 29  1  0  0  0  0
 11 30  1  0  0  0  0
 13 14  2  0  0  0  0
 13 15  1  0  0  0  0
 15 16  1  0  0  0  0
 16 17  2  0  0  0  0
M  CHG  1  15  -1
M  END
> <s_m_source_file>
AV-unprocessed.smi

> <i_m_source_file_index>
55

> <i_lp_mmshare_version>
43012

> <i_f3d_flags>
0

> <s_epik_input>
Tz1jMVtuSF1jKD1PKW4oW2NIXWMxW0NIM10pW0NAQEhdMltDSDJdW0NAQEhdKFtPSF0pW0NAQEhdKE8yKVtDSDJdW09IXQ==

> <s_epik_cmdline>
J2VwaWtfcHl0aG9uJywgJy1waCcsICc3LjAnLCAnLXRuJywgJzgnLCAnLW1hJywgJzIwMCcsICctbWV0YWxfYmluZGluZycsICctaW1hZScsICc8aW5maWxlLm1hZT4nLCAnLW9tYWUnLCAnPG91dGZpbGUubWFlPic=

> <r_lp_tautomer_probability>
0.999537

> <r_epik_Ionization_Penalty>
3.66603

> <r_epik_Ionization_Penalty_Charging>
1.09773e-07

> <r_epik_Ionization_Penalty_Neutral>
3.66603

> <r_epik_State_Penalty>
3.66562

> <r_epik_Charging_Adjusted_Penalty>
3.66562

> <i_epik_Tot_Q>
-1

> <i_epik_Tot_abs_Q>
1

> <r_epik_Metal_State_Penalty>
0.234536

> <b_epik_Metal_Only>
1

> <s_epik_Chemistry_Notes>
This compound contains an acetal/aminal-like group ( X-CH(R)-Y where X, Y are N, S, or O) that may be acid/base labile, releasing an aldehyde.

> <s_lp_Force_Field>
OPLS_2005

> <r_lp_Energy>
39.3758

> <b_lp_Chiralities_Consistent>
1

> <s_lp_Variant>
AV-unprocessed.smi:55-13

> <Gold.Version>
5.8.1

> <Gold.Id.Protein>
6NUR|6NUR_protein|mol2

> <Gold.PLP.Fitness>
41.2816

> <Gold.PLP.PLP>
-26.2902

> <Gold.PLP.part.hbond>
-3.0000

> <Gold.PLP.part.metal>
0.0000

> <Gold.PLP.part.buried>
-2.1644

> <Gold.PLP.part.nonpolar>
-20.6596

> <Gold.PLP.part.repulsive>
0.1685

> <Gold.PLP.ligand.clash>
0.0000

> <Gold.PLP.ligand.torsion>
0.0091

> <Gold.PLP.Chemscore.Hbond>
4.0000

> <Gold.PLP.Chemscore.CHOScore>
1.0000

> <Gold.PLP.Chemscore.Metal>
0.0000

> <Gold.Chemscore.Hbonds>
donor molecule, donor type, donor heavy atom, donor atom, acceptor molecule, acceptor atom, score
      L1  H     8    27       P1  7957  1.00
      L1  H    11    30       P1  7948  1.00
      P1  H  7997  8010       L1    15  2.00
      L1  C     3    24       P1  8028  1.00

> <Gold.PLP.Chemscore.Internal.Correction>
0.0097

> <Gold.Rescore>
     Score         DG    S(hbond)    S(metal)    S(lipo)     H(rot)  DE(clash)    DE(int)     intcor
      9.54     -11.96       2.56        0.00      40.96       2.69       1.08       1.33       ----

> <Gold.Chemscore.Fitness>
9.5416

> <Gold.Chemscore.DG>
-11.9558

> <Gold.Chemscore.ZeroCoef>
-5.4800

> <Gold.Chemscore.Hbond>
2.5635

> <Gold.Chemscore.Metal>
0.0000

> <Gold.Chemscore.Lipo>
40.9645

> <Gold.Chemscore.Internal_Hbond>
0.0000

> <Gold.Chemscore.DEClash>
1.0828

> <Gold.Chemscore.DEInternal>
1.3314

> <Gold.Chemscore.Rot>
2.6871

> <Gold.Chemscore.Internal.Correction>
   9.000000E+99

> <Gold.Chemscore.Hbonds>
donor molecule, donor type, donor heavy atom, donor atom, acceptor molecule, acceptor atom, score
      L1  H     8    27       P1  7957  0.98
      L1  H    11    30       P1  7948  0.96
      P1  H  7997  8010       L1    15  0.25

> <Gold.Chemscore.Hbond.Weighted>
-8.5620

> <Gold.Chemscore.Metal.Weighted>
-0.0000

> <Gold.Chemscore.Lipo.Weighted>
-4.7929

> <Gold.Chemscore.Internal_Hbond.Weighted>
0.0000

> <Gold.Chemscore.DEClash.Weighted>
1.0828

> <Gold.Chemscore.DEInternal.Weighted>
1.3314

> <Gold.Chemscore.Rot.Weighted>
6.8791

> <Gold.Chemscore.Internal.Correction.Weighted>
   9.000000E+99

> <Gold.Protein.RotatedTorsions>
[ 6907 6896 6895 6894 ] final   70.87 input  -60.11 | X-H torsion
[ 7974 7965 7964 7962 ] final  -45.88 input  175.53 | X-H torsion
[ 8008 7997 7996 7995 ] final   70.43 input   59.86 | X-H torsion
[ 10167 10162 10161 10158 ] final  129.15 input  -65.29 | X-H torsion
[ 10718 10713 10712 10709 ] final  -41.50 input   66.30 | X-H torsion
[ 10763 10752 10751 10750 ] final  161.89 input  -60.55 | X-H torsion
[ 11005 11000 10999 10996 ] final  139.58 input  -57.11 | X-H torsion

> <Gold.Protein.ActiveResidues>
 VAL166  LYS551  ARG553  GLY616  TRP617  ASP618  TYR619  PRO620  LYS621  CYS622 
 ASP623  PHE694  ASN695  SER759  ASP760  ASP761  ALA762  ILE779  LEU786  VAL792 
 PHE793  MET794  SER795  GLU796  ALA797  LYS798  CYS799  TRP800  GLU811  SER814 

> <Gold.Protein.RotatedAtoms>
  152.4776  134.4804  159.9663 H   0  0  0  0  0  0  0  0  0  0  0  0  # atno 6907 bound_to 6896
  151.4817  133.3539  159.2847 H   0  0  0  0  0  0  0  0  0  0  0  0  # atno 6908 bound_to 6896
  150.8825  134.8244  159.7296 H   0  0  0  0  0  0  0  0  0  0  0  0  # atno 6909 bound_to 6896
  145.9776  140.7318  142.9379 H   0  0  0  0  0  0  0  0  0  0  0  0  # atno 7974 bound_to 7965
  155.7387  140.3490  155.5093 H   0  0  0  0  0  0  0  0  0  0  0  0  # atno 8008 bound_to 7997
  155.9115  140.1051  157.1297 H   0  0  0  0  0  0  0  0  0  0  0  0  # atno 8009 bound_to 7997
  154.4056  140.1267  156.4550 H   0  0  0  0  0  0  0  0  0  0  0  0  # atno 8010 bound_to 7997
  139.5492  144.6799  151.4377 H   0  0  0  0  0  0  0  0  0  0  0  0  # atno 10167 bound_to 10162
  156.2697  130.4205  149.8452 H   0  0  0  0  0  0  0  0  0  0  0  0  # atno 10718 bound_to 10713
  154.2700  135.2766  155.2742 H   0  0  0  0  0  0  0  0  0  0  0  0  # atno 10763 bound_to 10752
  154.5310  135.5729  153.6762 H   0  0  0  0  0  0  0  0  0  0  0  0  # atno 10764 bound_to 10752
  152.9947  135.6227  154.2854 H   0  0  0  0  0  0  0  0  0  0  0  0  # atno 10765 bound_to 10752
  140.0265  134.9372  157.0579 H   0  0  0  0  0  0  0  0  0  0  0  0  # atno 11005 bound_to 11000
  144.6853  140.2853  143.7286 LP  0  0  0  0  0  0  0  0  0  0  0  0  # atno 17320 bound_to 7965
  145.7816  139.1893  143.2154 LP  0  0  0  0  0  0  0  0  0  0  0  0  # atno 17321 bound_to 7965
  140.6749  143.8211  150.7046 LP  0  0  0  0  0  0  0  0  0  0  0  0  # atno 17342 bound_to 10162
  140.1647  143.4246  152.2043 LP  0  0  0  0  0  0  0  0  0  0  0  0  # atno 17343 bound_to 10162
  156.5938  130.8517  151.3415 LP  0  0  0  0  0  0  0  0  0  0  0  0  # atno 17370 bound_to 10713
  157.7279  130.9650  150.1720 LP  0  0  0  0  0  0  0  0  0  0  0  0  # atno 17371 bound_to 10713
  140.4297  134.1793  155.7167 LP  0  0  0  0  0  0  0  0  0  0  0  0  # atno 17394 bound_to 11000
  141.1806  133.8422  157.1271 LP  0  0  0  0  0  0  0  0  0  0  0  0  # atno 17395 bound_to 11000

$$$$
