AV-unprocessed.smi:2441|AV-procd|sdf|9620|dock4
  -GOLD-   2272013253D 1   1.00000     0.00000
 Structure written by MMmdl.
 40 41  0  0  0  0  0  0  0  0  1 V2000
  144.5495  135.4133  150.5120 C   0  0  0  0  0  0  0  0  0  0  0  0
  145.0976  134.3361  151.4639 C   0  0  1  0  0  0  0  0  0  0  0  0
  146.2793  133.5696  150.8342 C   0  0  0  0  0  0  0  0  0  0  0  0
  146.7943  132.4591  151.7641 C   0  0  0  0  0  0  0  0  0  0  0  0
  147.1763  133.0146  153.1442 C   0  0  0  0  0  0  0  0  0  0  0  0
  146.0041  133.7812  153.7809 C   0  0  0  0  0  0  0  0  0  0  0  0
  145.4674  134.8963  152.8608 C   0  0  1  0  0  0  0  0  0  0  0  0
  146.4494  135.9788  152.7653 N   0  0  0  0  0  0  0  0  0  0  0  0
  146.3978  137.1569  153.4038 C   0  0  0  0  0  0  0  0  0  0  0  0
  145.4837  137.4796  154.1620 O   0  0  0  0  0  0  0  0  0  0  0  0
  147.4781  137.9035  153.1089 N   0  0  0  0  0  0  0  0  0  0  0  0
  147.8177  139.1971  153.5427 C   0  0  0  0  0  0  0  0  0  0  0  0
  147.1040  140.3169  153.2636 C   0  0  0  0  0  0  0  0  0  0  0  0
  147.5321  141.6078  153.7451 C   0  0  0  0  0  0  0  0  0  0  0  0
  148.6595  141.6759  154.4662 C   0  0  0  0  0  0  0  0  0  0  0  0
  149.4222  140.5336  154.7575 N   0  0  0  0  0  0  0  0  0  0  0  0
  150.6305  140.7613  155.5554 C   0  0  0  0  0  0  0  0  0  0  0  0
  149.0624  139.2841  154.3326 C   0  0  0  0  0  0  0  0  0  0  0  0
  149.7437  138.2914  154.5997 O   0  0  0  0  0  0  0  0  0  0  0  0
  145.3101  136.1506  150.2540 H   0  0  0  0  0  0  0  0  0  0  0  0
  143.7106  135.9439  150.9629 H   0  0  0  0  0  0  0  0  0  0  0  0
  144.1944  134.9687  149.5821 H   0  0  0  0  0  0  0  0  0  0  0  0
  144.2919  133.6155  151.6141 H   0  0  0  0  0  0  0  0  0  0  0  0
  145.9730  133.1316  149.8836 H   0  0  0  0  0  0  0  0  0  0  0  0
  147.0919  134.2602  150.6044 H   0  0  0  0  0  0  0  0  0  0  0  0
  146.0243  131.6951  151.8798 H   0  0  0  0  0  0  0  0  0  0  0  0
  147.6547  131.9653  151.3117 H   0  0  0  0  0  0  0  0  0  0  0  0
  147.4832  132.1988  153.7993 H   0  0  0  0  0  0  0  0  0  0  0  0
  148.0413  133.6721  153.0488 H   0  0  0  0  0  0  0  0  0  0  0  0
  145.1980  133.0792  153.9982 H   0  0  0  0  0  0  0  0  0  0  0  0
  146.3081  134.1984  154.7420 H   0  0  0  0  0  0  0  0  0  0  0  0
  144.5526  135.2773  153.3180 H   0  0  0  0  0  0  0  0  0  0  0  0
  147.2414  135.8080  152.1632 H   0  0  0  0  0  0  0  0  0  0  0  0
  148.1721  137.4679  152.5188 H   0  0  0  0  0  0  0  0  0  0  0  0
  146.2079  140.2886  152.6658 H   0  0  0  0  0  0  0  0  0  0  0  0
  146.9575  142.4968  153.5304 H   0  0  0  0  0  0  0  0  0  0  0  0
  149.0508  142.6006  154.8661 H   0  0  0  0  0  0  0  0  0  0  0  0
  151.2534  139.8763  155.6897 H   0  0  0  0  0  0  0  0  0  0  0  0
  150.3577  141.1221  156.5478 H   0  0  0  0  0  0  0  0  0  0  0  0
  151.2538  141.5216  155.0830 H   0  0  0  0  0  0  0  0  0  0  0  0
  1  2  1  0  0  0  0
  1 20  1  0  0  0  0
  1 21  1  0  0  0  0
  1 22  1  0  0  0  0
  2  7  1  0  0  0  0
  2  3  1  0  0  0  0
  2 23  1  0  0  0  0
  3  4  1  0  0  0  0
  3 24  1  0  0  0  0
  3 25  1  0  0  0  0
  4  5  1  0  0  0  0
  4 26  1  0  0  0  0
  4 27  1  0  0  0  0
  5  6  1  0  0  0  0
  5 28  1  0  0  0  0
  5 29  1  0  0  0  0
  6  7  1  0  0  0  0
  6 30  1  0  0  0  0
  6 31  1  0  0  0  0
  7  8  1  0  0  0  0
  7 32  1  0  0  0  0
  8  9  1  0  0  0  0
  8 33  1  0  0  0  0
  9 10  2  0  0  0  0
  9 11  1  0  0  0  0
 11 12  1  0  0  0  0
 11 34  1  0  0  0  0
 12 18  1  0  0  0  0
 12 13  2  0  0  0  0
 13 14  1  0  0  0  0
 13 35  1  0  0  0  0
 14 15  2  0  0  0  0
 14 36  1  0  0  0  0
 15 16  1  0  0  0  0
 15 37  1  0  0  0  0
 16 17  1  0  0  0  0
 16 18  1  0  0  0  0
 17 38  1  0  0  0  0
 17 39  1  0  0  0  0
 17 40  1  0  0  0  0
 18 19  2  0  0  0  0
M  END
> <s_m_source_file>
AV-unprocessed.smi

> <i_m_source_file_index>
2441

> <i_lp_mmshare_version>
43012

> <i_f3d_flags>
0

> <s_epik_input>
W0NIM11bQ0BASF0xW0NIMl1bQ0gyXVtDSDJdW0NIMl1bQ0BIXTFbTkhdQyg9TylbTkhdYzJbY0hdW2NIXVtjSF1uKFtDSDNdKWMyPU8=

> <s_epik_cmdline>
J2VwaWtfcHl0aG9uJywgJy1waCcsICc3LjAnLCAnLXRuJywgJzgnLCAnLW1hJywgJzIwMCcsICctbWV0YWxfYmluZGluZycsICctaW1hZScsICc8aW5maWxlLm1hZT4nLCAnLW9tYWUnLCAnPG91dGZpbGUubWFlPic=

> <r_lp_tautomer_probability>
1

> <r_epik_Ionization_Penalty>
2.64999e-05

> <r_epik_Ionization_Penalty_Charging>
5.09663e-06

> <r_epik_Ionization_Penalty_Neutral>
2.14032e-05

> <r_epik_State_Penalty>
-0

> <r_epik_Charging_Adjusted_Penalty>
5.09663e-06

> <i_epik_Tot_Q>
0

> <i_epik_Tot_abs_Q>
0

> <r_epik_Metal_State_Penalty>
-0

> <b_epik_Metal_Only>
0

> <s_lp_Force_Field>
OPLS_2005

> <r_lp_Energy>
23.2252

> <b_lp_Chiralities_Consistent>
1

> <s_lp_Variant>
AV-unprocessed.smi:2441-2

> <Gold.Version>
5.8.1

> <Gold.Id.Protein>
6NUR|6NUR_protein|mol2

> <Gold.PLP.Fitness>
39.4092

> <Gold.PLP.PLP>
-32.2162

> <Gold.PLP.part.hbond>
-2.0000

> <Gold.PLP.part.metal>
0.0000

> <Gold.PLP.part.buried>
-0.5475

> <Gold.PLP.part.nonpolar>
-29.0598

> <Gold.PLP.part.repulsive>
0.3338

> <Gold.PLP.ligand.clash>
0.0000

> <Gold.PLP.ligand.torsion>
0.7993

> <Gold.PLP.Chemscore.Hbond>
1.9280

> <Gold.PLP.Chemscore.CHOScore>
1.0000

> <Gold.PLP.Chemscore.Metal>
0.0000

> <Gold.Chemscore.Hbonds>
donor molecule, donor type, donor heavy atom, donor atom, acceptor molecule, acceptor atom, score
      L1  H     8    33       P1  7948  0.91
      L1  H    11    34       P1  7948  1.00
      L1  C    15    37       P1  8028  1.00

> <Gold.PLP.Chemscore.Internal.Correction>
0.0076

> <Gold.Rescore>
     Score         DG    S(hbond)    S(metal)    S(lipo)     H(rot)  DE(clash)    DE(int)     intcor
     16.66     -17.47       1.86        0.00      71.16       1.00       0.02       0.79       ----

> <Gold.Chemscore.Fitness>
16.6636

> <Gold.Chemscore.DG>
-17.4709

> <Gold.Chemscore.ZeroCoef>
-5.4800

> <Gold.Chemscore.Hbond>
1.8638

> <Gold.Chemscore.Metal>
0.0000

> <Gold.Chemscore.Lipo>
71.1606

> <Gold.Chemscore.Internal_Hbond>
0.0000

> <Gold.Chemscore.DEClash>
0.0199

> <Gold.Chemscore.DEInternal>
0.7873

> <Gold.Chemscore.Rot>
1.0000

> <Gold.Chemscore.Internal.Correction>
   9.000000E+99

> <Gold.Chemscore.Hbonds>
donor molecule, donor type, donor heavy atom, donor atom, acceptor molecule, acceptor atom, score
      L1  H     8    33       P1  7948  0.90
      L1  H    11    34       P1  7948  0.97

> <Gold.Chemscore.Hbond.Weighted>
-6.2251

> <Gold.Chemscore.Metal.Weighted>
-0.0000

> <Gold.Chemscore.Lipo.Weighted>
-8.3258

> <Gold.Chemscore.Internal_Hbond.Weighted>
0.0000

> <Gold.Chemscore.DEClash.Weighted>
0.0199

> <Gold.Chemscore.DEInternal.Weighted>
0.7873

> <Gold.Chemscore.Rot.Weighted>
2.5600

> <Gold.Chemscore.Internal.Correction.Weighted>
   9.000000E+99

> <Gold.Protein.RotatedTorsions>
[ 6907 6896 6895 6894 ] final  -56.14 input  -60.11 | X-H torsion
[ 7974 7965 7964 7962 ] final  -43.63 input  175.53 | X-H torsion
[ 8008 7997 7996 7995 ] final  -50.69 input   59.86 | X-H torsion
[ 10167 10162 10161 10158 ] final   -5.51 input  -65.29 | X-H torsion
[ 10718 10713 10712 10709 ] final  -63.93 input   66.30 | X-H torsion
[ 10763 10752 10751 10750 ] final  -91.82 input  -60.55 | X-H torsion
[ 11005 11000 10999 10996 ] final   28.64 input  -57.11 | X-H torsion

> <Gold.Protein.ActiveResidues>
 VAL166  LYS551  ARG553  GLY616  TRP617  ASP618  TYR619  PRO620  LYS621  CYS622 
 ASP623  PHE694  ASN695  SER759  ASP760  ASP761  ALA762  ILE779  LEU786  VAL792 
 PHE793  MET794  SER795  GLU796  ALA797  LYS798  CYS799  TRP800  GLU811  SER814 

> <Gold.Protein.RotatedAtoms>
  150.8193  134.7392  159.6757 H   0  0  0  0  0  0  0  0  0  0  0  0  # atno 6907 bound_to 6896
  152.4309  134.5775  159.9948 H   0  0  0  0  0  0  0  0  0  0  0  0  # atno 6908 bound_to 6896
  151.5964  133.3323  159.3074 H   0  0  0  0  0  0  0  0  0  0  0  0  # atno 6909 bound_to 6896
  146.0000  140.7085  142.9275 H   0  0  0  0  0  0  0  0  0  0  0  0  # atno 7974 bound_to 7965
  154.4067  140.1266  156.4707 H   0  0  0  0  0  0  0  0  0  0  0  0  # atno 8008 bound_to 7997
  155.7182  140.3493  155.4984 H   0  0  0  0  0  0  0  0  0  0  0  0  # atno 8009 bound_to 7997
  155.9239  140.1057  157.1176 H   0  0  0  0  0  0  0  0  0  0  0  0  # atno 8010 bound_to 7997
  140.6966  143.6299  150.8532 H   0  0  0  0  0  0  0  0  0  0  0  0  # atno 10167 bound_to 10162
  156.0760  130.4227  150.1348 H   0  0  0  0  0  0  0  0  0  0  0  0  # atno 10718 bound_to 10713
  154.6799  135.5254  153.8249 H   0  0  0  0  0  0  0  0  0  0  0  0  # atno 10763 bound_to 10752
  153.0557  135.6550  154.0592 H   0  0  0  0  0  0  0  0  0  0  0  0  # atno 10764 bound_to 10752
  154.0481  135.2971  155.3324 H   0  0  0  0  0  0  0  0  0  0  0  0  # atno 10765 bound_to 10752
  140.3135  134.2623  155.7730 H   0  0  0  0  0  0  0  0  0  0  0  0  # atno 11005 bound_to 11000
  144.6916  140.3216  143.7231 LP  0  0  0  0  0  0  0  0  0  0  0  0  # atno 17320 bound_to 7965
  145.7502  139.1791  143.2326 LP  0  0  0  0  0  0  0  0  0  0  0  0  # atno 17321 bound_to 7965
  140.0018  143.5736  152.2872 LP  0  0  0  0  0  0  0  0  0  0  0  0  # atno 17342 bound_to 10162
  139.6428  144.7656  151.2304 LP  0  0  0  0  0  0  0  0  0  0  0  0  # atno 17343 bound_to 10162
  156.9389  130.9738  151.3520 LP  0  0  0  0  0  0  0  0  0  0  0  0  # atno 17370 bound_to 10713
  157.5856  130.8407  149.8584 LP  0  0  0  0  0  0  0  0  0  0  0  0  # atno 17371 bound_to 10713
  141.2103  133.7724  156.9942 LP  0  0  0  0  0  0  0  0  0  0  0  0  # atno 17394 bound_to 11000
  140.1004  134.9539  157.1914 LP  0  0  0  0  0  0  0  0  0  0  0  0  # atno 17395 bound_to 11000

$$$$
