AV-unprocessed.smi:2718|AV-procd|sdf|10491|dock9
  -GOLD-   2272014543D 1   1.00000     0.00000
 Structure written by MMmdl.
 47 48  0  0  0  0  0  0  0  0  1 V2000
  153.3237  141.8205  162.2038 C   0  0  0  0  0  0  0  0  0  0  0  0
  153.4962  142.0308  160.7128 C   0  0  0  0  0  0  0  0  0  0  0  0
  154.6786  141.2987  160.1021 C   0  0  0  0  0  0  0  0  0  0  0  0
  152.6540  142.8096  160.0066 C   0  0  0  0  0  0  0  0  0  0  0  0
  152.7247  143.0969  158.5435 C   0  0  1  0  0  0  0  0  0  0  0  0
  151.6935  142.6053  157.5347 C   0  0  1  0  0  0  0  0  0  0  0  0
  150.4872  141.8436  157.9854 C   0  0  0  0  0  0  0  0  0  0  0  0
  150.5321  140.9992  158.8802 O   0  0  0  0  0  0  0  0  0  0  0  0
  149.3446  142.2167  157.3896 N   0  0  0  0  0  0  0  0  0  0  0  0
  148.0291  141.6522  157.6707 C   0  0  0  0  0  0  0  0  0  0  0  0
  147.4079  140.9617  156.4385 C   0  0  1  0  0  0  0  0  0  0  0  0
  146.7875  141.9550  155.4400 C   0  0  0  0  0  0  0  0  0  0  0  0
  148.4063  140.0622  155.7647 C   0  0  0  0  0  0  0  0  0  0  0  0
  149.6233  139.8021  156.2618 N   0  0  0  0  0  0  0  0  0  0  0  0
  150.2154  138.9326  155.3682 N   0  0  0  0  0  0  0  0  0  0  0  0
  149.2962  138.7483  154.4221 C   0  0  0  0  0  0  0  0  0  0  0  0
  148.1483  139.4170  154.6071 N   0  0  0  0  0  0  0  0  0  0  0  0
  146.9641  139.4211  153.7712 C   0  0  0  0  0  0  0  0  0  0  0  0
  151.8032  144.0933  157.8606 C   0  0  0  0  0  0  0  0  0  0  0  0
  150.7464  144.8507  158.6622 C   0  0  0  0  0  0  0  0  0  0  0  0
  152.3774  145.0152  156.7990 C   0  0  0  0  0  0  0  0  0  0  0  0
  154.2118  142.1591  162.7381 H   0  0  0  0  0  0  0  0  0  0  0  0
  153.1745  140.7629  162.4213 H   0  0  0  0  0  0  0  0  0  0  0  0
  152.4652  142.3701  162.5907 H   0  0  0  0  0  0  0  0  0  0  0  0
  154.5864  140.2264  160.2785 H   0  0  0  0  0  0  0  0  0  0  0  0
  155.6075  141.6402  160.5590 H   0  0  0  0  0  0  0  0  0  0  0  0
  154.7567  141.4527  159.0262 H   0  0  0  0  0  0  0  0  0  0  0  0
  151.8457  143.2891  160.5383 H   0  0  0  0  0  0  0  0  0  0  0  0
  153.7578  143.0833  158.2009 H   0  0  0  0  0  0  0  0  0  0  0  0
  152.0627  142.3112  156.5541 H   0  0  0  0  0  0  0  0  0  0  0  0
  149.3915  142.9354  156.6816 H   0  0  0  0  0  0  0  0  0  0  0  0
  148.1322  140.9402  158.4901 H   0  0  0  0  0  0  0  0  0  0  0  0
  147.3675  142.4409  158.0338 H   0  0  0  0  0  0  0  0  0  0  0  0
  146.5880  140.3409  156.7984 H   0  0  0  0  0  0  0  0  0  0  0  0
  146.3287  141.4288  154.6023 H   0  0  0  0  0  0  0  0  0  0  0  0
  147.5394  142.6332  155.0350 H   0  0  0  0  0  0  0  0  0  0  0  0
  146.0111  142.5613  155.9065 H   0  0  0  0  0  0  0  0  0  0  0  0
  149.4650  138.1041  153.5716 H   0  0  0  0  0  0  0  0  0  0  0  0
  147.1077  138.7642  152.9130 H   0  0  0  0  0  0  0  0  0  0  0  0
  146.7688  140.4324  153.4136 H   0  0  0  0  0  0  0  0  0  0  0  0
  146.1065  139.0698  154.3458 H   0  0  0  0  0  0  0  0  0  0  0  0
  149.9395  145.1783  158.0061 H   0  0  0  0  0  0  0  0  0  0  0  0
  151.1875  145.7307  159.1310 H   0  0  0  0  0  0  0  0  0  0  0  0
  150.3097  144.2365  159.4493 H   0  0  0  0  0  0  0  0  0  0  0  0
  151.5904  145.3550  156.1251 H   0  0  0  0  0  0  0  0  0  0  0  0
  153.1353  144.5010  156.2073 H   0  0  0  0  0  0  0  0  0  0  0  0
  152.8409  145.8866  157.2623 H   0  0  0  0  0  0  0  0  0  0  0  0
  1  2  1  0  0  0  0
  1 22  1  0  0  0  0
  1 23  1  0  0  0  0
  1 24  1  0  0  0  0
  2  3  1  0  0  0  0
  2  4  2  0  0  0  0
  3 25  1  0  0  0  0
  3 26  1  0  0  0  0
  3 27  1  0  0  0  0
  4  5  1  0  0  0  0
  4 28  1  0  0  0  0
  5 19  1  0  0  0  0
  5  6  1  0  0  0  0
  5 29  1  0  0  0  0
  6  7  1  0  0  0  0
  6 19  1  0  0  0  0
  6 30  1  0  0  0  0
  7  8  2  0  0  0  0
  7  9  1  0  0  0  0
  9 10  1  0  0  0  0
  9 31  1  0  0  0  0
 10 11  1  0  0  0  0
 10 32  1  0  0  0  0
 10 33  1  0  0  0  0
 11 12  1  0  0  0  0
 11 13  1  0  0  0  0
 11 34  1  0  0  0  0
 12 35  1  0  0  0  0
 12 36  1  0  0  0  0
 12 37  1  0  0  0  0
 13 17  1  0  0  0  0
 13 14  2  0  0  0  0
 14 15  1  0  0  0  0
 15 16  2  0  0  0  0
 16 17  1  0  0  0  0
 16 38  1  0  0  0  0
 17 18  1  0  0  0  0
 18 39  1  0  0  0  0
 18 40  1  0  0  0  0
 18 41  1  0  0  0  0
 19 20  1  0  0  0  0
 19 21  1  0  0  0  0
 20 42  1  0  0  0  0
 20 43  1  0  0  0  0
 20 44  1  0  0  0  0
 21 45  1  0  0  0  0
 21 46  1  0  0  0  0
 21 47  1  0  0  0  0
M  END
> <s_m_source_file>
AV-unprocessed.smi

> <i_m_source_file_index>
2718

> <i_lp_mmshare_version>
43012

> <i_f3d_flags>
0

> <s_epik_input>
W0NIM11DKFtDSDNdKT1bQ0hdW0NAQEhdKEMxKFtDSDNdKVtDSDNdKVtDQEhdMUMoPU8pW05IXVtDSDJdW0NASF0oW0NIM10pYzJubltjSF1uMltDSDNd

> <s_epik_cmdline>
J2VwaWtfcHl0aG9uJywgJy1waCcsICc3LjAnLCAnLXRuJywgJzgnLCAnLW1hJywgJzIwMCcsICctbWV0YWxfYmluZGluZycsICctaW1hZScsICc8aW5maWxlLm1hZT4nLCAnLW9tYWUnLCAnPG91dGZpbGUubWFlPic=

> <r_lp_tautomer_probability>
1

> <r_epik_Ionization_Penalty>
0.000449586

> <r_epik_Ionization_Penalty_Charging>
0

> <r_epik_Ionization_Penalty_Neutral>
0.000449586

> <r_epik_State_Penalty>
0.000243372

> <r_epik_Charging_Adjusted_Penalty>
0.000243372

> <i_epik_Tot_Q>
0

> <i_epik_Tot_abs_Q>
0

> <r_epik_Metal_State_Penalty>
-0

> <b_epik_Metal_Only>
0

> <s_lp_Force_Field>
OPLS_2005

> <r_lp_Energy>
17.9129

> <b_lp_Chiralities_Consistent>
1

> <s_lp_Variant>
AV-unprocessed.smi:2718-6

> <Gold.Version>
5.8.1

> <Gold.Id.Protein>
6NUR|6NUR_protein|mol2

> <Gold.PLP.Fitness>
43.0434

> <Gold.PLP.PLP>
-37.9418

> <Gold.PLP.part.hbond>
-1.0826

> <Gold.PLP.part.metal>
0.0000

> <Gold.PLP.part.buried>
-4.8028

> <Gold.PLP.part.nonpolar>
-32.4148

> <Gold.PLP.part.repulsive>
0.1122

> <Gold.PLP.ligand.clash>
0.0000

> <Gold.PLP.ligand.torsion>
0.6753

> <Gold.PLP.Chemscore.Hbond>
1.0000

> <Gold.PLP.Chemscore.CHOScore>
1.0481

> <Gold.PLP.Chemscore.Metal>
0.0000

> <Gold.Chemscore.Hbonds>
donor molecule, donor type, donor heavy atom, donor atom, acceptor molecule, acceptor atom, score
      L1  H     9    31       P1  8028  0.78
      L1  C    16    38       P1  7948  0.94

> <Gold.PLP.Chemscore.Internal.Correction>
0.3081

> <Gold.Rescore>
     Score         DG    S(hbond)    S(metal)    S(lipo)     H(rot)  DE(clash)    DE(int)     intcor
     10.70     -17.98       0.99        0.00     121.23       1.95       2.16       5.12       ----

> <Gold.Chemscore.Fitness>
10.6987

> <Gold.Chemscore.DG>
-17.9774

> <Gold.Chemscore.ZeroCoef>
-5.4800

> <Gold.Chemscore.Hbond>
0.9921

> <Gold.Chemscore.Metal>
0.0000

> <Gold.Chemscore.Lipo>
121.2328

> <Gold.Chemscore.Internal_Hbond>
0.0000

> <Gold.Chemscore.DEClash>
2.1600

> <Gold.Chemscore.DEInternal>
5.1187

> <Gold.Chemscore.Rot>
1.9533

> <Gold.Chemscore.Internal.Correction>
   9.000000E+99

> <Gold.Chemscore.Hbonds>
donor molecule, donor type, donor heavy atom, donor atom, acceptor molecule, acceptor atom, score
      L1  H     9    31       P1  8028  0.78

> <Gold.Chemscore.Hbond.Weighted>
-3.3137

> <Gold.Chemscore.Metal.Weighted>
-0.0000

> <Gold.Chemscore.Lipo.Weighted>
-14.1842

> <Gold.Chemscore.Internal_Hbond.Weighted>
0.0000

> <Gold.Chemscore.DEClash.Weighted>
2.1600

> <Gold.Chemscore.DEInternal.Weighted>
5.1187

> <Gold.Chemscore.Rot.Weighted>
5.0005

> <Gold.Chemscore.Internal.Correction.Weighted>
   9.000000E+99

> <Gold.Protein.RotatedTorsions>
[ 6907 6896 6895 6894 ] final -148.27 input  -60.11 | X-H torsion
[ 7974 7965 7964 7962 ] final   81.35 input  175.53 | X-H torsion
[ 8008 7997 7996 7995 ] final  -72.11 input   59.86 | X-H torsion
[ 10167 10162 10161 10158 ] final -104.83 input  -65.29 | X-H torsion
[ 10718 10713 10712 10709 ] final -143.36 input   66.30 | X-H torsion
[ 10763 10752 10751 10750 ] final   68.37 input  -60.55 | X-H torsion
[ 11005 11000 10999 10996 ] final -158.37 input  -57.11 | X-H torsion

> <Gold.Protein.ActiveResidues>
 VAL166  LYS551  ARG553  GLY616  TRP617  ASP618  TYR619  PRO620  LYS621  CYS622 
 ASP623  PHE694  ASN695  SER759  ASP760  ASP761  ALA762  ILE779  LEU786  VAL792 
 PHE793  MET794  SER795  GLU796  ALA797  LYS798  CYS799  TRP800  GLU811  SER814 

> <Gold.Protein.RotatedAtoms>
  151.1674  133.4806  159.2593 H   0  0  0  0  0  0  0  0  0  0  0  0  # atno 6907 bound_to 6896
  151.1391  135.0170  159.8627 H   0  0  0  0  0  0  0  0  0  0  0  0  # atno 6908 bound_to 6896
  152.5462  134.1569  159.8595 H   0  0  0  0  0  0  0  0  0  0  0  0  # atno 6909 bound_to 6896
  145.6392  139.2422  143.2040 H   0  0  0  0  0  0  0  0  0  0  0  0  # atno 7974 bound_to 7965
  154.5140  140.0803  156.8046 H   0  0  0  0  0  0  0  0  0  0  0  0  # atno 8008 bound_to 7997
  155.3721  140.3423  155.4225 H   0  0  0  0  0  0  0  0  0  0  0  0  # atno 8009 bound_to 7997
  156.1607  140.1587  156.8605 H   0  0  0  0  0  0  0  0  0  0  0  0  # atno 8010 bound_to 7997
  140.2051  143.3789  152.1097 H   0  0  0  0  0  0  0  0  0  0  0  0  # atno 10167 bound_to 10162
  156.3570  130.7718  151.1880 H   0  0  0  0  0  0  0  0  0  0  0  0  # atno 10718 bound_to 10713
  153.0232  135.5250  154.7123 H   0  0  0  0  0  0  0  0  0  0  0  0  # atno 10763 bound_to 10752
  154.6202  135.2888  155.0337 H   0  0  0  0  0  0  0  0  0  0  0  0  # atno 10764 bound_to 10752
  154.1326  135.6590  153.4978 H   0  0  0  0  0  0  0  0  0  0  0  0  # atno 10765 bound_to 10752
  140.6543  134.4417  157.5235 H   0  0  0  0  0  0  0  0  0  0  0  0  # atno 11005 bound_to 11000
  146.1294  140.7205  142.9419 LP  0  0  0  0  0  0  0  0  0  0  0  0  # atno 17320 bound_to 7965
  144.7164  140.4223  143.7041 LP  0  0  0  0  0  0  0  0  0  0  0  0  # atno 17321 bound_to 7965
  139.5202  144.7029  151.5439 LP  0  0  0  0  0  0  0  0  0  0  0  0  # atno 17342 bound_to 10162
  140.6363  143.8977  150.6650 LP  0  0  0  0  0  0  0  0  0  0  0  0  # atno 17343 bound_to 10162
  157.7469  131.0411  150.4630 LP  0  0  0  0  0  0  0  0  0  0  0  0  # atno 17370 bound_to 10713
  156.4834  130.4079  149.6448 LP  0  0  0  0  0  0  0  0  0  0  0  0  # atno 17371 bound_to 10713
  139.9035  134.8502  156.1800 LP  0  0  0  0  0  0  0  0  0  0  0  0  # atno 17394 bound_to 11000
  141.0513  133.6887  156.1777 LP  0  0  0  0  0  0  0  0  0  0  0  0  # atno 17395 bound_to 11000

$$$$
