AV-unprocessed.smi:2567|AV-procd|sdf|10082|dock4
  -GOLD-   2272014113D 1   1.00000     0.00000
 Structure written by MMmdl.
 33 34  0  0  0  0  0  0  0  0  1 V2000
  140.7697  138.4112  155.0097 C   0  0  0  0  0  0  0  0  0  0  0  0
  140.0475  137.3829  154.1107 C   0  0  0  0  0  0  0  0  0  0  0  0
  138.8906  136.7962  154.9492 C   0  0  0  0  0  0  0  0  0  0  0  0
  139.4783  138.0869  152.8658 C   0  0  0  0  0  0  0  0  0  0  0  0
  140.9947  136.2856  153.6835 C   0  0  0  0  0  0  0  0  0  0  0  0
  140.8318  135.0263  154.0976 N   0  0  0  0  0  0  0  0  0  0  0  0
  141.9368  134.4174  153.6205 N   0  0  0  0  0  0  0  0  0  0  0  0
  142.7101  135.3185  153.0147 C   0  0  0  0  0  0  0  0  0  0  0  0
  144.0307  134.9570  152.4113 C   0  0  2  0  0  0  0  0  0  0  0  0
  144.1254  135.3573  150.9260 C   0  0  0  0  0  0  0  0  0  0  0  0
  145.3945  134.9042  150.3591 N   0  0  0  0  0  0  0  0  0  0  0  0
  145.5756  133.4664  150.5537 C   0  0  0  0  0  0  0  0  0  0  0  0
  145.4391  133.1057  152.0439 C   0  0  0  0  0  0  0  0  0  0  0  0
  144.1738  133.5435  152.5279 O   0  0  0  0  0  0  0  0  0  0  0  0
  142.1841  136.5384  153.0511 N   0  0  0  0  0  0  0  0  0  0  0  0
  142.1239  133.4331  153.7482 H   0  0  0  0  0  0  0  0  0  0  0  0
  140.0844  139.1860  155.3553 H   0  0  0  0  0  0  0  0  0  0  0  0
  141.5783  138.9158  154.4800 H   0  0  0  0  0  0  0  0  0  0  0  0
  141.1988  137.9357  155.8928 H   0  0  0  0  0  0  0  0  0  0  0  0
  139.2638  136.2697  155.8285 H   0  0  0  0  0  0  0  0  0  0  0  0
  138.2905  136.0911  154.3728 H   0  0  0  0  0  0  0  0  0  0  0  0
  138.2154  137.5786  155.2972 H   0  0  0  0  0  0  0  0  0  0  0  0
  138.7844  138.8817  153.1414 H   0  0  0  0  0  0  0  0  0  0  0  0
  138.9399  137.3861  152.2267 H   0  0  0  0  0  0  0  0  0  0  0  0
  140.2715  138.5355  152.2665 H   0  0  0  0  0  0  0  0  0  0  0  0
  144.8188  135.4492  152.9847 H   0  0  0  0  0  0  0  0  0  0  0  0
  143.2959  134.9165  150.3716 H   0  0  0  0  0  0  0  0  0  0  0  0
  144.0335  136.4388  150.8213 H   0  0  0  0  0  0  0  0  0  0  0  0
  145.4188  135.1179  149.3671 H   0  0  0  0  0  0  0  0  0  0  0  0
  144.8319  132.9174  149.9751 H   0  0  0  0  0  0  0  0  0  0  0  0
  146.5526  133.1580  150.1813 H   0  0  0  0  0  0  0  0  0  0  0  0
  145.5126  132.0264  152.1762 H   0  0  0  0  0  0  0  0  0  0  0  0
  146.2431  133.5538  152.6302 H   0  0  0  0  0  0  0  0  0  0  0  0
  1  2  1  0  0  0  0
  1 17  1  0  0  0  0
  1 18  1  0  0  0  0
  1 19  1  0  0  0  0
  2  3  1  0  0  0  0
  2  4  1  0  0  0  0
  2  5  1  0  0  0  0
  3 20  1  0  0  0  0
  3 21  1  0  0  0  0
  3 22  1  0  0  0  0
  4 23  1  0  0  0  0
  4 24  1  0  0  0  0
  4 25  1  0  0  0  0
  5 15  1  0  0  0  0
  5  6  2  0  0  0  0
  6  7  1  0  0  0  0
  7 16  1  0  0  0  0
  7  8  1  0  0  0  0
  8  9  1  0  0  0  0
  8 15  2  0  0  0  0
  9 14  1  0  0  0  0
  9 10  1  0  0  0  0
  9 26  1  0  0  0  0
 10 11  1  0  0  0  0
 10 27  1  0  0  0  0
 10 28  1  0  0  0  0
 11 12  1  0  0  0  0
 11 29  1  0  0  0  0
 12 13  1  0  0  0  0
 12 30  1  0  0  0  0
 12 31  1  0  0  0  0
 13 14  1  0  0  0  0
 13 32  1  0  0  0  0
 13 33  1  0  0  0  0
M  END
> <s_m_source_file>
AV-unprocessed.smi

> <i_m_source_file_index>
2567

> <i_lp_mmshare_version>
43012

> <i_f3d_flags>
0

> <s_epik_input>
W0NIM11DKFtDSDNdKShbQ0gzXSljMW5bbkhdYyhuMSlbQ0BASF0yW0NIMl1bTkhdW0NIMl1bQ0gyXU8y

> <s_epik_cmdline>
J2VwaWtfcHl0aG9uJywgJy1waCcsICc3LjAnLCAnLXRuJywgJzgnLCAnLW1hJywgJzIwMCcsICctbWV0YWxfYmluZGluZycsICctaW1hZScsICc8aW5maWxlLm1hZT4nLCAnLW9tYWUnLCAnPG91dGZpbGUubWFlPic=

> <r_epik_Ionization_Penalty>
0.981987

> <r_epik_Ionization_Penalty_Charging>
0

> <r_epik_Ionization_Penalty_Neutral>
0.981987

> <r_epik_State_Penalty>
2.09479

> <r_epik_Charging_Adjusted_Penalty>
2.09479

> <i_epik_Tot_Q>
0

> <i_epik_Tot_abs_Q>
0

> <r_epik_Metal_State_Penalty>
2.40362

> <b_epik_Metal_Only>
0

> <s_lp_Force_Field>
OPLS_2005

> <r_lp_Energy>
12.9727

> <b_lp_Chiralities_Consistent>
1

> <s_lp_Variant>
AV-unprocessed.smi:2567-7

> <Gold.Version>
5.8.1

> <Gold.Id.Protein>
6NUR|6NUR_protein|mol2

> <Gold.PLP.Fitness>
34.7349

> <Gold.PLP.PLP>
-25.8195

> <Gold.PLP.part.hbond>
-3.5760

> <Gold.PLP.part.metal>
0.0000

> <Gold.PLP.part.buried>
-5.9621

> <Gold.PLP.part.nonpolar>
-16.8324

> <Gold.PLP.part.repulsive>
0.5654

> <Gold.PLP.ligand.clash>
0.0000

> <Gold.PLP.ligand.torsion>
0.1310

> <Gold.PLP.Chemscore.Hbond>
2.9913

> <Gold.PLP.Chemscore.CHOScore>
0.0000

> <Gold.PLP.Chemscore.Metal>
0.0000

> <Gold.Chemscore.Hbonds>
donor molecule, donor type, donor heavy atom, donor atom, acceptor molecule, acceptor atom, score
      L1  H     7    16       P1 10957  1.00
      L1  H    11    29       P1  7921  1.00
      P1  H 11000 11005       L1     6  1.00

> <Gold.PLP.Chemscore.Internal.Correction>
0.2037

> <Gold.Rescore>
     Score         DG    S(hbond)    S(metal)    S(lipo)     H(rot)  DE(clash)    DE(int)     intcor
     17.43     -17.53       2.91        0.00      47.16       1.25       0.00       0.11       ----

> <Gold.Chemscore.Fitness>
17.4269

> <Gold.Chemscore.DG>
-17.5336

> <Gold.Chemscore.ZeroCoef>
-5.4800

> <Gold.Chemscore.Hbond>
2.9111

> <Gold.Chemscore.Metal>
0.0000

> <Gold.Chemscore.Lipo>
47.1605

> <Gold.Chemscore.Internal_Hbond>
0.0000

> <Gold.Chemscore.DEClash>
0.0009

> <Gold.Chemscore.DEInternal>
0.1057

> <Gold.Chemscore.Rot>
1.2450

> <Gold.Chemscore.Internal.Correction>
   9.000000E+99

> <Gold.Chemscore.Hbonds>
donor molecule, donor type, donor heavy atom, donor atom, acceptor molecule, acceptor atom, score
      L1  H     7    16       P1 10957  0.93
      L1  H    11    29       P1  7921  0.94
      P1  H 11000 11005       L1     6  0.74

> <Gold.Chemscore.Hbond.Weighted>
-9.7230

> <Gold.Chemscore.Metal.Weighted>
-0.0000

> <Gold.Chemscore.Lipo.Weighted>
-5.5178

> <Gold.Chemscore.Internal_Hbond.Weighted>
0.0000

> <Gold.Chemscore.DEClash.Weighted>
0.0009

> <Gold.Chemscore.DEInternal.Weighted>
0.1057

> <Gold.Chemscore.Rot.Weighted>
3.1872

> <Gold.Chemscore.Internal.Correction.Weighted>
   9.000000E+99

> <Gold.Protein.RotatedTorsions>
[ 6907 6896 6895 6894 ] final  -42.02 input  -60.11 | X-H torsion
[ 7974 7965 7964 7962 ] final  110.35 input  175.53 | X-H torsion
[ 8008 7997 7996 7995 ] final    7.02 input   59.86 | X-H torsion
[ 10167 10162 10161 10158 ] final   50.84 input  -65.29 | X-H torsion
[ 10718 10713 10712 10709 ] final   -8.54 input   66.30 | X-H torsion
[ 10763 10752 10751 10750 ] final  -20.59 input  -60.55 | X-H torsion
[ 11005 11000 10999 10996 ] final   27.97 input  -57.11 | X-H torsion

> <Gold.Protein.ActiveResidues>
 VAL166  LYS551  ARG553  GLY616  TRP617  ASP618  TYR619  PRO620  LYS621  CYS622 
 ASP623  PHE694  ASN695  SER759  ASP760  ASP761  ALA762  ILE779  LEU786  VAL792 
 PHE793  MET794  SER795  GLU796  ALA797  LYS798  CYS799  TRP800  GLU811  SER814 

> <Gold.Protein.RotatedAtoms>
  150.9600  134.8989  159.7724 H   0  0  0  0  0  0  0  0  0  0  0  0  # atno 6907 bound_to 6896
  152.5152  134.3686  159.9320 H   0  0  0  0  0  0  0  0  0  0  0  0  # atno 6908 bound_to 6896
  151.3699  133.3818  159.2733 H   0  0  0  0  0  0  0  0  0  0  0  0  # atno 6909 bound_to 6896
  145.2561  139.2720  143.4041 H   0  0  0  0  0  0  0  0  0  0  0  0  # atno 7974 bound_to 7965
  154.7484  140.2762  155.6313 H   0  0  0  0  0  0  0  0  0  0  0  0  # atno 8008 bound_to 7997
  156.2890  140.2683  156.2157 H   0  0  0  0  0  0  0  0  0  0  0  0  # atno 8009 bound_to 7997
  155.0168  140.0372  157.2411 H   0  0  0  0  0  0  0  0  0  0  0  0  # atno 8010 bound_to 7997
  140.2682  144.3296  150.6298 H   0  0  0  0  0  0  0  0  0  0  0  0  # atno 10167 bound_to 10162
  156.7011  130.5094  149.5917 H   0  0  0  0  0  0  0  0  0  0  0  0  # atno 10718 bound_to 10713
  153.6228  135.6992  153.5304 H   0  0  0  0  0  0  0  0  0  0  0  0  # atno 10763 bound_to 10752
  153.2924  135.4153  155.1178 H   0  0  0  0  0  0  0  0  0  0  0  0  # atno 10764 bound_to 10752
  154.8539  135.3628  154.5769 H   0  0  0  0  0  0  0  0  0  0  0  0  # atno 10765 bound_to 10752
  140.3205  134.2548  155.7718 H   0  0  0  0  0  0  0  0  0  0  0  0  # atno 11005 bound_to 11000
  146.3288  140.2966  142.8618 LP  0  0  0  0  0  0  0  0  0  0  0  0  # atno 17320 bound_to 7965
  144.9459  140.8128  143.5601 LP  0  0  0  0  0  0  0  0  0  0  0  0  # atno 17321 bound_to 7965
  140.5911  143.2168  151.7251 LP  0  0  0  0  0  0  0  0  0  0  0  0  # atno 17342 bound_to 10162
  139.4996  144.3937  152.0253 LP  0  0  0  0  0  0  0  0  0  0  0  0  # atno 17343 bound_to 10162
  156.1728  130.6448  151.0858 LP  0  0  0  0  0  0  0  0  0  0  0  0  # atno 17370 bound_to 10713
  157.6972  131.0789  150.6931 LP  0  0  0  0  0  0  0  0  0  0  0  0  # atno 17371 bound_to 10713
  141.2087  133.7769  157.0039 LP  0  0  0  0  0  0  0  0  0  0  0  0  # atno 17394 bound_to 11000
  140.0946  134.9572  157.1829 LP  0  0  0  0  0  0  0  0  0  0  0  0  # atno 17395 bound_to 11000

$$$$
