AV-unprocessed.smi:40|AV-procd|sdf|368|dock5
  -GOLD-   2262016213D 1   1.00000     0.00000
 Structure written by MMmdl.
 47 48  0  0  0  0  0  0  0  0  1 V2000
  151.1996  144.9517  159.3034 C   0  0  0  0  0  0  0  0  0  0  0  0
  152.5315  144.2690  159.6412 C   0  0  0  0  0  0  0  0  0  0  0  0
  152.5161  142.7449  159.4382 C   0  0  0  0  0  0  0  0  0  0  0  0
  153.8528  142.0612  159.7773 C   0  0  0  0  0  0  0  0  0  0  0  0
  153.7897  140.5319  159.6669 C   0  0  0  0  0  0  0  0  0  0  0  0
  152.9332  140.1672  158.5974 O   0  0  0  0  0  0  0  0  0  0  0  0
  152.3555  138.9530  158.5703 C   0  0  0  0  0  0  0  0  0  0  0  0
  152.5544  138.0784  159.4131 O   0  0  0  0  0  0  0  0  0  0  0  0
  151.5016  138.7891  157.4044 N   0  0  0  0  0  0  0  0  0  0  0  0
  150.7563  137.7213  157.0251 C   0  0  0  0  0  0  0  0  0  0  0  0
  150.3689  136.7784  157.8702 N   0  0  0  0  0  0  0  0  0  0  0  0
  149.6317  135.6828  157.5104 C   0  0  0  0  0  0  0  0  0  0  0  0
  149.3078  134.8389  158.3452 O   0  0  0  0  0  0  0  0  0  0  0  0
  149.2704  135.5607  156.1487 N   0  0  0  0  0  0  0  0  0  0  0  0
  148.4623  134.3514  155.7246 C   0  0  1  0  0  0  0  0  0  0  0  0
  148.0629  134.5017  154.3916 O   0  0  0  0  0  0  0  0  0  0  0  0
  148.7060  133.5290  153.5737 C   0  0  2  0  0  0  0  0  0  0  0  0
  147.8467  133.2286  152.3406 C   0  0  0  0  0  0  0  0  0  0  0  0
  148.8829  132.3435  154.5195 C   0  0  1  0  0  0  0  0  0  0  0  0
  149.8559  131.4195  154.0700 O   0  0  0  0  0  0  0  0  0  0  0  0
  149.2499  133.0243  155.8337 C   0  0  1  0  0  0  0  0  0  0  0  0
  150.6523  133.2036  155.9707 O   0  0  0  0  0  0  0  0  0  0  0  0
  149.6843  136.5250  155.2413 C   0  0  0  0  0  0  0  0  0  0  0  0
  150.4130  137.5954  155.6245 C   0  0  0  0  0  0  0  0  0  0  0  0
  150.8048  138.5157  154.7262 F   0  0  0  0  0  0  0  0  0  0  0  0
  147.5560  134.3631  156.3322 H   0  0  0  0  0  0  0  0  0  0  0  0
  149.6807  133.9125  153.2686 H   0  0  0  0  0  0  0  0  0  0  0  0
  147.9301  131.8260  154.6404 H   0  0  0  0  0  0  0  0  0  0  0  0
  148.8916  132.4568  156.6932 H   0  0  0  0  0  0  0  0  0  0  0  0
  151.2477  146.0191  159.5202 H   0  0  0  0  0  0  0  0  0  0  0  0
  150.3822  144.5316  159.8900 H   0  0  0  0  0  0  0  0  0  0  0  0
  150.9482  144.8436  158.2487 H   0  0  0  0  0  0  0  0  0  0  0  0
  153.3353  144.7134  159.0530 H   0  0  0  0  0  0  0  0  0  0  0  0
  152.7706  144.4787  160.6843 H   0  0  0  0  0  0  0  0  0  0  0  0
  151.7340  142.3252  160.0723 H   0  0  0  0  0  0  0  0  0  0  0  0
  152.2289  142.5132  158.4119 H   0  0  0  0  0  0  0  0  0  0  0  0
  154.6295  142.4213  159.1032 H   0  0  0  0  0  0  0  0  0  0  0  0
  154.1667  142.3401  160.7839 H   0  0  0  0  0  0  0  0  0  0  0  0
  154.7867  140.1208  159.5032 H   0  0  0  0  0  0  0  0  0  0  0  0
  153.4096  140.1105  160.5984 H   0  0  0  0  0  0  0  0  0  0  0  0
  151.4369  139.6141  156.8258 H   0  0  0  0  0  0  0  0  0  0  0  0
  148.3120  132.4659  151.7160 H   0  0  0  0  0  0  0  0  0  0  0  0
  147.7153  134.1234  151.7322 H   0  0  0  0  0  0  0  0  0  0  0  0
  146.8569  132.8703  152.6252 H   0  0  0  0  0  0  0  0  0  0  0  0
  150.0082  130.7875  154.7562 H   0  0  0  0  0  0  0  0  0  0  0  0
  150.9343  132.7568  156.7540 H   0  0  0  0  0  0  0  0  0  0  0  0
  149.4340  136.4368  154.1952 H   0  0  0  0  0  0  0  0  0  0  0  0
  1  2  1  0  0  0  0
  1 30  1  0  0  0  0
  1 31  1  0  0  0  0
  1 32  1  0  0  0  0
  2  3  1  0  0  0  0
  2 33  1  0  0  0  0
  2 34  1  0  0  0  0
  3  4  1  0  0  0  0
  3 35  1  0  0  0  0
  3 36  1  0  0  0  0
  4  5  1  0  0  0  0
  4 37  1  0  0  0  0
  4 38  1  0  0  0  0
  5  6  1  0  0  0  0
  5 39  1  0  0  0  0
  5 40  1  0  0  0  0
  6  7  1  0  0  0  0
  7  8  2  0  0  0  0
  7  9  1  0  0  0  0
  9 10  1  0  0  0  0
  9 41  1  0  0  0  0
 10 24  1  0  0  0  0
 10 11  2  0  0  0  0
 11 12  1  0  0  0  0
 12 13  2  0  0  0  0
 12 14  1  0  0  0  0
 14 15  1  0  0  0  0
 14 23  1  0  0  0  0
 15 26  1  0  0  0  0
 15 21  1  0  0  0  0
 15 16  1  0  0  0  0
 16 17  1  0  0  0  0
 17 27  1  0  0  0  0
 17 18  1  0  0  0  0
 17 19  1  0  0  0  0
 18 42  1  0  0  0  0
 18 43  1  0  0  0  0
 18 44  1  0  0  0  0
 19 28  1  0  0  0  0
 19 20  1  0  0  0  0
 19 21  1  0  0  0  0
 20 45  1  0  0  0  0
 21 29  1  0  0  0  0
 21 22  1  0  0  0  0
 22 46  1  0  0  0  0
 23 24  2  0  0  0  0
 23 47  1  0  0  0  0
 24 25  1  0  0  0  0
M  END
> <s_m_source_file>
AV-unprocessed.smi

> <i_m_source_file_index>
40

> <i_lp_mmshare_version>
43012

> <i_f3d_flags>
0

> <s_epik_input>
W0NIM11bQ0gyXVtDSDJdW0NIMl1bQ0gyXU9DKD1PKVtOSF1jMW5jKD1PKW4oW2NIXWMxRilbQ0BASF0yT1tDQEhdKFtDSDNdKVtDQEBIXShbT0hdKVtDQEhdMltPSF0=

> <s_epik_cmdline>
J2VwaWtfcHl0aG9uJywgJy1waCcsICc3LjAnLCAnLXRuJywgJzgnLCAnLW1hJywgJzIwMCcsICctbWV0YWxfYmluZGluZycsICctaW1hZScsICc8aW5maWxlLm1hZT4nLCAnLW9tYWUnLCAnPG91dGZpbGUubWFlPic=

> <r_lp_tautomer_probability>
1

> <r_epik_Ionization_Penalty>
2.29506e-06

> <r_epik_Ionization_Penalty_Charging>
8.26867e-09

> <r_epik_Ionization_Penalty_Neutral>
2.2868e-06

> <r_epik_State_Penalty>
-0

> <r_epik_Charging_Adjusted_Penalty>
8.26867e-09

> <i_epik_Tot_Q>
0

> <i_epik_Tot_abs_Q>
0

> <r_epik_Metal_State_Penalty>
-0

> <b_epik_Metal_Only>
0

> <s_epik_Chemistry_Notes>
This compound has an ester and may undergo hydrolysis at high or low pH. This compound contains an acetal/aminal-like group ( X-CH(R)-Y where X, Y are N, S, or O) that may be acid/base labile, releasing an aldehyde.

> <s_lp_Force_Field>
OPLS_2005

> <r_lp_Energy>
42.3286

> <b_lp_Chiralities_Consistent>
1

> <s_lp_Variant>
AV-unprocessed.smi:40-2

> <Gold.Version>
5.8.1

> <Gold.Id.Protein>
6NUR|6NUR_protein|mol2

> <Gold.PLP.Fitness>
42.2502

> <Gold.PLP.PLP>
-37.0880

> <Gold.PLP.part.hbond>
-1.2901

> <Gold.PLP.part.metal>
0.0000

> <Gold.PLP.part.buried>
-4.0926

> <Gold.PLP.part.nonpolar>
-31.8998

> <Gold.PLP.part.repulsive>
0.1741

> <Gold.PLP.ligand.clash>
0.0000

> <Gold.PLP.ligand.torsion>
0.5014

> <Gold.PLP.Chemscore.Hbond>
1.0000

> <Gold.PLP.Chemscore.CHOScore>
1.0000

> <Gold.PLP.Chemscore.Metal>
0.0000

> <Gold.Chemscore.Hbonds>
donor molecule, donor type, donor heavy atom, donor atom, acceptor molecule, acceptor atom, score
      P1  H  6896  6909       L1    13  1.00
      L1  C    23    47       P1  7948  1.00

> <Gold.PLP.Chemscore.Internal.Correction>
0.1650

> <Gold.Rescore>
     Score         DG    S(hbond)    S(metal)    S(lipo)     H(rot)  DE(clash)    DE(int)     intcor
      7.96      -9.66       0.93        0.00      90.19       3.70       0.12       1.58       ----

> <Gold.Chemscore.Fitness>
7.9566

> <Gold.Chemscore.DG>
-9.6606

> <Gold.Chemscore.ZeroCoef>
-5.4800

> <Gold.Chemscore.Hbond>
0.9250

> <Gold.Chemscore.Metal>
0.0000

> <Gold.Chemscore.Lipo>
90.1883

> <Gold.Chemscore.Internal_Hbond>
0.0000

> <Gold.Chemscore.DEClash>
0.1228

> <Gold.Chemscore.DEInternal>
1.5812

> <Gold.Chemscore.Rot>
3.6957

> <Gold.Chemscore.Internal.Correction>
   9.000000E+99

> <Gold.Chemscore.Hbonds>
donor molecule, donor type, donor heavy atom, donor atom, acceptor molecule, acceptor atom, score
      P1  H  6896  6909       L1    13  0.93

> <Gold.Chemscore.Hbond.Weighted>
-3.0895

> <Gold.Chemscore.Metal.Weighted>
-0.0000

> <Gold.Chemscore.Lipo.Weighted>
-10.5520

> <Gold.Chemscore.Internal_Hbond.Weighted>
0.0000

> <Gold.Chemscore.DEClash.Weighted>
0.1228

> <Gold.Chemscore.DEInternal.Weighted>
1.5812

> <Gold.Chemscore.Rot.Weighted>
9.4610

> <Gold.Chemscore.Internal.Correction.Weighted>
   9.000000E+99

> <Gold.Protein.RotatedTorsions>
[ 6907 6896 6895 6894 ] final   26.95 input  -60.11 | X-H torsion
[ 7974 7965 7964 7962 ] final   50.48 input  175.53 | X-H torsion
[ 8008 7997 7996 7995 ] final  -26.68 input   59.86 | X-H torsion
[ 10167 10162 10161 10158 ] final -115.39 input  -65.29 | X-H torsion
[ 10718 10713 10712 10709 ] final -129.61 input   66.30 | X-H torsion
[ 10763 10752 10751 10750 ] final   36.04 input  -60.55 | X-H torsion
[ 11005 11000 10999 10996 ] final -131.91 input  -57.11 | X-H torsion

> <Gold.Protein.ActiveResidues>
 VAL166  LYS551  ARG553  GLY616  TRP617  ASP618  TYR619  PRO620  LYS621  CYS622 
 ASP623  PHE694  ASN695  SER759  ASP760  ASP761  ALA762  ILE779  LEU786  VAL792 
 PHE793  MET794  SER795  GLU796  ALA797  LYS798  CYS799  TRP800  GLU811  SER814 

> <Gold.Protein.RotatedAtoms>
  151.9951  134.9958  160.0562 H   0  0  0  0  0  0  0  0  0  0  0  0  # atno 6907 bound_to 6896
  152.1572  133.4554  159.4851 H   0  0  0  0  0  0  0  0  0  0  0  0  # atno 6908 bound_to 6896
  150.6883  134.2034  159.4374 H   0  0  0  0  0  0  0  0  0  0  0  0  # atno 6909 bound_to 6896
  146.0007  139.4436  143.0016 H   0  0  0  0  0  0  0  0  0  0  0  0  # atno 7974 bound_to 7965
  154.4413  140.1893  156.0813 H   0  0  0  0  0  0  0  0  0  0  0  0  # atno 8008 bound_to 7997
  156.0436  140.3317  155.7245 H   0  0  0  0  0  0  0  0  0  0  0  0  # atno 8009 bound_to 7997
  155.5662  140.0608  157.2808 H   0  0  0  0  0  0  0  0  0  0  0  0  # atno 8010 bound_to 7997
  140.0907  143.4703  152.1872 H   0  0  0  0  0  0  0  0  0  0  0  0  # atno 10167 bound_to 10162
  156.2064  130.6890  151.0599 H   0  0  0  0  0  0  0  0  0  0  0  0  # atno 10718 bound_to 10713
  153.0093  135.6317  154.1922 H   0  0  0  0  0  0  0  0  0  0  0  0  # atno 10763 bound_to 10752
  154.1664  135.2820  155.3095 H   0  0  0  0  0  0  0  0  0  0  0  0  # atno 10764 bound_to 10752
  154.5942  135.5608  153.7369 H   0  0  0  0  0  0  0  0  0  0  0  0  # atno 10765 bound_to 10752
  140.9217  134.1436  157.4309 H   0  0  0  0  0  0  0  0  0  0  0  0  # atno 11005 bound_to 11000
  145.7491  140.9979  143.1260 LP  0  0  0  0  0  0  0  0  0  0  0  0  # atno 17320 bound_to 7965
  144.6918  139.9192  143.7467 LP  0  0  0  0  0  0  0  0  0  0  0  0  # atno 17321 bound_to 7965
  139.5726  144.7471  151.3849 LP  0  0  0  0  0  0  0  0  0  0  0  0  # atno 17342 bound_to 10162
  140.7030  143.7584  150.7435 LP  0  0  0  0  0  0  0  0  0  0  0  0  # atno 17343 bound_to 10162
  157.7014  131.0774  150.6807 LP  0  0  0  0  0  0  0  0  0  0  0  0  # atno 17370 bound_to 10713
  156.6865  130.4582  149.5612 LP  0  0  0  0  0  0  0  0  0  0  0  0  # atno 17371 bound_to 10713
  139.8777  134.9973  156.5842 LP  0  0  0  0  0  0  0  0  0  0  0  0  # atno 17394 bound_to 11000
  140.7979  133.8529  155.8702 LP  0  0  0  0  0  0  0  0  0  0  0  0  # atno 17395 bound_to 11000

$$$$
