AV-unprocessed.smi:671|AV-procd|sdf|3285|dock3
  -GOLD-   22720 0243D 1   1.00000     0.00000
 Structure written by MMmdl.
 50 51  0  0  0  0  0  0  0  0  2 V2000
  145.3931  142.8134  154.8767 C   0  0  0  0  0  0  0  0  0  0  0  0
  143.9835  143.1165  155.2620 C   0  0  0  0  0  0  0  0  0  0  0  0
  142.8909  142.6707  154.5868 N   0  3  0  0  0  0  0  0  0  0  0  0
  141.7704  143.1136  155.1740 N   0  0  0  0  0  0  0  0  0  0  0  0
  140.4798  142.7422  154.5939 C   0  0  0  0  0  0  0  0  0  0  0  0
  142.0772  143.8768  156.2619 C   0  0  0  0  0  0  0  0  0  0  0  0
  141.0639  144.5289  157.1464 C   0  0  0  0  0  0  0  0  0  0  0  0
  143.4780  143.8775  156.3227 C   0  0  0  0  0  0  0  0  0  0  0  0
  144.3235  144.5789  157.3490 C   0  0  0  0  0  0  0  0  0  0  0  0
  145.1444  143.6072  158.2279 C   0  0  2  0  0  0  0  0  0  0  0  0
  144.6656  143.5838  159.6878 C   0  0  0  0  0  0  0  0  0  0  0  0
  146.5642  143.9687  158.2016 N   0  0  0  0  0  0  0  0  0  0  0  0
  147.5587  143.4920  158.9738 C   0  0  0  0  0  0  0  0  0  0  0  0
  147.3569  142.6478  159.8441 O   0  0  0  0  0  0  0  0  0  0  0  0
  148.7668  144.0195  158.7131 N   0  0  0  0  0  0  0  0  0  0  0  0
  150.0117  143.7315  159.4240 C   0  0  2  0  0  0  0  0  0  0  0  0
  150.6862  145.0525  159.8426 C   0  0  0  0  0  0  0  0  0  0  0  0
  151.9402  145.2117  158.9704 C   0  0  0  0  0  0  0  0  0  0  0  0
  151.8278  144.1513  157.8754 C   0  0  0  0  0  0  0  0  0  0  0  0
  151.0442  143.0137  158.5310 C   0  0  2  0  0  0  0  0  0  0  0  0
  150.4922  141.9802  157.5343 C   0  0  0  0  0  0  0  0  0  0  0  0
  145.9706  142.5122  155.7504 H   0  0  0  0  0  0  0  0  0  0  0  0
  145.8594  143.6964  154.4397 H   0  0  0  0  0  0  0  0  0  0  0  0
  145.4275  142.0048  154.1462 H   0  0  0  0  0  0  0  0  0  0  0  0
  139.6932  142.8629  155.3390 H   0  0  0  0  0  0  0  0  0  0  0  0
  140.5091  141.7009  154.2702 H   0  0  0  0  0  0  0  0  0  0  0  0
  140.2741  143.3877  153.7395 H   0  0  0  0  0  0  0  0  0  0  0  0
  141.5348  145.2197  157.8442 H   0  0  0  0  0  0  0  0  0  0  0  0
  140.5278  143.7732  157.7205 H   0  0  0  0  0  0  0  0  0  0  0  0
  140.3439  145.0874  156.5476 H   0  0  0  0  0  0  0  0  0  0  0  0
  144.9952  145.2658  156.8333 H   0  0  0  0  0  0  0  0  0  0  0  0
  143.7105  145.2173  157.9847 H   0  0  0  0  0  0  0  0  0  0  0  0
  145.0382  142.5932  157.8393 H   0  0  0  0  0  0  0  0  0  0  0  0
  143.6351  143.2370  159.7643 H   0  0  0  0  0  0  0  0  0  0  0  0
  144.7188  144.5748  160.1400 H   0  0  0  0  0  0  0  0  0  0  0  0
  145.2772  142.9107  160.2897 H   0  0  0  0  0  0  0  0  0  0  0  0
  146.8250  144.6657  157.5186 H   0  0  0  0  0  0  0  0  0  0  0  0
  148.8264  144.6965  157.9673 H   0  0  0  0  0  0  0  0  0  0  0  0
  149.8036  143.1278  160.3094 H   0  0  0  0  0  0  0  0  0  0  0  0
  150.0168  145.9055  159.7210 H   0  0  0  0  0  0  0  0  0  0  0  0
  150.9670  145.0244  160.8959 H   0  0  0  0  0  0  0  0  0  0  0  0
  152.0344  146.2170  158.5585 H   0  0  0  0  0  0  0  0  0  0  0  0
  152.8289  145.0209  159.5733 H   0  0  0  0  0  0  0  0  0  0  0  0
  151.2671  144.5524  157.0301 H   0  0  0  0  0  0  0  0  0  0  0  0
  152.8022  143.8312  157.5051 H   0  0  0  0  0  0  0  0  0  0  0  0
  151.7325  142.4902  159.1970 H   0  0  0  0  0  0  0  0  0  0  0  0
  149.8469  142.4399  156.7853 H   0  0  0  0  0  0  0  0  0  0  0  0
  149.9150  141.2118  158.0494 H   0  0  0  0  0  0  0  0  0  0  0  0
  151.3047  141.4826  157.0045 H   0  0  0  0  0  0  0  0  0  0  0  0
  142.8533  142.0896  153.7588 H   0  0  0  0  0  0  0  0  0  0  0  0
  1  2  1  0  0  0  0
  1 22  1  0  0  0  0
  1 23  1  0  0  0  0
  1 24  1  0  0  0  0
  2  8  1  0  0  0  0
  2  3  2  0  0  0  0
  3  4  1  0  0  0  0
  3 50  1  0  0  0  0
  4  5  1  0  0  0  0
  4  6  1  0  0  0  0
  5 25  1  0  0  0  0
  5 26  1  0  0  0  0
  5 27  1  0  0  0  0
  6  7  1  0  0  0  0
  6  8  2  0  0  0  0
  7 28  1  0  0  0  0
  7 29  1  0  0  0  0
  7 30  1  0  0  0  0
  8  9  1  0  0  0  0
  9 10  1  0  0  0  0
  9 31  1  0  0  0  0
  9 32  1  0  0  0  0
 10 11  1  0  0  0  0
 10 12  1  0  0  0  0
 10 33  1  0  0  0  0
 11 34  1  0  0  0  0
 11 35  1  0  0  0  0
 11 36  1  0  0  0  0
 12 13  1  0  0  0  0
 12 37  1  0  0  0  0
 13 14  2  0  0  0  0
 13 15  1  0  0  0  0
 15 16  1  0  0  0  0
 15 38  1  0  0  0  0
 16 20  1  0  0  0  0
 16 17  1  0  0  0  0
 16 39  1  0  0  0  0
 17 18  1  0  0  0  0
 17 40  1  0  0  0  0
 17 41  1  0  0  0  0
 18 19  1  0  0  0  0
 18 42  1  0  0  0  0
 18 43  1  0  0  0  0
 19 20  1  0  0  0  0
 19 44  1  0  0  0  0
 19 45  1  0  0  0  0
 20 21  1  0  0  0  0
 20 46  1  0  0  0  0
 21 47  1  0  0  0  0
 21 48  1  0  0  0  0
 21 49  1  0  0  0  0
M  CHG  1   3   1
M  END
> <s_m_source_file>
AV-unprocessed.smi

> <i_m_source_file_index>
671

> <i_lp_mmshare_version>
43012

> <i_f3d_flags>
0

> <s_epik_input>
W0NIM11jMW5uKFtDSDNdKWMoW0NIM10pYzFbQ0gyXVtDQEhdKFtDSDNdKVtOSF1DKD1PKVtOSF1bQ0BASF0yW0NIMl1bQ0gyXVtDSDJdW0NASF0yW0NIM10=

> <s_epik_cmdline>
J2VwaWtfcHl0aG9uJywgJy1waCcsICc3LjAnLCAnLXRuJywgJzgnLCAnLW1hJywgJzIwMCcsICctbWV0YWxfYmluZGluZycsICctaW1hZScsICc8aW5maWxlLm1hZT4nLCAnLW9tYWUnLCAnPG91dGZpbGUubWFlPic=

> <r_lp_tautomer_probability>
1

> <r_epik_Ionization_Penalty>
2.28705

> <r_epik_Ionization_Penalty_Charging>
2.28698

> <r_epik_Ionization_Penalty_Neutral>
6.23157e-05

> <r_epik_State_Penalty>
2.43671

> <r_epik_Charging_Adjusted_Penalty>
4.72369

> <i_epik_Tot_Q>
1

> <i_epik_Tot_abs_Q>
1

> <r_epik_Metal_State_Penalty>
2.44911

> <b_epik_Metal_Only>
0

> <s_lp_Force_Field>
OPLS_2005

> <r_lp_Energy>
35.629

> <b_lp_Chiralities_Consistent>
1

> <s_lp_Variant>
AV-unprocessed.smi:671-13

> <Gold.Version>
5.8.1

> <Gold.Id.Protein>
6NUR|6NUR_protein|mol2

> <Gold.PLP.Fitness>
44.1039

> <Gold.PLP.PLP>
-30.4063

> <Gold.PLP.part.hbond>
-5.4466

> <Gold.PLP.part.metal>
0.0000

> <Gold.PLP.part.buried>
-0.5503

> <Gold.PLP.part.nonpolar>
-25.6775

> <Gold.PLP.part.repulsive>
0.1699

> <Gold.PLP.ligand.clash>
0.0000

> <Gold.PLP.ligand.torsion>
0.9330

> <Gold.PLP.Chemscore.Hbond>
5.1760

> <Gold.PLP.Chemscore.CHOScore>
0.0000

> <Gold.PLP.Chemscore.Metal>
0.0000

> <Gold.Chemscore.Hbonds>
donor molecule, donor type, donor heavy atom, donor atom, acceptor molecule, acceptor atom, score
      L1  H     3    50       P1 10174  0.77
      L1  H    12    37       P1  8029  0.57
      L1  H    15    38       P1  8029  0.72
      P1  H  6933  6944       L1    14  0.69
      P1  H  6934  6946       L1    14  0.67

> <Gold.PLP.Chemscore.Internal.Correction>
0.0356

> <Gold.Rescore>
     Score         DG    S(hbond)    S(metal)    S(lipo)     H(rot)  DE(clash)    DE(int)     intcor
     21.30     -24.37       4.03        0.00      79.37       1.51       0.62       2.45       ----

> <Gold.Chemscore.Fitness>
21.3042

> <Gold.Chemscore.DG>
-24.3727

> <Gold.Chemscore.ZeroCoef>
-5.4800

> <Gold.Chemscore.Hbond>
4.0301

> <Gold.Chemscore.Metal>
0.0000

> <Gold.Chemscore.Lipo>
79.3734

> <Gold.Chemscore.Internal_Hbond>
0.0000

> <Gold.Chemscore.DEClash>
0.6214

> <Gold.Chemscore.DEInternal>
2.4471

> <Gold.Chemscore.Rot>
1.5057

> <Gold.Chemscore.Internal.Correction>
   9.000000E+99

> <Gold.Chemscore.Hbonds>
donor molecule, donor type, donor heavy atom, donor atom, acceptor molecule, acceptor atom, score
      L1  H     3    50       P1 10174  0.03
      L1  H    12    37       P1  8029  0.05
      L1  H    15    38       P1  8029  0.14
      P1  H  6933  6944       L1    14  0.68
      P1  H  6934  6946       L1    14  0.64

> <Gold.Chemscore.Hbond.Weighted>
-13.4607

> <Gold.Chemscore.Metal.Weighted>
-0.0000

> <Gold.Chemscore.Lipo.Weighted>
-9.2867

> <Gold.Chemscore.Internal_Hbond.Weighted>
0.0000

> <Gold.Chemscore.DEClash.Weighted>
0.6214

> <Gold.Chemscore.DEInternal.Weighted>
2.4471

> <Gold.Chemscore.Rot.Weighted>
3.8547

> <Gold.Chemscore.Internal.Correction.Weighted>
   9.000000E+99

> <Gold.Protein.RotatedTorsions>
[ 6907 6896 6895 6894 ] final  -37.41 input  -60.11 | X-H torsion
[ 7974 7965 7964 7962 ] final  121.53 input  175.53 | X-H torsion
[ 8008 7997 7996 7995 ] final   44.95 input   59.86 | X-H torsion
[ 10167 10162 10161 10158 ] final   99.43 input  -65.29 | X-H torsion
[ 10718 10713 10712 10709 ] final -138.51 input   66.30 | X-H torsion
[ 10763 10752 10751 10750 ] final  164.33 input  -60.55 | X-H torsion
[ 11005 11000 10999 10996 ] final -168.35 input  -57.11 | X-H torsion

> <Gold.Protein.ActiveResidues>
 VAL166  LYS551  ARG553  GLY616  TRP617  ASP618  TYR619  PRO620  LYS621  CYS622 
 ASP623  PHE694  ASN695  SER759  ASP760  ASP761  ALA762  ILE779  LEU786  VAL792 
 PHE793  MET794  SER795  GLU796  ALA797  LYS798  CYS799  TRP800  GLU811  SER814 

> <Gold.Protein.RotatedAtoms>
  151.0151  134.9426  159.8028 H   0  0  0  0  0  0  0  0  0  0  0  0  # atno 6907 bound_to 6896
  152.5312  134.2977  159.9077 H   0  0  0  0  0  0  0  0  0  0  0  0  # atno 6908 bound_to 6896
  151.2984  133.4091  159.2672 H   0  0  0  0  0  0  0  0  0  0  0  0  # atno 6909 bound_to 6896
  145.1182  139.3407  143.4728 H   0  0  0  0  0  0  0  0  0  0  0  0  # atno 7974 bound_to 7965
  155.3278  140.3401  155.4240 H   0  0  0  0  0  0  0  0  0  0  0  0  # atno 8008 bound_to 7997
  156.1877  140.1686  156.8191 H   0  0  0  0  0  0  0  0  0  0  0  0  # atno 8009 bound_to 7997
  154.5405  140.0726  156.8485 H   0  0  0  0  0  0  0  0  0  0  0  0  # atno 8010 bound_to 7997
  139.7618  144.6952  151.0282 H   0  0  0  0  0  0  0  0  0  0  0  0  # atno 10167 bound_to 10162
  156.3002  130.7424  151.1474 H   0  0  0  0  0  0  0  0  0  0  0  0  # atno 10718 bound_to 10713
  154.3073  135.2758  155.2583 H   0  0  0  0  0  0  0  0  0  0  0  0  # atno 10763 bound_to 10752
  154.4993  135.5812  153.6522 H   0  0  0  0  0  0  0  0  0  0  0  0  # atno 10764 bound_to 10752
  152.9892  135.6154  154.3248 H   0  0  0  0  0  0  0  0  0  0  0  0  # atno 10765 bound_to 10752
  140.5430  134.5503  157.5104 H   0  0  0  0  0  0  0  0  0  0  0  0  # atno 11005 bound_to 11000
  146.3522  140.1130  142.8603 LP  0  0  0  0  0  0  0  0  0  0  0  0  # atno 17320 bound_to 7965
  145.0770  140.9195  143.4848 LP  0  0  0  0  0  0  0  0  0  0  0  0  # atno 17321 bound_to 7965
  140.7807  143.4688  151.0174 LP  0  0  0  0  0  0  0  0  0  0  0  0  # atno 17342 bound_to 10162
  139.8374  143.7609  152.3180 LP  0  0  0  0  0  0  0  0  0  0  0  0  # atno 17343 bound_to 10162
  157.7366  131.0561  150.5405 LP  0  0  0  0  0  0  0  0  0  0  0  0  # atno 17370 bound_to 10713
  156.5532  130.4237  149.6098 LP  0  0  0  0  0  0  0  0  0  0  0  0  # atno 17371 bound_to 10713
  139.9494  134.7644  156.0484 LP  0  0  0  0  0  0  0  0  0  0  0  0  # atno 17394 bound_to 11000
  141.1216  133.6611  156.3229 LP  0  0  0  0  0  0  0  0  0  0  0  0  # atno 17395 bound_to 11000

$$$$
