AV-unprocessed.smi:813|AV-procd|sdf|3820|dock8
  -GOLD-   22720 1263D 1   1.00000     0.00000
 Structure written by MMmdl.
 35 36  0  0  0  0  0  0  0  0  2 V2000
  152.6998  138.2317  156.9182 C   0  0  0  0  0  0  0  0  0  0  0  0
  151.3841  138.6543  157.5928 C   0  0  1  0  0  0  0  0  0  0  0  0
  150.8604  137.5030  158.3271 N   0  0  0  0  0  0  0  0  0  0  0  0
  149.6351  137.4029  158.8651 C   0  0  0  0  0  0  0  0  0  0  0  0
  148.8368  138.3367  158.7549 O   0  0  0  0  0  0  0  0  0  0  0  0
  149.4116  136.2289  159.4982 N   0  5  0  0  0  0  0  0  0  0  0  0
  148.2708  136.0416  160.1821 C   0  0  0  0  0  0  0  0  0  0  0  0
  147.5555  137.0637  160.6788 N   0  0  0  0  0  0  0  0  0  0  0  0
  146.4095  136.6542  161.3474 N   0  0  0  0  0  0  0  0  0  0  0  0
  146.2847  135.3273  161.3288 C   0  0  0  0  0  0  0  0  0  0  0  0
  147.5541  134.4578  160.4930 S   0  0  0  0  0  0  0  0  0  0  0  0
  151.6835  139.8134  158.5564 C   0  0  0  0  0  0  0  0  0  0  0  0
  152.4449  139.6560  159.5123 O   0  0  0  0  0  0  0  0  0  0  0  0
  151.0790  140.9793  158.2828 N   0  0  0  0  0  0  0  0  0  0  0  0
  151.2057  142.1989  159.0753 C   0  0  0  0  0  0  0  0  0  0  0  0
  150.4570  143.3761  158.4187 C   0  0  0  0  0  0  0  0  0  0  0  0
  151.5381  144.2948  157.8502 C   0  0  0  0  0  0  0  0  0  0  0  0
  152.7148  144.1173  158.8042 C   0  0  0  0  0  0  0  0  0  0  0  0
  152.6805  142.6341  159.1784 C   0  0  0  0  0  0  0  0  0  0  0  0
  153.1368  139.0555  156.3525 H   0  0  0  0  0  0  0  0  0  0  0  0
  152.5307  137.4120  156.2189 H   0  0  0  0  0  0  0  0  0  0  0  0
  153.4410  137.8954  157.6448 H   0  0  0  0  0  0  0  0  0  0  0  0
  150.6685  138.9665  156.8295 H   0  0  0  0  0  0  0  0  0  0  0  0
  151.4841  136.7187  158.4480 H   0  0  0  0  0  0  0  0  0  0  0  0
  145.4387  134.8579  161.8079 H   0  0  0  0  0  0  0  0  0  0  0  0
  150.4681  141.0168  157.4798 H   0  0  0  0  0  0  0  0  0  0  0  0
  150.8064  142.0263  160.0767 H   0  0  0  0  0  0  0  0  0  0  0  0
  149.7403  143.0679  157.6559 H   0  0  0  0  0  0  0  0  0  0  0  0
  149.8958  143.9136  159.1842 H   0  0  0  0  0  0  0  0  0  0  0  0
  151.8192  143.9578  156.8515 H   0  0  0  0  0  0  0  0  0  0  0  0
  151.2100  145.3318  157.7737 H   0  0  0  0  0  0  0  0  0  0  0  0
  153.6647  144.4168  158.3606 H   0  0  0  0  0  0  0  0  0  0  0  0
  152.5568  144.7252  159.6960 H   0  0  0  0  0  0  0  0  0  0  0  0
  153.0919  142.4580  160.1727 H   0  0  0  0  0  0  0  0  0  0  0  0
  153.2978  142.0756  158.4728 H   0  0  0  0  0  0  0  0  0  0  0  0
  1  2  1  0  0  0  0
  1 20  1  0  0  0  0
  1 21  1  0  0  0  0
  1 22  1  0  0  0  0
  2  3  1  0  0  0  0
  2 12  1  0  0  0  0
  2 23  1  0  0  0  0
  3  4  1  0  0  0  0
  3 24  1  0  0  0  0
  4  5  2  0  0  0  0
  4  6  1  0  0  0  0
  6  7  1  0  0  0  0
  7 11  1  0  0  0  0
  7  8  2  0  0  0  0
  8  9  1  0  0  0  0
  9 10  2  0  0  0  0
 10 11  1  0  0  0  0
 10 25  1  0  0  0  0
 12 13  2  0  0  0  0
 12 14  1  0  0  0  0
 14 15  1  0  0  0  0
 14 26  1  0  0  0  0
 15 19  1  0  0  0  0
 15 16  1  0  0  0  0
 15 27  1  0  0  0  0
 16 17  1  0  0  0  0
 16 28  1  0  0  0  0
 16 29  1  0  0  0  0
 17 18  1  0  0  0  0
 17 30  1  0  0  0  0
 17 31  1  0  0  0  0
 18 19  1  0  0  0  0
 18 32  1  0  0  0  0
 18 33  1  0  0  0  0
 19 34  1  0  0  0  0
 19 35  1  0  0  0  0
M  CHG  1   6  -1
M  END
> <s_m_source_file>
AV-unprocessed.smi

> <i_m_source_file_index>
813

> <i_lp_mmshare_version>
43012

> <i_f3d_flags>
0

> <s_epik_input>
W0NIMl0xW0NIMl1bQ0gyXVtDSDJdW0NIXTFbTkhdQyg9TylbQ0BIXShbQ0gzXSlbTkhdQyg9TylbTkhdYzJubltjSF1zMg==

> <s_epik_cmdline>
J2VwaWtfcHl0aG9uJywgJy1waCcsICc3LjAnLCAnLXRuJywgJzgnLCAnLW1hJywgJzIwMCcsICctbWV0YWxfYmluZGluZycsICctaW1hZScsICc8aW5maWxlLm1hZT4nLCAnLW9tYWUnLCAnPG91dGZpbGUubWFlPic=

> <r_lp_tautomer_probability>
1

> <r_epik_Ionization_Penalty>
3.13682

> <r_epik_Ionization_Penalty_Charging>
3.09647

> <r_epik_Ionization_Penalty_Neutral>
0.0403479

> <r_epik_State_Penalty>
3.09328

> <r_epik_Charging_Adjusted_Penalty>
6.18976

> <i_epik_Tot_Q>
-1

> <i_epik_Tot_abs_Q>
1

> <r_epik_Metal_State_Penalty>
0.461392

> <b_epik_Metal_Only>
1

> <s_lp_Force_Field>
OPLS_2005

> <r_lp_Energy>
15.2454

> <b_lp_Chiralities_Consistent>
1

> <s_lp_Variant>
AV-unprocessed.smi:813-4

> <Gold.Version>
5.8.1

> <Gold.Id.Protein>
6NUR|6NUR_protein|mol2

> <Gold.PLP.Fitness>
41.9997

> <Gold.PLP.PLP>
-32.2096

> <Gold.PLP.part.hbond>
-4.5301

> <Gold.PLP.part.metal>
0.0000

> <Gold.PLP.part.buried>
-4.3709

> <Gold.PLP.part.nonpolar>
-24.8928

> <Gold.PLP.part.repulsive>
0.2287

> <Gold.PLP.ligand.clash>
0.0000

> <Gold.PLP.ligand.torsion>
0.3037

> <Gold.PLP.Chemscore.Hbond>
3.4520

> <Gold.PLP.Chemscore.CHOScore>
0.0000

> <Gold.PLP.Chemscore.Metal>
0.0000

> <Gold.Chemscore.Hbonds>
donor molecule, donor type, donor heavy atom, donor atom, acceptor molecule, acceptor atom, score
      P1  H  6896  6909       L1     6  2.00
      P1  H  6931  6943       L1     8  0.37
      P1  H  6934  6947       L1     8  0.75

> <Gold.PLP.Chemscore.Internal.Correction>
0.0416

> <Gold.Rescore>
     Score         DG    S(hbond)    S(metal)    S(lipo)     H(rot)  DE(clash)    DE(int)     intcor
     14.16     -16.76       1.92        0.00      79.32       1.72       0.00       2.60       ----

> <Gold.Chemscore.Fitness>
14.1590

> <Gold.Chemscore.DG>
-16.7613

> <Gold.Chemscore.ZeroCoef>
-5.4800

> <Gold.Chemscore.Hbond>
1.9170

> <Gold.Chemscore.Metal>
0.0000

> <Gold.Chemscore.Lipo>
79.3177

> <Gold.Chemscore.Internal_Hbond>
0.0000

> <Gold.Chemscore.DEClash>
0.0048

> <Gold.Chemscore.DEInternal>
2.5975

> <Gold.Chemscore.Rot>
1.7194

> <Gold.Chemscore.Internal.Correction>
   9.000000E+99

> <Gold.Chemscore.Hbonds>
donor molecule, donor type, donor heavy atom, donor atom, acceptor molecule, acceptor atom, score
      P1  H  6896  6909       L1     6  0.83
      P1  H  6931  6943       L1     8  0.17
      P1  H  6934  6947       L1     8  0.09

> <Gold.Chemscore.Hbond.Weighted>
-6.4028

> <Gold.Chemscore.Metal.Weighted>
-0.0000

> <Gold.Chemscore.Lipo.Weighted>
-9.2802

> <Gold.Chemscore.Internal_Hbond.Weighted>
0.0000

> <Gold.Chemscore.DEClash.Weighted>
0.0048

> <Gold.Chemscore.DEInternal.Weighted>
2.5975

> <Gold.Chemscore.Rot.Weighted>
4.4016

> <Gold.Chemscore.Internal.Correction.Weighted>
   9.000000E+99

> <Gold.Protein.RotatedTorsions>
[ 6907 6896 6895 6894 ] final   57.32 input  -60.11 | X-H torsion
[ 7974 7965 7964 7962 ] final  161.34 input  175.53 | X-H torsion
[ 8008 7997 7996 7995 ] final -157.17 input   59.86 | X-H torsion
[ 10167 10162 10161 10158 ] final  119.61 input  -65.29 | X-H torsion
[ 10718 10713 10712 10709 ] final -103.41 input   66.30 | X-H torsion
[ 10763 10752 10751 10750 ] final   78.40 input  -60.55 | X-H torsion
[ 11005 11000 10999 10996 ] final  -39.20 input  -57.11 | X-H torsion

> <Gold.Protein.ActiveResidues>
 VAL166  LYS551  ARG553  GLY616  TRP617  ASP618  TYR619  PRO620  LYS621  CYS622 
 ASP623  PHE694  ASN695  SER759  ASP760  ASP761  ALA762  ILE779  LEU786  VAL792 
 PHE793  MET794  SER795  GLU796  ALA797  LYS798  CYS799  TRP800  GLU811  SER814 

> <Gold.Protein.RotatedAtoms>
  152.3720  134.6720  160.0172 H   0  0  0  0  0  0  0  0  0  0  0  0  # atno 6907 bound_to 6896
  151.7010  133.3306  159.3274 H   0  0  0  0  0  0  0  0  0  0  0  0  # atno 6908 bound_to 6896
  150.7681  134.6551  159.6353 H   0  0  0  0  0  0  0  0  0  0  0  0  # atno 6909 bound_to 6896
  144.7690  139.7885  143.6304 H   0  0  0  0  0  0  0  0  0  0  0  0  # atno 7974 bound_to 7965
  155.7283  140.0799  157.2300 H   0  0  0  0  0  0  0  0  0  0  0  0  # atno 8008 bound_to 7997
  154.4036  140.1600  156.2534 H   0  0  0  0  0  0  0  0  0  0  0  0  # atno 8009 bound_to 7997
  155.9132  140.3402  155.6118 H   0  0  0  0  0  0  0  0  0  0  0  0  # atno 8010 bound_to 7997
  139.6035  144.7063  151.3007 H   0  0  0  0  0  0  0  0  0  0  0  0  # atno 10167 bound_to 10162
  156.0264  130.5466  150.7249 H   0  0  0  0  0  0  0  0  0  0  0  0  # atno 10718 bound_to 10713
  153.0871  135.4878  154.8619 H   0  0  0  0  0  0  0  0  0  0  0  0  # atno 10763 bound_to 10752
  154.7224  135.3042  154.9027 H   0  0  0  0  0  0  0  0  0  0  0  0  # atno 10764 bound_to 10752
  153.9688  135.6803  153.4799 H   0  0  0  0  0  0  0  0  0  0  0  0  # atno 10765 bound_to 10752
  141.0084  133.6920  156.2154 H   0  0  0  0  0  0  0  0  0  0  0  0  # atno 11005 bound_to 11000
  146.1822  139.5020  142.9859 LP  0  0  0  0  0  0  0  0  0  0  0  0  # atno 17320 bound_to 7965
  145.6380  141.0290  143.1827 LP  0  0  0  0  0  0  0  0  0  0  0  0  # atno 17321 bound_to 7965
  140.7267  143.6982  150.7867 LP  0  0  0  0  0  0  0  0  0  0  0  0  # atno 17342 bound_to 10162
  140.0563  143.5200  152.2649 LP  0  0  0  0  0  0  0  0  0  0  0  0  # atno 17343 bound_to 10162
  157.4856  131.0906  151.0486 LP  0  0  0  0  0  0  0  0  0  0  0  0  # atno 17370 bound_to 10713
  157.0907  130.5941  149.5439 LP  0  0  0  0  0  0  0  0  0  0  0  0  # atno 17371 bound_to 10713
  140.6774  134.4803  157.5588 LP  0  0  0  0  0  0  0  0  0  0  0  0  # atno 17394 bound_to 11000
  139.9076  134.8415  156.1647 LP  0  0  0  0  0  0  0  0  0  0  0  0  # atno 17395 bound_to 11000

$$$$
