AV-unprocessed.smi:1553|AV-procd|sdf|6238|dock6
  -GOLD-   22720 6423D 1   1.00000     0.00000
 Structure written by MMmdl.
 37 38  0  0  0  0  0  0  0  0  1 V2000
  143.1483  146.0589  155.4084 C   0  0  0  0  0  0  0  0  0  0  0  0
  144.0966  145.1868  154.6601 C   0  0  0  0  0  0  0  0  0  0  0  0
  144.5637  144.0280  155.1312 N   0  0  0  0  0  0  0  0  0  0  0  0
  145.4519  143.4076  154.2477 C   0  0  0  0  0  0  0  0  0  0  0  0
  146.1280  142.1253  154.6406 C   0  0  0  0  0  0  0  0  0  0  0  0
  147.3326  141.7657  153.7469 C   0  0  0  0  0  0  0  0  0  0  0  0
  148.6031  141.9340  154.4504 N   0  0  0  0  0  0  0  0  0  0  0  0
  149.4956  140.9595  154.7075 C   0  0  0  0  0  0  0  0  0  0  0  0
  149.3539  139.8254  154.2516 O   0  0  0  0  0  0  0  0  0  0  0  0
  150.4706  141.3160  155.5891 N   0  0  0  0  0  0  0  0  0  0  0  0
  150.4412  142.5446  156.4016 C   0  0  0  0  0  0  0  0  0  0  0  0
  150.2273  142.1411  157.8692 C   0  0  0  0  0  0  0  0  0  0  0  0
  151.3015  141.3010  158.2807 O   0  0  0  0  0  0  0  0  0  0  0  0
  151.4382  140.1284  157.4811 C   0  0  0  0  0  0  0  0  0  0  0  0
  151.6451  140.5091  155.9981 C   0  0  1  0  0  0  0  0  0  0  0  0
  151.9707  139.2518  155.1652 C   0  0  0  0  0  0  0  0  0  0  0  0
  145.6320  144.1079  153.0804 C   0  0  0  0  0  0  0  0  0  0  0  0
  144.7161  145.5887  153.0637 S   0  0  0  0  0  0  0  0  0  0  0  0
  143.0318  145.7083  156.4344 H   0  0  0  0  0  0  0  0  0  0  0  0
  142.1729  146.0512  154.9220 H   0  0  0  0  0  0  0  0  0  0  0  0
  143.5222  147.0825  155.4303 H   0  0  0  0  0  0  0  0  0  0  0  0
  146.4570  142.1803  155.6788 H   0  0  0  0  0  0  0  0  0  0  0  0
  145.4069  141.3080  154.6052 H   0  0  0  0  0  0  0  0  0  0  0  0
  147.2292  140.7441  153.3778 H   0  0  0  0  0  0  0  0  0  0  0  0
  147.3392  142.4054  152.8645 H   0  0  0  0  0  0  0  0  0  0  0  0
  148.7722  142.8398  154.8625 H   0  0  0  0  0  0  0  0  0  0  0  0
  151.3883  143.0761  156.2974 H   0  0  0  0  0  0  0  0  0  0  0  0
  149.6828  143.2647  156.0936 H   0  0  0  0  0  0  0  0  0  0  0  0
  150.2059  143.0248  158.5069 H   0  0  0  0  0  0  0  0  0  0  0  0
  149.2745  141.6252  157.9995 H   0  0  0  0  0  0  0  0  0  0  0  0
  152.2918  139.5605  157.8520 H   0  0  0  0  0  0  0  0  0  0  0  0
  150.5581  139.4947  157.6019 H   0  0  0  0  0  0  0  0  0  0  0  0
  152.5262  141.1493  155.9300 H   0  0  0  0  0  0  0  0  0  0  0  0
  152.8792  138.7742  155.5329 H   0  0  0  0  0  0  0  0  0  0  0  0
  152.1449  139.4991  154.1176 H   0  0  0  0  0  0  0  0  0  0  0  0
  151.1747  138.5080  155.2208 H   0  0  0  0  0  0  0  0  0  0  0  0
  146.2647  143.8552  152.2427 H   0  0  0  0  0  0  0  0  0  0  0  0
  1  2  1  0  0  0  0
  1 19  1  0  0  0  0
  1 20  1  0  0  0  0
  1 21  1  0  0  0  0
  2 18  1  0  0  0  0
  2  3  2  0  0  0  0
  3  4  1  0  0  0  0
  4  5  1  0  0  0  0
  4 17  2  0  0  0  0
  5  6  1  0  0  0  0
  5 22  1  0  0  0  0
  5 23  1  0  0  0  0
  6  7  1  0  0  0  0
  6 24  1  0  0  0  0
  6 25  1  0  0  0  0
  7  8  1  0  0  0  0
  7 26  1  0  0  0  0
  8  9  2  0  0  0  0
  8 10  1  0  0  0  0
 10 15  1  0  0  0  0
 10 11  1  0  0  0  0
 11 12  1  0  0  0  0
 11 27  1  0  0  0  0
 11 28  1  0  0  0  0
 12 13  1  0  0  0  0
 12 29  1  0  0  0  0
 12 30  1  0  0  0  0
 13 14  1  0  0  0  0
 14 15  1  0  0  0  0
 14 31  1  0  0  0  0
 14 32  1  0  0  0  0
 15 16  1  0  0  0  0
 15 33  1  0  0  0  0
 16 34  1  0  0  0  0
 16 35  1  0  0  0  0
 16 36  1  0  0  0  0
 17 18  1  0  0  0  0
 17 37  1  0  0  0  0
M  END
> <s_m_source_file>
AV-unprocessed.smi

> <i_m_source_file_index>
1553

> <i_lp_mmshare_version>
43012

> <i_f3d_flags>
0

> <s_epik_input>
W0NIM11jMW5jKFtjSF1zMSlbQ0gyXVtDSDJdW05IXUMoPU8pTjJbQ0gyXVtDSDJdT1tDSDJdW0NASF0yW0NIM10=

> <s_epik_cmdline>
J2VwaWtfcHl0aG9uJywgJy1waCcsICc3LjAnLCAnLXRuJywgJzgnLCAnLW1hJywgJzIwMCcsICctbWV0YWxfYmluZGluZycsICctaW1hZScsICc8aW5maWxlLm1hZT4nLCAnLW9tYWUnLCAnPG91dGZpbGUubWFlPic=

> <r_epik_Ionization_Penalty>
0.0020768

> <r_epik_Ionization_Penalty_Charging>
0

> <r_epik_Ionization_Penalty_Neutral>
0.0020768

> <r_epik_State_Penalty>
0.00139904

> <r_epik_Charging_Adjusted_Penalty>
0.00139904

> <i_epik_Tot_Q>
0

> <i_epik_Tot_abs_Q>
0

> <r_epik_Metal_State_Penalty>
-0

> <b_epik_Metal_Only>
0

> <s_lp_Force_Field>
OPLS_2005

> <r_lp_Energy>
28.2448

> <b_lp_Chiralities_Consistent>
1

> <s_lp_Variant>
AV-unprocessed.smi:1553-1

> <Gold.Version>
5.8.1

> <Gold.Id.Protein>
6NUR|6NUR_protein|mol2

> <Gold.PLP.Fitness>
38.8452

> <Gold.PLP.PLP>
-36.8797

> <Gold.PLP.part.hbond>
-0.9881

> <Gold.PLP.part.metal>
0.0000

> <Gold.PLP.part.buried>
-0.9661

> <Gold.PLP.part.nonpolar>
-32.9581

> <Gold.PLP.part.repulsive>
0.4976

> <Gold.PLP.ligand.clash>
0.0258

> <Gold.PLP.ligand.torsion>
0.5770

> <Gold.PLP.Chemscore.Hbond>
1.0000

> <Gold.PLP.Chemscore.CHOScore>
0.0000

> <Gold.PLP.Chemscore.Metal>
0.0000

> <Gold.Chemscore.Hbonds>
donor molecule, donor type, donor heavy atom, donor atom, acceptor molecule, acceptor atom, score
      L1  H     7    26       P1  8028  1.00

> <Gold.PLP.Chemscore.Internal.Correction>
0.1453

> <Gold.Rescore>
     Score         DG    S(hbond)    S(metal)    S(lipo)     H(rot)  DE(clash)    DE(int)     intcor
     11.66     -15.16       0.95        0.00      84.69       1.33       1.66       1.84       ----

> <Gold.Chemscore.Fitness>
11.6644

> <Gold.Chemscore.DG>
-15.1603

> <Gold.Chemscore.ZeroCoef>
-5.4800

> <Gold.Chemscore.Hbond>
0.9530

> <Gold.Chemscore.Metal>
0.0000

> <Gold.Chemscore.Lipo>
84.6854

> <Gold.Chemscore.Internal_Hbond>
0.0000

> <Gold.Chemscore.DEClash>
1.6570

> <Gold.Chemscore.DEInternal>
1.8389

> <Gold.Chemscore.Rot>
1.3325

> <Gold.Chemscore.Internal.Correction>
   9.000000E+99

> <Gold.Chemscore.Hbonds>
donor molecule, donor type, donor heavy atom, donor atom, acceptor molecule, acceptor atom, score
      L1  H     7    26       P1  8028  0.93

> <Gold.Chemscore.Hbond.Weighted>
-3.1832

> <Gold.Chemscore.Metal.Weighted>
-0.0000

> <Gold.Chemscore.Lipo.Weighted>
-9.9082

> <Gold.Chemscore.Internal_Hbond.Weighted>
0.0000

> <Gold.Chemscore.DEClash.Weighted>
1.6570

> <Gold.Chemscore.DEInternal.Weighted>
1.8389

> <Gold.Chemscore.Rot.Weighted>
3.4111

> <Gold.Chemscore.Internal.Correction.Weighted>
   9.000000E+99

> <Gold.Protein.RotatedTorsions>
[ 6907 6896 6895 6894 ] final  165.37 input  -60.11 | X-H torsion
[ 7974 7965 7964 7962 ] final  -77.07 input  175.53 | X-H torsion
[ 8008 7997 7996 7995 ] final  -69.59 input   59.86 | X-H torsion
[ 10167 10162 10161 10158 ] final  -48.71 input  -65.29 | X-H torsion
[ 10718 10713 10712 10709 ] final -166.27 input   66.30 | X-H torsion
[ 10763 10752 10751 10750 ] final -123.36 input  -60.55 | X-H torsion
[ 11005 11000 10999 10996 ] final  179.06 input  -57.11 | X-H torsion

> <Gold.Protein.ActiveResidues>
 VAL166  LYS551  ARG553  GLY616  TRP617  ASP618  TYR619  PRO620  LYS621  CYS622 
 ASP623  PHE694  ASN695  SER759  ASP760  ASP761  ALA762  ILE779  LEU786  VAL792 
 PHE793  MET794  SER795  GLU796  ALA797  LYS798  CYS799  TRP800  GLU811  SER814 

> <Gold.Protein.RotatedAtoms>
  151.8955  133.3526  159.3812 H   0  0  0  0  0  0  0  0  0  0  0  0  # atno 6907 bound_to 6896
  150.7093  134.4881  159.5511 H   0  0  0  0  0  0  0  0  0  0  0  0  # atno 6908 bound_to 6896
  152.2459  134.8182  160.0504 H   0  0  0  0  0  0  0  0  0  0  0  0  # atno 6909 bound_to 6896
  145.6045  140.9401  143.1223 H   0  0  0  0  0  0  0  0  0  0  0  0  # atno 7974 bound_to 7965
  154.4950  140.0850  156.7676 H   0  0  0  0  0  0  0  0  0  0  0  0  # atno 8008 bound_to 7997
  155.4139  140.3442  155.4247 H   0  0  0  0  0  0  0  0  0  0  0  0  # atno 8009 bound_to 7997
  156.1381  140.1521  156.8951 H   0  0  0  0  0  0  0  0  0  0  0  0  # atno 8010 bound_to 7997
  140.6718  143.2728  151.4110 H   0  0  0  0  0  0  0  0  0  0  0  0  # atno 10167 bound_to 10162
  156.6654  130.9063  151.3035 H   0  0  0  0  0  0  0  0  0  0  0  0  # atno 10718 bound_to 10713
  154.8706  135.4101  154.2931 H   0  0  0  0  0  0  0  0  0  0  0  0  # atno 10763 bound_to 10752
  153.3804  135.7011  153.6575 H   0  0  0  0  0  0  0  0  0  0  0  0  # atno 10764 bound_to 10752
  153.5400  135.3650  155.2685 H   0  0  0  0  0  0  0  0  0  0  0  0  # atno 10765 bound_to 10752
  140.4020  134.6769  157.4567 H   0  0  0  0  0  0  0  0  0  0  0  0  # atno 11005 bound_to 11000
  144.7296  139.7767  143.7352 LP  0  0  0  0  0  0  0  0  0  0  0  0  # atno 17320 bound_to 7965
  146.1551  139.4647  143.0024 LP  0  0  0  0  0  0  0  0  0  0  0  0  # atno 17321 bound_to 7965
  139.5991  144.1334  152.2177 LP  0  0  0  0  0  0  0  0  0  0  0  0  # atno 17342 bound_to 10162
  140.0713  144.5777  150.7190 LP  0  0  0  0  0  0  0  0  0  0  0  0  # atno 17343 bound_to 10162
  157.7095  130.9424  150.1042 LP  0  0  0  0  0  0  0  0  0  0  0  0  # atno 17370 bound_to 10713
  156.1979  130.3658  149.8826 LP  0  0  0  0  0  0  0  0  0  0  0  0  # atno 17371 bound_to 10713
  140.0330  134.6379  155.9081 LP  0  0  0  0  0  0  0  0  0  0  0  0  # atno 17394 bound_to 11000
  141.1853  133.6555  156.5193 LP  0  0  0  0  0  0  0  0  0  0  0  0  # atno 17395 bound_to 11000

$$$$
