AV-unprocessed.smi:192|AV-procd|sdf|1495|dock9
  -GOLD-   2262019323D 1   1.00000     0.00000
 Structure written by MMmdl.
 58 60  0  0  0  0  0  0  0  0  1 V2000
  149.8090  140.9957  155.0683 C   0  0  0  0  0  0  0  0  0  0  0  0
  149.4293  139.8348  154.1374 C   0  0  0  0  0  0  0  0  0  0  0  0
  147.9091  139.5636  154.0441 C   0  0  0  0  0  0  0  0  0  0  0  0
  147.1401  140.8142  153.5618 C   0  0  0  0  0  0  0  0  0  0  0  0
  146.9282  141.8763  154.6511 C   0  0  0  0  0  0  0  0  0  0  0  0
  147.3581  139.0723  155.4078 C   0  0  0  0  0  0  0  0  0  0  0  0
  147.8507  137.7549  155.8148 N   0  0  0  0  0  0  0  0  0  0  0  0
  147.8754  137.4240  157.2381 C   0  0  0  0  0  0  0  0  0  0  0  0
  149.2686  137.0288  157.7603 C   0  0  0  0  0  0  0  0  0  0  0  0
  149.3400  136.8662  159.2206 C   0  0  0  0  0  0  0  0  0  0  0  0
  149.3955  136.7382  160.3691 N   0  0  0  0  0  0  0  0  0  0  0  0
  147.6141  136.6949  155.0045 C   0  0  0  0  0  0  0  0  0  0  0  0
  148.4265  135.6171  155.1426 N   0  0  0  0  0  0  0  0  0  0  0  0
  148.2648  134.5490  154.3566 C   0  0  0  0  0  0  0  0  0  0  0  0
  147.3629  134.3503  153.3938 N   0  0  0  0  0  0  0  0  0  0  0  0
  146.5278  135.4212  153.2668 C   0  0  0  0  0  0  0  0  0  0  0  0
  146.5819  136.6259  154.0238 C   0  0  0  0  0  0  0  0  0  0  0  0
  145.5710  137.4857  153.6105 N   0  0  0  0  0  0  0  0  0  0  0  0
  144.9686  136.8367  152.6526 C   0  0  0  0  0  0  0  0  0  0  0  0
  145.4613  135.5773  152.3986 N   0  0  0  0  0  0  0  0  0  0  0  0
  145.0163  134.6748  151.3779 C   0  0  0  0  0  0  0  0  0  0  0  0
  144.5455  133.2606  151.7228 C   0  0  0  0  0  0  0  0  0  0  0  0
  145.0813  132.7599  150.3617 C   0  0  0  0  0  0  0  0  0  0  0  0
  145.8226  131.4115  150.3732 C   0  0  0  0  0  0  0  0  0  0  0  0
  146.9192  131.4190  151.2638 O   0  0  0  0  0  0  0  0  0  0  0  0
  144.0880  132.7855  149.1803 C   0  0  0  0  0  0  0  0  0  0  0  0
  142.9792  131.9364  149.3928 O   0  0  0  0  0  0  0  0  0  0  0  0
  146.0058  133.9965  150.4275 C   0  0  0  0  0  0  0  0  0  0  0  0
  150.8822  141.1823  155.0278 H   0  0  0  0  0  0  0  0  0  0  0  0
  149.5565  140.7891  156.1075 H   0  0  0  0  0  0  0  0  0  0  0  0
  149.3038  141.9163  154.7748 H   0  0  0  0  0  0  0  0  0  0  0  0
  149.8185  140.0788  153.1488 H   0  0  0  0  0  0  0  0  0  0  0  0
  149.9504  138.9279  154.4463 H   0  0  0  0  0  0  0  0  0  0  0  0
  147.7568  138.7860  153.2953 H   0  0  0  0  0  0  0  0  0  0  0  0
  147.6526  141.2599  152.7084 H   0  0  0  0  0  0  0  0  0  0  0  0
  146.1544  140.5255  153.2000 H   0  0  0  0  0  0  0  0  0  0  0  0
  146.2993  142.6858  154.2802 H   0  0  0  0  0  0  0  0  0  0  0  0
  147.8674  142.3213  154.9779 H   0  0  0  0  0  0  0  0  0  0  0  0
  146.4360  141.4501  155.5257 H   0  0  0  0  0  0  0  0  0  0  0  0
  147.6227  139.7965  156.1791 H   0  0  0  0  0  0  0  0  0  0  0  0
  146.2714  139.0445  155.3954 H   0  0  0  0  0  0  0  0  0  0  0  0
  147.5041  138.2764  157.8081 H   0  0  0  0  0  0  0  0  0  0  0  0
  147.1711  136.6129  157.4253 H   0  0  0  0  0  0  0  0  0  0  0  0
  149.6187  136.1076  157.2944 H   0  0  0  0  0  0  0  0  0  0  0  0
  149.9874  137.8046  157.4968 H   0  0  0  0  0  0  0  0  0  0  0  0
  148.9587  133.7379  154.5209 H   0  0  0  0  0  0  0  0  0  0  0  0
  144.1383  137.2610  152.1068 H   0  0  0  0  0  0  0  0  0  0  0  0
  144.2480  135.2112  150.8186 H   0  0  0  0  0  0  0  0  0  0  0  0
  145.0856  132.8347  152.5707 H   0  0  0  0  0  0  0  0  0  0  0  0
  143.4682  133.1652  151.8608 H   0  0  0  0  0  0  0  0  0  0  0  0
  145.1537  130.5935  150.6426 H   0  0  0  0  0  0  0  0  0  0  0  0
  146.2115  131.1739  149.3827 H   0  0  0  0  0  0  0  0  0  0  0  0
  147.6972  131.1767  150.7857 H   0  0  0  0  0  0  0  0  0  0  0  0
  143.7000  133.7905  149.0138 H   0  0  0  0  0  0  0  0  0  0  0  0
  144.5766  132.4946  148.2499 H   0  0  0  0  0  0  0  0  0  0  0  0
  142.1984  132.4667  149.4368 H   0  0  0  0  0  0  0  0  0  0  0  0
  146.1482  134.5163  149.4794 H   0  0  0  0  0  0  0  0  0  0  0  0
  146.9658  133.7943  150.9065 H   0  0  0  0  0  0  0  0  0  0  0  0
  1  2  1  0  0  0  0
  1 29  1  0  0  0  0
  1 30  1  0  0  0  0
  1 31  1  0  0  0  0
  2  3  1  0  0  0  0
  2 32  1  0  0  0  0
  2 33  1  0  0  0  0
  3  4  1  0  0  0  0
  3  6  1  0  0  0  0
  3 34  1  0  0  0  0
  4  5  1  0  0  0  0
  4 35  1  0  0  0  0
  4 36  1  0  0  0  0
  5 37  1  0  0  0  0
  5 38  1  0  0  0  0
  5 39  1  0  0  0  0
  6  7  1  0  0  0  0
  6 40  1  0  0  0  0
  6 41  1  0  0  0  0
  7  8  1  0  0  0  0
  7 12  1  0  0  0  0
  8  9  1  0  0  0  0
  8 42  1  0  0  0  0
  8 43  1  0  0  0  0
  9 10  1  0  0  0  0
  9 44  1  0  0  0  0
  9 45  1  0  0  0  0
 10 11  3  0  0  0  0
 12 17  1  0  0  0  0
 12 13  2  0  0  0  0
 13 14  1  0  0  0  0
 14 15  2  0  0  0  0
 14 46  1  0  0  0  0
 15 16  1  0  0  0  0
 16 20  1  0  0  0  0
 16 17  2  0  0  0  0
 17 18  1  0  0  0  0
 18 19  2  0  0  0  0
 19 20  1  0  0  0  0
 19 47  1  0  0  0  0
 20 21  1  0  0  0  0
 21 28  1  0  0  0  0
 21 22  1  0  0  0  0
 21 48  1  0  0  0  0
 22 23  1  0  0  0  0
 22 49  1  0  0  0  0
 22 50  1  0  0  0  0
 23 24  1  0  0  0  0
 23 26  1  0  0  0  0
 23 28  1  0  0  0  0
 24 25  1  0  0  0  0
 24 51  1  0  0  0  0
 24 52  1  0  0  0  0
 25 53  1  0  0  0  0
 26 27  1  0  0  0  0
 26 54  1  0  0  0  0
 26 55  1  0  0  0  0
 27 56  1  0  0  0  0
 28 57  1  0  0  0  0
 28 58  1  0  0  0  0
M  END
> <s_m_source_file>
AV-unprocessed.smi

> <i_m_source_file_index>
192

> <i_lp_mmshare_version>
43012

> <i_f3d_flags>
0

> <s_epik_input>
W0NIM11bQ0gyXVtDSF0oW0NIMl1bQ0gzXSlbQ0gyXU4oW0NIMl1bQ0gyXUMjTiljKG5bY0hdbjEpYyhjMTIpbltjSF1uMltDSF0oW0NIMl0zKVtDSDJdQzMoW0NIMl1bT0hdKVtDSDJdW09IXQ==

> <s_epik_cmdline>
J2VwaWtfcHl0aG9uJywgJy1waCcsICc3LjAnLCAnLXRuJywgJzgnLCAnLW1hJywgJzIwMCcsICctbWV0YWxfYmluZGluZycsICctaW1hZScsICc8aW5maWxlLm1hZT4nLCAnLW9tYWUnLCAnPG91dGZpbGUubWFlPic=

> <r_lp_tautomer_probability>
1

> <r_epik_Ionization_Penalty>
0.000545077

> <r_epik_Ionization_Penalty_Charging>
0

> <r_epik_Ionization_Penalty_Neutral>
0.000545077

> <r_epik_State_Penalty>
0.000259443

> <r_epik_Charging_Adjusted_Penalty>
0.000259443

> <i_epik_Tot_Q>
0

> <i_epik_Tot_abs_Q>
0

> <r_epik_Metal_State_Penalty>
-0

> <b_epik_Metal_Only>
0

> <s_lp_Force_Field>
OPLS_2005

> <r_lp_Energy>
36.5324

> <b_lp_Chiralities_Consistent>
1

> <s_lp_Variant>
AV-unprocessed.smi:192-1

> <Gold.Version>
5.8.1

> <Gold.Id.Protein>
6NUR|6NUR_protein|mol2

> <Gold.PLP.Fitness>
53.9218

> <Gold.PLP.PLP>
-40.6427

> <Gold.PLP.part.hbond>
-4.9455

> <Gold.PLP.part.metal>
0.0000

> <Gold.PLP.part.buried>
-4.3728

> <Gold.PLP.part.nonpolar>
-31.6172

> <Gold.PLP.part.repulsive>
0.3161

> <Gold.PLP.ligand.clash>
0.0000

> <Gold.PLP.ligand.torsion>
1.5765

> <Gold.PLP.Chemscore.Hbond>
3.8285

> <Gold.PLP.Chemscore.CHOScore>
1.0000

> <Gold.PLP.Chemscore.Metal>
0.0000

> <Gold.Chemscore.Hbonds>
donor molecule, donor type, donor heavy atom, donor atom, acceptor molecule, acceptor atom, score
      L1  H    25    53       P1 10747  0.71
      L1  H    27    56       P1 10186  0.37
      P1  H  6931  6943       L1    11  0.43
      P1  H 10785 10796       L1    27  1.00
      L1  C    19    47       P1 10171  0.68

> <Gold.PLP.Chemscore.Internal.Correction>
1.9465

> <Gold.Rescore>
     Score         DG    S(hbond)    S(metal)    S(lipo)     H(rot)  DE(clash)    DE(int)     intcor
     11.08     -15.05       3.16        0.00      84.93       4.27       0.50       3.47       ----

> <Gold.Chemscore.Fitness>
11.0825

> <Gold.Chemscore.DG>
-15.0516

> <Gold.Chemscore.ZeroCoef>
-5.4800

> <Gold.Chemscore.Hbond>
3.1606

> <Gold.Chemscore.Metal>
0.0000

> <Gold.Chemscore.Lipo>
84.9334

> <Gold.Chemscore.Internal_Hbond>
0.0000

> <Gold.Chemscore.DEClash>
0.5017

> <Gold.Chemscore.DEInternal>
3.4674

> <Gold.Chemscore.Rot>
4.2663

> <Gold.Chemscore.Internal.Correction>
   9.000000E+99

> <Gold.Chemscore.Hbonds>
donor molecule, donor type, donor heavy atom, donor atom, acceptor molecule, acceptor atom, score
      L1  H    25    53       P1 10747  0.71
      L1  H    27    56       P1 10186  0.37
      P1  H  6931  6943       L1    11  0.41
      P1  H 10785 10796       L1    27  0.90

> <Gold.Chemscore.Hbond.Weighted>
-10.5563

> <Gold.Chemscore.Metal.Weighted>
-0.0000

> <Gold.Chemscore.Lipo.Weighted>
-9.9372

> <Gold.Chemscore.Internal_Hbond.Weighted>
0.0000

> <Gold.Chemscore.DEClash.Weighted>
0.5017

> <Gold.Chemscore.DEInternal.Weighted>
3.4674

> <Gold.Chemscore.Rot.Weighted>
10.9218

> <Gold.Chemscore.Internal.Correction.Weighted>
   9.000000E+99

> <Gold.Protein.RotatedTorsions>
[ 6907 6896 6895 6894 ] final  113.27 input  -60.11 | X-H torsion
[ 7974 7965 7964 7962 ] final  -47.15 input  175.53 | X-H torsion
[ 8008 7997 7996 7995 ] final -111.09 input   59.86 | X-H torsion
[ 10167 10162 10161 10158 ] final  -81.55 input  -65.29 | X-H torsion
[ 10718 10713 10712 10709 ] final   63.02 input   66.30 | X-H torsion
[ 10763 10752 10751 10750 ] final -119.90 input  -60.55 | X-H torsion
[ 11005 11000 10999 10996 ] final -141.93 input  -57.11 | X-H torsion

> <Gold.Protein.ActiveResidues>
 VAL166  LYS551  ARG553  GLY616  TRP617  ASP618  TYR619  PRO620  LYS621  CYS622 
 ASP623  PHE694  ASN695  SER759  ASP760  ASP761  ALA762  ILE779  LEU786  VAL792 
 PHE793  MET794  SER795  GLU796  ALA797  LYS798  CYS799  TRP800  GLU811  SER814 

> <Gold.Protein.RotatedAtoms>
  152.4870  133.8398  159.7146 H   0  0  0  0  0  0  0  0  0  0  0  0  # atno 6907 bound_to 6896
  150.8965  133.7165  159.2897 H   0  0  0  0  0  0  0  0  0  0  0  0  # atno 6908 bound_to 6896
  151.4620  135.1043  159.9780 H   0  0  0  0  0  0  0  0  0  0  0  0  # atno 6909 bound_to 6896
  145.9646  140.7445  142.9440 H   0  0  0  0  0  0  0  0  0  0  0  0  # atno 7974 bound_to 7965
  154.9845  140.0396  157.2292 H   0  0  0  0  0  0  0  0  0  0  0  0  # atno 8008 bound_to 7997
  154.7684  140.2797  155.6135 H   0  0  0  0  0  0  0  0  0  0  0  0  # atno 8009 bound_to 7997
  156.2916  140.2615  156.2480 H   0  0  0  0  0  0  0  0  0  0  0  0  # atno 8010 bound_to 7997
  140.4402  143.2517  151.8636 H   0  0  0  0  0  0  0  0  0  0  0  0  # atno 10167 bound_to 10162
  157.5942  130.9082  149.9662 H   0  0  0  0  0  0  0  0  0  0  0  0  # atno 10718 bound_to 10713
  154.8630  135.4222  154.2372 H   0  0  0  0  0  0  0  0  0  0  0  0  # atno 10763 bound_to 10752
  153.3345  135.6990  153.6925 H   0  0  0  0  0  0  0  0  0  0  0  0  # atno 10764 bound_to 10752
  153.5928  135.3551  155.2890 H   0  0  0  0  0  0  0  0  0  0  0  0  # atno 10765 bound_to 10752
  140.8276  134.2556  157.4872 H   0  0  0  0  0  0  0  0  0  0  0  0  # atno 11005 bound_to 11000
  144.6822  140.2647  143.7314 LP  0  0  0  0  0  0  0  0  0  0  0  0  # atno 17320 bound_to 7965
  145.7992  139.1957  143.2058 LP  0  0  0  0  0  0  0  0  0  0  0  0  # atno 17321 bound_to 7965
  139.4789  144.5237  151.8765 LP  0  0  0  0  0  0  0  0  0  0  0  0  # atno 17342 bound_to 10162
  140.4327  144.2093  150.5888 LP  0  0  0  0  0  0  0  0  0  0  0  0  # atno 17343 bound_to 10162
  156.1001  130.3656  150.0233 LP  0  0  0  0  0  0  0  0  0  0  0  0  # atno 17370 bound_to 10713
  156.8350  130.9405  151.3635 LP  0  0  0  0  0  0  0  0  0  0  0  0  # atno 17371 bound_to 10713
  139.8706  134.9569  156.4251 LP  0  0  0  0  0  0  0  0  0  0  0  0  # atno 17394 bound_to 11000
  140.9033  133.7764  155.9705 LP  0  0  0  0  0  0  0  0  0  0  0  0  # atno 17395 bound_to 11000

$$$$
