#       Name:                AV-unprocessed.smi:224
#       Creating user name   scv26
#       Creation time:       Thu Mar 26 20:17:06 2020


#       File generated by GOLD software.
#

@<TRIPOS>MOLECULE
AV-unprocessed.smi:224
    66    69     1
SMALL
NO_CHARGES


@<TRIPOS>ATOM
      1 ****        -2.7073   2.6060   5.5692 C.3            1 S1                 0.0000
      2 ****        -3.4191   2.5206   4.2108 C.3            1 S1                 0.0000
      3 ****        -4.8042   2.6923   4.4267 O.3            1 S1                 0.0000
      4 ****        -3.2006   1.1687   3.4993 C.3            1 S1                 0.0000
      5 ****        -1.7713   0.9215   3.1524 N.4            1 S1                 1.0000
      6 ****        -1.3508   1.7359   1.9761 C.3            1 S1                 0.0000
      7 ****         0.1366   1.5491   1.6461 C.3            1 S1                 0.0000
      8 ****         0.4344   0.1385   1.4448 N.3            1 S1                 0.0000
      9 ****         0.2760  -0.3430   0.1827 C.ar           1 S1                 0.0000
     10 ****        -0.5629  -1.3897  -0.0407 N.ar           1 S1                 0.0000
     11 ****        -0.7370  -1.8679  -1.2759 C.ar           1 S1                 0.0000
     12 ****        -0.1766  -1.4584  -2.4145 N.ar           1 S1                 0.0000
     13 ****         0.6779  -0.4181  -2.1993 C.ar           1 S1                 0.0000
     14 ****         0.9591   0.1962  -0.9456 C.ar           1 S1                 0.0000
     15 ****         1.8869   1.2168  -1.1203 N.2            1 S1                 0.0000
     16 ****         2.1320   1.2117  -2.4022 C.2            1 S1                 0.0000
     17 ****         1.4533   0.2575  -3.1256 N.pl3          1 S1                 0.0000
     18 ****         1.5424   0.0259  -4.5594 C.3            1 S1                 0.0000
     19 ****         2.7456  -0.8572  -4.9638 C.3            1 S1                 0.0000
     20 ****         3.9454  -0.1756  -4.6396 O.3            1 S1                 0.0000
     21 ****         2.7694  -2.2269  -4.2918 C.3            1 S1                 0.0000
     22 ****         3.4342  -3.1067  -5.3407 C.3            1 S1                 0.0000
     23 ****         2.8722  -2.6229  -6.5486 O.3            1 S1                 0.0000
     24 ****         2.7743  -1.2045  -6.4659 C.3            1 S1                 0.0000
     25 ****         0.0671  -0.6975   2.5837 C.3            1 S1                 0.0000
     26 ****        -1.4154  -0.5265   2.9984 C.3            1 S1                 0.0000
     27 ****        -1.6466  -1.3445   4.2856 C.3            1 S1                 0.0000
     28 ****        -1.6262   2.5232   5.4549 H              1 S1                 0.0000
     29 ****        -3.0322   1.8113   6.2416 H              1 S1                 0.0000
     30 ****        -2.9096   3.5595   6.0586 H              1 S1                 0.0000
     31 ****        -3.0973   3.3488   3.5809 H              1 S1                 0.0000
     32 ****        -5.1077   2.0194   5.0172 H              1 S1                 0.0000
     33 ****        -3.5913   0.3966   4.1572 H              1 S1                 0.0000
     34 ****        -3.8037   1.1117   2.5914 H              1 S1                 0.0000
     35 ****        -1.9544   1.4584   1.1102 H              1 S1                 0.0000
     36 ****        -1.5308   2.7944   2.1563 H              1 S1                 0.0000
     37 ****         0.3967   2.1507   0.7765 H              1 S1                 0.0000
     38 ****         0.7499   1.9189   2.4684 H              1 S1                 0.0000
     39 ****        -1.4224  -2.6979  -1.3645 H              1 S1                 0.0000
     40 ****         2.8256   1.9034  -2.8586 H              1 S1                 0.0000
     41 ****         0.6114  -0.4369  -4.8892 H              1 S1                 0.0000
     42 ****         1.5964   0.9930  -5.0613 H              1 S1                 0.0000
     43 ****         4.6758  -0.7152  -4.9014 H              1 S1                 0.0000
     44 ****         3.2815  -2.2386  -3.3289 H              1 S1                 0.0000
     45 ****         1.7525  -2.5867  -4.1320 H              1 S1                 0.0000
     46 ****         4.5153  -2.9597  -5.3505 H              1 S1                 0.0000
     47 ****         3.2287  -4.1675  -5.1962 H              1 S1                 0.0000
     48 ****         1.8719  -0.8801  -6.9852 H              1 S1                 0.0000
     49 ****         3.6244  -0.7497  -6.9773 H              1 S1                 0.0000
     50 ****         0.2926  -1.7449   2.3776 H              1 S1                 0.0000
     51 ****         0.7123  -0.4151   3.4166 H              1 S1                 0.0000
     52 ****        -2.0477  -0.9407   2.2118 H              1 S1                 0.0000
     53 ****        -1.2206  -2.3437   4.1888 H              1 S1                 0.0000
     54 ****        -2.7013  -1.4919   4.5123 H              1 S1                 0.0000
     55 ****        -1.1750  -0.8712   5.1475 H              1 S1                 0.0000
     56 ****        -1.2279   1.2503   3.9376 H              1 S1                 0.0000
     57 ****        -5.2912   2.6197   3.5563 LP             1 S1                 0.0000
     58 ****        -4.9723   3.5924   4.8286 LP             1 S1                 0.0000
     59 ****         1.4315   0.0648   1.4613 LP             1 S1                 0.0000
     60 ****        -1.0534  -1.8047   0.7256 LP             1 S1                 0.0000
     61 ****        -0.3596  -1.8624  -3.3108 LP             1 S1                 0.0000
     62 ****         2.2773   1.8177  -0.4229 LP             1 S1                 0.0000
     63 ****         3.9840  -0.0103  -3.6542 LP             1 S1                 0.0000
     64 ****         3.9795   0.6976  -5.1257 LP             1 S1                 0.0000
     65 ****         1.9622  -3.0167  -6.6787 LP             1 S1                 0.0000
     66 ****         3.4581  -2.8762  -7.3184 LP             1 S1                 0.0000
@<TRIPOS>BOND
    1    1    2 1     
    2    1   28 1     
    3    1   29 1     
    4    1   30 1     
    5    2    3 1     
    6    2    4 1     
    7    2   31 1     
    8    3   32 1     
    9    4    5 1     
   10    4   33 1     
   11    4   34 1     
   12    5   26 1     
   13    5    6 1     
   14    5   56 1     
   15    6    7 1     
   16    6   35 1     
   17    6   36 1     
   18    7    8 1     
   19    7   37 1     
   20    7   38 1     
   21    8    9 1     
   22    8   25 1     
   23    9   14 ar    
   24    9   10 ar    
   25   10   11 ar    
   26   11   12 ar    
   27   11   39 1     
   28   12   13 ar    
   29   13   17 1     
   30   13   14 ar    
   31   14   15 1     
   32   15   16 2     
   33   16   17 1     
   34   16   40 1     
   35   17   18 1     
   36   18   19 1     
   37   18   41 1     
   38   18   42 1     
   39   19   24 1     
   40   19   20 1     
   41   19   21 1     
   42   20   43 1     
   43   21   22 1     
   44   21   44 1     
   45   21   45 1     
   46   22   23 1     
   47   22   46 1     
   48   22   47 1     
   49   23   24 1     
   50   24   48 1     
   51   24   49 1     
   52   25   26 1     
   53   25   50 1     
   54   25   51 1     
   55   26   27 1     
   56   26   52 1     
   57   27   53 1     
   58   27   54 1     
   59   27   55 1     
   60    3   57 1     
   61    3   58 1     
   62    8   59 1     
   63   10   60 1     
   64   12   61 1     
   65   15   62 1     
   66   20   63 1     
   67   20   64 1     
   68   23   65 1     
   69   23   66 1     
@<TRIPOS>SUBSTRUCTURE
      1 S1             1
@<TRIPOS>SET
LONE_PAIRS      STATIC     ATOMS    <user>   **** ""
10 57 58 59 60 61 62 63 64 65 66
DONOR_HYDROGENS      STATIC     ATOMS    <user>   **** ""
3 32 56 43
ATOM$BLUE        STATIC     ATOMS    COLORGROUP SYSTEM
10 57 58 59 60 61 62 63 64 65 66
ATOM$RED        STATIC     ATOMS    COLORGROUP SYSTEM
3 32 56 43
