AV-unprocessed.smi:2997|AV-procd|sdf|11413|dock8
  -GOLD-   2272016333D 1   1.00000     0.00000
 Structure written by MMmdl.
 38 40  0  0  0  0  0  0  0  0  1 V2000
  153.7445  142.6030  163.3876 C   0  0  0  0  0  0  0  0  0  0  0  0
  153.1296  142.7101  162.0033 C   0  0  0  0  0  0  0  0  0  0  0  0
  152.3267  143.8310  161.6932 C   0  0  0  0  0  0  0  0  0  0  0  0
  151.7374  143.9687  160.4174 C   0  0  0  0  0  0  0  0  0  0  0  0
  150.9297  144.9691  159.9039 N   0  0  0  0  0  0  0  0  0  0  0  0
  150.7078  144.5263  158.6695 C   0  0  0  0  0  0  0  0  0  0  0  0
  151.2770  143.3558  158.3224 N   0  0  0  0  0  0  0  0  0  0  0  0
  151.1793  142.6764  157.0430 C   0  0  0  0  0  0  0  0  0  0  0  0
  149.9042  141.8201  156.9266 C   0  0  1  0  0  0  0  0  0  0  0  0
  148.7662  142.6203  157.1911 O   0  0  0  0  0  0  0  0  0  0  0  0
  149.7742  141.1695  155.5357 C   0  0  0  0  0  0  0  0  0  0  0  0
  150.7417  140.1084  155.3186 N   0  0  0  0  0  0  0  0  0  0  0  0
  150.8006  139.2000  154.2826 C   0  0  0  0  0  0  0  0  0  0  0  0
  151.8856  138.4011  154.5039 C   0  0  0  0  0  0  0  0  0  0  0  0
  152.4356  138.9063  155.7152 C   0  0  0  0  0  0  0  0  0  0  0  0
  151.7511  139.9307  156.1984 N   0  0  0  0  0  0  0  0  0  0  0  0
  151.9741  142.9458  159.4532 C   0  0  0  0  0  0  0  0  0  0  0  0
  152.7700  141.8254  159.7498 C   0  0  0  0  0  0  0  0  0  0  0  0
  153.3518  141.7036  161.0293 C   0  0  0  0  0  0  0  0  0  0  0  0
  154.2095  140.4900  161.3410 C   0  0  0  0  0  0  0  0  0  0  0  0
  153.5017  143.4722  163.9996 H   0  0  0  0  0  0  0  0  0  0  0  0
  154.8305  142.5355  163.3200 H   0  0  0  0  0  0  0  0  0  0  0  0
  153.3731  141.7167  163.9024 H   0  0  0  0  0  0  0  0  0  0  0  0
  152.1562  144.5973  162.4350 H   0  0  0  0  0  0  0  0  0  0  0  0
  150.0937  145.0836  157.9773 H   0  0  0  0  0  0  0  0  0  0  0  0
  151.2154  143.4213  156.2465 H   0  0  0  0  0  0  0  0  0  0  0  0
  152.0646  142.0507  156.9237 H   0  0  0  0  0  0  0  0  0  0  0  0
  149.9374  141.0344  157.6827 H   0  0  0  0  0  0  0  0  0  0  0  0
  148.7557  143.3409  156.5802 H   0  0  0  0  0  0  0  0  0  0  0  0
  148.7728  140.7584  155.4003 H   0  0  0  0  0  0  0  0  0  0  0  0
  149.9105  141.9196  154.7553 H   0  0  0  0  0  0  0  0  0  0  0  0
  150.0733  139.1970  153.4843 H   0  0  0  0  0  0  0  0  0  0  0  0
  152.2333  137.5809  153.8937 H   0  0  0  0  0  0  0  0  0  0  0  0
  153.3068  138.5622  156.2529 H   0  0  0  0  0  0  0  0  0  0  0  0
  152.9297  141.0664  158.9982 H   0  0  0  0  0  0  0  0  0  0  0  0
  154.2633  139.8115  160.4891 H   0  0  0  0  0  0  0  0  0  0  0  0
  153.7963  139.9357  162.1839 H   0  0  0  0  0  0  0  0  0  0  0  0
  155.2258  140.7946  161.5909 H   0  0  0  0  0  0  0  0  0  0  0  0
  1  2  1  0  0  0  0
  1 21  1  0  0  0  0
  1 22  1  0  0  0  0
  1 23  1  0  0  0  0
  2 19  1  0  0  0  0
  2  3  2  0  0  0  0
  3  4  1  0  0  0  0
  3 24  1  0  0  0  0
  4 17  2  0  0  0  0
  4  5  1  0  0  0  0
  5  6  2  0  0  0  0
  6  7  1  0  0  0  0
  6 25  1  0  0  0  0
  7  8  1  0  0  0  0
  7 17  1  0  0  0  0
  8  9  1  0  0  0  0
  8 26  1  0  0  0  0
  8 27  1  0  0  0  0
  9 10  1  0  0  0  0
  9 11  1  0  0  0  0
  9 28  1  0  0  0  0
 10 29  1  0  0  0  0
 11 12  1  0  0  0  0
 11 30  1  0  0  0  0
 11 31  1  0  0  0  0
 12 16  1  0  0  0  0
 12 13  1  0  0  0  0
 13 14  2  0  0  0  0
 13 32  1  0  0  0  0
 14 15  1  0  0  0  0
 14 33  1  0  0  0  0
 15 16  2  0  0  0  0
 15 34  1  0  0  0  0
 17 18  1  0  0  0  0
 18 19  2  0  0  0  0
 18 35  1  0  0  0  0
 19 20  1  0  0  0  0
 20 36  1  0  0  0  0
 20 37  1  0  0  0  0
 20 38  1  0  0  0  0
M  END
> <s_m_source_file>
AV-unprocessed.smi

> <i_m_source_file_index>
2997

> <i_lp_mmshare_version>
43012

> <i_f3d_flags>
0

> <s_epik_input>
W0NIM11jKFtjSF0xKWMoW0NIM10pW2NIXWMoYzEyKW4oW2NIXW4yKVtDSDJdW0NASF0oW09IXSlbQ0gyXW4zW2NIXVtjSF1bY0hdbjM=

> <s_epik_cmdline>
J2VwaWtfcHl0aG9uJywgJy1waCcsICc3LjAnLCAnLXRuJywgJzgnLCAnLW1hJywgJzIwMCcsICctbWV0YWxfYmluZGluZycsICctaW1hZScsICc8aW5maWxlLm1hZT4nLCAnLW9tYWUnLCAnPG91dGZpbGUubWFlPic=

> <r_lp_tautomer_probability>
1

> <r_epik_Ionization_Penalty>
0.102113

> <r_epik_Ionization_Penalty_Charging>
0

> <r_epik_Ionization_Penalty_Neutral>
0.102113

> <r_epik_State_Penalty>
0.0920694

> <r_epik_Charging_Adjusted_Penalty>
0.0920694

> <i_epik_Tot_Q>
0

> <i_epik_Tot_abs_Q>
0

> <r_epik_Metal_State_Penalty>
0.0784306

> <b_epik_Metal_Only>
0

> <s_lp_Force_Field>
OPLS_2005

> <r_lp_Energy>
7.68531

> <b_lp_Chiralities_Consistent>
1

> <s_lp_Variant>
AV-unprocessed.smi:2997-2

> <Gold.Version>
5.8.1

> <Gold.Id.Protein>
6NUR|6NUR_protein|mol2

> <Gold.PLP.Fitness>
60.6448

> <Gold.PLP.PLP>
-52.7149

> <Gold.PLP.part.hbond>
-1.0000

> <Gold.PLP.part.metal>
0.0000

> <Gold.PLP.part.buried>
-4.4415

> <Gold.PLP.part.nonpolar>
-47.1786

> <Gold.PLP.part.repulsive>
0.1499

> <Gold.PLP.ligand.clash>
0.0000

> <Gold.PLP.ligand.torsion>
0.5144

> <Gold.PLP.Chemscore.Hbond>
1.0000

> <Gold.PLP.Chemscore.CHOScore>
1.9804

> <Gold.PLP.Chemscore.Metal>
0.0000

> <Gold.Chemscore.Hbonds>
donor molecule, donor type, donor heavy atom, donor atom, acceptor molecule, acceptor atom, score
      L1  H    10    29       P1  8028  1.00
      L1  C     6    25       P1  8028  0.30
      L1  C     6    25       P1  8029  0.68
      L1  C    13    32       P1  7957  1.00

> <Gold.PLP.Chemscore.Internal.Correction>
0.0175

> <Gold.Rescore>
     Score         DG    S(hbond)    S(metal)    S(lipo)     H(rot)  DE(clash)    DE(int)     intcor
     18.28     -18.77       0.98        0.00     132.68       2.15       0.05       0.44       ----

> <Gold.Chemscore.Fitness>
18.2769

> <Gold.Chemscore.DG>
-18.7697

> <Gold.Chemscore.ZeroCoef>
-5.4800

> <Gold.Chemscore.Hbond>
0.9815

> <Gold.Chemscore.Metal>
0.0000

> <Gold.Chemscore.Lipo>
132.6843

> <Gold.Chemscore.Internal_Hbond>
0.0000

> <Gold.Chemscore.DEClash>
0.0503

> <Gold.Chemscore.DEInternal>
0.4425

> <Gold.Chemscore.Rot>
2.1534

> <Gold.Chemscore.Internal.Correction>
   9.000000E+99

> <Gold.Chemscore.Hbonds>
donor molecule, donor type, donor heavy atom, donor atom, acceptor molecule, acceptor atom, score
      L1  H    10    29       P1  8028  0.82

> <Gold.Chemscore.Hbond.Weighted>
-3.2783

> <Gold.Chemscore.Metal.Weighted>
-0.0000

> <Gold.Chemscore.Lipo.Weighted>
-15.5241

> <Gold.Chemscore.Internal_Hbond.Weighted>
0.0000

> <Gold.Chemscore.DEClash.Weighted>
0.0503

> <Gold.Chemscore.DEInternal.Weighted>
0.4425

> <Gold.Chemscore.Rot.Weighted>
5.5127

> <Gold.Chemscore.Internal.Correction.Weighted>
   9.000000E+99

> <Gold.Protein.RotatedTorsions>
[ 6907 6896 6895 6894 ] final  137.43 input  -60.11 | X-H torsion
[ 7974 7965 7964 7962 ] final   -3.88 input  175.53 | X-H torsion
[ 8008 7997 7996 7995 ] final  132.33 input   59.86 | X-H torsion
[ 10167 10162 10161 10158 ] final  -93.53 input  -65.29 | X-H torsion
[ 10718 10713 10712 10709 ] final  124.78 input   66.30 | X-H torsion
[ 10763 10752 10751 10750 ] final  -67.30 input  -60.55 | X-H torsion
[ 11005 11000 10999 10996 ] final  108.60 input  -57.11 | X-H torsion

> <Gold.Protein.ActiveResidues>
 VAL166  LYS551  ARG553  GLY616  TRP617  ASP618  TYR619  PRO620  LYS621  CYS622 
 ASP623  PHE694  ASN695  SER759  ASP760  ASP761  ALA762  ILE779  LEU786  VAL792 
 PHE793  MET794  SER795  GLU796  ALA797  LYS798  CYS799  TRP800  GLU811  SER814 

> <Gold.Protein.RotatedAtoms>
  152.2781  133.5445  159.5480 H   0  0  0  0  0  0  0  0  0  0  0  0  # atno 6907 bound_to 6896
  150.7185  134.0602  159.3837 H   0  0  0  0  0  0  0  0  0  0  0  0  # atno 6908 bound_to 6896
  151.8514  135.0556  160.0510 H   0  0  0  0  0  0  0  0  0  0  0  0  # atno 6909 bound_to 6896
  146.2382  140.1787  142.8332 H   0  0  0  0  0  0  0  0  0  0  0  0  # atno 7974 bound_to 7965
  156.2981  140.2549  156.3072 H   0  0  0  0  0  0  0  0  0  0  0  0  # atno 8008 bound_to 7997
  154.9361  140.0397  157.2091 H   0  0  0  0  0  0  0  0  0  0  0  0  # atno 8009 bound_to 7997
  154.8172  140.2854  155.5816 H   0  0  0  0  0  0  0  0  0  0  0  0  # atno 8010 bound_to 7997
  140.3237  143.3034  152.0018 H   0  0  0  0  0  0  0  0  0  0  0  0  # atno 10167 bound_to 10162
  157.5557  131.1092  150.8625 H   0  0  0  0  0  0  0  0  0  0  0  0  # atno 10718 bound_to 10713
  154.3725  135.6092  153.5748 H   0  0  0  0  0  0  0  0  0  0  0  0  # atno 10763 bound_to 10752
  152.9790  135.5841  154.4505 H   0  0  0  0  0  0  0  0  0  0  0  0  # atno 10764 bound_to 10752
  154.4261  135.2847  155.1921 H   0  0  0  0  0  0  0  0  0  0  0  0  # atno 10765 bound_to 10752
  139.8847  134.9435  156.5997 H   0  0  0  0  0  0  0  0  0  0  0  0  # atno 11005 bound_to 11000
  144.9952  140.8583  143.5315 LP  0  0  0  0  0  0  0  0  0  0  0  0  # atno 17320 bound_to 7965
  145.1798  139.2358  143.5298 LP  0  0  0  0  0  0  0  0  0  0  0  0  # atno 17321 bound_to 7965
  139.4869  144.6291  151.7106 LP  0  0  0  0  0  0  0  0  0  0  0  0  # atno 17342 bound_to 10162
  140.5460  144.0502  150.6107 LP  0  0  0  0  0  0  0  0  0  0  0  0  # atno 17343 bound_to 10162
  156.9137  130.5290  149.5280 LP  0  0  0  0  0  0  0  0  0  0  0  0  # atno 17370 bound_to 10713
  156.0616  130.5668  150.9205 LP  0  0  0  0  0  0  0  0  0  0  0  0  # atno 17371 bound_to 10713
  140.7893  133.8596  155.8632 LP  0  0  0  0  0  0  0  0  0  0  0  0  # atno 17394 bound_to 11000
  140.9692  134.1554  157.4591 LP  0  0  0  0  0  0  0  0  0  0  0  0  # atno 17395 bound_to 11000

$$$$
