AV-unprocessed.smi:467|AV-procd|sdf|2646|dock3
  -GOLD-   2262023 53D 1   1.00000     0.00000
 Structure written by MMmdl.
 45 47  0  0  0  0  0  0  0  0  2 V2000
  152.0315  143.1732  160.6821 C   0  0  0  0  0  0  0  0  0  0  0  0
  151.9868  142.2024  159.5152 C   0  0  0  0  0  0  0  0  0  0  0  0
  151.0694  142.4320  158.4653 C   0  0  0  0  0  0  0  0  0  0  0  0
  150.9942  141.5516  157.3638 C   0  0  0  0  0  0  0  0  0  0  0  0
  150.1811  141.5815  156.2437 N   0  0  0  0  0  0  0  0  0  0  0  0
  150.5823  140.4942  155.5922 C   0  0  0  0  0  0  0  0  0  0  0  0
  151.5640  139.7640  156.1555 N   0  0  0  0  0  0  0  0  0  0  0  0
  152.1580  138.5473  155.6302 C   0  0  0  0  0  0  0  0  0  0  0  0
  151.1757  137.7343  154.7652 C   0  0  1  0  0  0  0  0  0  0  0  0
  151.9017  136.9591  153.8292 O   0  0  0  0  0  0  0  0  0  0  0  0
  150.3061  136.7920  155.6203 C   0  0  0  0  0  0  0  0  0  0  0  0
  149.6091  135.7657  154.8038 N   0  3  0  0  0  0  0  0  0  0  0  0
  150.2896  134.4494  154.8427 C   0  0  0  0  0  0  0  0  0  0  0  0
  149.5637  133.4410  153.9361 C   0  0  0  0  0  0  0  0  0  0  0  0
  148.2038  133.3315  154.3372 O   0  0  0  0  0  0  0  0  0  0  0  0
  147.5137  134.5694  154.2206 C   0  0  0  0  0  0  0  0  0  0  0  0
  148.1708  135.6147  155.1381 C   0  0  0  0  0  0  0  0  0  0  0  0
  151.8704  140.4271  157.3398 C   0  0  0  0  0  0  0  0  0  0  0  0
  152.7899  140.1902  158.3771 C   0  0  0  0  0  0  0  0  0  0  0  0
  152.8502  141.0786  159.4713 C   0  0  0  0  0  0  0  0  0  0  0  0
  153.8434  140.8119  160.5887 C   0  0  0  0  0  0  0  0  0  0  0  0
  151.2728  143.9501  160.5834 H   0  0  0  0  0  0  0  0  0  0  0  0
  153.0054  143.6606  160.7355 H   0  0  0  0  0  0  0  0  0  0  0  0
  151.8530  142.6507  161.6223 H   0  0  0  0  0  0  0  0  0  0  0  0
  150.4120  143.2884  158.4980 H   0  0  0  0  0  0  0  0  0  0  0  0
  150.1381  140.2121  154.6487 H   0  0  0  0  0  0  0  0  0  0  0  0
  153.0467  138.8102  155.0553 H   0  0  0  0  0  0  0  0  0  0  0  0
  152.5018  137.9467  156.4736 H   0  0  0  0  0  0  0  0  0  0  0  0
  150.5467  138.4306  154.2113 H   0  0  0  0  0  0  0  0  0  0  0  0
  151.3632  136.8235  153.0640 H   0  0  0  0  0  0  0  0  0  0  0  0
  150.9453  136.3056  156.3592 H   0  0  0  0  0  0  0  0  0  0  0  0
  149.5674  137.3596  156.1886 H   0  0  0  0  0  0  0  0  0  0  0  0
  151.3240  134.5569  154.5138 H   0  0  0  0  0  0  0  0  0  0  0  0
  150.3148  134.0799  155.8691 H   0  0  0  0  0  0  0  0  0  0  0  0
  149.6239  133.7427  152.8891 H   0  0  0  0  0  0  0  0  0  0  0  0
  150.0349  132.4609  154.0123 H   0  0  0  0  0  0  0  0  0  0  0  0
  147.5149  134.9056  153.1825 H   0  0  0  0  0  0  0  0  0  0  0  0
  146.4719  134.4209  154.5057 H   0  0  0  0  0  0  0  0  0  0  0  0
  148.0654  135.3098  156.1806 H   0  0  0  0  0  0  0  0  0  0  0  0
  147.6500  136.5656  155.0305 H   0  0  0  0  0  0  0  0  0  0  0  0
  153.4429  139.3313  158.3331 H   0  0  0  0  0  0  0  0  0  0  0  0
  154.4432  139.9244  160.3851 H   0  0  0  0  0  0  0  0  0  0  0  0
  153.3208  140.6537  161.5324 H   0  0  0  0  0  0  0  0  0  0  0  0
  154.5238  141.6556  160.7062 H   0  0  0  0  0  0  0  0  0  0  0  0
  149.6601  136.0822  153.8454 H   0  0  0  0  0  0  0  0  0  0  0  0
  1  2  1  0  0  0  0
  1 22  1  0  0  0  0
  1 23  1  0  0  0  0
  1 24  1  0  0  0  0
  2 20  1  0  0  0  0
  2  3  2  0  0  0  0
  3  4  1  0  0  0  0
  3 25  1  0  0  0  0
  4 18  2  0  0  0  0
  4  5  1  0  0  0  0
  5  6  2  0  0  0  0
  6  7  1  0  0  0  0
  6 26  1  0  0  0  0
  7  8  1  0  0  0  0
  7 18  1  0  0  0  0
  8  9  1  0  0  0  0
  8 27  1  0  0  0  0
  8 28  1  0  0  0  0
  9 10  1  0  0  0  0
  9 11  1  0  0  0  0
  9 29  1  0  0  0  0
 10 30  1  0  0  0  0
 11 12  1  0  0  0  0
 11 31  1  0  0  0  0
 11 32  1  0  0  0  0
 12 17  1  0  0  0  0
 12 13  1  0  0  0  0
 12 45  1  0  0  0  0
 13 14  1  0  0  0  0
 13 33  1  0  0  0  0
 13 34  1  0  0  0  0
 14 15  1  0  0  0  0
 14 35  1  0  0  0  0
 14 36  1  0  0  0  0
 15 16  1  0  0  0  0
 16 17  1  0  0  0  0
 16 37  1  0  0  0  0
 16 38  1  0  0  0  0
 17 39  1  0  0  0  0
 17 40  1  0  0  0  0
 18 19  1  0  0  0  0
 19 20  2  0  0  0  0
 19 41  1  0  0  0  0
 20 21  1  0  0  0  0
 21 42  1  0  0  0  0
 21 43  1  0  0  0  0
 21 44  1  0  0  0  0
M  CHG  1  12   1
M  END
> <s_m_source_file>
AV-unprocessed.smi

> <i_m_source_file_index>
467

> <i_lp_mmshare_version>
43012

> <i_f3d_flags>
0

> <s_epik_input>
W0NIM11jKFtjSF0xKWMoW0NIM10pW2NIXWMoYzEyKW4oW2NIXW4yKVtDSDJdW0NASF0oW09IXSlbQ0gyXU4zW0NIMl1bQ0gyXU9bQ0gyXVtDSDJdMw==

> <s_epik_cmdline>
J2VwaWtfcHl0aG9uJywgJy1waCcsICc3LjAnLCAnLXRuJywgJzgnLCAnLW1hJywgJzIwMCcsICctbWV0YWxfYmluZGluZycsICctaW1hZScsICc8aW5maWxlLm1hZT4nLCAnLW9tYWUnLCAnPG91dGZpbGUubWFlPic=

> <r_epik_Ionization_Penalty>
0.695168

> <r_epik_Ionization_Penalty_Charging>
0.608065

> <r_epik_Ionization_Penalty_Neutral>
0.0871028

> <r_epik_State_Penalty>
0.731876

> <r_epik_Charging_Adjusted_Penalty>
1.33994

> <i_epik_Tot_Q>
1

> <i_epik_Tot_abs_Q>
1

> <r_epik_Metal_State_Penalty>
0.652189

> <b_epik_Metal_Only>
0

> <s_lp_Force_Field>
OPLS_2005

> <r_lp_Energy>
21.2169

> <b_lp_Chiralities_Consistent>
1

> <s_lp_Variant>
AV-unprocessed.smi:467-4

> <Gold.Version>
5.8.1

> <Gold.Id.Protein>
6NUR|6NUR_protein|mol2

> <Gold.PLP.Fitness>
49.4309

> <Gold.PLP.PLP>
-40.2161

> <Gold.PLP.part.hbond>
-3.0000

> <Gold.PLP.part.metal>
0.0000

> <Gold.PLP.part.buried>
-2.6809

> <Gold.PLP.part.nonpolar>
-33.9024

> <Gold.PLP.part.repulsive>
0.1899

> <Gold.PLP.ligand.clash>
0.0000

> <Gold.PLP.ligand.torsion>
1.3979

> <Gold.PLP.Chemscore.Hbond>
3.9920

> <Gold.PLP.Chemscore.CHOScore>
0.0000

> <Gold.PLP.Chemscore.Metal>
0.0000

> <Gold.Chemscore.Hbonds>
donor molecule, donor type, donor heavy atom, donor atom, acceptor molecule, acceptor atom, score
      L1  H    10    30       P1  7949  0.94
      L1  H    12    45       P1  7948  1.76
      P1  H 10752 10765       L1    10  1.00

> <Gold.PLP.Chemscore.Internal.Correction>
0.0346

> <Gold.Rescore>
     Score         DG    S(hbond)    S(metal)    S(lipo)     H(rot)  DE(clash)    DE(int)     intcor
     17.51     -19.11       2.28        0.00      97.42       2.10       0.24       1.36       ----

> <Gold.Chemscore.Fitness>
17.5063

> <Gold.Chemscore.DG>
-19.1084

> <Gold.Chemscore.ZeroCoef>
-5.4800

> <Gold.Chemscore.Hbond>
2.2783

> <Gold.Chemscore.Metal>
0.0000

> <Gold.Chemscore.Lipo>
97.4179

> <Gold.Chemscore.Internal_Hbond>
0.0000

> <Gold.Chemscore.DEClash>
0.2429

> <Gold.Chemscore.DEInternal>
1.3592

> <Gold.Chemscore.Rot>
2.1011

> <Gold.Chemscore.Internal.Correction>
   9.000000E+99

> <Gold.Chemscore.Hbonds>
donor molecule, donor type, donor heavy atom, donor atom, acceptor molecule, acceptor atom, score
      L1  H    10    30       P1  7949  0.71
      L1  H    12    45       P1  7948  0.33
      P1  H 10752 10765       L1    10  0.78

> <Gold.Chemscore.Hbond.Weighted>
-7.6094

> <Gold.Chemscore.Metal.Weighted>
-0.0000

> <Gold.Chemscore.Lipo.Weighted>
-11.3979

> <Gold.Chemscore.Internal_Hbond.Weighted>
0.0000

> <Gold.Chemscore.DEClash.Weighted>
0.2429

> <Gold.Chemscore.DEInternal.Weighted>
1.3592

> <Gold.Chemscore.Rot.Weighted>
5.3789

> <Gold.Chemscore.Internal.Correction.Weighted>
   9.000000E+99

> <Gold.Protein.RotatedTorsions>
[ 6907 6896 6895 6894 ] final  -26.11 input  -60.11 | X-H torsion
[ 7974 7965 7964 7962 ] final  166.27 input  175.53 | X-H torsion
[ 8008 7997 7996 7995 ] final -103.27 input   59.86 | X-H torsion
[ 10167 10162 10161 10158 ] final  154.43 input  -65.29 | X-H torsion
[ 10718 10713 10712 10709 ] final -107.52 input   66.30 | X-H torsion
[ 10763 10752 10751 10750 ] final  144.28 input  -60.55 | X-H torsion
[ 11005 11000 10999 10996 ] final   -2.09 input  -57.11 | X-H torsion

> <Gold.Protein.ActiveResidues>
 VAL166  LYS551  ARG553  GLY616  TRP617  ASP618  TYR619  PRO620  LYS621  CYS622 
 ASP623  PHE694  ASN695  SER759  ASP760  ASP761  ALA762  ILE779  LEU786  VAL792 
 PHE793  MET794  SER795  GLU796  ALA797  LYS798  CYS799  TRP800  GLU811  SER814 

> <Gold.Protein.RotatedAtoms>
  151.1657  135.0294  159.8729 H   0  0  0  0  0  0  0  0  0  0  0  0  # atno 6907 bound_to 6896
  152.5450  134.1228  159.8416 H   0  0  0  0  0  0  0  0  0  0  0  0  # atno 6908 bound_to 6896
  151.1328  133.4978  159.2631 H   0  0  0  0  0  0  0  0  0  0  0  0  # atno 6909 bound_to 6896
  144.7469  139.8590  143.6379 H   0  0  0  0  0  0  0  0  0  0  0  0  # atno 7974 bound_to 7965
  154.8686  140.0424  157.1710 H   0  0  0  0  0  0  0  0  0  0  0  0  # atno 8008 bound_to 7997
  154.8763  140.2966  155.5430 H   0  0  0  0  0  0  0  0  0  0  0  0  # atno 8009 bound_to 7997
  156.2999  140.2419  156.3760 H   0  0  0  0  0  0  0  0  0  0  0  0  # atno 8010 bound_to 7997
  139.4823  144.5187  151.7911 H   0  0  0  0  0  0  0  0  0  0  0  0  # atno 10167 bound_to 10162
  156.0441  130.5667  150.7833 H   0  0  0  0  0  0  0  0  0  0  0  0  # atno 10718 bound_to 10713
  153.9863  135.2936  155.3416 H   0  0  0  0  0  0  0  0  0  0  0  0  # atno 10763 bound_to 10752
  154.7240  135.5097  153.8860 H   0  0  0  0  0  0  0  0  0  0  0  0  # atno 10764 bound_to 10752
  153.0831  135.6685  154.0120 H   0  0  0  0  0  0  0  0  0  0  0  0  # atno 10765 bound_to 10752
  140.6546  133.9374  155.8400 H   0  0  0  0  0  0  0  0  0  0  0  0  # atno 11005 bound_to 11000
  146.1361  139.4407  143.0138 LP  0  0  0  0  0  0  0  0  0  0  0  0  # atno 17320 bound_to 7965
  145.7089  141.0112  143.1464 LP  0  0  0  0  0  0  0  0  0  0  0  0  # atno 17321 bound_to 7965
  140.4698  144.1603  150.5916 LP  0  0  0  0  0  0  0  0  0  0  0  0  # atno 17342 bound_to 10162
  140.4394  143.2533  151.9492 LP  0  0  0  0  0  0  0  0  0  0  0  0  # atno 17343 bound_to 10162
  157.5295  131.0936  150.9974 LP  0  0  0  0  0  0  0  0  0  0  0  0  # atno 17370 bound_to 10713
  157.0284  130.5701  149.5340 LP  0  0  0  0  0  0  0  0  0  0  0  0  # atno 17371 bound_to 10713
  141.0511  134.0483  157.3782 LP  0  0  0  0  0  0  0  0  0  0  0  0  # atno 17394 bound_to 11000
  139.9034  135.0172  156.7374 LP  0  0  0  0  0  0  0  0  0  0  0  0  # atno 17395 bound_to 11000

$$$$
