AV-unprocessed.smi:1122|AV-procd|sdf|4827|dock1
  -GOLD-   22720 3383D 1   1.00000     0.00000
 Structure written by MMmdl.
 38 39  0  0  0  0  0  0  0  0  1 V2000
  151.6109  137.4871  155.5969 C   0  0  0  0  0  0  0  0  0  0  0  0
  151.5734  138.3765  154.3519 C   0  0  0  0  0  0  0  0  0  0  0  0
  150.2531  138.3590  153.8185 O   0  0  0  0  0  0  0  0  0  0  0  0
  149.4743  139.4948  153.9343 C   0  0  0  0  0  0  0  0  0  0  0  0
  149.9985  140.5766  154.5632 N   0  0  0  0  0  0  0  0  0  0  0  0
  149.2412  141.6876  154.6702 C   0  0  0  0  0  0  0  0  0  0  0  0
  147.9353  141.7823  154.1554 C   0  0  0  0  0  0  0  0  0  0  0  0
  147.3884  140.6610  153.5046 C   0  0  0  0  0  0  0  0  0  0  0  0
  148.1657  139.4824  153.3982 C   0  0  0  0  0  0  0  0  0  0  0  0
  147.7173  138.3028  152.7431 N   0  0  0  0  0  0  0  0  0  0  0  0
  146.4612  137.8418  152.6230 C   0  0  0  0  0  0  0  0  0  0  0  0
  145.4593  138.3772  153.0969 O   0  0  0  0  0  0  0  0  0  0  0  0
  146.4315  136.6976  151.9256 N   0  0  0  0  0  0  0  0  0  0  0  0
  145.2326  135.9255  151.6149 C   0  0  0  0  0  0  0  0  0  0  0  0
  145.5637  134.6491  150.8225 C   0  0  2  0  0  0  0  0  0  0  0  0
  144.3560  133.8846  150.2802 C   0  0  0  0  0  0  0  0  0  0  0  0
  144.8718  132.4612  150.1393 C   0  0  0  0  0  0  0  0  0  0  0  0
  146.1550  132.4434  150.9762 C   0  0  0  0  0  0  0  0  0  0  0  0
  146.1722  133.6856  151.6663 O   0  0  0  0  0  0  0  0  0  0  0  0
  152.6078  137.4766  156.0377 H   0  0  0  0  0  0  0  0  0  0  0  0
  151.3427  136.4592  155.3522 H   0  0  0  0  0  0  0  0  0  0  0  0
  150.9136  137.8446  156.3550 H   0  0  0  0  0  0  0  0  0  0  0  0
  151.8618  139.3941  154.6198 H   0  0  0  0  0  0  0  0  0  0  0  0
  152.2881  138.0046  153.6158 H   0  0  0  0  0  0  0  0  0  0  0  0
  149.6924  142.5287  155.1751 H   0  0  0  0  0  0  0  0  0  0  0  0
  147.3679  142.6960  154.2529 H   0  0  0  0  0  0  0  0  0  0  0  0
  146.3953  140.7312  153.0883 H   0  0  0  0  0  0  0  0  0  0  0  0
  148.4473  137.7054  152.3833 H   0  0  0  0  0  0  0  0  0  0  0  0
  147.3064  136.3312  151.5800 H   0  0  0  0  0  0  0  0  0  0  0  0
  144.7653  135.6509  152.5608 H   0  0  0  0  0  0  0  0  0  0  0  0
  144.5012  136.5340  151.0803 H   0  0  0  0  0  0  0  0  0  0  0  0
  146.2548  134.8806  150.0095 H   0  0  0  0  0  0  0  0  0  0  0  0
  143.5413  133.9047  151.0055 H   0  0  0  0  0  0  0  0  0  0  0  0
  143.9818  134.2962  149.3423 H   0  0  0  0  0  0  0  0  0  0  0  0
  144.1387  131.7420  150.5060 H   0  0  0  0  0  0  0  0  0  0  0  0
  145.0899  132.2180  149.0987 H   0  0  0  0  0  0  0  0  0  0  0  0
  146.1872  131.6076  151.6753 H   0  0  0  0  0  0  0  0  0  0  0  0
  147.0317  132.3801  150.3302 H   0  0  0  0  0  0  0  0  0  0  0  0
  1  2  1  0  0  0  0
  1 20  1  0  0  0  0
  1 21  1  0  0  0  0
  1 22  1  0  0  0  0
  2  3  1  0  0  0  0
  2 23  1  0  0  0  0
  2 24  1  0  0  0  0
  3  4  1  0  0  0  0
  4  9  1  0  0  0  0
  4  5  2  0  0  0  0
  5  6  1  0  0  0  0
  6  7  2  0  0  0  0
  6 25  1  0  0  0  0
  7  8  1  0  0  0  0
  7 26  1  0  0  0  0
  8  9  2  0  0  0  0
  8 27  1  0  0  0  0
  9 10  1  0  0  0  0
 10 11  1  0  0  0  0
 10 28  1  0  0  0  0
 11 12  2  0  0  0  0
 11 13  1  0  0  0  0
 13 14  1  0  0  0  0
 13 29  1  0  0  0  0
 14 15  1  0  0  0  0
 14 30  1  0  0  0  0
 14 31  1  0  0  0  0
 15 19  1  0  0  0  0
 15 16  1  0  0  0  0
 15 32  1  0  0  0  0
 16 17  1  0  0  0  0
 16 33  1  0  0  0  0
 16 34  1  0  0  0  0
 17 18  1  0  0  0  0
 17 35  1  0  0  0  0
 17 36  1  0  0  0  0
 18 19  1  0  0  0  0
 18 37  1  0  0  0  0
 18 38  1  0  0  0  0
M  END
> <s_m_source_file>
AV-unprocessed.smi

> <i_m_source_file_index>
1122

> <i_lp_mmshare_version>
43012

> <i_f3d_flags>
0

> <s_epik_input>
W0NIM11bQ0gyXU9jMW5bY0hdW2NIXVtjSF1jMVtOSF1DKD1PKVtOSF1bQ0gyXVtDQEBIXTJbQ0gyXVtDSDJdW0NIMl1PMg==

> <s_epik_cmdline>
J2VwaWtfcHl0aG9uJywgJy1waCcsICc3LjAnLCAnLXRuJywgJzgnLCAnLW1hJywgJzIwMCcsICctbWV0YWxfYmluZGluZycsICctaW1hZScsICc8aW5maWxlLm1hZT4nLCAnLW9tYWUnLCAnPG91dGZpbGUubWFlPic=

> <r_lp_tautomer_probability>
1

> <r_epik_Ionization_Penalty>
0.000110193

> <r_epik_Ionization_Penalty_Charging>
0

> <r_epik_Ionization_Penalty_Neutral>
0.000110193

> <r_epik_State_Penalty>
-0

> <r_epik_Charging_Adjusted_Penalty>
0

> <i_epik_Tot_Q>
0

> <i_epik_Tot_abs_Q>
0

> <r_epik_Metal_State_Penalty>
-0

> <b_epik_Metal_Only>
0

> <s_lp_Force_Field>
OPLS_2005

> <r_lp_Energy>
19.6707

> <b_lp_Chiralities_Consistent>
1

> <s_lp_Variant>
AV-unprocessed.smi:1122-1

> <Gold.Version>
5.8.1

> <Gold.Id.Protein>
6NUR|6NUR_protein|mol2

> <Gold.PLP.Fitness>
42.9576

> <Gold.PLP.PLP>
-32.7774

> <Gold.PLP.part.hbond>
-3.9957

> <Gold.PLP.part.metal>
0.0000

> <Gold.PLP.part.buried>
1.7343

> <Gold.PLP.part.nonpolar>
-32.0102

> <Gold.PLP.part.repulsive>
2.9112

> <Gold.PLP.ligand.clash>
0.0000

> <Gold.PLP.ligand.torsion>
0.5868

> <Gold.PLP.Chemscore.Hbond>
2.7760

> <Gold.PLP.Chemscore.CHOScore>
1.0000

> <Gold.PLP.Chemscore.Metal>
0.0000

> <Gold.Chemscore.Hbonds>
donor molecule, donor type, donor heavy atom, donor atom, acceptor molecule, acceptor atom, score
      L1  H    10    28       P1  7948  1.00
      L1  H    13    29       P1  7948  0.93
      P1  H  7989  7998       L1     5  0.85
      L1  C     6    25       P1  8028  1.00

> <Gold.PLP.Chemscore.Internal.Correction>
0.0257

> <Gold.Rescore>
     Score         DG    S(hbond)    S(metal)    S(lipo)     H(rot)  DE(clash)    DE(int)     intcor
     14.52     -16.26       1.92        0.00      72.53       1.61       0.23       1.51       ----

> <Gold.Chemscore.Fitness>
14.5151

> <Gold.Chemscore.DG>
-16.2619

> <Gold.Chemscore.ZeroCoef>
-5.4800

> <Gold.Chemscore.Hbond>
1.9237

> <Gold.Chemscore.Metal>
0.0000

> <Gold.Chemscore.Lipo>
72.5327

> <Gold.Chemscore.Internal_Hbond>
0.0000

> <Gold.Chemscore.DEClash>
0.2344

> <Gold.Chemscore.DEInternal>
1.5124

> <Gold.Chemscore.Rot>
1.6131

> <Gold.Chemscore.Internal.Correction>
   9.000000E+99

> <Gold.Chemscore.Hbonds>
donor molecule, donor type, donor heavy atom, donor atom, acceptor molecule, acceptor atom, score
      L1  H    10    28       P1  7948  0.95
      L1  H    13    29       P1  7948  0.91
      P1  H  7989  7998       L1     5  0.20

> <Gold.Chemscore.Hbond.Weighted>
-6.4252

> <Gold.Chemscore.Metal.Weighted>
-0.0000

> <Gold.Chemscore.Lipo.Weighted>
-8.4863

> <Gold.Chemscore.Internal_Hbond.Weighted>
0.0000

> <Gold.Chemscore.DEClash.Weighted>
0.2344

> <Gold.Chemscore.DEInternal.Weighted>
1.5124

> <Gold.Chemscore.Rot.Weighted>
4.1296

> <Gold.Chemscore.Internal.Correction.Weighted>
   9.000000E+99

> <Gold.Protein.RotatedTorsions>
[ 6907 6896 6895 6894 ] final   89.31 input  -60.11 | X-H torsion
[ 7974 7965 7964 7962 ] final  -49.27 input  175.53 | X-H torsion
[ 8008 7997 7996 7995 ] final -116.21 input   59.86 | X-H torsion
[ 10167 10162 10161 10158 ] final  131.26 input  -65.29 | X-H torsion
[ 10718 10713 10712 10709 ] final  173.43 input   66.30 | X-H torsion
[ 10763 10752 10751 10750 ] final -123.01 input  -60.55 | X-H torsion
[ 11005 11000 10999 10996 ] final   33.80 input  -57.11 | X-H torsion

> <Gold.Protein.ActiveResidues>
 VAL166  LYS551  ARG553  GLY616  TRP617  ASP618  TYR619  PRO620  LYS621  CYS622 
 ASP623  PHE694  ASN695  SER759  ASP760  ASP761  ALA762  ILE779  LEU786  VAL792 
 PHE793  MET794  SER795  GLU796  ALA797  LYS798  CYS799  TRP800  GLU811  SER814 

> <Gold.Protein.RotatedAtoms>
  152.5435  134.1986  159.8702 H   0  0  0  0  0  0  0  0  0  0  0  0  # atno 6907 bound_to 6896
  151.1977  133.4623  159.2603 H   0  0  0  0  0  0  0  0  0  0  0  0  # atno 6908 bound_to 6896
  151.1021  134.9990  159.8509 H   0  0  0  0  0  0  0  0  0  0  0  0  # atno 6909 bound_to 6896
  145.9423  140.7650  142.9546 H   0  0  0  0  0  0  0  0  0  0  0  0  # atno 7974 bound_to 7965
  155.0643  140.0393  157.2587 H   0  0  0  0  0  0  0  0  0  0  0  0  # atno 8008 bound_to 7997
  154.7034  140.2678  155.6673 H   0  0  0  0  0  0  0  0  0  0  0  0  # atno 8009 bound_to 7997
  156.2767  140.2736  156.1652 H   0  0  0  0  0  0  0  0  0  0  0  0  # atno 8010 bound_to 7997
  139.5392  144.6713  151.4682 H   0  0  0  0  0  0  0  0  0  0  0  0  # atno 10167 bound_to 10162
  156.9645  131.0071  151.2920 H   0  0  0  0  0  0  0  0  0  0  0  0  # atno 10718 bound_to 10713
  154.8700  135.4113  154.2874 H   0  0  0  0  0  0  0  0  0  0  0  0  # atno 10763 bound_to 10752
  153.3756  135.7009  153.6610 H   0  0  0  0  0  0  0  0  0  0  0  0  # atno 10764 bound_to 10752
  153.5454  135.3639  155.2708 H   0  0  0  0  0  0  0  0  0  0  0  0  # atno 10765 bound_to 10752
  140.2594  134.3210  155.7863 H   0  0  0  0  0  0  0  0  0  0  0  0  # atno 11005 bound_to 11000
  144.6781  140.2300  143.7356 LP  0  0  0  0  0  0  0  0  0  0  0  0  # atno 17320 bound_to 7965
  145.8283  139.2074  143.1898 LP  0  0  0  0  0  0  0  0  0  0  0  0  # atno 17321 bound_to 7965
  140.6614  143.8491  150.6892 LP  0  0  0  0  0  0  0  0  0  0  0  0  # atno 17342 bound_to 10162
  140.1886  143.4055  152.1880 LP  0  0  0  0  0  0  0  0  0  0  0  0  # atno 17343 bound_to 10162
  157.5635  130.8262  149.8297 LP  0  0  0  0  0  0  0  0  0  0  0  0  # atno 17370 bound_to 10713
  156.0308  130.3765  150.1692 LP  0  0  0  0  0  0  0  0  0  0  0  0  # atno 17371 bound_to 10713
  141.2192  133.7400  156.9163 LP  0  0  0  0  0  0  0  0  0  0  0  0  # atno 17394 bound_to 11000
  140.1479  134.9249  157.2554 LP  0  0  0  0  0  0  0  0  0  0  0  0  # atno 17395 bound_to 11000

$$$$
