AV-unprocessed.smi:1406|AV-procd|sdf|5721|dock5
  -GOLD-   22720 5353D 1   1.00000     0.00000
 Structure written by MMmdl.
 41 43  0  0  0  0  0  0  0  0  2 V2000
  152.5535  136.7191  157.5755 C   0  0  0  0  0  0  0  0  0  0  0  0
  152.1447  137.7163  158.6782 C   0  0  2  0  0  0  0  0  0  0  0  0
  152.0167  139.1596  158.1636 C   0  0  0  0  0  0  0  0  0  0  0  0
  152.9898  139.7531  157.6971 O   0  0  0  0  0  0  0  0  0  0  0  0
  150.7968  139.7146  158.2447 N   0  0  0  0  0  0  0  0  0  0  0  0
  150.4723  141.0759  157.8284 C   0  0  2  0  0  0  0  0  0  0  0  0
  151.0147  141.4329  156.4505 C   0  0  0  0  0  0  0  0  0  0  0  0
  150.9771  142.9651  156.4498 C   0  0  0  0  0  0  0  0  0  0  0  0
  151.0723  143.3990  157.8658 N   0  3  2  0  0  0  0  0  0  0  0  0
  152.1787  144.3570  158.1345 C   0  0  0  0  0  0  0  0  0  0  0  0
  152.4853  144.4366  159.6372 C   0  0  0  0  0  0  0  0  0  0  0  0
  152.9533  143.0766  160.1889 C   0  0  0  0  0  0  0  0  0  0  0  0
  152.4412  141.8914  159.3478 C   0  0  0  0  0  0  0  0  0  0  0  0
  151.0522  142.1838  158.7284 C   0  0  2  0  0  0  0  0  0  0  0  0
  153.0458  137.6586  159.8227 N   0  0  0  0  0  0  0  0  0  0  0  0
  153.6943  138.6389  160.4551 C   0  0  0  0  0  0  0  0  0  0  0  0
  154.4644  138.2213  161.4499 N   0  0  0  0  0  0  0  0  0  0  0  0
  154.2338  136.8773  161.3682 C   0  0  0  0  0  0  0  0  0  0  0  0
  153.3998  136.4857  160.4052 N   0  0  0  0  0  0  0  0  0  0  0  0
  151.8412  136.7307  156.7498 H   0  0  0  0  0  0  0  0  0  0  0  0
  152.5825  135.7013  157.9654 H   0  0  0  0  0  0  0  0  0  0  0  0
  153.5395  136.9423  157.1655 H   0  0  0  0  0  0  0  0  0  0  0  0
  151.1573  137.4160  159.0328 H   0  0  0  0  0  0  0  0  0  0  0  0
  150.0478  139.1624  158.6365 H   0  0  0  0  0  0  0  0  0  0  0  0
  149.3858  141.1842  157.7944 H   0  0  0  0  0  0  0  0  0  0  0  0
  152.0452  141.0888  156.3487 H   0  0  0  0  0  0  0  0  0  0  0  0
  150.4325  140.9968  155.6381 H   0  0  0  0  0  0  0  0  0  0  0  0
  151.7620  143.3833  155.8181 H   0  0  0  0  0  0  0  0  0  0  0  0
  150.0230  143.3165  156.0556 H   0  0  0  0  0  0  0  0  0  0  0  0
  153.0813  144.0503  157.6030 H   0  0  0  0  0  0  0  0  0  0  0  0
  151.9009  145.3372  157.7457 H   0  0  0  0  0  0  0  0  0  0  0  0
  153.2396  145.1988  159.8352 H   0  0  0  0  0  0  0  0  0  0  0  0
  151.5856  144.7541  160.1663 H   0  0  0  0  0  0  0  0  0  0  0  0
  154.0429  143.0408  160.2229 H   0  0  0  0  0  0  0  0  0  0  0  0
  152.6147  142.9773  161.2209 H   0  0  0  0  0  0  0  0  0  0  0  0
  153.1540  141.6817  158.5491 H   0  0  0  0  0  0  0  0  0  0  0  0
  152.4155  140.9986  159.9728 H   0  0  0  0  0  0  0  0  0  0  0  0
  150.3590  142.3665  159.5511 H   0  0  0  0  0  0  0  0  0  0  0  0
  153.6022  139.6797  160.1818 H   0  0  0  0  0  0  0  0  0  0  0  0
  154.6987  136.1661  162.0352 H   0  0  0  0  0  0  0  0  0  0  0  0
  150.2124  143.8890  158.0681 H   0  0  0  0  0  0  0  0  0  0  0  0
  1  2  1  0  0  0  0
  1 20  1  0  0  0  0
  1 21  1  0  0  0  0
  1 22  1  0  0  0  0
  2  3  1  0  0  0  0
  2 15  1  0  0  0  0
  2 23  1  0  0  0  0
  3  4  2  0  0  0  0
  3  5  1  0  0  0  0
  5  6  1  0  0  0  0
  5 24  1  0  0  0  0
  6 14  1  0  0  0  0
  6  7  1  0  0  0  0
  6 25  1  0  0  0  0
  7  8  1  0  0  0  0
  7 26  1  0  0  0  0
  7 27  1  0  0  0  0
  8  9  1  0  0  0  0
  8 28  1  0  0  0  0
  8 29  1  0  0  0  0
  9 14  1  0  0  0  0
  9 10  1  0  0  0  0
  9 41  1  0  0  0  0
 10 11  1  0  0  0  0
 10 30  1  0  0  0  0
 10 31  1  0  0  0  0
 11 12  1  0  0  0  0
 11 32  1  0  0  0  0
 11 33  1  0  0  0  0
 12 13  1  0  0  0  0
 12 34  1  0  0  0  0
 12 35  1  0  0  0  0
 13 14  1  0  0  0  0
 13 36  1  0  0  0  0
 13 37  1  0  0  0  0
 14 38  1  0  0  0  0
 15 19  1  0  0  0  0
 15 16  1  0  0  0  0
 16 17  2  0  0  0  0
 16 39  1  0  0  0  0
 17 18  1  0  0  0  0
 18 19  2  0  0  0  0
 18 40  1  0  0  0  0
M  CHG  1   9   1
M  END
> <s_m_source_file>
AV-unprocessed.smi

> <i_m_source_file_index>
1406

> <i_lp_mmshare_version>
43012

> <i_f3d_flags>
0

> <s_epik_input>
bjFbY0hdbltjSF1uMVtDQEhdKFtDSDNdKUMoPU8pW05IXVtDQEhdKFtDSDJdW0NIMl0yKVtDQEBIXShOMjMpW0NIMl1bQ0gyXVtDSDJdW0NIMl0z

> <s_epik_cmdline>
J2VwaWtfcHl0aG9uJywgJy1waCcsICc3LjAnLCAnLXRuJywgJzgnLCAnLW1hJywgJzIwMCcsICctbWV0YWxfYmluZGluZycsICctaW1hZScsICc8aW5maWxlLm1hZT4nLCAnLW9tYWUnLCAnPG91dGZpbGUubWFlPic=

> <r_lp_tautomer_probability>
1

> <r_epik_Ionization_Penalty>
0.00197066

> <r_epik_Ionization_Penalty_Charging>
0.00196223

> <r_epik_Ionization_Penalty_Neutral>
8.43107e-06

> <r_epik_State_Penalty>
0.00133866

> <r_epik_Charging_Adjusted_Penalty>
0.00330089

> <i_epik_Tot_Q>
1

> <i_epik_Tot_abs_Q>
1

> <r_epik_Metal_State_Penalty>
-0

> <b_epik_Metal_Only>
0

> <s_lp_Force_Field>
OPLS_2005

> <r_lp_Energy>
46.3739

> <b_lp_Chiralities_Consistent>
1

> <s_lp_Variant>
AV-unprocessed.smi:1406-13

> <Gold.Version>
5.8.1

> <Gold.Id.Protein>
6NUR|6NUR_protein|mol2

> <Gold.PLP.Fitness>
39.6428

> <Gold.PLP.PLP>
-34.0434

> <Gold.PLP.part.hbond>
-2.0000

> <Gold.PLP.part.metal>
0.0000

> <Gold.PLP.part.buried>
-2.7890

> <Gold.PLP.part.nonpolar>
-28.7746

> <Gold.PLP.part.repulsive>
0.1419

> <Gold.PLP.ligand.clash>
0.0000

> <Gold.PLP.ligand.torsion>
0.2483

> <Gold.PLP.Chemscore.Hbond>
2.0000

> <Gold.PLP.Chemscore.CHOScore>
0.0000

> <Gold.PLP.Chemscore.Metal>
0.0000

> <Gold.Chemscore.Hbonds>
donor molecule, donor type, donor heavy atom, donor atom, acceptor molecule, acceptor atom, score
      P1  H  6896  6907       L1    19  1.00
      P1  H  7997  8008       L1     4  1.00

> <Gold.PLP.Chemscore.Internal.Correction>
0.0959

> <Gold.Rescore>
     Score         DG    S(hbond)    S(metal)    S(lipo)     H(rot)  DE(clash)    DE(int)     intcor
     13.72     -16.64       1.89        0.00      82.64       1.89       0.14       2.77       ----

> <Gold.Chemscore.Fitness>
13.7245

> <Gold.Chemscore.DG>
-16.6394

> <Gold.Chemscore.ZeroCoef>
-5.4800

> <Gold.Chemscore.Hbond>
1.8923

> <Gold.Chemscore.Metal>
0.0000

> <Gold.Chemscore.Lipo>
82.6385

> <Gold.Chemscore.Internal_Hbond>
0.0000

> <Gold.Chemscore.DEClash>
0.1417

> <Gold.Chemscore.DEInternal>
2.7732

> <Gold.Chemscore.Rot>
1.8865

> <Gold.Chemscore.Internal.Correction>
   9.000000E+99

> <Gold.Chemscore.Hbonds>
donor molecule, donor type, donor heavy atom, donor atom, acceptor molecule, acceptor atom, score
      P1  H  6896  6907       L1    19  0.93
      P1  H  7997  8008       L1     4  1.00

> <Gold.Chemscore.Hbond.Weighted>
-6.3202

> <Gold.Chemscore.Metal.Weighted>
-0.0000

> <Gold.Chemscore.Lipo.Weighted>
-9.6687

> <Gold.Chemscore.Internal_Hbond.Weighted>
0.0000

> <Gold.Chemscore.DEClash.Weighted>
0.1417

> <Gold.Chemscore.DEInternal.Weighted>
2.7732

> <Gold.Chemscore.Rot.Weighted>
4.8295

> <Gold.Chemscore.Internal.Correction.Weighted>
   9.000000E+99

> <Gold.Protein.RotatedTorsions>
[ 6907 6896 6895 6894 ] final   52.39 input  -60.11 | X-H torsion
[ 7974 7965 7964 7962 ] final -134.08 input  175.53 | X-H torsion
[ 8008 7997 7996 7995 ] final  -74.83 input   59.86 | X-H torsion
[ 10167 10162 10161 10158 ] final  -40.18 input  -65.29 | X-H torsion
[ 10718 10713 10712 10709 ] final  160.27 input   66.30 | X-H torsion
[ 10763 10752 10751 10750 ] final -134.00 input  -60.55 | X-H torsion
[ 11005 11000 10999 10996 ] final  109.65 input  -57.11 | X-H torsion

> <Gold.Protein.ActiveResidues>
 VAL166  LYS551  ARG553  GLY616  TRP617  ASP618  TYR619  PRO620  LYS621  CYS622 
 ASP623  PHE694  ASN695  SER759  ASP760  ASP761  ALA762  ILE779  LEU786  VAL792 
 PHE793  MET794  SER795  GLU796  ALA797  LYS798  CYS799  TRP800  GLU811  SER814 

> <Gold.Protein.RotatedAtoms>
  152.3227  134.7360  160.0309 H   0  0  0  0  0  0  0  0  0  0  0  0  # atno 6907 bound_to 6896
  151.7803  133.3344  159.3477 H   0  0  0  0  0  0  0  0  0  0  0  0  # atno 6908 bound_to 6896
  150.7379  134.5868  159.6011 H   0  0  0  0  0  0  0  0  0  0  0  0  # atno 6909 bound_to 6896
  144.9134  140.6924  143.5010 H   0  0  0  0  0  0  0  0  0  0  0  0  # atno 7974 bound_to 7965
  154.5364  140.0754  156.8435 H   0  0  0  0  0  0  0  0  0  0  0  0  # atno 8008 bound_to 7997
  155.3269  140.3399  155.4222 H   0  0  0  0  0  0  0  0  0  0  0  0  # atno 8009 bound_to 7997
  156.1832  140.1659  156.8221 H   0  0  0  0  0  0  0  0  0  0  0  0  # atno 8010 bound_to 7997
  140.7042  143.3169  151.2888 H   0  0  0  0  0  0  0  0  0  0  0  0  # atno 10167 bound_to 10162
  157.1527  131.0568  151.2272 H   0  0  0  0  0  0  0  0  0  0  0  0  # atno 10718 bound_to 10713
  154.8725  135.3748  154.4665 H   0  0  0  0  0  0  0  0  0  0  0  0  # atno 10763 bound_to 10752
  153.5329  135.7027  153.5679 H   0  0  0  0  0  0  0  0  0  0  0  0  # atno 10764 bound_to 10752
  153.3876  135.3980  155.1865 H   0  0  0  0  0  0  0  0  0  0  0  0  # atno 10765 bound_to 10752
  139.8866  134.9464  156.6159 H   0  0  0  0  0  0  0  0  0  0  0  0  # atno 11005 bound_to 11000
  145.3415  139.1731  143.4483 LP  0  0  0  0  0  0  0  0  0  0  0  0  # atno 17320 bound_to 7965
  146.3170  140.3457  142.8652 LP  0  0  0  0  0  0  0  0  0  0  0  0  # atno 17321 bound_to 7965
  139.6610  144.0189  152.2692 LP  0  0  0  0  0  0  0  0  0  0  0  0  # atno 17342 bound_to 10162
  139.9756  144.6463  150.7948 LP  0  0  0  0  0  0  0  0  0  0  0  0  # atno 17343 bound_to 10162
  157.4206  130.7435  149.6910 LP  0  0  0  0  0  0  0  0  0  0  0  0  # atno 17370 bound_to 10713
  155.9767  130.4071  150.3757 LP  0  0  0  0  0  0  0  0  0  0  0  0  # atno 17371 bound_to 10713
  140.7776  133.8686  155.8542 LP  0  0  0  0  0  0  0  0  0  0  0  0  # atno 17394 bound_to 11000
  140.9788  134.1433  157.4513 LP  0  0  0  0  0  0  0  0  0  0  0  0  # atno 17395 bound_to 11000

$$$$
