AV-unprocessed.smi:1641|AV-procd|sdf|6557|dock7
  -GOLD-   22720 7243D 1   1.00000     0.00000
 Structure written by MMmdl.
 41 42  0  0  0  0  0  0  0  0  1 V2000
  154.7278  132.9222  165.6535 C   0  0  0  0  0  0  0  0  0  0  0  0
  154.6564  133.9293  164.5572 C   0  0  0  0  0  0  0  0  0  0  0  0
  154.8949  133.6224  163.2764 N   0  0  0  0  0  0  0  0  0  0  0  0
  154.7689  134.7225  162.4398 N   0  0  0  0  0  0  0  0  0  0  0  0
  154.4377  135.8304  163.1171 C   0  0  0  0  0  0  0  0  0  0  0  0
  154.2451  137.0992  162.5098 N   0  0  0  0  0  0  0  0  0  0  0  0
  153.8474  137.3690  161.2542 C   0  0  0  0  0  0  0  0  0  0  0  0
  153.5432  136.5264  160.4096 O   0  0  0  0  0  0  0  0  0  0  0  0
  153.8229  138.6906  161.0269 N   0  0  0  0  0  0  0  0  0  0  0  0
  153.4940  139.3219  159.7520 C   0  0  0  0  0  0  0  0  0  0  0  0
  154.3572  140.5742  159.5037 C   0  0  0  0  0  0  0  0  0  0  0  0
  153.6787  141.8555  159.6986 N   0  0  0  0  0  0  0  0  0  0  0  0
  152.3707  141.9062  159.0491 C   0  0  0  0  0  0  0  0  0  0  0  0
  151.6620  143.2595  159.2557 C   0  0  2  0  0  0  0  0  0  0  0  0
  152.2771  144.4003  158.4261 C   0  0  0  0  0  0  0  0  0  0  0  0
  151.6098  143.5817  160.6468 O   0  0  0  0  0  0  0  0  0  0  0  0
  152.8622  143.5379  161.3287 C   0  0  1  0  0  0  0  0  0  0  0  0
  152.6090  143.8304  162.8114 C   0  0  0  0  0  0  0  0  0  0  0  0
  153.5152  142.1605  161.1131 C   0  0  0  0  0  0  0  0  0  0  0  0
  154.2580  135.6178  164.8500 S   0  0  0  0  0  0  0  0  0  0  0  0
  154.4752  131.9306  165.2770 H   0  0  0  0  0  0  0  0  0  0  0  0
  154.0280  133.1810  166.4484 H   0  0  0  0  0  0  0  0  0  0  0  0
  155.7355  132.8948  166.0681 H   0  0  0  0  0  0  0  0  0  0  0  0
  154.4469  137.8951  163.0965 H   0  0  0  0  0  0  0  0  0  0  0  0
  154.0831  139.3071  161.7825 H   0  0  0  0  0  0  0  0  0  0  0  0
  153.5619  138.6149  158.9244 H   0  0  0  0  0  0  0  0  0  0  0  0
  152.4463  139.6195  159.7980 H   0  0  0  0  0  0  0  0  0  0  0  0
  155.2425  140.5312  160.1397 H   0  0  0  0  0  0  0  0  0  0  0  0
  154.7271  140.5207  158.4786 H   0  0  0  0  0  0  0  0  0  0  0  0
  152.4618  141.7147  157.9810 H   0  0  0  0  0  0  0  0  0  0  0  0
  151.7382  141.1120  159.4485 H   0  0  0  0  0  0  0  0  0  0  0  0
  150.6282  143.1492  158.9276 H   0  0  0  0  0  0  0  0  0  0  0  0
  152.1989  144.1883  157.3595 H   0  0  0  0  0  0  0  0  0  0  0  0
  153.3338  144.5477  158.6489 H   0  0  0  0  0  0  0  0  0  0  0  0
  151.7602  145.3415  158.6141 H   0  0  0  0  0  0  0  0  0  0  0  0
  153.5154  144.3163  160.9331 H   0  0  0  0  0  0  0  0  0  0  0  0
  153.5416  143.8291  163.3764 H   0  0  0  0  0  0  0  0  0  0  0  0
  151.9478  143.0847  163.2537 H   0  0  0  0  0  0  0  0  0  0  0  0
  152.1439  144.8077  162.9412 H   0  0  0  0  0  0  0  0  0  0  0  0
  152.9097  141.3877  161.5898 H   0  0  0  0  0  0  0  0  0  0  0  0
  154.4869  142.1446  161.6084 H   0  0  0  0  0  0  0  0  0  0  0  0
  1  2  1  0  0  0  0
  1 21  1  0  0  0  0
  1 22  1  0  0  0  0
  1 23  1  0  0  0  0
  2 20  1  0  0  0  0
  2  3  2  0  0  0  0
  3  4  1  0  0  0  0
  4  5  2  0  0  0  0
  5  6  1  0  0  0  0
  5 20  1  0  0  0  0
  6  7  1  0  0  0  0
  6 24  1  0  0  0  0
  7  8  2  0  0  0  0
  7  9  1  0  0  0  0
  9 10  1  0  0  0  0
  9 25  1  0  0  0  0
 10 11  1  0  0  0  0
 10 26  1  0  0  0  0
 10 27  1  0  0  0  0
 11 12  1  0  0  0  0
 11 28  1  0  0  0  0
 11 29  1  0  0  0  0
 12 19  1  0  0  0  0
 12 13  1  0  0  0  0
 13 14  1  0  0  0  0
 13 30  1  0  0  0  0
 13 31  1  0  0  0  0
 14 15  1  0  0  0  0
 14 16  1  0  0  0  0
 14 32  1  0  0  0  0
 15 33  1  0  0  0  0
 15 34  1  0  0  0  0
 15 35  1  0  0  0  0
 16 17  1  0  0  0  0
 17 18  1  0  0  0  0
 17 19  1  0  0  0  0
 17 36  1  0  0  0  0
 18 37  1  0  0  0  0
 18 38  1  0  0  0  0
 18 39  1  0  0  0  0
 19 40  1  0  0  0  0
 19 41  1  0  0  0  0
M  END
> <s_m_source_file>
AV-unprocessed.smi

> <i_m_source_file_index>
1641

> <i_lp_mmshare_version>
43012

> <i_f3d_flags>
0

> <s_epik_input>
W0NIM11jMW5uYyhzMSlbTkhdQyg9TylbTkhdW0NIMl1bQ0gyXU4yW0NIMl1bQ0BASF0oW0NIM10pT1tDQEBIXShbQ0gzXSlbQ0gyXTI=

> <s_epik_cmdline>
J2VwaWtfcHl0aG9uJywgJy1waCcsICc3LjAnLCAnLXRuJywgJzgnLCAnLW1hJywgJzIwMCcsICctbWV0YWxfYmluZGluZycsICctaW1hZScsICc8aW5maWxlLm1hZT4nLCAnLW9tYWUnLCAnPG91dGZpbGUubWFlPic=

> <r_lp_tautomer_probability>
1

> <r_epik_Ionization_Penalty>
0.221104

> <r_epik_Ionization_Penalty_Charging>
0

> <r_epik_Ionization_Penalty_Neutral>
0.221104

> <r_epik_State_Penalty>
0.209349

> <r_epik_Charging_Adjusted_Penalty>
0.209349

> <i_epik_Tot_Q>
0

> <i_epik_Tot_abs_Q>
0

> <r_epik_Metal_State_Penalty>
0.560954

> <b_epik_Metal_Only>
0

> <s_lp_Force_Field>
OPLS_2005

> <r_lp_Energy>
24.8312

> <b_lp_Chiralities_Consistent>
1

> <s_lp_Variant>
AV-unprocessed.smi:1641-2

> <Gold.Version>
5.8.1

> <Gold.Id.Protein>
6NUR|6NUR_protein|mol2

> <Gold.PLP.Fitness>
39.2248

> <Gold.PLP.PLP>
-37.7048

> <Gold.PLP.part.hbond>
-0.9710

> <Gold.PLP.part.metal>
0.0000

> <Gold.PLP.part.buried>
-1.1026

> <Gold.PLP.part.nonpolar>
-35.3707

> <Gold.PLP.part.repulsive>
0.1471

> <Gold.PLP.ligand.clash>
0.0000

> <Gold.PLP.ligand.torsion>
0.7425

> <Gold.PLP.Chemscore.Hbond>
1.0000

> <Gold.PLP.Chemscore.CHOScore>
0.0000

> <Gold.PLP.Chemscore.Metal>
0.0000

> <Gold.Chemscore.Hbonds>
donor molecule, donor type, donor heavy atom, donor atom, acceptor molecule, acceptor atom, score
      P1  H  6896  6907       L1     8  0.83

> <Gold.PLP.Chemscore.Internal.Correction>
0.0049

> <Gold.Rescore>
     Score         DG    S(hbond)    S(metal)    S(lipo)     H(rot)  DE(clash)    DE(int)     intcor
     15.54     -17.52       1.00        0.00     109.36       1.60       0.44       1.55       ----

> <Gold.Chemscore.Fitness>
15.5352

> <Gold.Chemscore.DG>
-17.5236

> <Gold.Chemscore.ZeroCoef>
-5.4800

> <Gold.Chemscore.Hbond>
0.9994

> <Gold.Chemscore.Metal>
0.0000

> <Gold.Chemscore.Lipo>
109.3592

> <Gold.Chemscore.Internal_Hbond>
0.0000

> <Gold.Chemscore.DEClash>
0.4415

> <Gold.Chemscore.DEInternal>
1.5469

> <Gold.Chemscore.Rot>
1.5975

> <Gold.Chemscore.Internal.Correction>
   9.000000E+99

> <Gold.Chemscore.Hbonds>
donor molecule, donor type, donor heavy atom, donor atom, acceptor molecule, acceptor atom, score
      P1  H  6896  6907       L1     8  0.80

> <Gold.Chemscore.Hbond.Weighted>
-3.3381

> <Gold.Chemscore.Metal.Weighted>
-0.0000

> <Gold.Chemscore.Lipo.Weighted>
-12.7950

> <Gold.Chemscore.Internal_Hbond.Weighted>
0.0000

> <Gold.Chemscore.DEClash.Weighted>
0.4415

> <Gold.Chemscore.DEInternal.Weighted>
1.5469

> <Gold.Chemscore.Rot.Weighted>
4.0896

> <Gold.Chemscore.Internal.Correction.Weighted>
   9.000000E+99

> <Gold.Protein.RotatedTorsions>
[ 6907 6896 6895 6894 ] final   40.10 input  -60.11 | X-H torsion
[ 7974 7965 7964 7962 ] final   16.26 input  175.53 | X-H torsion
[ 8008 7997 7996 7995 ] final  -97.97 input   59.86 | X-H torsion
[ 10167 10162 10161 10158 ] final    6.96 input  -65.29 | X-H torsion
[ 10718 10713 10712 10709 ] final -174.90 input   66.30 | X-H torsion
[ 10763 10752 10751 10750 ] final  -91.55 input  -60.55 | X-H torsion
[ 11005 11000 10999 10996 ] final    1.73 input  -57.11 | X-H torsion

> <Gold.Protein.ActiveResidues>
 VAL166  LYS551  ARG553  GLY616  TRP617  ASP618  TYR619  PRO620  LYS621  CYS622 
 ASP623  PHE694  ASN695  SER759  ASP760  ASP761  ALA762  ILE779  LEU786  VAL792 
 PHE793  MET794  SER795  GLU796  ALA797  LYS798  CYS799  TRP800  GLU811  SER814 

> <Gold.Protein.RotatedAtoms>
  152.1781  134.8777  160.0528 H   0  0  0  0  0  0  0  0  0  0  0  0  # atno 6907 bound_to 6896
  151.9712  133.3721  159.4080 H   0  0  0  0  0  0  0  0  0  0  0  0  # atno 6908 bound_to 6896
  150.6913  134.4061  159.5185 H   0  0  0  0  0  0  0  0  0  0  0  0  # atno 6909 bound_to 6896
  146.2254  139.8773  142.8577 H   0  0  0  0  0  0  0  0  0  0  0  0  # atno 7974 bound_to 7965
  154.7949  140.0459  157.1229 H   0  0  0  0  0  0  0  0  0  0  0  0  # atno 8008 bound_to 7997
  154.9547  140.3069  155.5038 H   0  0  0  0  0  0  0  0  0  0  0  0  # atno 8009 bound_to 7997
  156.2954  140.2281  156.4628 H   0  0  0  0  0  0  0  0  0  0  0  0  # atno 8010 bound_to 7997
  140.6399  143.7799  150.7412 H   0  0  0  0  0  0  0  0  0  0  0  0  # atno 10167 bound_to 10162
  156.7920  130.9521  151.3120 H   0  0  0  0  0  0  0  0  0  0  0  0  # atno 10718 bound_to 10713
  154.6772  135.5264  153.8215 H   0  0  0  0  0  0  0  0  0  0  0  0  # atno 10763 bound_to 10752
  153.0540  135.6543  154.0633 H   0  0  0  0  0  0  0  0  0  0  0  0  # atno 10764 bound_to 10752
  154.0525  135.2968  155.3318 H   0  0  0  0  0  0  0  0  0  0  0  0  # atno 10765 bound_to 10752
  140.6122  133.9737  155.8183 H   0  0  0  0  0  0  0  0  0  0  0  0  # atno 11005 bound_to 11000
  145.2548  141.0056  143.3860 LP  0  0  0  0  0  0  0  0  0  0  0  0  # atno 17320 bound_to 7965
  144.9346  139.4259  143.6478 LP  0  0  0  0  0  0  0  0  0  0  0  0  # atno 17321 bound_to 7965
  140.1428  143.4426  152.2182 LP  0  0  0  0  0  0  0  0  0  0  0  0  # atno 17342 bound_to 10162
  139.5608  144.7404  151.4161 LP  0  0  0  0  0  0  0  0  0  0  0  0  # atno 17343 bound_to 10162
  157.6596  130.8954  149.9801 LP  0  0  0  0  0  0  0  0  0  0  0  0  # atno 17370 bound_to 10713
  156.1153  130.3648  149.9978 LP  0  0  0  0  0  0  0  0  0  0  0  0  # atno 17371 bound_to 10713
  141.0800  134.0077  157.3400 LP  0  0  0  0  0  0  0  0  0  0  0  0  # atno 17394 bound_to 11000
  139.9187  135.0199  156.7982 LP  0  0  0  0  0  0  0  0  0  0  0  0  # atno 17395 bound_to 11000

$$$$
