AV-unprocessed.smi:1978|AV-procd|sdf|8005|dock3
  -GOLD-   2272010193D 1   1.00000     0.00000
 Structure written by MMmdl.
 44 45  0  0  0  0  0  0  0  0  3 V2000
  147.1291  136.0720  163.2552 C   0  0  0  0  0  0  0  0  0  0  0  0
  147.5775  135.9292  161.8409 C   0  0  0  0  0  0  0  0  0  0  0  0
  148.0139  134.8609  161.1097 C   0  0  0  0  0  0  0  0  0  0  0  0
  148.2818  135.4285  159.8340 C   0  0  0  0  0  0  0  0  0  0  0  0
  148.7275  134.7683  158.7541 N   0  5  0  0  0  0  0  0  0  0  0  0
  148.1625  134.9818  157.5441 C   0  0  0  0  0  0  0  0  0  0  0  0
  147.9611  136.0745  157.0094 O   0  0  0  0  0  0  0  0  0  0  0  0
  147.8082  133.8563  156.9117 N   0  0  0  0  0  0  0  0  0  0  0  0
  147.1782  133.7933  155.5996 C   0  0  0  0  0  0  0  0  0  0  0  0
  148.0654  134.4529  154.5188 C   0  0  1  0  0  0  0  0  0  0  0  0
  149.4693  133.8180  154.4352 C   0  0  0  0  0  0  0  0  0  0  0  0
  147.4053  134.5086  153.1742 N   0  3  1  0  0  0  0  0  0  0  0  0
  147.2404  133.1738  152.5266 C   0  0  0  0  0  0  0  0  0  0  0  0
  146.8225  133.3122  151.0553 C   0  0  0  0  0  0  0  0  0  0  0  0
  145.5243  134.1135  150.9370 C   0  0  0  0  0  0  0  0  0  0  0  0
  145.6915  135.4689  151.6312 C   0  0  0  0  0  0  0  0  0  0  0  0
  146.1382  135.3109  153.1012 C   0  0  2  0  0  0  0  0  0  0  0  0
  146.2499  136.7080  153.7449 C   0  0  0  0  0  0  0  0  0  0  0  0
  148.0141  136.7228  159.7898 N   0  0  0  0  0  0  0  0  0  0  0  0
  147.5683  137.0533  161.0751 O   0  0  0  0  0  0  0  0  0  0  0  0
  146.1870  135.5480  163.4148 H   0  0  0  0  0  0  0  0  0  0  0  0
  146.9818  137.1199  163.5178 H   0  0  0  0  0  0  0  0  0  0  0  0
  147.8693  135.6544  163.9379 H   0  0  0  0  0  0  0  0  0  0  0  0
  148.1273  133.8378  161.4352 H   0  0  0  0  0  0  0  0  0  0  0  0
  147.9879  132.9814  157.3825 H   0  0  0  0  0  0  0  0  0  0  0  0
  146.9891  132.7469  155.3575 H   0  0  0  0  0  0  0  0  0  0  0  0
  146.2097  134.2902  155.6615 H   0  0  0  0  0  0  0  0  0  0  0  0
  148.2637  135.4758  154.8329 H   0  0  0  0  0  0  0  0  0  0  0  0
  150.0415  134.0099  155.3432 H   0  0  0  0  0  0  0  0  0  0  0  0
  150.0412  134.2326  153.6045 H   0  0  0  0  0  0  0  0  0  0  0  0
  149.4274  132.7362  154.3120 H   0  0  0  0  0  0  0  0  0  0  0  0
  148.1674  132.6044  152.5589 H   0  0  0  0  0  0  0  0  0  0  0  0
  146.4927  132.5889  153.0638 H   0  0  0  0  0  0  0  0  0  0  0  0
  147.6151  133.8057  150.4910 H   0  0  0  0  0  0  0  0  0  0  0  0
  146.6923  132.3255  150.6097 H   0  0  0  0  0  0  0  0  0  0  0  0
  145.2609  134.2550  149.8882 H   0  0  0  0  0  0  0  0  0  0  0  0
  144.7032  133.5605  151.3952 H   0  0  0  0  0  0  0  0  0  0  0  0
  146.4230  136.0678  151.0865 H   0  0  0  0  0  0  0  0  0  0  0  0
  144.7491  136.0157  151.5813 H   0  0  0  0  0  0  0  0  0  0  0  0
  145.3559  134.7632  153.6285 H   0  0  0  0  0  0  0  0  0  0  0  0
  145.3556  137.2996  153.5472 H   0  0  0  0  0  0  0  0  0  0  0  0
  147.1031  137.2619  153.3518 H   0  0  0  0  0  0  0  0  0  0  0  0
  146.3431  136.6551  154.8294 H   0  0  0  0  0  0  0  0  0  0  0  0
  148.0625  135.0086  152.5930 H   0  0  0  0  0  0  0  0  0  0  0  0
  1  2  1  0  0  0  0
  1 21  1  0  0  0  0
  1 22  1  0  0  0  0
  1 23  1  0  0  0  0
  2 20  1  0  0  0  0
  2  3  2  0  0  0  0
  3  4  1  0  0  0  0
  3 24  1  0  0  0  0
  4  5  1  0  0  0  0
  4 19  2  0  0  0  0
  5  6  1  0  0  0  0
  6  7  2  0  0  0  0
  6  8  1  0  0  0  0
  8  9  1  0  0  0  0
  8 25  1  0  0  0  0
  9 10  1  0  0  0  0
  9 26  1  0  0  0  0
  9 27  1  0  0  0  0
 10 11  1  0  0  0  0
 10 12  1  0  0  0  0
 10 28  1  0  0  0  0
 11 29  1  0  0  0  0
 11 30  1  0  0  0  0
 11 31  1  0  0  0  0
 12 17  1  0  0  0  0
 12 13  1  0  0  0  0
 12 44  1  0  0  0  0
 13 14  1  0  0  0  0
 13 32  1  0  0  0  0
 13 33  1  0  0  0  0
 14 15  1  0  0  0  0
 14 34  1  0  0  0  0
 14 35  1  0  0  0  0
 15 16  1  0  0  0  0
 15 36  1  0  0  0  0
 15 37  1  0  0  0  0
 16 17  1  0  0  0  0
 16 38  1  0  0  0  0
 16 39  1  0  0  0  0
 17 18  1  0  0  0  0
 17 40  1  0  0  0  0
 18 41  1  0  0  0  0
 18 42  1  0  0  0  0
 18 43  1  0  0  0  0
 19 20  1  0  0  0  0
M  CHG  1   5  -1
M  CHG  1  12   1
M  END
> <s_m_source_file>
AV-unprocessed.smi

> <i_m_source_file_index>
1978

> <i_lp_mmshare_version>
43012

> <i_f3d_flags>
0

> <s_epik_input>
W0NIM11jMVtjSF1jKG5vMSlbTkhdQyg9TylbTkhdW0NIMl1bQ0BIXShbQ0gzXSlOMltDSDJdW0NIMl1bQ0gyXVtDSDJdW0NASF0yW0NIM10=

> <s_epik_cmdline>
J2VwaWtfcHl0aG9uJywgJy1waCcsICc3LjAnLCAnLXRuJywgJzgnLCAnLW1hJywgJzIwMCcsICctbWV0YWxfYmluZGluZycsICctaW1hZScsICc8aW5maWxlLm1hZT4nLCAnLW9tYWUnLCAnPG91dGZpbGUubWFlPic=

> <r_epik_Ionization_Penalty>
6.22372

> <r_epik_Ionization_Penalty_Charging>
6.22362

> <r_epik_Ionization_Penalty_Neutral>
9.65074e-05

> <r_epik_State_Penalty>
6.22363

> <r_epik_Charging_Adjusted_Penalty>
12.4472

> <i_epik_Tot_Q>
0

> <i_epik_Tot_abs_Q>
2

> <r_epik_Metal_State_Penalty>
2.16675

> <b_epik_Metal_Only>
1

> <s_lp_Force_Field>
OPLS_2005

> <r_lp_Energy>
11.9993

> <b_lp_Chiralities_Consistent>
1

> <s_lp_Variant>
AV-unprocessed.smi:1978-14

> <Gold.Version>
5.8.1

> <Gold.Id.Protein>
6NUR|6NUR_protein|mol2

> <Gold.PLP.Fitness>
42.6605

> <Gold.PLP.PLP>
-26.8440

> <Gold.PLP.part.hbond>
-4.0000

> <Gold.PLP.part.metal>
0.0000

> <Gold.PLP.part.buried>
-3.4338

> <Gold.PLP.part.nonpolar>
-19.8787

> <Gold.PLP.part.repulsive>
0.0119

> <Gold.PLP.ligand.clash>
0.0000

> <Gold.PLP.ligand.torsion>
0.8700

> <Gold.PLP.Chemscore.Hbond>
5.8060

> <Gold.PLP.Chemscore.CHOScore>
0.0000

> <Gold.PLP.Chemscore.Metal>
0.0000

> <Gold.Chemscore.Hbonds>
donor molecule, donor type, donor heavy atom, donor atom, acceptor molecule, acceptor atom, score
      L1  H    12    44       P1  7948  2.00
      P1  H  6896  6907       L1     5  1.59
      P1  H  6931  6943       L1    20  0.86
      P1  H  6934  6947       L1    20  0.96

> <Gold.PLP.Chemscore.Internal.Correction>
0.1386

> <Gold.Rescore>
     Score         DG    S(hbond)    S(metal)    S(lipo)     H(rot)  DE(clash)    DE(int)     intcor
     13.40     -16.82       2.36        0.00      62.71       1.52       0.04       3.37       ----

> <Gold.Chemscore.Fitness>
13.4009

> <Gold.Chemscore.DG>
-16.8191

> <Gold.Chemscore.ZeroCoef>
-5.4800

> <Gold.Chemscore.Hbond>
2.3623

> <Gold.Chemscore.Metal>
0.0000

> <Gold.Chemscore.Lipo>
62.7148

> <Gold.Chemscore.Internal_Hbond>
0.0000

> <Gold.Chemscore.DEClash>
0.0450

> <Gold.Chemscore.DEInternal>
3.3733

> <Gold.Chemscore.Rot>
1.5190

> <Gold.Chemscore.Internal.Correction>
   9.000000E+99

> <Gold.Chemscore.Hbonds>
donor molecule, donor type, donor heavy atom, donor atom, acceptor molecule, acceptor atom, score
      L1  H    12    44       P1  7948  0.88
      P1  H  6896  6907       L1     5  0.27
      P1  H  6931  6943       L1    20  0.22
      P1  H  6934  6947       L1    20  0.35

> <Gold.Chemscore.Hbond.Weighted>
-7.8901

> <Gold.Chemscore.Metal.Weighted>
-0.0000

> <Gold.Chemscore.Lipo.Weighted>
-7.3376

> <Gold.Chemscore.Internal_Hbond.Weighted>
0.0000

> <Gold.Chemscore.DEClash.Weighted>
0.0450

> <Gold.Chemscore.DEInternal.Weighted>
3.3733

> <Gold.Chemscore.Rot.Weighted>
3.8886

> <Gold.Chemscore.Internal.Correction.Weighted>
   9.000000E+99

> <Gold.Protein.RotatedTorsions>
[ 6907 6896 6895 6894 ] final  -99.08 input  -60.11 | X-H torsion
[ 7974 7965 7964 7962 ] final   93.33 input  175.53 | X-H torsion
[ 8008 7997 7996 7995 ] final -128.21 input   59.86 | X-H torsion
[ 10167 10162 10161 10158 ] final   66.28 input  -65.29 | X-H torsion
[ 10718 10713 10712 10709 ] final -113.88 input   66.30 | X-H torsion
[ 10763 10752 10751 10750 ] final  142.31 input  -60.55 | X-H torsion
[ 11005 11000 10999 10996 ] final  -18.09 input  -57.11 | X-H torsion

> <Gold.Protein.ActiveResidues>
 VAL166  LYS551  ARG553  GLY616  TRP617  ASP618  TYR619  PRO620  LYS621  CYS622 
 ASP623  PHE694  ASN695  SER759  ASP760  ASP761  ALA762  ILE779  LEU786  VAL792 
 PHE793  MET794  SER795  GLU796  ALA797  LYS798  CYS799  TRP800  GLU811  SER814 

> <Gold.Protein.RotatedAtoms>
  150.7068  134.1095  159.3994 H   0  0  0  0  0  0  0  0  0  0  0  0  # atno 6907 bound_to 6896
  151.9082  135.0348  160.0521 H   0  0  0  0  0  0  0  0  0  0  0  0  # atno 6908 bound_to 6896
  152.2358  133.5059  159.5278 H   0  0  0  0  0  0  0  0  0  0  0  0  # atno 6909 bound_to 6896
  145.4804  139.2278  143.2885 H   0  0  0  0  0  0  0  0  0  0  0  0  # atno 7974 bound_to 7965
  155.2590  140.0435  157.2995 H   0  0  0  0  0  0  0  0  0  0  0  0  # atno 8008 bound_to 7997
  154.5722  140.2377  155.8144 H   0  0  0  0  0  0  0  0  0  0  0  0  # atno 8009 bound_to 7997
  156.2131  140.2993  155.9786 H   0  0  0  0  0  0  0  0  0  0  0  0  # atno 8010 bound_to 7997
  140.1021  144.4894  150.7031 H   0  0  0  0  0  0  0  0  0  0  0  0  # atno 10167 bound_to 10162
  156.0794  130.5996  150.8700 H   0  0  0  0  0  0  0  0  0  0  0  0  # atno 10718 bound_to 10713
  153.9537  135.2967  155.3437 H   0  0  0  0  0  0  0  0  0  0  0  0  # atno 10763 bound_to 10752
  154.7412  135.5024  153.9129 H   0  0  0  0  0  0  0  0  0  0  0  0  # atno 10764 bound_to 10752
  153.0981  135.6726  153.9834 H   0  0  0  0  0  0  0  0  0  0  0  0  # atno 10765 bound_to 10752
  140.8233  133.8052  155.9682 H   0  0  0  0  0  0  0  0  0  0  0  0  # atno 11005 bound_to 11000
  146.2344  140.5590  142.8961 LP  0  0  0  0  0  0  0  0  0  0  0  0  # atno 17320 bound_to 7965
  144.7892  140.5998  143.6553 LP  0  0  0  0  0  0  0  0  0  0  0  0  # atno 17321 bound_to 7965
  140.6972  143.2411  151.4968 LP  0  0  0  0  0  0  0  0  0  0  0  0  # atno 17342 bound_to 10162
  139.5665  144.2029  152.1773 LP  0  0  0  0  0  0  0  0  0  0  0  0  # atno 17343 bound_to 10162
  157.5904  131.0944  150.9127 LP  0  0  0  0  0  0  0  0  0  0  0  0  # atno 17370 bound_to 10713
  156.9304  130.5348  149.5279 LP  0  0  0  0  0  0  0  0  0  0  0  0  # atno 17371 bound_to 10713
  140.9076  134.2301  157.5005 LP  0  0  0  0  0  0  0  0  0  0  0  0  # atno 17394 bound_to 11000
  139.8707  134.9735  156.4812 LP  0  0  0  0  0  0  0  0  0  0  0  0  # atno 17395 bound_to 11000

$$$$
