AV-unprocessed.smi:2290|AV-procd|sdf|9211|dock5
  -GOLD-   2272012433D 1   1.00000     0.00000
 Structure written by MMmdl.
 38 39  0  0  0  0  0  0  0  0  1 V2000
  151.8429  145.3057  159.4618 C   0  0  0  0  0  0  0  0  0  0  0  0
  151.7554  143.8818  158.9418 C   0  0  0  0  0  0  0  0  0  0  0  0
  151.0874  143.7235  157.7242 N   0  0  0  0  0  0  0  0  0  0  0  0
  150.9643  142.5459  157.2045 C   0  0  0  0  0  0  0  0  0  0  0  0
  151.4899  141.4044  157.8312 N   0  0  0  0  0  0  0  0  0  0  0  0
  151.2725  140.1231  157.1395 C   0  0  0  0  0  0  0  0  0  0  0  0
  151.4845  140.2444  155.6138 C   0  0  1  0  0  0  0  0  0  0  0  0
  152.6985  139.6294  155.2332 O   0  0  0  0  0  0  0  0  0  0  0  0
  150.3585  139.5927  154.7950 C   0  0  0  0  0  0  0  0  0  0  0  0
  149.1145  140.1865  155.1295 O   0  0  0  0  0  0  0  0  0  0  0  0
  148.1819  140.1502  154.0622 C   0  0  0  0  0  0  0  0  0  0  0  0
  147.1577  141.2152  154.3020 C   0  0  0  0  0  0  0  0  0  0  0  0
  146.9275  142.3178  153.5193 C   0  0  0  0  0  0  0  0  0  0  0  0
  145.8866  143.1562  154.0159 C   0  0  0  0  0  0  0  0  0  0  0  0
  145.3336  142.6853  155.1765 C   0  0  0  0  0  0  0  0  0  0  0  0
  146.0854  141.1986  155.6851 S   0  0  0  0  0  0  0  0  0  0  0  0
  152.1466  141.4682  159.0255 C   0  0  0  0  0  0  0  0  0  0  0  0
  152.5876  140.4572  159.5759 O   0  0  0  0  0  0  0  0  0  0  0  0
  152.2835  142.8153  159.6024 C   0  0  0  0  0  0  0  0  0  0  0  0
  153.0210  142.9270  160.9310 C   0  0  0  0  0  0  0  0  0  0  0  0
  152.8844  145.6143  159.5562 H   0  0  0  0  0  0  0  0  0  0  0  0
  151.3649  145.3854  160.4383 H   0  0  0  0  0  0  0  0  0  0  0  0
  151.3464  146.0063  158.7892 H   0  0  0  0  0  0  0  0  0  0  0  0
  150.4473  142.3676  156.2600 H   0  0  0  0  0  0  0  0  0  0  0  0
  151.8928  139.3236  157.5507 H   0  0  0  0  0  0  0  0  0  0  0  0
  150.2501  139.7945  157.3360 H   0  0  0  0  0  0  0  0  0  0  0  0
  151.5446  141.2936  155.3219 H   0  0  0  0  0  0  0  0  0  0  0  0
  152.6754  138.7268  155.5135 H   0  0  0  0  0  0  0  0  0  0  0  0
  150.5507  139.7519  153.7329 H   0  0  0  0  0  0  0  0  0  0  0  0
  150.3329  138.5139  154.9587 H   0  0  0  0  0  0  0  0  0  0  0  0
  148.6857  140.3254  153.1106 H   0  0  0  0  0  0  0  0  0  0  0  0
  147.7010  139.1721  154.0127 H   0  0  0  0  0  0  0  0  0  0  0  0
  147.4670  142.5496  152.6128 H   0  0  0  0  0  0  0  0  0  0  0  0
  145.5850  144.0627  153.5121 H   0  0  0  0  0  0  0  0  0  0  0  0
  144.5362  143.1191  155.7616 H   0  0  0  0  0  0  0  0  0  0  0  0
  152.5025  142.3513  161.6983 H   0  0  0  0  0  0  0  0  0  0  0  0
  153.1070  143.9510  161.2903 H   0  0  0  0  0  0  0  0  0  0  0  0
  154.0314  142.5285  160.8345 H   0  0  0  0  0  0  0  0  0  0  0  0
  1  2  1  0  0  0  0
  1 21  1  0  0  0  0
  1 22  1  0  0  0  0
  1 23  1  0  0  0  0
  2 19  2  0  0  0  0
  2  3  1  0  0  0  0
  3  4  2  0  0  0  0
  4  5  1  0  0  0  0
  4 24  1  0  0  0  0
  5  6  1  0  0  0  0
  5 17  1  0  0  0  0
  6  7  1  0  0  0  0
  6 25  1  0  0  0  0
  6 26  1  0  0  0  0
  7  8  1  0  0  0  0
  7  9  1  0  0  0  0
  7 27  1  0  0  0  0
  8 28  1  0  0  0  0
  9 10  1  0  0  0  0
  9 29  1  0  0  0  0
  9 30  1  0  0  0  0
 10 11  1  0  0  0  0
 11 12  1  0  0  0  0
 11 31  1  0  0  0  0
 11 32  1  0  0  0  0
 12 16  1  0  0  0  0
 12 13  2  0  0  0  0
 13 14  1  0  0  0  0
 13 33  1  0  0  0  0
 14 15  2  0  0  0  0
 14 34  1  0  0  0  0
 15 16  1  0  0  0  0
 15 35  1  0  0  0  0
 17 18  2  0  0  0  0
 17 19  1  0  0  0  0
 19 20  1  0  0  0  0
 20 36  1  0  0  0  0
 20 37  1  0  0  0  0
 20 38  1  0  0  0  0
M  END
> <s_m_source_file>
AV-unprocessed.smi

> <i_m_source_file_index>
2290

> <i_lp_mmshare_version>
43012

> <i_f3d_flags>
0

> <s_epik_input>
W0NIM11jMW5bY0hdbihjKD1PKWMxW0NIM10pW0NIMl1bQ0BIXShbT0hdKVtDSDJdT1tDSDJdYzJbY0hdW2NIXVtjSF1zMg==

> <s_epik_cmdline>
J2VwaWtfcHl0aG9uJywgJy1waCcsICc3LjAnLCAnLXRuJywgJzgnLCAnLW1hJywgJzIwMCcsICctbWV0YWxfYmluZGluZycsICctaW1hZScsICc8aW5maWxlLm1hZT4nLCAnLW9tYWUnLCAnPG91dGZpbGUubWFlPic=

> <r_lp_tautomer_probability>
1

> <r_epik_Ionization_Penalty>
4.77825e-05

> <r_epik_Ionization_Penalty_Charging>
1.20754e-07

> <r_epik_Ionization_Penalty_Neutral>
4.76618e-05

> <r_epik_State_Penalty>
-0

> <r_epik_Charging_Adjusted_Penalty>
1.20754e-07

> <i_epik_Tot_Q>
0

> <i_epik_Tot_abs_Q>
0

> <r_epik_Metal_State_Penalty>
-0

> <b_epik_Metal_Only>
0

> <s_lp_Force_Field>
OPLS_2005

> <r_lp_Energy>
16.3979

> <b_lp_Chiralities_Consistent>
1

> <s_lp_Variant>
AV-unprocessed.smi:2290-2

> <Gold.Version>
5.8.1

> <Gold.Id.Protein>
6NUR|6NUR_protein|mol2

> <Gold.PLP.Fitness>
46.1081

> <Gold.PLP.PLP>
-45.2442

> <Gold.PLP.part.hbond>
-1.9114

> <Gold.PLP.part.metal>
0.0000

> <Gold.PLP.part.buried>
-5.7868

> <Gold.PLP.part.nonpolar>
-37.9465

> <Gold.PLP.part.repulsive>
0.2253

> <Gold.PLP.ligand.clash>
0.0000

> <Gold.PLP.ligand.torsion>
1.2175

> <Gold.PLP.Chemscore.Hbond>
1.0000

> <Gold.PLP.Chemscore.CHOScore>
0.0693

> <Gold.PLP.Chemscore.Metal>
0.0000

> <Gold.Chemscore.Hbonds>
donor molecule, donor type, donor heavy atom, donor atom, acceptor molecule, acceptor atom, score
      P1  H  7997  8009       L1     8  1.00
      L1  C     4    24       P1  8028  0.06

> <Gold.PLP.Chemscore.Internal.Correction>
0.0909

> <Gold.Rescore>
     Score         DG    S(hbond)    S(metal)    S(lipo)     H(rot)  DE(clash)    DE(int)     intcor
     11.85     -13.43       0.90        0.00      98.23       2.55       0.14       1.44       ----

> <Gold.Chemscore.Fitness>
11.8481

> <Gold.Chemscore.DG>
-13.4345

> <Gold.Chemscore.ZeroCoef>
-5.4800

> <Gold.Chemscore.Hbond>
0.8956

> <Gold.Chemscore.Metal>
0.0000

> <Gold.Chemscore.Lipo>
98.2310

> <Gold.Chemscore.Internal_Hbond>
0.0000

> <Gold.Chemscore.DEClash>
0.1449

> <Gold.Chemscore.DEInternal>
1.4414

> <Gold.Chemscore.Rot>
2.5507

> <Gold.Chemscore.Internal.Correction>
   9.000000E+99

> <Gold.Chemscore.Hbonds>
donor molecule, donor type, donor heavy atom, donor atom, acceptor molecule, acceptor atom, score
      P1  H  7997  8009       L1     8  0.29

> <Gold.Chemscore.Hbond.Weighted>
-2.9913

> <Gold.Chemscore.Metal.Weighted>
-0.0000

> <Gold.Chemscore.Lipo.Weighted>
-11.4930

> <Gold.Chemscore.Internal_Hbond.Weighted>
0.0000

> <Gold.Chemscore.DEClash.Weighted>
0.1449

> <Gold.Chemscore.DEInternal.Weighted>
1.4414

> <Gold.Chemscore.Rot.Weighted>
6.5298

> <Gold.Chemscore.Internal.Correction.Weighted>
   9.000000E+99

> <Gold.Protein.RotatedTorsions>
[ 6907 6896 6895 6894 ] final  -77.26 input  -60.11 | X-H torsion
[ 7974 7965 7964 7962 ] final  139.31 input  175.53 | X-H torsion
[ 8008 7997 7996 7995 ] final -137.23 input   59.86 | X-H torsion
[ 10167 10162 10161 10158 ] final  102.18 input  -65.29 | X-H torsion
[ 10718 10713 10712 10709 ] final  -69.43 input   66.30 | X-H torsion
[ 10763 10752 10751 10750 ] final  158.65 input  -60.55 | X-H torsion
[ 11005 11000 10999 10996 ] final   87.30 input  -57.11 | X-H torsion

> <Gold.Protein.ActiveResidues>
 VAL166  LYS551  ARG553  GLY616  TRP617  ASP618  TYR619  PRO620  LYS621  CYS622 
 ASP623  PHE694  ASN695  SER759  ASP760  ASP761  ALA762  ILE779  LEU786  VAL792 
 PHE793  MET794  SER795  GLU796  ALA797  LYS798  CYS799  TRP800  GLU811  SER814 

> <Gold.Protein.RotatedAtoms>
  150.7004  134.4449  159.5308 H   0  0  0  0  0  0  0  0  0  0  0  0  # atno 6907 bound_to 6896
  152.2152  134.8462  160.0502 H   0  0  0  0  0  0  0  0  0  0  0  0  # atno 6908 bound_to 6896
  151.9332  133.3582  159.3975 H   0  0  0  0  0  0  0  0  0  0  0  0  # atno 6909 bound_to 6896
  144.9290  139.5070  143.5627 H   0  0  0  0  0  0  0  0  0  0  0  0  # atno 7974 bound_to 7965
  155.4084  140.0510  157.3033 H   0  0  0  0  0  0  0  0  0  0  0  0  # atno 8008 bound_to 7997
  154.4957  140.2137  155.9411 H   0  0  0  0  0  0  0  0  0  0  0  0  # atno 8009 bound_to 7997
  156.1403  140.3155  155.8490 H   0  0  0  0  0  0  0  0  0  0  0  0  # atno 8010 bound_to 7997
  139.7373  144.7021  151.0630 H   0  0  0  0  0  0  0  0  0  0  0  0  # atno 10167 bound_to 10162
  156.0456  130.4312  150.2146 H   0  0  0  0  0  0  0  0  0  0  0  0  # atno 10718 bound_to 10713
  154.2194  135.2782  155.2930 H   0  0  0  0  0  0  0  0  0  0  0  0  # atno 10763 bound_to 10752
  154.5714  135.5617  153.7102 H   0  0  0  0  0  0  0  0  0  0  0  0  # atno 10764 bound_to 10752
  153.0045  135.6322  154.2334 H   0  0  0  0  0  0  0  0  0  0  0  0  # atno 10765 bound_to 10752
  139.8923  134.8413  156.2841 H   0  0  0  0  0  0  0  0  0  0  0  0  # atno 11005 bound_to 11000
  146.3239  139.8227  142.8923 LP  0  0  0  0  0  0  0  0  0  0  0  0  # atno 17320 bound_to 7965
  145.3172  141.0235  143.3521 LP  0  0  0  0  0  0  0  0  0  0  0  0  # atno 17321 bound_to 7965
  140.7780  143.4968  150.9822 LP  0  0  0  0  0  0  0  0  0  0  0  0  # atno 17342 bound_to 10162
  139.8657  143.7257  152.3170 LP  0  0  0  0  0  0  0  0  0  0  0  0  # atno 17343 bound_to 10162
  157.0236  130.9987  151.3332 LP  0  0  0  0  0  0  0  0  0  0  0  0  # atno 17370 bound_to 10713
  157.5327  130.8068  149.7935 LP  0  0  0  0  0  0  0  0  0  0  0  0  # atno 17371 bound_to 10713
  141.0020  133.7146  156.0974 LP  0  0  0  0  0  0  0  0  0  0  0  0  # atno 17394 bound_to 11000
  140.7485  134.4071  157.5545 LP  0  0  0  0  0  0  0  0  0  0  0  0  # atno 17395 bound_to 11000

$$$$
