AV-unprocessed.smi:1079|AV-procd|sdf|4704|dock3
  -GOLD-   22720 3223D 1   1.00000     0.00000
 Structure written by MMmdl.
 44 45  0  0  0  0  0  0  0  0  1 V2000
  144.1779  144.6019  154.9023 C   0  0  0  0  0  0  0  0  0  0  0  0
  144.6224  143.5156  155.6946 O   0  0  0  0  0  0  0  0  0  0  0  0
  145.8520  142.9752  155.2392 C   0  0  0  0  0  0  0  0  0  0  0  0
  146.1007  141.6205  155.9233 C   0  0  0  0  0  0  0  0  0  0  0  0
  147.4084  141.0670  155.6267 N   0  0  0  0  0  0  0  0  0  0  0  0
  148.3862  140.8154  156.5945 C   0  0  0  0  0  0  0  0  0  0  0  0
  148.0908  141.1180  157.9157 N   0  0  0  0  0  0  0  0  0  0  0  0
  149.6142  140.3169  156.2615 C   0  0  0  0  0  0  0  0  0  0  0  0
  150.5845  140.0303  157.2405 N   0  0  0  0  0  0  0  0  0  0  0  0
  151.8675  140.7430  157.1376 C   0  0  0  0  0  0  0  0  0  0  0  0
  152.0078  141.8532  158.1653 C   0  0  0  0  0  0  0  0  0  0  0  0
  151.2821  143.0533  158.0109 C   0  0  0  0  0  0  0  0  0  0  0  0
  151.3986  144.0802  158.9673 C   0  0  0  0  0  0  0  0  0  0  0  0
  152.2426  143.9118  160.0818 C   0  0  0  0  0  0  0  0  0  0  0  0
  152.9691  142.7158  160.2397 C   0  0  0  0  0  0  0  0  0  0  0  0
  152.8523  141.6883  159.2834 C   0  0  0  0  0  0  0  0  0  0  0  0
  150.3700  139.1153  158.2216 C   0  0  0  0  0  0  0  0  0  0  0  0
  149.0747  138.2947  158.2155 C   0  0  0  0  0  0  0  0  0  0  0  0
  151.1905  138.8908  159.1115 O   0  0  0  0  0  0  0  0  0  0  0  0
  149.9380  140.0009  154.8631 C   0  0  0  0  0  0  0  0  0  0  0  0
  150.9959  139.5173  154.4619 O   0  0  0  0  0  0  0  0  0  0  0  0
  148.9294  140.2905  153.9484 N   0  0  0  0  0  0  0  0  0  0  0  0
  147.6830  140.8211  154.2599 C   0  0  0  0  0  0  0  0  0  0  0  0
  146.8822  141.0520  153.3532 O   0  0  0  0  0  0  0  0  0  0  0  0
  149.1204  140.1012  152.9752 H   0  0  0  0  0  0  0  0  0  0  0  0
  143.2315  144.9762  155.2928 H   0  0  0  0  0  0  0  0  0  0  0  0
  144.0186  144.2966  153.8673 H   0  0  0  0  0  0  0  0  0  0  0  0
  144.8968  145.4220  154.9195 H   0  0  0  0  0  0  0  0  0  0  0  0
  145.8087  142.8341  154.1584 H   0  0  0  0  0  0  0  0  0  0  0  0
  146.6715  143.6664  155.4423 H   0  0  0  0  0  0  0  0  0  0  0  0
  146.0107  141.6955  157.0062 H   0  0  0  0  0  0  0  0  0  0  0  0
  145.3551  140.8788  155.6309 H   0  0  0  0  0  0  0  0  0  0  0  0
  147.1978  141.5091  158.1803 H   0  0  0  0  0  0  0  0  0  0  0  0
  148.6741  140.7909  158.6728 H   0  0  0  0  0  0  0  0  0  0  0  0
  152.7081  140.0525  157.2257 H   0  0  0  0  0  0  0  0  0  0  0  0
  151.9715  141.1868  156.1465 H   0  0  0  0  0  0  0  0  0  0  0  0
  150.6298  143.1864  157.1602 H   0  0  0  0  0  0  0  0  0  0  0  0
  150.8397  144.9964  158.8467 H   0  0  0  0  0  0  0  0  0  0  0  0
  152.3316  144.6995  160.8154 H   0  0  0  0  0  0  0  0  0  0  0  0
  153.6156  142.5856  161.0950 H   0  0  0  0  0  0  0  0  0  0  0  0
  153.4099  140.7723  159.4128 H   0  0  0  0  0  0  0  0  0  0  0  0
  148.8883  137.8577  157.2340 H   0  0  0  0  0  0  0  0  0  0  0  0
  148.2220  138.9144  158.4926 H   0  0  0  0  0  0  0  0  0  0  0  0
  149.1382  137.4768  158.9342 H   0  0  0  0  0  0  0  0  0  0  0  0
  1  2  1  0  0  0  0
  1 26  1  0  0  0  0
  1 27  1  0  0  0  0
  1 28  1  0  0  0  0
  2  3  1  0  0  0  0
  3  4  1  0  0  0  0
  3 29  1  0  0  0  0
  3 30  1  0  0  0  0
  4  5  1  0  0  0  0
  4 31  1  0  0  0  0
  4 32  1  0  0  0  0
  5 23  1  0  0  0  0
  5  6  1  0  0  0  0
  6  7  1  0  0  0  0
  6  8  2  0  0  0  0
  7 33  1  0  0  0  0
  7 34  1  0  0  0  0
  8  9  1  0  0  0  0
  8 20  1  0  0  0  0
  9 10  1  0  0  0  0
  9 17  1  0  0  0  0
 10 11  1  0  0  0  0
 10 35  1  0  0  0  0
 10 36  1  0  0  0  0
 11 16  1  0  0  0  0
 11 12  2  0  0  0  0
 12 13  1  0  0  0  0
 12 37  1  0  0  0  0
 13 14  2  0  0  0  0
 13 38  1  0  0  0  0
 14 15  1  0  0  0  0
 14 39  1  0  0  0  0
 15 16  2  0  0  0  0
 15 40  1  0  0  0  0
 16 41  1  0  0  0  0
 17 18  1  0  0  0  0
 17 19  2  0  0  0  0
 18 42  1  0  0  0  0
 18 43  1  0  0  0  0
 18 44  1  0  0  0  0
 20 21  2  0  0  0  0
 20 22  1  0  0  0  0
 22 25  1  0  0  0  0
 22 23  1  0  0  0  0
 23 24  2  0  0  0  0
M  END
> <s_m_source_file>
AV-unprocessed.smi

> <i_m_source_file_index>
1079

> <i_lp_mmshare_version>
43012

> <i_f3d_flags>
0

> <s_epik_input>
W0NIM11PW0NIMl1bQ0gyXW4xYyhbTkgyXSljKGMoPU8pW25IXWMxPU8pTihDKD1PKVtDSDNdKVtDSDJdYzJbY0hdW2NIXVtjSF1bY0hdW2NIXTI=

> <s_epik_cmdline>
J2VwaWtfcHl0aG9uJywgJy1waCcsICc3LjAnLCAnLXRuJywgJzgnLCAnLW1hJywgJzIwMCcsICctbWV0YWxfYmluZGluZycsICctaW1hZScsICc8aW5maWxlLm1hZT4nLCAnLW9tYWUnLCAnPG91dGZpbGUubWFlPic=

> <r_lp_tautomer_probability>
1

> <r_epik_Ionization_Penalty>
1.40243e-05

> <r_epik_Ionization_Penalty_Charging>
7.95939e-06

> <r_epik_Ionization_Penalty_Neutral>
6.06489e-06

> <r_epik_State_Penalty>
-0

> <r_epik_Charging_Adjusted_Penalty>
7.95939e-06

> <i_epik_Tot_Q>
0

> <i_epik_Tot_abs_Q>
0

> <r_epik_Metal_State_Penalty>
0.00752988

> <b_epik_Metal_Only>
0

> <s_epik_Chemistry_Notes>
This compound has an imine and may undergo hydrolysis.

> <s_lp_Force_Field>
OPLS_2005

> <r_lp_Energy>
29.3793

> <b_lp_Chiralities_Consistent>
1

> <s_lp_Variant>
AV-unprocessed.smi:1079-1

> <Gold.Version>
5.8.1

> <Gold.Id.Protein>
6NUR|6NUR_protein|mol2

> <Gold.PLP.Fitness>
45.8337

> <Gold.PLP.PLP>
-40.5939

> <Gold.PLP.part.hbond>
-2.3948

> <Gold.PLP.part.metal>
0.0000

> <Gold.PLP.part.buried>
-6.7879

> <Gold.PLP.part.nonpolar>
-32.5218

> <Gold.PLP.part.repulsive>
0.7552

> <Gold.PLP.ligand.clash>
0.0000

> <Gold.PLP.ligand.torsion>
1.6058

> <Gold.PLP.Chemscore.Hbond>
2.0000

> <Gold.PLP.Chemscore.CHOScore>
0.0000

> <Gold.PLP.Chemscore.Metal>
0.0000

> <Gold.Chemscore.Hbonds>
donor molecule, donor type, donor heavy atom, donor atom, acceptor molecule, acceptor atom, score
      L1  H    22    25       P1  7957  1.00
      P1  H  7989  7998       L1    21  1.00

> <Gold.PLP.Chemscore.Internal.Correction>
2.4514

> <Gold.Rescore>
     Score         DG    S(hbond)    S(metal)    S(lipo)     H(rot)  DE(clash)    DE(int)     intcor
     14.69     -16.72       1.88        0.00      86.59       2.02       0.07       1.95       ----

> <Gold.Chemscore.Fitness>
14.6933

> <Gold.Chemscore.DG>
-16.7219

> <Gold.Chemscore.ZeroCoef>
-5.4800

> <Gold.Chemscore.Hbond>
1.8786

> <Gold.Chemscore.Metal>
0.0000

> <Gold.Chemscore.Lipo>
86.5890

> <Gold.Chemscore.Internal_Hbond>
0.0000

> <Gold.Chemscore.DEClash>
0.0737

> <Gold.Chemscore.DEInternal>
1.9548

> <Gold.Chemscore.Rot>
2.0170

> <Gold.Chemscore.Internal.Correction>
   9.000000E+99

> <Gold.Chemscore.Hbonds>
donor molecule, donor type, donor heavy atom, donor atom, acceptor molecule, acceptor atom, score
      L1  H    22    25       P1  7957  1.00
      P1  H  7989  7998       L1    21  0.30

> <Gold.Chemscore.Hbond.Weighted>
-6.2745

> <Gold.Chemscore.Metal.Weighted>
-0.0000

> <Gold.Chemscore.Lipo.Weighted>
-10.1309

> <Gold.Chemscore.Internal_Hbond.Weighted>
0.0000

> <Gold.Chemscore.DEClash.Weighted>
0.0737

> <Gold.Chemscore.DEInternal.Weighted>
1.9548

> <Gold.Chemscore.Rot.Weighted>
5.1636

> <Gold.Chemscore.Internal.Correction.Weighted>
   9.000000E+99

> <Gold.Protein.RotatedTorsions>
[ 6907 6896 6895 6894 ] final  -65.45 input  -60.11 | X-H torsion
[ 7974 7965 7964 7962 ] final  135.15 input  175.53 | X-H torsion
[ 8008 7997 7996 7995 ] final  116.71 input   59.86 | X-H torsion
[ 10167 10162 10161 10158 ] final   81.82 input  -65.29 | X-H torsion
[ 10718 10713 10712 10709 ] final -155.24 input   66.30 | X-H torsion
[ 10763 10752 10751 10750 ] final  168.12 input  -60.55 | X-H torsion
[ 11005 11000 10999 10996 ] final   30.52 input  -57.11 | X-H torsion

> <Gold.Protein.ActiveResidues>
 VAL166  LYS551  ARG553  GLY616  TRP617  ASP618  TYR619  PRO620  LYS621  CYS622 
 ASP623  PHE694  ASN695  SER759  ASP760  ASP761  ALA762  ILE779  LEU786  VAL792 
 PHE793  MET794  SER795  GLU796  ALA797  LYS798  CYS799  TRP800  GLU811  SER814 

> <Gold.Protein.RotatedAtoms>
  150.7523  134.6159  159.6110 H   0  0  0  0  0  0  0  0  0  0  0  0  # atno 6907 bound_to 6896
  152.3479  134.7042  160.0254 H   0  0  0  0  0  0  0  0  0  0  0  0  # atno 6908 bound_to 6896
  151.7473  133.3289  159.3418 H   0  0  0  0  0  0  0  0  0  0  0  0  # atno 6909 bound_to 6896
  144.9692  139.4624  143.5441 H   0  0  0  0  0  0  0  0  0  0  0  0  # atno 7974 bound_to 7965
  156.2454  140.2912  156.0565 H   0  0  0  0  0  0  0  0  0  0  0  0  # atno 8008 bound_to 7997
  155.1823  140.0404  157.2902 H   0  0  0  0  0  0  0  0  0  0  0  0  # atno 8009 bound_to 7997
  154.6251  140.2485  155.7509 H   0  0  0  0  0  0  0  0  0  0  0  0  # atno 8010 bound_to 7997
  139.9352  144.6126  150.8306 H   0  0  0  0  0  0  0  0  0  0  0  0  # atno 10167 bound_to 10162
  156.5102  130.8431  151.2643 H   0  0  0  0  0  0  0  0  0  0  0  0  # atno 10718 bound_to 10713
  154.3639  135.2753  155.2304 H   0  0  0  0  0  0  0  0  0  0  0  0  # atno 10763 bound_to 10752
  154.4480  135.5938  153.6176 H   0  0  0  0  0  0  0  0  0  0  0  0  # atno 10764 bound_to 10752
  152.9842  135.6035  154.3863 H   0  0  0  0  0  0  0  0  0  0  0  0  # atno 10765 bound_to 10752
  140.2935  134.2837  155.7770 H   0  0  0  0  0  0  0  0  0  0  0  0  # atno 11005 bound_to 11000
  146.3377  139.8893  142.8811 LP  0  0  0  0  0  0  0  0  0  0  0  0  # atno 17320 bound_to 7965
  145.2584  141.0068  143.3841 LP  0  0  0  0  0  0  0  0  0  0  0  0  # atno 17321 bound_to 7965
  140.7626  143.3203  151.2637 LP  0  0  0  0  0  0  0  0  0  0  0  0  # atno 17342 bound_to 10162
  139.6749  143.9954  152.2775 LP  0  0  0  0  0  0  0  0  0  0  0  0  # atno 17343 bound_to 10162
  157.7451  130.9952  150.2735 LP  0  0  0  0  0  0  0  0  0  0  0  0  # atno 17370 bound_to 10713
  156.3248  130.3791  149.7543 LP  0  0  0  0  0  0  0  0  0  0  0  0  # atno 17371 bound_to 10713
  141.2142  133.7600  156.9660 LP  0  0  0  0  0  0  0  0  0  0  0  0  # atno 17394 bound_to 11000
  140.1174  134.9439  157.2153 LP  0  0  0  0  0  0  0  0  0  0  0  0  # atno 17395 bound_to 11000

$$$$
