AV-unprocessed.smi:261|AV-procd|sdf|1996|dock4
  -GOLD-   2262021183D 1   1.00000     0.00000
 Structure written by MMmdl.
 51 54  0  0  0  0  0  0  0  0  1 V2000
  151.5137  130.9148  157.4793 C   0  0  0  0  0  0  0  0  0  0  0  0
  151.2583  131.2579  156.1271 O   0  0  0  0  0  0  0  0  0  0  0  0
  150.4041  132.3828  155.9795 C   0  0  2  0  0  0  0  0  0  0  0  0
  150.1351  132.7550  154.5181 C   0  0  0  0  0  0  0  0  0  0  0  0
  149.7911  134.2533  154.5625 C   0  0  1  0  0  0  0  0  0  0  0  0
  148.2794  134.4890  154.7290 C   0  0  0  0  0  0  0  0  0  0  0  0
  147.5674  134.6307  153.6088 N   0  0  0  0  0  0  0  0  0  0  0  0
  147.7584  134.5308  155.8425 O   0  0  0  0  0  0  0  0  0  0  0  0
  150.5517  134.7383  155.7168 N   0  0  0  0  0  0  0  0  0  0  0  0
  150.9112  136.0400  155.8911 C   0  0  0  0  0  0  0  0  0  0  0  0
  151.3656  136.7339  154.8133 N   0  0  0  0  0  0  0  0  0  0  0  0
  151.7269  138.0145  154.9259 C   0  0  0  0  0  0  0  0  0  0  0  0
  151.7158  138.7903  156.0097 N   0  0  0  0  0  0  0  0  0  0  0  0
  151.2633  138.1066  157.0984 C   0  0  0  0  0  0  0  0  0  0  0  0
  150.8452  136.7440  157.1318 C   0  0  0  0  0  0  0  0  0  0  0  0
  150.4540  136.4150  158.4264 N   0  0  0  0  0  0  0  0  0  0  0  0
  150.6276  137.5113  159.1112 C   0  0  0  0  0  0  0  0  0  0  0  0
  151.1064  138.5785  158.3887 N   0  0  0  0  0  0  0  0  0  0  0  0
  151.3864  139.9142  158.8858 C   0  0  0  0  0  0  0  0  0  0  0  0
  152.7784  140.0184  159.5459 C   0  0  1  0  0  0  0  0  0  0  0  0
  153.7418  139.5761  158.6087 O   0  0  0  0  0  0  0  0  0  0  0  0
  153.1451  141.4573  159.9603 C   0  0  1  0  0  0  0  0  0  0  0  0
  152.7137  142.5398  158.9683 C   0  0  0  0  0  0  0  0  0  0  0  0
  152.6008  143.7895  159.8257 C   0  0  0  0  0  0  0  0  0  0  0  0
  152.5108  143.2473  161.2537 C   0  0  0  0  0  0  0  0  0  0  0  0
  152.4014  141.8382  161.1085 O   0  0  0  0  0  0  0  0  0  0  0  0
  151.0708  133.6451  156.5277 C   0  0  0  0  0  0  0  0  0  0  0  0
  149.4603  132.2239  156.5049 H   0  0  0  0  0  0  0  0  0  0  0  0
  150.1359  134.7277  153.6417 H   0  0  0  0  0  0  0  0  0  0  0  0
  152.1964  130.0660  157.5165 H   0  0  0  0  0  0  0  0  0  0  0  0
  150.5996  130.6297  158.0008 H   0  0  0  0  0  0  0  0  0  0  0  0
  151.9796  131.7427  158.0152 H   0  0  0  0  0  0  0  0  0  0  0  0
  151.0429  132.6110  153.9302 H   0  0  0  0  0  0  0  0  0  0  0  0
  149.3540  132.1430  154.0649 H   0  0  0  0  0  0  0  0  0  0  0  0
  146.5707  134.7825  153.6605 H   0  0  0  0  0  0  0  0  0  0  0  0
  148.0295  134.5803  152.7124 H   0  0  0  0  0  0  0  0  0  0  0  0
  152.0731  138.4844  154.0173 H   0  0  0  0  0  0  0  0  0  0  0  0
  150.4035  137.5729  160.1663 H   0  0  0  0  0  0  0  0  0  0  0  0
  151.3034  140.6200  158.0579 H   0  0  0  0  0  0  0  0  0  0  0  0
  150.6015  140.1740  159.5965 H   0  0  0  0  0  0  0  0  0  0  0  0
  152.8141  139.3666  160.4198 H   0  0  0  0  0  0  0  0  0  0  0  0
  153.8397  138.6406  158.7007 H   0  0  0  0  0  0  0  0  0  0  0  0
  154.2144  141.5488  160.1631 H   0  0  0  0  0  0  0  0  0  0  0  0
  153.4137  142.6586  158.1406 H   0  0  0  0  0  0  0  0  0  0  0  0
  151.7355  142.2969  158.5505 H   0  0  0  0  0  0  0  0  0  0  0  0
  153.4783  144.4274  159.7148 H   0  0  0  0  0  0  0  0  0  0  0  0
  151.7218  144.3747  159.5540 H   0  0  0  0  0  0  0  0  0  0  0  0
  153.4178  143.4831  161.8123 H   0  0  0  0  0  0  0  0  0  0  0  0
  151.6585  143.6498  161.8016 H   0  0  0  0  0  0  0  0  0  0  0  0
  150.8423  133.7746  157.5858 H   0  0  0  0  0  0  0  0  0  0  0  0
  152.1540  133.5958  156.4063 H   0  0  0  0  0  0  0  0  0  0  0  0
  1  2  1  0  0  0  0
  1 30  1  0  0  0  0
  1 31  1  0  0  0  0
  1 32  1  0  0  0  0
  2  3  1  0  0  0  0
  3 28  1  0  0  0  0
  3 27  1  0  0  0  0
  3  4  1  0  0  0  0
  4  5  1  0  0  0  0
  4 33  1  0  0  0  0
  4 34  1  0  0  0  0
  5 29  1  0  0  0  0
  5  6  1  0  0  0  0
  5  9  1  0  0  0  0
  6  7  1  0  0  0  0
  6  8  2  0  0  0  0
  7 35  1  0  0  0  0
  7 36  1  0  0  0  0
  9 10  1  0  0  0  0
  9 27  1  0  0  0  0
 10 15  1  0  0  0  0
 10 11  2  0  0  0  0
 11 12  1  0  0  0  0
 12 13  2  0  0  0  0
 12 37  1  0  0  0  0
 13 14  1  0  0  0  0
 14 18  1  0  0  0  0
 14 15  2  0  0  0  0
 15 16  1  0  0  0  0
 16 17  2  0  0  0  0
 17 18  1  0  0  0  0
 17 38  1  0  0  0  0
 18 19  1  0  0  0  0
 19 20  1  0  0  0  0
 19 39  1  0  0  0  0
 19 40  1  0  0  0  0
 20 21  1  0  0  0  0
 20 22  1  0  0  0  0
 20 41  1  0  0  0  0
 21 42  1  0  0  0  0
 22 26  1  0  0  0  0
 22 23  1  0  0  0  0
 22 43  1  0  0  0  0
 23 24  1  0  0  0  0
 23 44  1  0  0  0  0
 23 45  1  0  0  0  0
 24 25  1  0  0  0  0
 24 46  1  0  0  0  0
 24 47  1  0  0  0  0
 25 26  1  0  0  0  0
 25 48  1  0  0  0  0
 25 49  1  0  0  0  0
 27 50  1  0  0  0  0
 27 51  1  0  0  0  0
M  END
> <s_m_source_file>
AV-unprocessed.smi

> <i_m_source_file_index>
261

> <i_lp_mmshare_version>
43012

> <i_f3d_flags>
0

> <s_epik_input>
W0NIM11PW0NASF0xW0NIMl1bQ0BASF0oQyg9TylbTkgyXSlOKFtDSDJdMSljKG5bY0hdbjIpYyhjMjMpbltjSF1uM1tDSDJdW0NASF0oW09IXSlbQ0BASF00W0NIMl1bQ0gyXVtDSDJdTzQ=

> <s_epik_cmdline>
J2VwaWtfcHl0aG9uJywgJy1waCcsICc3LjAnLCAnLXRuJywgJzgnLCAnLW1hJywgJzIwMCcsICctbWV0YWxfYmluZGluZycsICctaW1hZScsICc8aW5maWxlLm1hZT4nLCAnLW9tYWUnLCAnPG91dGZpbGUubWFlPic=

> <r_lp_tautomer_probability>
1

> <r_epik_Ionization_Penalty>
0.000713824

> <r_epik_Ionization_Penalty_Charging>
0

> <r_epik_Ionization_Penalty_Neutral>
0.000713824

> <r_epik_State_Penalty>
0.000402132

> <r_epik_Charging_Adjusted_Penalty>
0.000402132

> <i_epik_Tot_Q>
0

> <i_epik_Tot_abs_Q>
0

> <r_epik_Metal_State_Penalty>
-0

> <b_epik_Metal_Only>
0

> <s_lp_Force_Field>
OPLS_2005

> <r_lp_Energy>
41.8336

> <b_lp_Chiralities_Consistent>
1

> <s_lp_Variant>
AV-unprocessed.smi:261-14

> <Gold.Version>
5.8.1

> <Gold.Id.Protein>
6NUR|6NUR_protein|mol2

> <Gold.PLP.Fitness>
47.5187

> <Gold.PLP.PLP>
-42.0440

> <Gold.PLP.part.hbond>
-4.0000

> <Gold.PLP.part.metal>
0.0000

> <Gold.PLP.part.buried>
-8.1413

> <Gold.PLP.part.nonpolar>
-30.3215

> <Gold.PLP.part.repulsive>
0.2092

> <Gold.PLP.ligand.clash>
0.0000

> <Gold.PLP.ligand.torsion>
2.1856

> <Gold.PLP.Chemscore.Hbond>
3.2424

> <Gold.PLP.Chemscore.CHOScore>
0.0000

> <Gold.PLP.Chemscore.Metal>
0.0000

> <Gold.Chemscore.Hbonds>
donor molecule, donor type, donor heavy atom, donor atom, acceptor molecule, acceptor atom, score
      L1  H     7    36       P1  7948  0.46
      P1  H  6896  6909       L1    16  0.93
      P1  H  7997  8009       L1    21  1.00
      P1  H 10752 10765       L1    11  0.83

> <Gold.PLP.Chemscore.Internal.Correction>
0.1186

> <Gold.Rescore>
     Score         DG    S(hbond)    S(metal)    S(lipo)     H(rot)  DE(clash)    DE(int)     intcor
     12.20     -14.53       2.15        0.00      85.74       3.18       0.04       2.29       ----

> <Gold.Chemscore.Fitness>
12.1987

> <Gold.Chemscore.DG>
-14.5315

> <Gold.Chemscore.ZeroCoef>
-5.4800

> <Gold.Chemscore.Hbond>
2.1461

> <Gold.Chemscore.Metal>
0.0000

> <Gold.Chemscore.Lipo>
85.7440

> <Gold.Chemscore.Internal_Hbond>
0.0000

> <Gold.Chemscore.DEClash>
0.0396

> <Gold.Chemscore.DEInternal>
2.2932

> <Gold.Chemscore.Rot>
3.1831

> <Gold.Chemscore.Internal.Correction>
   9.000000E+99

> <Gold.Chemscore.Hbonds>
donor molecule, donor type, donor heavy atom, donor atom, acceptor molecule, acceptor atom, score
      L1  H     7    36       P1  7948  0.27
      P1  H  6896  6909       L1    16  0.42
      P1  H  7997  8009       L1    21  0.55
      P1  H 10752 10765       L1    11  0.26

> <Gold.Chemscore.Hbond.Weighted>
-7.1681

> <Gold.Chemscore.Metal.Weighted>
-0.0000

> <Gold.Chemscore.Lipo.Weighted>
-10.0321

> <Gold.Chemscore.Internal_Hbond.Weighted>
0.0000

> <Gold.Chemscore.DEClash.Weighted>
0.0396

> <Gold.Chemscore.DEInternal.Weighted>
2.2932

> <Gold.Chemscore.Rot.Weighted>
8.1486

> <Gold.Chemscore.Internal.Correction.Weighted>
   9.000000E+99

> <Gold.Protein.RotatedTorsions>
[ 6907 6896 6895 6894 ] final   74.97 input  -60.11 | X-H torsion
[ 7974 7965 7964 7962 ] final  179.62 input  175.53 | X-H torsion
[ 8008 7997 7996 7995 ] final  151.52 input   59.86 | X-H torsion
[ 10167 10162 10161 10158 ] final  140.18 input  -65.29 | X-H torsion
[ 10718 10713 10712 10709 ] final -114.57 input   66.30 | X-H torsion
[ 10763 10752 10751 10750 ] final  148.83 input  -60.55 | X-H torsion
[ 11005 11000 10999 10996 ] final  -31.48 input  -57.11 | X-H torsion

> <Gold.Protein.ActiveResidues>
 VAL166  LYS551  ARG553  GLY616  TRP617  ASP618  TYR619  PRO620  LYS621  CYS622 
 ASP623  PHE694  ASN695  SER759  ASP760  ASP761  ALA762  ILE779  LEU786  VAL792 
 PHE793  MET794  SER795  GLU796  ALA797  LYS798  CYS799  TRP800  GLU811  SER814 

> <Gold.Protein.RotatedAtoms>
  152.5003  134.4191  159.9474 H   0  0  0  0  0  0  0  0  0  0  0  0  # atno 6907 bound_to 6896
  151.4163  133.3706  159.2758 H   0  0  0  0  0  0  0  0  0  0  0  0  # atno 6908 bound_to 6896
  150.9255  134.8694  159.7576 H   0  0  0  0  0  0  0  0  0  0  0  0  # atno 6909 bound_to 6896
  144.7144  140.0576  143.6433 H   0  0  0  0  0  0  0  0  0  0  0  0  # atno 7974 bound_to 7965
  156.2670  140.2045  156.6188 H   0  0  0  0  0  0  0  0  0  0  0  0  # atno 8008 bound_to 7997
  154.6773  140.0543  157.0253 H   0  0  0  0  0  0  0  0  0  0  0  0  # atno 8009 bound_to 7997
  155.1051  140.3210  155.4539 H   0  0  0  0  0  0  0  0  0  0  0  0  # atno 8010 bound_to 7997
  139.5056  144.6250  151.5959 H   0  0  0  0  0  0  0  0  0  0  0  0  # atno 10167 bound_to 10162
  156.0838  130.6034  150.8792 H   0  0  0  0  0  0  0  0  0  0  0  0  # atno 10718 bound_to 10713
  154.0613  135.2874  155.3324 H   0  0  0  0  0  0  0  0  0  0  0  0  # atno 10763 bound_to 10752
  154.6807  135.5264  153.8262 H   0  0  0  0  0  0  0  0  0  0  0  0  # atno 10764 bound_to 10752
  153.0521  135.6580  154.0801 H   0  0  0  0  0  0  0  0  0  0  0  0  # atno 10765 bound_to 10752
  140.9472  133.7243  156.1164 H   0  0  0  0  0  0  0  0  0  0  0  0  # atno 11005 bound_to 11000
  145.9891  139.3001  143.0995 LP  0  0  0  0  0  0  0  0  0  0  0  0  # atno 17320 bound_to 7965
  145.8923  140.9296  143.0546 LP  0  0  0  0  0  0  0  0  0  0  0  0  # atno 17321 bound_to 7965
  140.5964  143.9688  150.6357 LP  0  0  0  0  0  0  0  0  0  0  0  0  # atno 17342 bound_to 10162
  140.2886  143.3340  152.1084 LP  0  0  0  0  0  0  0  0  0  0  0  0  # atno 17343 bound_to 10162
  157.5965  131.0943  150.9032 LP  0  0  0  0  0  0  0  0  0  0  0  0  # atno 17370 bound_to 10713
  156.9197  130.5310  149.5279 LP  0  0  0  0  0  0  0  0  0  0  0  0  # atno 17371 bound_to 10713
  140.7653  134.3893  157.5518 LP  0  0  0  0  0  0  0  0  0  0  0  0  # atno 17394 bound_to 11000
  139.8837  134.8988  156.2752 LP  0  0  0  0  0  0  0  0  0  0  0  0  # atno 17395 bound_to 11000

$$$$
