#       Name:                AV-unprocessed.smi:3318
#       Creating user name   scv26
#       Creation time:       Fri Mar 27 19:10:14 2020


#       File generated by GOLD software.
#

@<TRIPOS>MOLECULE
AV-unprocessed.smi:3318
    46    47     1
SMALL
NO_CHARGES


@<TRIPOS>ATOM
      1 ****        -2.0970  -5.6493  -1.8427 C.3            1 S1                 0.0000
      2 ****        -2.3387  -4.1968  -1.4179 C.3            1 S1                 0.0000
      3 ****        -1.3654  -3.7401  -0.3170 C.3            1 S1                 0.0000
      4 ****        -1.6627  -2.3723   0.1814 N.4            1 S1                 1.0000
      5 ****        -1.2735  -1.3003  -0.7733 C.3            1 S1                 0.0000
      6 ****        -1.7093   0.0861  -0.2651 C.3            1 S1                 0.0000
      7 ****        -1.1552   0.3953   1.1407 C.3            1 S1                 0.0000
      8 ****         0.3060   0.6474   1.1389 N.4            1 S1                 1.0000
      9 ****         0.7225   1.9571   0.5943 C.3            1 S1                 0.0000
     10 ****         2.2413   2.1434   0.7160 C.3            1 S1                 0.0000
     11 ****         2.6985   3.4863   0.1790 C.ar           1 S1                 0.0000
     12 ****         3.2857   3.5912  -1.0998 C.ar           1 S1                 0.0000
     13 ****         3.6876   4.8638  -1.5503 C.ar           1 S1                 0.0000
     14 ****         3.4856   5.9757  -0.7100 C.ar           1 S1                 0.0000
     15 ****         2.8886   5.7654   0.5490 C.ar           1 S1                 0.0000
     16 ****         2.4994   4.5493   0.9902 N.ar           1 S1                 0.0000
     17 ****        -1.5098  -0.7626   2.0905 C.3            1 S1                 0.0000
     18 ****        -1.0852  -2.1327   1.5295 C.3            1 S1                 0.0000
     19 ****        -2.7958  -5.9468  -2.6252 H              1 S1                 0.0000
     20 ****        -2.2281  -6.3339  -1.0042 H              1 S1                 0.0000
     21 ****        -1.0871  -5.7835  -2.2312 H              1 S1                 0.0000
     22 ****        -2.2496  -3.5618  -2.2988 H              1 S1                 0.0000
     23 ****        -3.3657  -4.0950  -1.0651 H              1 S1                 0.0000
     24 ****        -1.4461  -4.4445   0.5123 H              1 S1                 0.0000
     25 ****        -0.3328  -3.7928  -0.6658 H              1 S1                 0.0000
     26 ****        -0.1942  -1.3235  -0.9310 H              1 S1                 0.0000
     27 ****        -1.7347  -1.4729  -1.7448 H              1 S1                 0.0000
     28 ****        -1.4229   0.8554  -0.9815 H              1 S1                 0.0000
     29 ****        -2.7993   0.1148  -0.2267 H              1 S1                 0.0000
     30 ****        -1.6384   1.2966   1.5214 H              1 S1                 0.0000
     31 ****         0.6216   0.6158   2.0982 H              1 S1                 0.0000
     32 ****         0.4294   2.0366  -0.4525 H              1 S1                 0.0000
     33 ****         0.2067   2.7512   1.1362 H              1 S1                 0.0000
     34 ****         2.5476   2.0596   1.7600 H              1 S1                 0.0000
     35 ****         2.7597   1.3478   0.1790 H              1 S1                 0.0000
     36 ****         3.4275   2.7204  -1.7231 H              1 S1                 0.0000
     37 ****         4.1423   4.9847  -2.5227 H              1 S1                 0.0000
     38 ****         3.7810   6.9665  -1.0223 H              1 S1                 0.0000
     39 ****         2.7184   6.5954   1.2188 H              1 S1                 0.0000
     40 ****        -1.0578  -0.6017   3.0701 H              1 S1                 0.0000
     41 ****        -2.5883  -0.7694   2.2553 H              1 S1                 0.0000
     42 ****        -1.4174  -2.9133   2.2152 H              1 S1                 0.0000
     43 ****         0.0024  -2.2021   1.4778 H              1 S1                 0.0000
     44 ****        -2.6660  -2.3231   0.2909 H              1 S1                 0.0000
     45 ****         0.7712  -0.0875   0.6258 H              1 S1                 0.0000
     46 ****         2.0767   4.4387   1.8897 LP             1 S1                 0.0000
@<TRIPOS>BOND
    1    1    2 1     
    2    1   19 1     
    3    1   20 1     
    4    1   21 1     
    5    2    3 1     
    6    2   22 1     
    7    2   23 1     
    8    3    4 1     
    9    3   24 1     
   10    3   25 1     
   11    4   18 1     
   12    4    5 1     
   13    4   44 1     
   14    5    6 1     
   15    5   26 1     
   16    5   27 1     
   17    6    7 1     
   18    6   28 1     
   19    6   29 1     
   20    7    8 1     
   21    7   17 1     
   22    7   30 1     
   23    8    9 1     
   24    8   31 1     
   25    8   45 1     
   26    9   10 1     
   27    9   32 1     
   28    9   33 1     
   29   10   11 1     
   30   10   34 1     
   31   10   35 1     
   32   11   16 ar    
   33   11   12 ar    
   34   12   13 ar    
   35   12   36 1     
   36   13   14 ar    
   37   13   37 1     
   38   14   15 ar    
   39   14   38 1     
   40   15   16 ar    
   41   15   39 1     
   42   17   18 1     
   43   17   40 1     
   44   17   41 1     
   45   18   42 1     
   46   18   43 1     
   47   16   46 1     
@<TRIPOS>SUBSTRUCTURE
      1 S1             1
@<TRIPOS>SET
LONE_PAIRS      STATIC     ATOMS    <user>   **** ""
1 46
DONOR_HYDROGENS      STATIC     ATOMS    <user>   **** ""
3 44 31 45
ATOM$BLUE        STATIC     ATOMS    COLORGROUP SYSTEM
1 46
ATOM$RED        STATIC     ATOMS    COLORGROUP SYSTEM
3 44 31 45
