AV-unprocessed.smi:2896|AV-procd|sdf|11136|dock8
  -GOLD-   2272016 13D 1   1.00000     0.00000
 Structure written by MMmdl.
 50 51  0  0  0  0  0  0  0  0  2 V2000
  147.1943  142.1484  153.7695 C   0  0  0  0  0  0  0  0  0  0  0  0
  147.5919  140.6923  154.0703 C   0  0  2  0  0  0  0  0  0  0  0  0
  149.0996  140.6246  154.4003 C   0  0  0  0  0  0  0  0  0  0  0  0
  149.4565  141.4209  155.5714 N   0  0  0  0  0  0  0  0  0  0  0  0
  150.6578  141.4377  156.1755 C   0  0  0  0  0  0  0  0  0  0  0  0
  151.5978  140.7453  155.7818 O   0  0  0  0  0  0  0  0  0  0  0  0
  150.8499  142.3755  157.3947 C   0  0  0  0  0  0  0  0  0  0  0  0
  151.4675  143.7405  156.9950 C   0  0  0  0  0  0  0  0  0  0  0  0
  149.4523  142.6776  157.9926 C   0  0  0  0  0  0  0  0  0  0  0  0
  151.7841  141.6556  158.3864 C   0  0  0  0  0  0  0  0  0  0  0  0
  152.7635  142.3831  159.1055 C   0  0  0  0  0  0  0  0  0  0  0  0
  153.6092  141.7105  160.0070 C   0  0  0  0  0  0  0  0  0  0  0  0
  153.4500  140.3216  160.1629 C   0  0  0  0  0  0  0  0  0  0  0  0
  152.5265  139.6058  159.4898 N   0  0  0  0  0  0  0  0  0  0  0  0
  151.7197  140.2595  158.6265 C   0  0  0  0  0  0  0  0  0  0  0  0
  147.2040  139.7524  152.9020 C   0  0  0  0  0  0  0  0  0  0  0  0
  145.9501  138.9936  153.1435 N   0  3  0  0  0  0  0  0  0  0  0  0
  145.8716  137.7627  152.3209 C   0  0  0  0  0  0  0  0  0  0  0  0
  144.5376  137.0362  152.5610 C   0  0  0  0  0  0  0  0  0  0  0  0
  144.3995  136.7395  153.9447 O   0  0  0  0  0  0  0  0  0  0  0  0
  144.3819  137.9175  154.7409 C   0  0  0  0  0  0  0  0  0  0  0  0
  145.7096  138.6763  154.5735 C   0  0  0  0  0  0  0  0  0  0  0  0
  147.6887  142.5163  152.8697 H   0  0  0  0  0  0  0  0  0  0  0  0
  147.4705  142.8087  154.5921 H   0  0  0  0  0  0  0  0  0  0  0  0
  146.1189  142.2511  153.6246 H   0  0  0  0  0  0  0  0  0  0  0  0
  147.0576  140.3832  154.9685 H   0  0  0  0  0  0  0  0  0  0  0  0
  149.4187  139.5875  154.5179 H   0  0  0  0  0  0  0  0  0  0  0  0
  149.6751  141.0203  153.5630 H   0  0  0  0  0  0  0  0  0  0  0  0
  148.7373  142.0231  155.9458 H   0  0  0  0  0  0  0  0  0  0  0  0
  152.4533  143.6452  156.5391 H   0  0  0  0  0  0  0  0  0  0  0  0
  151.5854  144.3827  157.8686 H   0  0  0  0  0  0  0  0  0  0  0  0
  150.8323  144.2752  156.2870 H   0  0  0  0  0  0  0  0  0  0  0  0
  148.9243  141.7750  158.3038 H   0  0  0  0  0  0  0  0  0  0  0  0
  148.8136  143.1832  157.2669 H   0  0  0  0  0  0  0  0  0  0  0  0
  149.5242  143.3318  158.8622 H   0  0  0  0  0  0  0  0  0  0  0  0
  152.8744  143.4485  158.9691 H   0  0  0  0  0  0  0  0  0  0  0  0
  154.3624  142.2470  160.5648 H   0  0  0  0  0  0  0  0  0  0  0  0
  154.0803  139.7713  160.8456 H   0  0  0  0  0  0  0  0  0  0  0  0
  151.0062  139.6256  158.1236 H   0  0  0  0  0  0  0  0  0  0  0  0
  147.0918  140.3575  152.0009 H   0  0  0  0  0  0  0  0  0  0  0  0
  147.9983  139.0365  152.6900 H   0  0  0  0  0  0  0  0  0  0  0  0
  145.9643  138.0161  151.2642 H   0  0  0  0  0  0  0  0  0  0  0  0
  146.7057  137.1036  152.5677 H   0  0  0  0  0  0  0  0  0  0  0  0
  143.6960  137.6416  152.2197 H   0  0  0  0  0  0  0  0  0  0  0  0
  144.5100  136.1046  151.9953 H   0  0  0  0  0  0  0  0  0  0  0  0
  143.5352  138.5473  154.4627 H   0  0  0  0  0  0  0  0  0  0  0  0
  144.2393  137.6360  155.7845 H   0  0  0  0  0  0  0  0  0  0  0  0
  146.5334  138.0735  154.9593 H   0  0  0  0  0  0  0  0  0  0  0  0
  145.6752  139.5883  155.1681 H   0  0  0  0  0  0  0  0  0  0  0  0
  145.1906  139.5855  152.8386 H   0  0  0  0  0  0  0  0  0  0  0  0
  1  2  1  0  0  0  0
  1 23  1  0  0  0  0
  1 24  1  0  0  0  0
  1 25  1  0  0  0  0
  2  3  1  0  0  0  0
  2 16  1  0  0  0  0
  2 26  1  0  0  0  0
  3  4  1  0  0  0  0
  3 27  1  0  0  0  0
  3 28  1  0  0  0  0
  4  5  1  0  0  0  0
  4 29  1  0  0  0  0
  5  6  2  0  0  0  0
  5  7  1  0  0  0  0
  7  8  1  0  0  0  0
  7  9  1  0  0  0  0
  7 10  1  0  0  0  0
  8 30  1  0  0  0  0
  8 31  1  0  0  0  0
  8 32  1  0  0  0  0
  9 33  1  0  0  0  0
  9 34  1  0  0  0  0
  9 35  1  0  0  0  0
 10 15  1  0  0  0  0
 10 11  2  0  0  0  0
 11 12  1  0  0  0  0
 11 36  1  0  0  0  0
 12 13  2  0  0  0  0
 12 37  1  0  0  0  0
 13 14  1  0  0  0  0
 13 38  1  0  0  0  0
 14 15  2  0  0  0  0
 15 39  1  0  0  0  0
 16 17  1  0  0  0  0
 16 40  1  0  0  0  0
 16 41  1  0  0  0  0
 17 22  1  0  0  0  0
 17 18  1  0  0  0  0
 17 50  1  0  0  0  0
 18 19  1  0  0  0  0
 18 42  1  0  0  0  0
 18 43  1  0  0  0  0
 19 20  1  0  0  0  0
 19 44  1  0  0  0  0
 19 45  1  0  0  0  0
 20 21  1  0  0  0  0
 21 22  1  0  0  0  0
 21 46  1  0  0  0  0
 21 47  1  0  0  0  0
 22 48  1  0  0  0  0
 22 49  1  0  0  0  0
M  CHG  1  17   1
M  END
> <s_m_source_file>
AV-unprocessed.smi

> <i_m_source_file_index>
2896

> <i_lp_mmshare_version>
43012

> <i_f3d_flags>
0

> <s_epik_input>
W0NIMl0xW0NIMl1PW0NIMl1bQ0gyXU4xW0NIMl1bQ0BIXShbQ0gzXSlbQ0gyXVtOSF1DKD1PKUMoW0NIM10pKFtDSDNdKWMyW2NIXVtjSF1bY0hdbltjSF0y

> <s_epik_cmdline>
J2VwaWtfcHl0aG9uJywgJy1waCcsICc3LjAnLCAnLXRuJywgJzgnLCAnLW1hJywgJzIwMCcsICctbWV0YWxfYmluZGluZycsICctaW1hZScsICc8aW5maWxlLm1hZT4nLCAnLW9tYWUnLCAnPG91dGZpbGUubWFlPic=

> <r_epik_Ionization_Penalty>
0.378644

> <r_epik_Ionization_Penalty_Charging>
0.372108

> <r_epik_Ionization_Penalty_Neutral>
0.0065361

> <r_epik_State_Penalty>
0.380038

> <r_epik_Charging_Adjusted_Penalty>
0.752147

> <i_epik_Tot_Q>
1

> <i_epik_Tot_abs_Q>
1

> <r_epik_Metal_State_Penalty>
0.375202

> <b_epik_Metal_Only>
0

> <s_lp_Force_Field>
OPLS_2005

> <r_lp_Energy>
28.248

> <b_lp_Chiralities_Consistent>
1

> <s_lp_Variant>
AV-unprocessed.smi:2896-1

> <Gold.Version>
5.8.1

> <Gold.Id.Protein>
6NUR|6NUR_protein|mol2

> <Gold.PLP.Fitness>
39.5148

> <Gold.PLP.PLP>
-38.5374

> <Gold.PLP.part.hbond>
-2.0418

> <Gold.PLP.part.metal>
0.0000

> <Gold.PLP.part.buried>
-0.3715

> <Gold.PLP.part.nonpolar>
-35.0612

> <Gold.PLP.part.repulsive>
0.1894

> <Gold.PLP.ligand.clash>
0.8012

> <Gold.PLP.ligand.torsion>
2.7796

> <Gold.PLP.Chemscore.Hbond>
2.3848

> <Gold.PLP.Chemscore.CHOScore>
0.0000

> <Gold.PLP.Chemscore.Metal>
0.0000

> <Gold.Chemscore.Hbonds>
donor molecule, donor type, donor heavy atom, donor atom, acceptor molecule, acceptor atom, score
      L1  H    17    50       P1 10175  2.00
      P1  H  7989  7998       L1     6  0.26

> <Gold.PLP.Chemscore.Internal.Correction>
0.1834

> <Gold.Rescore>
     Score         DG    S(hbond)    S(metal)    S(lipo)     H(rot)  DE(clash)    DE(int)     intcor
     13.84     -18.72       1.58        0.00     106.95       1.78       0.70       4.18       ----

> <Gold.Chemscore.Fitness>
13.8437

> <Gold.Chemscore.DG>
-18.7172

> <Gold.Chemscore.ZeroCoef>
-5.4800

> <Gold.Chemscore.Hbond>
1.5790

> <Gold.Chemscore.Metal>
0.0000

> <Gold.Chemscore.Lipo>
106.9459

> <Gold.Chemscore.Internal_Hbond>
0.0000

> <Gold.Chemscore.DEClash>
0.6958

> <Gold.Chemscore.DEInternal>
4.1777

> <Gold.Chemscore.Rot>
1.7771

> <Gold.Chemscore.Internal.Correction>
   9.000000E+99

> <Gold.Chemscore.Hbonds>
donor molecule, donor type, donor heavy atom, donor atom, acceptor molecule, acceptor atom, score
      L1  H    17    50       P1 10175  1.00
      P1  H  7989  7998       L1     6  0.17

> <Gold.Chemscore.Hbond.Weighted>
-5.2739

> <Gold.Chemscore.Metal.Weighted>
-0.0000

> <Gold.Chemscore.Lipo.Weighted>
-12.5127

> <Gold.Chemscore.Internal_Hbond.Weighted>
0.0000

> <Gold.Chemscore.DEClash.Weighted>
0.6958

> <Gold.Chemscore.DEInternal.Weighted>
4.1777

> <Gold.Chemscore.Rot.Weighted>
4.5494

> <Gold.Chemscore.Internal.Correction.Weighted>
   9.000000E+99

> <Gold.Protein.RotatedTorsions>
[ 6907 6896 6895 6894 ] final  -86.93 input  -60.11 | X-H torsion
[ 7974 7965 7964 7962 ] final  -29.42 input  175.53 | X-H torsion
[ 8008 7997 7996 7995 ] final -143.93 input   59.86 | X-H torsion
[ 10167 10162 10161 10158 ] final    3.02 input  -65.29 | X-H torsion
[ 10718 10713 10712 10709 ] final   79.28 input   66.30 | X-H torsion
[ 10763 10752 10751 10750 ] final  -49.17 input  -60.55 | X-H torsion
[ 11005 11000 10999 10996 ] final  174.92 input  -57.11 | X-H torsion

> <Gold.Protein.ActiveResidues>
 VAL166  LYS551  ARG553  GLY616  TRP617  ASP618  TYR619  PRO620  LYS621  CYS622 
 ASP623  PHE694  ASN695  SER759  ASP760  ASP761  ALA762  ILE779  LEU786  VAL792 
 PHE793  MET794  SER795  GLU796  ALA797  LYS798  CYS799  TRP800  GLU811  SER814 

> <Gold.Protein.RotatedAtoms>
  150.6866  134.2974  159.4691 H   0  0  0  0  0  0  0  0  0  0  0  0  # atno 6907 bound_to 6896
  152.0873  134.9428  160.0582 H   0  0  0  0  0  0  0  0  0  0  0  0  # atno 6908 bound_to 6896
  152.0758  133.4094  159.4516 H   0  0  0  0  0  0  0  0  0  0  0  0  # atno 6909 bound_to 6896
  146.1218  140.5409  142.8732 H   0  0  0  0  0  0  0  0  0  0  0  0  # atno 7974 bound_to 7965
  155.5187  140.0589  157.2910 H   0  0  0  0  0  0  0  0  0  0  0  0  # atno 8008 bound_to 7997
  154.4525  140.1956  156.0422 H   0  0  0  0  0  0  0  0  0  0  0  0  # atno 8009 bound_to 7997
  156.0734  140.3257  155.7608 H   0  0  0  0  0  0  0  0  0  0  0  0  # atno 8010 bound_to 7997
  140.6606  143.7312  150.7733 H   0  0  0  0  0  0  0  0  0  0  0  0  # atno 10167 bound_to 10162
  157.6772  130.9907  150.1910 H   0  0  0  0  0  0  0  0  0  0  0  0  # atno 10718 bound_to 10713
  154.0897  135.6579  153.4850 H   0  0  0  0  0  0  0  0  0  0  0  0  # atno 10763 bound_to 10752
  153.0326  135.5199  154.7392 H   0  0  0  0  0  0  0  0  0  0  0  0  # atno 10764 bound_to 10752
  154.6512  135.3001  154.9952 H   0  0  0  0  0  0  0  0  0  0  0  0  # atno 10765 bound_to 10752
  140.3566  134.7149  157.4303 H   0  0  0  0  0  0  0  0  0  0  0  0  # atno 11005 bound_to 11000
  144.7604  140.5408  143.6739 LP  0  0  0  0  0  0  0  0  0  0  0  0  # atno 17320 bound_to 7965
  145.5450  139.1476  143.3426 LP  0  0  0  0  0  0  0  0  0  0  0  0  # atno 17321 bound_to 7965
  140.0980  143.4814  152.2441 LP  0  0  0  0  0  0  0  0  0  0  0  0  # atno 17342 bound_to 10162
  139.5840  144.7523  151.3568 LP  0  0  0  0  0  0  0  0  0  0  0  0  # atno 17343 bound_to 10162
  156.2621  130.3712  149.8119 LP  0  0  0  0  0  0  0  0  0  0  0  0  # atno 17370 bound_to 10713
  156.5861  130.8486  151.3396 LP  0  0  0  0  0  0  0  0  0  0  0  0  # atno 17371 bound_to 10713
  140.0660  134.5929  155.8695 LP  0  0  0  0  0  0  0  0  0  0  0  0  # atno 17394 bound_to 11000
  141.1996  133.6608  156.5855 LP  0  0  0  0  0  0  0  0  0  0  0  0  # atno 17395 bound_to 11000

$$$$
