AV-unprocessed.smi:2242|AV-procd|sdf|9060|dock1
  -GOLD-   2272012263D 1   1.00000     0.00000
 Structure written by MMmdl.
 43 44  0  0  0  0  0  0  0  0  1 V2000
  141.7556  134.2405  152.9611 C   0  0  0  0  0  0  0  0  0  0  0  0
  143.1135  134.1932  152.2931 C   0  0  0  0  0  0  0  0  0  0  0  0
  143.4351  133.1725  151.3781 C   0  0  0  0  0  0  0  0  0  0  0  0
  144.7164  133.1845  150.7928 C   0  0  0  0  0  0  0  0  0  0  0  0
  145.1305  132.1191  149.7997 C   0  0  0  0  0  0  0  0  0  0  0  0
  145.6443  134.1253  151.0699 N   0  0  0  0  0  0  0  0  0  0  0  0
  145.3457  135.1125  151.9504 C   0  0  0  0  0  0  0  0  0  0  0  0
  146.2500  136.1457  152.3124 N   0  0  0  0  0  0  0  0  0  0  0  0
  145.9685  137.3521  152.8351 C   0  0  0  0  0  0  0  0  0  0  0  0
  144.8395  137.7682  153.0969 O   0  0  0  0  0  0  0  0  0  0  0  0
  147.0898  138.0586  153.0450 N   0  0  0  0  0  0  0  0  0  0  0  0
  147.1658  139.4083  153.6054 C   0  0  2  0  0  0  0  0  0  0  0  0
  147.2024  140.4070  152.4359 C   0  0  0  0  0  0  0  0  0  0  0  0
  148.3838  139.5314  154.5594 C   0  0  0  0  0  0  0  0  0  0  0  0
  148.8649  140.9896  154.7205 C   0  0  0  0  0  0  0  0  0  0  0  0
  150.1163  141.0724  155.6086 C   0  0  0  0  0  0  0  0  0  0  0  0
  151.1518  140.2617  155.0674 O   0  0  0  0  0  0  0  0  0  0  0  0
  150.8000  138.8848  155.0209 C   0  0  0  0  0  0  0  0  0  0  0  0
  149.5855  138.6805  154.1006 C   0  0  0  0  0  0  0  0  0  0  0  0
  144.0826  135.1753  152.5803 C   0  0  0  0  0  0  0  0  0  0  0  0
  141.1236  133.4137  152.6353 H   0  0  0  0  0  0  0  0  0  0  0  0
  141.2480  135.1745  152.7189 H   0  0  0  0  0  0  0  0  0  0  0  0
  141.8660  134.1794  154.0440 H   0  0  0  0  0  0  0  0  0  0  0  0
  142.7196  132.4014  151.1316 H   0  0  0  0  0  0  0  0  0  0  0  0
  144.3299  131.3973  149.6356 H   0  0  0  0  0  0  0  0  0  0  0  0
  146.0049  131.5801  150.1651 H   0  0  0  0  0  0  0  0  0  0  0  0
  145.3822  132.5725  148.8405 H   0  0  0  0  0  0  0  0  0  0  0  0
  147.2255  135.9433  152.1517 H   0  0  0  0  0  0  0  0  0  0  0  0
  147.9682  137.6267  152.7979 H   0  0  0  0  0  0  0  0  0  0  0  0
  146.2641  139.6189  154.1831 H   0  0  0  0  0  0  0  0  0  0  0  0
  147.1226  141.4370  152.7819 H   0  0  0  0  0  0  0  0  0  0  0  0
  146.3689  140.2387  151.7528 H   0  0  0  0  0  0  0  0  0  0  0  0
  148.1251  140.3150  151.8620 H   0  0  0  0  0  0  0  0  0  0  0  0
  148.0782  139.1736  155.5440 H   0  0  0  0  0  0  0  0  0  0  0  0
  149.0875  141.4140  153.7405 H   0  0  0  0  0  0  0  0  0  0  0  0
  148.0830  141.6109  155.1573 H   0  0  0  0  0  0  0  0  0  0  0  0
  150.4688  142.1026  155.6625 H   0  0  0  0  0  0  0  0  0  0  0  0
  149.8897  140.7605  156.6293 H   0  0  0  0  0  0  0  0  0  0  0  0
  151.6522  138.3177  154.6464 H   0  0  0  0  0  0  0  0  0  0  0  0
  150.5918  138.5173  156.0269 H   0  0  0  0  0  0  0  0  0  0  0  0
  149.3294  137.6217  154.0910 H   0  0  0  0  0  0  0  0  0  0  0  0
  149.8583  138.9464  153.0784 H   0  0  0  0  0  0  0  0  0  0  0  0
  143.8563  135.9675  153.2796 H   0  0  0  0  0  0  0  0  0  0  0  0
  1  2  1  0  0  0  0
  1 21  1  0  0  0  0
  1 22  1  0  0  0  0
  1 23  1  0  0  0  0
  2 20  1  0  0  0  0
  2  3  2  0  0  0  0
  3  4  1  0  0  0  0
  3 24  1  0  0  0  0
  4  5  1  0  0  0  0
  4  6  2  0  0  0  0
  5 25  1  0  0  0  0
  5 26  1  0  0  0  0
  5 27  1  0  0  0  0
  6  7  1  0  0  0  0
  7  8  1  0  0  0  0
  7 20  2  0  0  0  0
  8  9  1  0  0  0  0
  8 28  1  0  0  0  0
  9 10  2  0  0  0  0
  9 11  1  0  0  0  0
 11 12  1  0  0  0  0
 11 29  1  0  0  0  0
 12 13  1  0  0  0  0
 12 14  1  0  0  0  0
 12 30  1  0  0  0  0
 13 31  1  0  0  0  0
 13 32  1  0  0  0  0
 13 33  1  0  0  0  0
 14 19  1  0  0  0  0
 14 15  1  0  0  0  0
 14 34  1  0  0  0  0
 15 16  1  0  0  0  0
 15 35  1  0  0  0  0
 15 36  1  0  0  0  0
 16 17  1  0  0  0  0
 16 37  1  0  0  0  0
 16 38  1  0  0  0  0
 17 18  1  0  0  0  0
 18 19  1  0  0  0  0
 18 39  1  0  0  0  0
 18 40  1  0  0  0  0
 19 41  1  0  0  0  0
 19 42  1  0  0  0  0
 20 43  1  0  0  0  0
M  END
> <s_m_source_file>
AV-unprocessed.smi

> <i_m_source_file_index>
2242

> <i_lp_mmshare_version>
43012

> <i_f3d_flags>
0

> <s_epik_input>
W0NIM11jMVtjSF1jKFtDSDNdKW5jKFtjSF0xKVtOSF1DKD1PKVtOSF1bQ0BIXShbQ0gzXSlbQ0hdMltDSDJdW0NIMl1PW0NIMl1bQ0gyXTI=

> <s_epik_cmdline>
J2VwaWtfcHl0aG9uJywgJy1waCcsICc3LjAnLCAnLXRuJywgJzgnLCAnLW1hJywgJzIwMCcsICctbWV0YWxfYmluZGluZycsICctaW1hZScsICc8aW5maWxlLm1hZT4nLCAnLW9tYWUnLCAnPG91dGZpbGUubWFlPic=

> <r_lp_tautomer_probability>
1

> <r_epik_Ionization_Penalty>
0.000270135

> <r_epik_Ionization_Penalty_Charging>
0

> <r_epik_Ionization_Penalty_Neutral>
0.000270135

> <r_epik_State_Penalty>
-0

> <r_epik_Charging_Adjusted_Penalty>
0

> <i_epik_Tot_Q>
0

> <i_epik_Tot_abs_Q>
0

> <r_epik_Metal_State_Penalty>
-0

> <b_epik_Metal_Only>
0

> <s_lp_Force_Field>
OPLS_2005

> <r_lp_Energy>
14.1079

> <b_lp_Chiralities_Consistent>
1

> <s_lp_Variant>
AV-unprocessed.smi:2242-1

> <Gold.Version>
5.8.1

> <Gold.Id.Protein>
6NUR|6NUR_protein|mol2

> <Gold.PLP.Fitness>
42.0966

> <Gold.PLP.PLP>
-35.0566

> <Gold.PLP.part.hbond>
-3.0000

> <Gold.PLP.part.metal>
0.0000

> <Gold.PLP.part.buried>
-3.3286

> <Gold.PLP.part.nonpolar>
-30.5418

> <Gold.PLP.part.repulsive>
1.4419

> <Gold.PLP.ligand.clash>
0.0000

> <Gold.PLP.ligand.torsion>
0.9987

> <Gold.PLP.Chemscore.Hbond>
3.0000

> <Gold.PLP.Chemscore.CHOScore>
0.0000

> <Gold.PLP.Chemscore.Metal>
0.0000

> <Gold.Chemscore.Hbonds>
donor molecule, donor type, donor heavy atom, donor atom, acceptor molecule, acceptor atom, score
      L1  H     8    28       P1  7948  1.00
      L1  H    11    29       P1  7948  1.00
      P1  H  7989  7998       L1    17  1.00

> <Gold.PLP.Chemscore.Internal.Correction>
0.0374

> <Gold.Rescore>
     Score         DG    S(hbond)    S(metal)    S(lipo)     H(rot)  DE(clash)    DE(int)     intcor
     18.85     -22.74       2.79        0.00      93.99       1.19       1.51       2.38       ----

> <Gold.Chemscore.Fitness>
18.8490

> <Gold.Chemscore.DG>
-22.7412

> <Gold.Chemscore.ZeroCoef>
-5.4800

> <Gold.Chemscore.Hbond>
2.7882

> <Gold.Chemscore.Metal>
0.0000

> <Gold.Chemscore.Lipo>
93.9931

> <Gold.Chemscore.Internal_Hbond>
0.0000

> <Gold.Chemscore.DEClash>
1.5072

> <Gold.Chemscore.DEInternal>
2.3849

> <Gold.Chemscore.Rot>
1.1909

> <Gold.Chemscore.Internal.Correction>
   9.000000E+99

> <Gold.Chemscore.Hbonds>
donor molecule, donor type, donor heavy atom, donor atom, acceptor molecule, acceptor atom, score
      L1  H     8    28       P1  7948  1.00
      L1  H    11    29       P1  7948  0.94
      P1  H  7989  7998       L1    17  0.63

> <Gold.Chemscore.Hbond.Weighted>
-9.3127

> <Gold.Chemscore.Metal.Weighted>
-0.0000

> <Gold.Chemscore.Lipo.Weighted>
-10.9972

> <Gold.Chemscore.Internal_Hbond.Weighted>
0.0000

> <Gold.Chemscore.DEClash.Weighted>
1.5072

> <Gold.Chemscore.DEInternal.Weighted>
2.3849

> <Gold.Chemscore.Rot.Weighted>
3.0487

> <Gold.Chemscore.Internal.Correction.Weighted>
   9.000000E+99

> <Gold.Protein.RotatedTorsions>
[ 6907 6896 6895 6894 ] final  123.88 input  -60.11 | X-H torsion
[ 7974 7965 7964 7962 ] final   61.82 input  175.53 | X-H torsion
[ 8008 7997 7996 7995 ] final   89.55 input   59.86 | X-H torsion
[ 10167 10162 10161 10158 ] final -142.55 input  -65.29 | X-H torsion
[ 10718 10713 10712 10709 ] final   84.64 input   66.30 | X-H torsion
[ 10763 10752 10751 10750 ] final   58.33 input  -60.55 | X-H torsion
[ 11005 11000 10999 10996 ] final   90.40 input  -57.11 | X-H torsion

> <Gold.Protein.ActiveResidues>
 VAL166  LYS551  ARG553  GLY616  TRP617  ASP618  TYR619  PRO620  LYS621  CYS622 
 ASP623  PHE694  ASN695  SER759  ASP760  ASP761  ALA762  ILE779  LEU786  VAL792 
 PHE793  MET794  SER795  GLU796  ALA797  LYS798  CYS799  TRP800  GLU811  SER814 

> <Gold.Protein.RotatedAtoms>
  152.4125  133.6986  159.6410 H   0  0  0  0  0  0  0  0  0  0  0  0  # atno 6907 bound_to 6896
  150.8004  133.8599  159.3237 H   0  0  0  0  0  0  0  0  0  0  0  0  # atno 6908 bound_to 6896
  151.6337  135.1022  160.0178 H   0  0  0  0  0  0  0  0  0  0  0  0  # atno 6909 bound_to 6896
  145.8804  139.3439  143.0709 H   0  0  0  0  0  0  0  0  0  0  0  0  # atno 7974 bound_to 7965
  156.0013  140.3359  155.6848 H   0  0  0  0  0  0  0  0  0  0  0  0  # atno 8008 bound_to 7997
  155.6287  140.0682  157.2673 H   0  0  0  0  0  0  0  0  0  0  0  0  # atno 8009 bound_to 7997
  154.4250  140.1763  156.1436 H   0  0  0  0  0  0  0  0  0  0  0  0  # atno 8010 bound_to 7997
  139.8078  143.7744  152.2662 H   0  0  0  0  0  0  0  0  0  0  0  0  # atno 10167 bound_to 10162
  157.6901  131.0142  150.2703 H   0  0  0  0  0  0  0  0  0  0  0  0  # atno 10718 bound_to 10713
  152.9868  135.5610  154.5534 H   0  0  0  0  0  0  0  0  0  0  0  0  # atno 10763 bound_to 10752
  154.4967  135.2795  155.1456 H   0  0  0  0  0  0  0  0  0  0  0  0  # atno 10764 bound_to 10752
  154.2903  135.6327  153.5435 H   0  0  0  0  0  0  0  0  0  0  0  0  # atno 10765 bound_to 10752
  139.8857  134.8611  156.3279 H   0  0  0  0  0  0  0  0  0  0  0  0  # atno 11005 bound_to 11000
  145.9030  140.9230  143.0493 LP  0  0  0  0  0  0  0  0  0  0  0  0  # atno 17320 bound_to 7965
  144.6727  140.1058  143.7458 LP  0  0  0  0  0  0  0  0  0  0  0  0  # atno 17321 bound_to 7965
  139.7884  144.7419  150.9989 LP  0  0  0  0  0  0  0  0  0  0  0  0  # atno 17342 bound_to 10162
  140.7819  143.4468  151.0471 LP  0  0  0  0  0  0  0  0  0  0  0  0  # atno 17343 bound_to 10162
  156.3267  130.3794  149.7527 LP  0  0  0  0  0  0  0  0  0  0  0  0  # atno 17370 bound_to 10713
  156.5079  130.8159  151.3158 LP  0  0  0  0  0  0  0  0  0  0  0  0  # atno 17371 bound_to 10713
  140.9743  133.7307  156.0579 LP  0  0  0  0  0  0  0  0  0  0  0  0  # atno 17394 bound_to 11000
  140.7831  134.3703  157.5482 LP  0  0  0  0  0  0  0  0  0  0  0  0  # atno 17395 bound_to 11000

$$$$
