AV-unprocessed.smi:2697|AV-procd|sdf|10415|dock8
  -GOLD-   2272014453D 1   1.00000     0.00000
 Structure written by MMmdl.
 32 33  0  0  0  0  0  0  0  0  2 V2000
  151.4041  138.1146  154.0998 C   0  0  0  0  0  0  0  0  0  0  0  0
  151.6056  138.9222  155.2837 N   0  0  0  0  0  0  0  0  0  0  0  0
  152.2713  138.5900  156.4443 C   0  0  0  0  0  0  0  0  0  0  0  0
  152.1852  139.6903  157.2465 C   0  0  0  0  0  0  0  0  0  0  0  0
  152.8096  139.8456  158.6010 C   0  0  0  0  0  0  0  0  0  0  0  0
  152.0714  140.4943  159.5055 N   0  0  0  0  0  0  0  0  0  0  0  0
  153.9417  139.4319  158.8411 O   0  0  0  0  0  0  0  0  0  0  0  0
  151.4537  140.6682  156.5090 C   0  0  0  0  0  0  0  0  0  0  0  0
  151.0606  142.0812  156.8772 C   0  0  2  0  0  0  0  0  0  0  0  0
  152.1905  142.8268  157.6144 C   0  0  0  0  0  0  0  0  0  0  0  0
  151.7442  144.2527  157.9738 C   0  0  0  0  0  0  0  0  0  0  0  0
  150.4270  144.2339  158.7679 C   0  0  0  0  0  0  0  0  0  0  0  0
  149.3750  143.5083  158.0227 N   0  3  0  0  0  0  0  0  0  0  0  0
  149.7534  142.1163  157.6940 C   0  0  0  0  0  0  0  0  0  0  0  0
  151.1145  140.1837  155.3188 N   0  0  0  0  0  0  0  0  0  0  0  0
  151.7067  137.0850  154.2931 H   0  0  0  0  0  0  0  0  0  0  0  0
  152.0014  138.5116  153.2787 H   0  0  0  0  0  0  0  0  0  0  0  0
  150.3511  138.1261  153.8160 H   0  0  0  0  0  0  0  0  0  0  0  0
  152.7436  137.6292  156.5892 H   0  0  0  0  0  0  0  0  0  0  0  0
  152.4261  140.6355  160.4401 H   0  0  0  0  0  0  0  0  0  0  0  0
  151.1576  140.8408  159.2510 H   0  0  0  0  0  0  0  0  0  0  0  0
  150.8777  142.6425  155.9621 H   0  0  0  0  0  0  0  0  0  0  0  0
  152.4619  142.2938  158.5267 H   0  0  0  0  0  0  0  0  0  0  0  0
  153.0871  142.8622  156.9947 H   0  0  0  0  0  0  0  0  0  0  0  0
  152.5221  144.7520  158.5526 H   0  0  0  0  0  0  0  0  0  0  0  0
  151.6145  144.8369  157.0617 H   0  0  0  0  0  0  0  0  0  0  0  0
  150.5740  143.7567  159.7376 H   0  0  0  0  0  0  0  0  0  0  0  0
  150.0875  145.2516  158.9610 H   0  0  0  0  0  0  0  0  0  0  0  0
  148.5292  143.4960  158.5747 H   0  0  0  0  0  0  0  0  0  0  0  0
  148.9417  141.6556  157.1303 H   0  0  0  0  0  0  0  0  0  0  0  0
  149.8609  141.5500  158.6203 H   0  0  0  0  0  0  0  0  0  0  0  0
  149.1941  144.0022  157.1602 H   0  0  0  0  0  0  0  0  0  0  0  0
  1  2  1  0  0  0  0
  1 16  1  0  0  0  0
  1 17  1  0  0  0  0
  1 18  1  0  0  0  0
  2 15  1  0  0  0  0
  2  3  1  0  0  0  0
  3  4  2  0  0  0  0
  3 19  1  0  0  0  0
  4  5  1  0  0  0  0
  4  8  1  0  0  0  0
  5  6  1  0  0  0  0
  5  7  2  0  0  0  0
  6 20  1  0  0  0  0
  6 21  1  0  0  0  0
  8  9  1  0  0  0  0
  8 15  2  0  0  0  0
  9 14  1  0  0  0  0
  9 10  1  0  0  0  0
  9 22  1  0  0  0  0
 10 11  1  0  0  0  0
 10 23  1  0  0  0  0
 10 24  1  0  0  0  0
 11 12  1  0  0  0  0
 11 25  1  0  0  0  0
 11 26  1  0  0  0  0
 12 13  1  0  0  0  0
 12 27  1  0  0  0  0
 12 28  1  0  0  0  0
 13 14  1  0  0  0  0
 13 29  1  0  0  0  0
 13 32  1  0  0  0  0
 14 30  1  0  0  0  0
 14 31  1  0  0  0  0
M  CHG  1  13   1
M  END
> <s_m_source_file>
AV-unprocessed.smi

> <i_m_source_file_index>
2697

> <i_lp_mmshare_version>
43012

> <i_f3d_flags>
0

> <s_epik_input>
W0NIM11uMVtjSF1jKEMoPU8pW05IMl0pYyhuMSlbQ0BASF0yW0NIMl1bQ0gyXVtDSDJdW05IXVtDSDJdMg==

> <s_epik_cmdline>
J2VwaWtfcHl0aG9uJywgJy1waCcsICc3LjAnLCAnLXRuJywgJzgnLCAnLW1hJywgJzIwMCcsICctbWV0YWxfYmluZGluZycsICctaW1hZScsICc8aW5maWxlLm1hZT4nLCAnLW9tYWUnLCAnPG91dGZpbGUubWFlPic=

> <r_lp_tautomer_probability>
1

> <r_epik_Ionization_Penalty>
0.000158942

> <r_epik_Ionization_Penalty_Charging>
0.000157527

> <r_epik_Ionization_Penalty_Neutral>
1.41498e-06

> <r_epik_State_Penalty>
-0

> <r_epik_Charging_Adjusted_Penalty>
0.000157527

> <i_epik_Tot_Q>
1

> <i_epik_Tot_abs_Q>
1

> <r_epik_Metal_State_Penalty>
-0

> <b_epik_Metal_Only>
0

> <s_lp_Force_Field>
OPLS_2005

> <r_lp_Energy>
9.94433

> <b_lp_Chiralities_Consistent>
1

> <s_lp_Variant>
AV-unprocessed.smi:2697-1

> <Gold.Version>
5.8.1

> <Gold.Id.Protein>
6NUR|6NUR_protein|mol2

> <Gold.PLP.Fitness>
35.3449

> <Gold.PLP.PLP>
-25.8403

> <Gold.PLP.part.hbond>
-4.0000

> <Gold.PLP.part.metal>
0.0000

> <Gold.PLP.part.buried>
-3.8576

> <Gold.PLP.part.nonpolar>
-17.7650

> <Gold.PLP.part.repulsive>
0.2315

> <Gold.PLP.ligand.clash>
0.0000

> <Gold.PLP.ligand.torsion>
1.2644

> <Gold.PLP.Chemscore.Hbond>
4.0000

> <Gold.PLP.Chemscore.CHOScore>
0.0000

> <Gold.PLP.Chemscore.Metal>
0.0000

> <Gold.Chemscore.Hbonds>
donor molecule, donor type, donor heavy atom, donor atom, acceptor molecule, acceptor atom, score
      L1  H    13    32       P1  8028  2.00
      P1  H  7989  7998       L1    15  1.00
      P1  H  7997  8008       L1     7  1.00

> <Gold.PLP.Chemscore.Internal.Correction>
0.0335

> <Gold.Rescore>
     Score         DG    S(hbond)    S(metal)    S(lipo)     H(rot)  DE(clash)    DE(int)     intcor
     16.44     -19.97       2.61        0.00      71.25       1.00       1.88       1.64       ----

> <Gold.Chemscore.Fitness>
16.4438

> <Gold.Chemscore.DG>
-19.9657

> <Gold.Chemscore.ZeroCoef>
-5.4800

> <Gold.Chemscore.Hbond>
2.6076

> <Gold.Chemscore.Metal>
0.0000

> <Gold.Chemscore.Lipo>
71.2496

> <Gold.Chemscore.Internal_Hbond>
0.0000

> <Gold.Chemscore.DEClash>
1.8817

> <Gold.Chemscore.DEInternal>
1.6403

> <Gold.Chemscore.Rot>
1.0000

> <Gold.Chemscore.Internal.Correction>
   9.000000E+99

> <Gold.Chemscore.Hbonds>
donor molecule, donor type, donor heavy atom, donor atom, acceptor molecule, acceptor atom, score
      L1  H    13    32       P1  8028  0.26
      P1  H  7989  7998       L1    15  0.32
      P1  H  7997  8008       L1     7  0.44

> <Gold.Chemscore.Hbond.Weighted>
-8.7095

> <Gold.Chemscore.Metal.Weighted>
-0.0000

> <Gold.Chemscore.Lipo.Weighted>
-8.3362

> <Gold.Chemscore.Internal_Hbond.Weighted>
0.0000

> <Gold.Chemscore.DEClash.Weighted>
1.8817

> <Gold.Chemscore.DEInternal.Weighted>
1.6403

> <Gold.Chemscore.Rot.Weighted>
2.5600

> <Gold.Chemscore.Internal.Correction.Weighted>
   9.000000E+99

> <Gold.Protein.RotatedTorsions>
[ 6907 6896 6895 6894 ] final -171.85 input  -60.11 | X-H torsion
[ 7974 7965 7964 7962 ] final   35.77 input  175.53 | X-H torsion
[ 8008 7997 7996 7995 ] final -115.33 input   59.86 | X-H torsion
[ 10167 10162 10161 10158 ] final -169.36 input  -65.29 | X-H torsion
[ 10718 10713 10712 10709 ] final  127.23 input   66.30 | X-H torsion
[ 10763 10752 10751 10750 ] final  -63.19 input  -60.55 | X-H torsion
[ 11005 11000 10999 10996 ] final   69.87 input  -57.11 | X-H torsion

> <Gold.Protein.ActiveResidues>
 VAL166  LYS551  ARG553  GLY616  TRP617  ASP618  TYR619  PRO620  LYS621  CYS622 
 ASP623  PHE694  ASN695  SER759  ASP760  ASP761  ALA762  ILE779  LEU786  VAL792 
 PHE793  MET794  SER795  GLU796  ALA797  LYS798  CYS799  TRP800  GLU811  SER814 

> <Gold.Protein.RotatedAtoms>
  151.5304  133.3450  159.2916 H   0  0  0  0  0  0  0  0  0  0  0  0  # atno 6907 bound_to 6896
  150.8597  134.7948  159.7084 H   0  0  0  0  0  0  0  0  0  0  0  0  # atno 6908 bound_to 6896
  152.4620  134.5171  159.9823 H   0  0  0  0  0  0  0  0  0  0  0  0  # atno 6909 bound_to 6896
  146.1259  139.6101  142.9258 H   0  0  0  0  0  0  0  0  0  0  0  0  # atno 7974 bound_to 7965
  155.0504  140.0393  157.2541 H   0  0  0  0  0  0  0  0  0  0  0  0  # atno 8008 bound_to 7997
  154.7142  140.2699  155.6577 H   0  0  0  0  0  0  0  0  0  0  0  0  # atno 8009 bound_to 7997
  156.2798  140.2715  156.1793 H   0  0  0  0  0  0  0  0  0  0  0  0  # atno 8010 bound_to 7997
  139.5928  144.1177  152.1654 H   0  0  0  0  0  0  0  0  0  0  0  0  # atno 10167 bound_to 10162
  157.5351  131.1098  150.8948 H   0  0  0  0  0  0  0  0  0  0  0  0  # atno 10718 bound_to 10713
  154.3113  135.6215  153.5467 H   0  0  0  0  0  0  0  0  0  0  0  0  # atno 10763 bound_to 10752
  152.9829  135.5702  154.5173 H   0  0  0  0  0  0  0  0  0  0  0  0  # atno 10764 bound_to 10752
  154.4824  135.2863  155.1537 H   0  0  0  0  0  0  0  0  0  0  0  0  # atno 10765 bound_to 10752
  139.9629  134.7030  156.0607 H   0  0  0  0  0  0  0  0  0  0  0  0  # atno 11005 bound_to 11000
  145.5365  141.0424  143.2354 LP  0  0  0  0  0  0  0  0  0  0  0  0  # atno 17320 bound_to 7965
  144.7642  139.6884  143.7221 LP  0  0  0  0  0  0  0  0  0  0  0  0  # atno 17321 bound_to 7965
  140.0755  144.5744  150.7160 LP  0  0  0  0  0  0  0  0  0  0  0  0  # atno 17342 bound_to 10162
  140.7187  143.2568  151.4350 LP  0  0  0  0  0  0  0  0  0  0  0  0  # atno 17343 bound_to 10162
  156.9518  130.5422  149.5283 LP  0  0  0  0  0  0  0  0  0  0  0  0  # atno 17370 bound_to 10713
  156.0452  130.5529  150.8864 LP  0  0  0  0  0  0  0  0  0  0  0  0  # atno 17371 bound_to 10713
  141.1307  133.6587  156.3457 LP  0  0  0  0  0  0  0  0  0  0  0  0  # atno 17394 bound_to 11000
  140.5460  134.6074  157.5394 LP  0  0  0  0  0  0  0  0  0  0  0  0  # atno 17395 bound_to 11000

$$$$
