AV-unprocessed.smi:3303|AV-procd|sdf|12669|dock1
  -GOLD-   2272019 03D 1   1.00000     0.00000
 Structure written by MMmdl.
 45 46  0  0  0  0  0  0  0  0  3 V2000
  147.7115  140.0477  154.0043 C   0  0  0  0  0  0  0  0  0  0  0  0
  148.7305  138.8960  153.9705 C   0  0  2  0  0  0  0  0  0  0  0  0
  148.2254  137.6488  154.7242 C   0  0  0  0  0  0  0  0  0  0  0  0
  149.1777  136.5179  154.5846 N   0  3  2  0  0  0  0  0  0  0  0  0
  148.6317  135.2393  155.0948 C   0  0  0  0  0  0  0  0  0  0  0  0
  150.5521  136.8339  155.0693 C   0  0  2  0  0  0  0  0  0  0  0  0
  150.6704  136.8843  156.6087 C   0  0  0  0  0  0  0  0  0  0  0  0
  151.0921  138.1051  154.3731 C   0  0  0  0  0  0  0  0  0  0  0  0
  150.1378  139.3203  154.4488 C   0  0  2  0  0  0  0  0  0  0  0  0
  150.0960  139.9359  155.7981 N   0  3  0  0  0  0  0  0  0  0  0  0
  151.3530  140.5678  156.2495 C   0  0  0  0  0  0  0  0  0  0  0  0
  151.3719  140.7176  157.7763 C   0  0  0  0  0  0  0  0  0  0  0  0
  151.7068  142.1329  158.2062 C   0  0  0  0  0  0  0  0  0  0  0  0
  152.6025  142.3723  159.2701 C   0  0  0  0  0  0  0  0  0  0  0  0
  152.8717  143.7067  159.6318 C   0  0  0  0  0  0  0  0  0  0  0  0
  152.2376  144.7432  158.9199 C   0  0  0  0  0  0  0  0  0  0  0  0
  151.3583  144.3988  157.8740 C   0  0  0  0  0  0  0  0  0  0  0  0
  151.0924  143.1224  157.5198 N   0  0  0  0  0  0  0  0  0  0  0  0
  147.4961  140.3705  155.0232 H   0  0  0  0  0  0  0  0  0  0  0  0
  146.7671  139.7451  153.5513 H   0  0  0  0  0  0  0  0  0  0  0  0
  148.0773  140.9124  153.4495 H   0  0  0  0  0  0  0  0  0  0  0  0
  148.8283  138.6099  152.9219 H   0  0  0  0  0  0  0  0  0  0  0  0
  148.0538  137.8722  155.7778 H   0  0  0  0  0  0  0  0  0  0  0  0
  147.2608  137.3482  154.3122 H   0  0  0  0  0  0  0  0  0  0  0  0
  148.3909  135.3012  156.1564 H   0  0  0  0  0  0  0  0  0  0  0  0
  149.3444  134.4272  154.9480 H   0  0  0  0  0  0  0  0  0  0  0  0
  147.7184  134.9774  154.5597 H   0  0  0  0  0  0  0  0  0  0  0  0
  151.1910  136.0120  154.7424 H   0  0  0  0  0  0  0  0  0  0  0  0
  151.6736  137.1876  156.9097 H   0  0  0  0  0  0  0  0  0  0  0  0
  150.4928  135.9055  157.0543 H   0  0  0  0  0  0  0  0  0  0  0  0
  149.9678  137.5804  157.0639 H   0  0  0  0  0  0  0  0  0  0  0  0
  152.0856  138.3511  154.7465 H   0  0  0  0  0  0  0  0  0  0  0  0
  151.2415  137.8681  153.3187 H   0  0  0  0  0  0  0  0  0  0  0  0
  150.5027  140.0862  153.7627 H   0  0  0  0  0  0  0  0  0  0  0  0
  149.3906  140.6589  155.7814 H   0  0  0  0  0  0  0  0  0  0  0  0
  152.2048  139.9662  155.9330 H   0  0  0  0  0  0  0  0  0  0  0  0
  151.4554  141.5472  155.7801 H   0  0  0  0  0  0  0  0  0  0  0  0
  150.4040  140.4344  158.1928 H   0  0  0  0  0  0  0  0  0  0  0  0
  152.1049  140.0357  158.2109 H   0  0  0  0  0  0  0  0  0  0  0  0
  153.0738  141.5566  159.7988 H   0  0  0  0  0  0  0  0  0  0  0  0
  153.5518  143.9306  160.4403 H   0  0  0  0  0  0  0  0  0  0  0  0
  152.4205  145.7781  159.1694 H   0  0  0  0  0  0  0  0  0  0  0  0
  150.8544  145.1678  157.3076 H   0  0  0  0  0  0  0  0  0  0  0  0
  149.8196  139.2363  156.4721 H   0  0  0  0  0  0  0  0  0  0  0  0
  149.2774  136.3783  153.5889 H   0  0  0  0  0  0  0  0  0  0  0  0
  1  2  1  0  0  0  0
  1 19  1  0  0  0  0
  1 20  1  0  0  0  0
  1 21  1  0  0  0  0
  2  9  1  0  0  0  0
  2  3  1  0  0  0  0
  2 22  1  0  0  0  0
  3  4  1  0  0  0  0
  3 23  1  0  0  0  0
  3 24  1  0  0  0  0
  4  5  1  0  0  0  0
  4  6  1  0  0  0  0
  4 45  1  0  0  0  0
  5 25  1  0  0  0  0
  5 26  1  0  0  0  0
  5 27  1  0  0  0  0
  6  7  1  0  0  0  0
  6  8  1  0  0  0  0
  6 28  1  0  0  0  0
  7 29  1  0  0  0  0
  7 30  1  0  0  0  0
  7 31  1  0  0  0  0
  8  9  1  0  0  0  0
  8 32  1  0  0  0  0
  8 33  1  0  0  0  0
  9 10  1  0  0  0  0
  9 34  1  0  0  0  0
 10 11  1  0  0  0  0
 10 35  1  0  0  0  0
 10 44  1  0  0  0  0
 11 12  1  0  0  0  0
 11 36  1  0  0  0  0
 11 37  1  0  0  0  0
 12 13  1  0  0  0  0
 12 38  1  0  0  0  0
 12 39  1  0  0  0  0
 13 18  1  0  0  0  0
 13 14  2  0  0  0  0
 14 15  1  0  0  0  0
 14 40  1  0  0  0  0
 15 16  2  0  0  0  0
 15 41  1  0  0  0  0
 16 17  1  0  0  0  0
 16 42  1  0  0  0  0
 17 18  2  0  0  0  0
 17 43  1  0  0  0  0
M  CHG  1   4   1
M  CHG  1  10   1
M  END
> <s_m_source_file>
AV-unprocessed.smi

> <i_m_source_file_index>
3303

> <i_lp_mmshare_version>
43012

> <i_f3d_flags>
0

> <s_epik_input>
W0NIM11bQ0BASF0xW0NIMl1OKFtDSDNdKVtDQEBIXShbQ0gzXSlbQ0gyXVtDQEhdMVtOSF1bQ0gyXVtDSDJdYzJbY0hdW2NIXVtjSF1bY0hdbjI=

> <s_epik_cmdline>
J2VwaWtfcHl0aG9uJywgJy1waCcsICc3LjAnLCAnLXRuJywgJzgnLCAnLW1hJywgJzIwMCcsICctbWV0YWxfYmluZGluZycsICctaW1hZScsICc8aW5maWxlLm1hZT4nLCAnLW9tYWUnLCAnPG91dGZpbGUubWFlPic=

> <r_epik_Ionization_Penalty>
0.0769462

> <r_epik_Ionization_Penalty_Charging>
0.0759813

> <r_epik_Ionization_Penalty_Neutral>
0.000964829

> <r_epik_State_Penalty>
0.0654373

> <r_epik_Charging_Adjusted_Penalty>
0.141419

> <i_epik_Tot_Q>
2

> <i_epik_Tot_abs_Q>
2

> <r_epik_Metal_State_Penalty>
0.0656439

> <b_epik_Metal_Only>
0

> <s_lp_Force_Field>
OPLS_2005

> <r_lp_Energy>
33.2062

> <b_lp_Chiralities_Consistent>
1

> <s_lp_Variant>
AV-unprocessed.smi:3303-13

> <Gold.Version>
5.8.1

> <Gold.Id.Protein>
6NUR|6NUR_protein|mol2

> <Gold.PLP.Fitness>
43.7713

> <Gold.PLP.PLP>
-36.2767

> <Gold.PLP.part.hbond>
-1.0000

> <Gold.PLP.part.metal>
0.0000

> <Gold.PLP.part.buried>
-4.1167

> <Gold.PLP.part.nonpolar>
-32.5145

> <Gold.PLP.part.repulsive>
0.1986

> <Gold.PLP.ligand.clash>
0.0000

> <Gold.PLP.ligand.torsion>
0.7045

> <Gold.PLP.Chemscore.Hbond>
2.0000

> <Gold.PLP.Chemscore.CHOScore>
0.9306

> <Gold.PLP.Chemscore.Metal>
0.0000

> <Gold.Chemscore.Hbonds>
donor molecule, donor type, donor heavy atom, donor atom, acceptor molecule, acceptor atom, score
      L1  H     4    45       P1  7948  2.00
      L1  C    17    43       P1  8028  0.86

> <Gold.PLP.Chemscore.Internal.Correction>
0.1118

> <Gold.Rescore>
     Score         DG    S(hbond)    S(metal)    S(lipo)     H(rot)  DE(clash)    DE(int)     intcor
     18.30     -19.02       0.98        0.00     117.74       1.37       0.17       0.55       ----

> <Gold.Chemscore.Fitness>
18.2973

> <Gold.Chemscore.DG>
-19.0197

> <Gold.Chemscore.ZeroCoef>
-5.4800

> <Gold.Chemscore.Hbond>
0.9830

> <Gold.Chemscore.Metal>
0.0000

> <Gold.Chemscore.Lipo>
117.7360

> <Gold.Chemscore.Internal_Hbond>
0.0000

> <Gold.Chemscore.DEClash>
0.1700

> <Gold.Chemscore.DEInternal>
0.5525

> <Gold.Chemscore.Rot>
1.3744

> <Gold.Chemscore.Internal.Correction>
   9.000000E+99

> <Gold.Chemscore.Hbonds>
donor molecule, donor type, donor heavy atom, donor atom, acceptor molecule, acceptor atom, score
      L1  H     4    45       P1  7948  0.91

> <Gold.Chemscore.Hbond.Weighted>
-3.2831

> <Gold.Chemscore.Metal.Weighted>
-0.0000

> <Gold.Chemscore.Lipo.Weighted>
-13.7751

> <Gold.Chemscore.Internal_Hbond.Weighted>
0.0000

> <Gold.Chemscore.DEClash.Weighted>
0.1700

> <Gold.Chemscore.DEInternal.Weighted>
0.5525

> <Gold.Chemscore.Rot.Weighted>
3.5185

> <Gold.Chemscore.Internal.Correction.Weighted>
   9.000000E+99

> <Gold.Protein.RotatedTorsions>
[ 6907 6896 6895 6894 ] final  104.00 input  -60.11 | X-H torsion
[ 7974 7965 7964 7962 ] final  -46.09 input  175.53 | X-H torsion
[ 8008 7997 7996 7995 ] final   79.52 input   59.86 | X-H torsion
[ 10167 10162 10161 10158 ] final  -81.39 input  -65.29 | X-H torsion
[ 10718 10713 10712 10709 ] final  144.83 input   66.30 | X-H torsion
[ 10763 10752 10751 10750 ] final  -79.64 input  -60.55 | X-H torsion
[ 11005 11000 10999 10996 ] final -163.24 input  -57.11 | X-H torsion

> <Gold.Protein.ActiveResidues>
 VAL166  LYS551  ARG553  GLY616  TRP617  ASP618  TYR619  PRO620  LYS621  CYS622 
 ASP623  PHE694  ASN695  SER759  ASP760  ASP761  ALA762  ILE779  LEU786  VAL792 
 PHE793  MET794  SER795  GLU796  ALA797  LYS798  CYS799  TRP800  GLU811  SER814 

> <Gold.Protein.RotatedAtoms>
  152.5278  133.9742  159.7775 H   0  0  0  0  0  0  0  0  0  0  0  0  # atno 6907 bound_to 6896
  151.0008  133.6050  159.2702 H   0  0  0  0  0  0  0  0  0  0  0  0  # atno 6908 bound_to 6896
  151.3160  135.0813  159.9342 H   0  0  0  0  0  0  0  0  0  0  0  0  # atno 6909 bound_to 6896
  145.9754  140.7339  142.9389 H   0  0  0  0  0  0  0  0  0  0  0  0  # atno 7974 bound_to 7965
  155.8708  140.3449  155.5820 H   0  0  0  0  0  0  0  0  0  0  0  0  # atno 8008 bound_to 7997
  155.7829  140.0861  157.2069 H   0  0  0  0  0  0  0  0  0  0  0  0  # atno 8009 bound_to 7997
  154.4017  140.1497  156.3060 H   0  0  0  0  0  0  0  0  0  0  0  0  # atno 8010 bound_to 7997
  140.4417  143.2512  151.8617 H   0  0  0  0  0  0  0  0  0  0  0  0  # atno 10167 bound_to 10162
  157.3525  131.0953  151.0987 H   0  0  0  0  0  0  0  0  0  0  0  0  # atno 10718 bound_to 10713
  154.5411  135.5689  153.6840 H   0  0  0  0  0  0  0  0  0  0  0  0  # atno 10763 bound_to 10752
  152.9964  135.6228  154.2500 H   0  0  0  0  0  0  0  0  0  0  0  0  # atno 10764 bound_to 10752
  154.2431  135.2861  155.2826 H   0  0  0  0  0  0  0  0  0  0  0  0  # atno 10765 bound_to 10752
  140.6003  134.4954  157.5204 H   0  0  0  0  0  0  0  0  0  0  0  0  # atno 11005 bound_to 11000
  144.6847  140.2819  143.7291 LP  0  0  0  0  0  0  0  0  0  0  0  0  # atno 17320 bound_to 7965
  145.7846  139.1904  143.2138 LP  0  0  0  0  0  0  0  0  0  0  0  0  # atno 17321 bound_to 7965
  139.4790  144.5222  151.8786 LP  0  0  0  0  0  0  0  0  0  0  0  0  # atno 17342 bound_to 10162
  140.4311  144.2114  150.5888 LP  0  0  0  0  0  0  0  0  0  0  0  0  # atno 17343 bound_to 10162
  157.2158  130.6458  149.5791 LP  0  0  0  0  0  0  0  0  0  0  0  0  # atno 17370 bound_to 10713
  155.9724  130.4645  150.6221 LP  0  0  0  0  0  0  0  0  0  0  0  0  # atno 17371 bound_to 10713
  139.9235  134.8101  156.1138 LP  0  0  0  0  0  0  0  0  0  0  0  0  # atno 17394 bound_to 11000
  141.0877  133.6727  156.2471 LP  0  0  0  0  0  0  0  0  0  0  0  0  # atno 17395 bound_to 11000

$$$$
