AV-unprocessed.smi:2568|AV-procd|sdf|10088|dock5
  -GOLD-   2272014113D 1   1.00000     0.00000
 Structure written by MMmdl.
 25 26  0  0  0  0  0  0  0  0  2 V2000
  151.2070  137.3452  154.6448 C   0  0  0  0  0  0  0  0  0  0  0  0
  151.6090  138.3901  155.6299 C   0  0  0  0  0  0  0  0  0  0  0  0
  152.8300  138.4266  156.1664 N   0  0  0  0  0  0  0  0  0  0  0  0
  152.9107  139.4679  157.0217 N   0  0  0  0  0  0  0  0  0  0  0  0
  151.6971  140.0081  156.9185 C   0  0  0  0  0  0  0  0  0  0  0  0
  151.3156  141.1942  157.7486 C   0  0  2  0  0  0  0  0  0  0  0  0
  150.7613  142.3491  156.8935 C   0  0  0  0  0  0  0  0  0  0  0  0
  150.4921  143.5211  157.7487 N   0  3  0  0  0  0  0  0  0  0  0  0
  151.6905  143.9175  158.5150 C   0  0  0  0  0  0  0  0  0  0  0  0
  152.2360  142.7166  159.3088 C   0  0  0  0  0  0  0  0  0  0  0  0
  152.4931  141.6297  158.4253 O   0  0  0  0  0  0  0  0  0  0  0  0
  150.8282  139.3679  156.0765 N   0  0  0  0  0  0  0  0  0  0  0  0
  153.5969  137.7920  155.9940 H   0  0  0  0  0  0  0  0  0  0  0  0
  150.1798  137.5054  154.3156 H   0  0  0  0  0  0  0  0  0  0  0  0
  151.2779  136.3564  155.0981 H   0  0  0  0  0  0  0  0  0  0  0  0
  151.8614  137.3803  153.7733 H   0  0  0  0  0  0  0  0  0  0  0  0
  150.5735  140.8808  158.4860 H   0  0  0  0  0  0  0  0  0  0  0  0
  151.4774  142.6296  156.1196 H   0  0  0  0  0  0  0  0  0  0  0  0
  149.8418  142.0502  156.3891 H   0  0  0  0  0  0  0  0  0  0  0  0
  150.1888  144.2946  157.1740 H   0  0  0  0  0  0  0  0  0  0  0  0
  152.4494  144.2893  157.8254 H   0  0  0  0  0  0  0  0  0  0  0  0
  151.4359  144.7378  159.1862 H   0  0  0  0  0  0  0  0  0  0  0  0
  153.1630  142.9896  159.8129 H   0  0  0  0  0  0  0  0  0  0  0  0
  151.5318  142.4094  160.0835 H   0  0  0  0  0  0  0  0  0  0  0  0
  149.7554  143.2848  158.3984 H   0  0  0  0  0  0  0  0  0  0  0  0
  1 14  1  0  0  0  0
  1 15  1  0  0  0  0
  1 16  1  0  0  0  0
  1  2  1  0  0  0  0
  2 12  2  0  0  0  0
  2  3  1  0  0  0  0
  3  4  1  0  0  0  0
  3 13  1  0  0  0  0
  4  5  2  0  0  0  0
  5 12  1  0  0  0  0
  5  6  1  0  0  0  0
  6 11  1  0  0  0  0
  6  7  1  0  0  0  0
  6 17  1  0  0  0  0
  7  8  1  0  0  0  0
  7 18  1  0  0  0  0
  7 19  1  0  0  0  0
  8  9  1  0  0  0  0
  8 20  1  0  0  0  0
  8 25  1  0  0  0  0
  9 10  1  0  0  0  0
  9 21  1  0  0  0  0
  9 22  1  0  0  0  0
 10 11  1  0  0  0  0
 10 23  1  0  0  0  0
 10 24  1  0  0  0  0
M  CHG  1   8   1
M  END
> <s_m_source_file>
AV-unprocessed.smi

> <i_m_source_file_index>
2568

> <i_lp_mmshare_version>
43012

> <i_f3d_flags>
0

> <s_epik_input>
W0NIM11jMW5bbkhdYyhuMSlbQ0BASF0yW0NIMl1bTkhdW0NIMl1bQ0gyXU8y

> <s_epik_cmdline>
J2VwaWtfcHl0aG9uJywgJy1waCcsICc3LjAnLCAnLXRuJywgJzgnLCAnLW1hJywgJzIwMCcsICctbWV0YWxfYmluZGluZycsICctaW1hZScsICc8aW5maWxlLm1hZT4nLCAnLW9tYWUnLCAnPG91dGZpbGUubWFlPic=

> <r_lp_tautomer_probability>
0.948284

> <r_epik_Ionization_Penalty>
0.107151

> <r_epik_Ionization_Penalty_Charging>
0.100865

> <r_epik_Ionization_Penalty_Neutral>
0.00628602

> <r_epik_State_Penalty>
0.200426

> <r_epik_Charging_Adjusted_Penalty>
0.30129

> <i_epik_Tot_Q>
1

> <i_epik_Tot_abs_Q>
1

> <r_epik_Metal_State_Penalty>
0.501686

> <b_epik_Metal_Only>
0

> <s_lp_Force_Field>
OPLS_2005

> <r_lp_Energy>
11.0041

> <b_lp_Chiralities_Consistent>
1

> <s_lp_Variant>
AV-unprocessed.smi:2568-1

> <Gold.Version>
5.8.1

> <Gold.Id.Protein>
6NUR|6NUR_protein|mol2

> <Gold.PLP.Fitness>
28.5052

> <Gold.PLP.PLP>
-20.6275

> <Gold.PLP.part.hbond>
-2.0000

> <Gold.PLP.part.metal>
0.0000

> <Gold.PLP.part.buried>
-1.0897

> <Gold.PLP.part.nonpolar>
-17.8121

> <Gold.PLP.part.repulsive>
0.2234

> <Gold.PLP.ligand.clash>
0.0000

> <Gold.PLP.ligand.torsion>
0.0644

> <Gold.PLP.Chemscore.Hbond>
2.6640

> <Gold.PLP.Chemscore.CHOScore>
0.0000

> <Gold.PLP.Chemscore.Metal>
0.0000

> <Gold.Chemscore.Hbonds>
donor molecule, donor type, donor heavy atom, donor atom, acceptor molecule, acceptor atom, score
      L1  H     8    20       P1  8028  1.70
      P1  H  7997  8008       L1     4  0.95

> <Gold.PLP.Chemscore.Internal.Correction>
0.0143

> <Gold.Rescore>
     Score         DG    S(hbond)    S(metal)    S(lipo)     H(rot)  DE(clash)    DE(int)     intcor
     13.81     -13.93       1.78        0.00      43.20       1.00       0.07       0.05       ----

> <Gold.Chemscore.Fitness>
13.8061

> <Gold.Chemscore.DG>
-13.9257

> <Gold.Chemscore.ZeroCoef>
-5.4800

> <Gold.Chemscore.Hbond>
1.7817

> <Gold.Chemscore.Metal>
0.0000

> <Gold.Chemscore.Lipo>
43.2046

> <Gold.Chemscore.Internal_Hbond>
0.0000

> <Gold.Chemscore.DEClash>
0.0670

> <Gold.Chemscore.DEInternal>
0.0526

> <Gold.Chemscore.Rot>
1.0000

> <Gold.Chemscore.Internal.Correction>
   9.000000E+99

> <Gold.Chemscore.Hbonds>
donor molecule, donor type, donor heavy atom, donor atom, acceptor molecule, acceptor atom, score
      L1  H     8    20       P1  8028  0.59
      P1  H  7997  8008       L1     4  0.21

> <Gold.Chemscore.Hbond.Weighted>
-5.9508

> <Gold.Chemscore.Metal.Weighted>
-0.0000

> <Gold.Chemscore.Lipo.Weighted>
-5.0549

> <Gold.Chemscore.Internal_Hbond.Weighted>
0.0000

> <Gold.Chemscore.DEClash.Weighted>
0.0670

> <Gold.Chemscore.DEInternal.Weighted>
0.0526

> <Gold.Chemscore.Rot.Weighted>
2.5600

> <Gold.Chemscore.Internal.Correction.Weighted>
   9.000000E+99

> <Gold.Protein.RotatedTorsions>
[ 6907 6896 6895 6894 ] final   38.91 input  -60.11 | X-H torsion
[ 7974 7965 7964 7962 ] final -169.12 input  175.53 | X-H torsion
[ 8008 7997 7996 7995 ] final  -51.85 input   59.86 | X-H torsion
[ 10167 10162 10161 10158 ] final  -76.37 input  -65.29 | X-H torsion
[ 10718 10713 10712 10709 ] final -145.75 input   66.30 | X-H torsion
[ 10763 10752 10751 10750 ] final   91.76 input  -60.55 | X-H torsion
[ 11005 11000 10999 10996 ] final  -83.09 input  -57.11 | X-H torsion

> <Gold.Protein.ActiveResidues>
 VAL166  LYS551  ARG553  GLY616  TRP617  ASP618  TYR619  PRO620  LYS621  CYS622 
 ASP623  PHE694  ASN695  SER759  ASP760  ASP761  ALA762  ILE779  LEU786  VAL792 
 PHE793  MET794  SER795  GLU796  ALA797  LYS798  CYS799  TRP800  GLU811  SER814 

> <Gold.Protein.RotatedAtoms>
  152.1626  134.8899  160.0540 H   0  0  0  0  0  0  0  0  0  0  0  0  # atno 6907 bound_to 6896
  151.9889  133.3779  159.4145 H   0  0  0  0  0  0  0  0  0  0  0  0  # atno 6908 bound_to 6896
  150.6890  134.3880  159.5107 H   0  0  0  0  0  0  0  0  0  0  0  0  # atno 6909 bound_to 6896
  144.7191  140.2268  143.6309 H   0  0  0  0  0  0  0  0  0  0  0  0  # atno 7974 bound_to 7965
  154.4092  140.1238  156.4895 H   0  0  0  0  0  0  0  0  0  0  0  0  # atno 8008 bound_to 7997
  155.7004  140.3495  155.4911 H   0  0  0  0  0  0  0  0  0  0  0  0  # atno 8009 bound_to 7997
  155.9390  140.1083  157.1061 H   0  0  0  0  0  0  0  0  0  0  0  0  # atno 8010 bound_to 7997
  140.4862  143.2390  151.7979 H   0  0  0  0  0  0  0  0  0  0  0  0  # atno 10167 bound_to 10162
  156.3863  130.7863  151.2060 H   0  0  0  0  0  0  0  0  0  0  0  0  # atno 10718 bound_to 10713
  153.2118  135.4386  155.0388 H   0  0  0  0  0  0  0  0  0  0  0  0  # atno 10763 bound_to 10752
  154.8204  135.3335  154.7057 H   0  0  0  0  0  0  0  0  0  0  0  0  # atno 10764 bound_to 10752
  153.7495  135.6999  153.5004 H   0  0  0  0  0  0  0  0  0  0  0  0  # atno 10765 bound_to 10752
  141.1660  133.7277  156.8668 H   0  0  0  0  0  0  0  0  0  0  0  0  # atno 11005 bound_to 11000
  145.8449  139.2147  143.1806 LP  0  0  0  0  0  0  0  0  0  0  0  0  # atno 17320 bound_to 7965
  146.0313  140.8255  142.9874 LP  0  0  0  0  0  0  0  0  0  0  0  0  # atno 17321 bound_to 7965
  139.4842  144.4708  151.9427 LP  0  0  0  0  0  0  0  0  0  0  0  0  # atno 17342 bound_to 10162
  140.3794  144.2755  150.5910 LP  0  0  0  0  0  0  0  0  0  0  0  0  # atno 17343 bound_to 10162
  157.7496  131.0329  150.4247 LP  0  0  0  0  0  0  0  0  0  0  0  0  # atno 17370 bound_to 10713
  156.4500  130.4009  149.6642 LP  0  0  0  0  0  0  0  0  0  0  0  0  # atno 17371 bound_to 10713
  140.1809  134.9034  157.2947 LP  0  0  0  0  0  0  0  0  0  0  0  0  # atno 17394 bound_to 11000
  140.2396  134.3812  155.7486 LP  0  0  0  0  0  0  0  0  0  0  0  0  # atno 17395 bound_to 11000

$$$$
