AV-unprocessed.smi:2799|AV-procd|sdf|10791|dock8
  -GOLD-   2272015223D 1   1.00000     0.00000
 Structure written by MMmdl.
 52 53  0  0  0  0  0  0  0  0  2 V2000
  146.2362  132.9774  150.1973 C   0  0  0  0  0  0  0  0  0  0  0  0
  145.2075  131.9811  150.7526 C   0  0  0  0  0  0  0  0  0  0  0  0
  143.7908  132.3596  150.2886 C   0  0  0  0  0  0  0  0  0  0  0  0
  145.3117  131.9015  152.2922 C   0  0  0  0  0  0  0  0  0  0  0  0
  146.6896  131.6597  152.8050 N   0  3  2  0  0  0  0  0  0  0  0  0
  146.6878  130.7810  154.0067 C   0  0  0  0  0  0  0  0  0  0  0  0
  148.1104  130.3378  154.3825 C   0  0  0  0  0  0  0  0  0  0  0  0
  149.0304  131.5464  154.5811 C   0  0  0  0  0  0  0  0  0  0  0  0
  148.9953  132.4334  153.3300 C   0  0  0  0  0  0  0  0  0  0  0  0
  147.5560  132.8718  152.9667 C   0  0  2  0  0  0  0  0  0  0  0  0
  146.9530  133.9311  153.9289 C   0  0  0  0  0  0  0  0  0  0  0  0
  147.4626  135.2745  153.6659 N   0  0  0  0  0  0  0  0  0  0  0  0
  147.0982  136.3886  154.3174 C   0  0  0  0  0  0  0  0  0  0  0  0
  146.2768  136.3978  155.2336 O   0  0  0  0  0  0  0  0  0  0  0  0
  147.7683  137.4579  153.8505 N   0  0  0  0  0  0  0  0  0  0  0  0
  147.6765  138.8046  154.2431 C   0  0  0  0  0  0  0  0  0  0  0  0
  146.5217  139.5155  154.2908 C   0  0  0  0  0  0  0  0  0  0  0  0
  146.5198  140.9007  154.6957 C   0  0  0  0  0  0  0  0  0  0  0  0
  147.6889  141.4730  155.0149 C   0  0  0  0  0  0  0  0  0  0  0  0
  148.8980  140.7589  154.9626 N   0  0  0  0  0  0  0  0  0  0  0  0
  150.1236  141.4725  155.3303 C   0  0  0  0  0  0  0  0  0  0  0  0
  148.9601  139.4463  154.5883 C   0  0  0  0  0  0  0  0  0  0  0  0
  150.0360  138.8439  154.5481 O   0  0  0  0  0  0  0  0  0  0  0  0
  146.0552  133.9862  150.5704 H   0  0  0  0  0  0  0  0  0  0  0  0
  146.1999  133.0149  149.1081 H   0  0  0  0  0  0  0  0  0  0  0  0
  147.2506  132.6951  150.4808 H   0  0  0  0  0  0  0  0  0  0  0  0
  145.4606  131.0124  150.3230 H   0  0  0  0  0  0  0  0  0  0  0  0
  143.4863  133.3262  150.6913 H   0  0  0  0  0  0  0  0  0  0  0  0
  143.0546  131.6201  150.6041 H   0  0  0  0  0  0  0  0  0  0  0  0
  143.7391  132.4230  149.2013 H   0  0  0  0  0  0  0  0  0  0  0  0
  144.8986  132.7999  152.7510 H   0  0  0  0  0  0  0  0  0  0  0  0
  144.6723  131.0838  152.6285 H   0  0  0  0  0  0  0  0  0  0  0  0
  146.2136  131.2907  154.8457 H   0  0  0  0  0  0  0  0  0  0  0  0
  146.0880  129.8919  153.8086 H   0  0  0  0  0  0  0  0  0  0  0  0
  148.0859  129.7346  155.2905 H   0  0  0  0  0  0  0  0  0  0  0  0
  148.5130  129.6972  153.5966 H   0  0  0  0  0  0  0  0  0  0  0  0
  148.7158  132.1141  155.4569 H   0  0  0  0  0  0  0  0  0  0  0  0
  150.0502  131.2138  154.7771 H   0  0  0  0  0  0  0  0  0  0  0  0
  149.6516  133.2935  153.4607 H   0  0  0  0  0  0  0  0  0  0  0  0
  149.4153  131.8737  152.4930 H   0  0  0  0  0  0  0  0  0  0  0  0
  147.6423  133.3455  151.9897 H   0  0  0  0  0  0  0  0  0  0  0  0
  145.8733  133.9899  153.7975 H   0  0  0  0  0  0  0  0  0  0  0  0
  147.1128  133.6542  154.9713 H   0  0  0  0  0  0  0  0  0  0  0  0
  148.1478  135.3631  152.9294 H   0  0  0  0  0  0  0  0  0  0  0  0
  148.4682  137.2765  153.1455 H   0  0  0  0  0  0  0  0  0  0  0  0
  145.5746  139.0817  154.0135 H   0  0  0  0  0  0  0  0  0  0  0  0
  145.5983  141.4622  154.7407 H   0  0  0  0  0  0  0  0  0  0  0  0
  147.7704  142.5040  155.3273 H   0  0  0  0  0  0  0  0  0  0  0  0
  150.6014  140.9952  156.1871 H   0  0  0  0  0  0  0  0  0  0  0  0
  149.9414  142.5139  155.5983 H   0  0  0  0  0  0  0  0  0  0  0  0
  150.8322  141.4707  154.5004 H   0  0  0  0  0  0  0  0  0  0  0  0
  147.1404  131.1118  152.0862 H   0  0  0  0  0  0  0  0  0  0  0  0
  1  2  1  0  0  0  0
  1 24  1  0  0  0  0
  1 25  1  0  0  0  0
  1 26  1  0  0  0  0
  2  3  1  0  0  0  0
  2  4  1  0  0  0  0
  2 27  1  0  0  0  0
  3 28  1  0  0  0  0
  3 29  1  0  0  0  0
  3 30  1  0  0  0  0
  4  5  1  0  0  0  0
  4 31  1  0  0  0  0
  4 32  1  0  0  0  0
  5 10  1  0  0  0  0
  5  6  1  0  0  0  0
  5 52  1  0  0  0  0
  6  7  1  0  0  0  0
  6 33  1  0  0  0  0
  6 34  1  0  0  0  0
  7  8  1  0  0  0  0
  7 35  1  0  0  0  0
  7 36  1  0  0  0  0
  8  9  1  0  0  0  0
  8 37  1  0  0  0  0
  8 38  1  0  0  0  0
  9 10  1  0  0  0  0
  9 39  1  0  0  0  0
  9 40  1  0  0  0  0
 10 11  1  0  0  0  0
 10 41  1  0  0  0  0
 11 12  1  0  0  0  0
 11 42  1  0  0  0  0
 11 43  1  0  0  0  0
 12 13  1  0  0  0  0
 12 44  1  0  0  0  0
 13 14  2  0  0  0  0
 13 15  1  0  0  0  0
 15 16  1  0  0  0  0
 15 45  1  0  0  0  0
 16 22  1  0  0  0  0
 16 17  2  0  0  0  0
 17 18  1  0  0  0  0
 17 46  1  0  0  0  0
 18 19  2  0  0  0  0
 18 47  1  0  0  0  0
 19 20  1  0  0  0  0
 19 48  1  0  0  0  0
 20 21  1  0  0  0  0
 20 22  1  0  0  0  0
 21 49  1  0  0  0  0
 21 50  1  0  0  0  0
 21 51  1  0  0  0  0
 22 23  2  0  0  0  0
M  CHG  1   5   1
M  END
> <s_m_source_file>
AV-unprocessed.smi

> <i_m_source_file_index>
2799

> <i_lp_mmshare_version>
43012

> <i_f3d_flags>
0

> <s_epik_input>
W0NIM11bQ0hdKFtDSDNdKVtDSDJdTjFbQ0gyXVtDSDJdW0NIMl1bQ0gyXVtDQEhdMVtDSDJdW05IXUMoPU8pW05IXWMyW2NIXVtjSF1bY0hdbihbQ0gzXSljMj1P

> <s_epik_cmdline>
J2VwaWtfcHl0aG9uJywgJy1waCcsICc3LjAnLCAnLXRuJywgJzgnLCAnLW1hJywgJzIwMCcsICctbWV0YWxfYmluZGluZycsICctaW1hZScsICc8aW5maWxlLm1hZT4nLCAnLW9tYWUnLCAnPG91dGZpbGUubWFlPic=

> <r_lp_tautomer_probability>
1

> <r_epik_Ionization_Penalty>
0.0010885

> <r_epik_Ionization_Penalty_Charging>
0.00106921

> <r_epik_Ionization_Penalty_Neutral>
1.92865e-05

> <r_epik_State_Penalty>
0.000697184

> <r_epik_Charging_Adjusted_Penalty>
0.0017664

> <i_epik_Tot_Q>
1

> <i_epik_Tot_abs_Q>
1

> <r_epik_Metal_State_Penalty>
-0

> <b_epik_Metal_Only>
0

> <s_lp_Force_Field>
OPLS_2005

> <r_lp_Energy>
36.9818

> <b_lp_Chiralities_Consistent>
1

> <s_lp_Variant>
AV-unprocessed.smi:2799-3

> <Gold.Version>
5.8.1

> <Gold.Id.Protein>
6NUR|6NUR_protein|mol2

> <Gold.PLP.Fitness>
40.4879

> <Gold.PLP.PLP>
-33.7733

> <Gold.PLP.part.hbond>
-1.9708

> <Gold.PLP.part.metal>
0.0000

> <Gold.PLP.part.buried>
-3.6327

> <Gold.PLP.part.nonpolar>
-27.7708

> <Gold.PLP.part.repulsive>
0.2052

> <Gold.PLP.ligand.clash>
0.0000

> <Gold.PLP.ligand.torsion>
1.0947

> <Gold.PLP.Chemscore.Hbond>
1.9440

> <Gold.PLP.Chemscore.CHOScore>
1.0000

> <Gold.PLP.Chemscore.Metal>
0.0000

> <Gold.Chemscore.Hbonds>
donor molecule, donor type, donor heavy atom, donor atom, acceptor molecule, acceptor atom, score
      L1  H    12    44       P1  7948  1.00
      L1  H    15    45       P1  7948  0.93
      L1  C    19    48       P1  8028  1.00

> <Gold.PLP.Chemscore.Internal.Correction>
0.0720

> <Gold.Rescore>
     Score         DG    S(hbond)    S(metal)    S(lipo)     H(rot)  DE(clash)    DE(int)     intcor
     16.79     -18.00       1.92        0.00      86.63       1.57       0.00       1.21       ----

> <Gold.Chemscore.Fitness>
16.7888

> <Gold.Chemscore.DG>
-18.0014

> <Gold.Chemscore.ZeroCoef>
-5.4800

> <Gold.Chemscore.Hbond>
1.9166

> <Gold.Chemscore.Metal>
0.0000

> <Gold.Chemscore.Lipo>
86.6323

> <Gold.Chemscore.Internal_Hbond>
0.0000

> <Gold.Chemscore.DEClash>
0.0038

> <Gold.Chemscore.DEInternal>
1.2088

> <Gold.Chemscore.Rot>
1.5688

> <Gold.Chemscore.Internal.Correction>
   9.000000E+99

> <Gold.Chemscore.Hbonds>
donor molecule, donor type, donor heavy atom, donor atom, acceptor molecule, acceptor atom, score
      L1  H    12    44       P1  7948  0.94
      L1  H    15    45       P1  7948  0.91

> <Gold.Chemscore.Hbond.Weighted>
-6.4014

> <Gold.Chemscore.Metal.Weighted>
-0.0000

> <Gold.Chemscore.Lipo.Weighted>
-10.1360

> <Gold.Chemscore.Internal_Hbond.Weighted>
0.0000

> <Gold.Chemscore.DEClash.Weighted>
0.0038

> <Gold.Chemscore.DEInternal.Weighted>
1.2088

> <Gold.Chemscore.Rot.Weighted>
4.0161

> <Gold.Chemscore.Internal.Correction.Weighted>
   9.000000E+99

> <Gold.Protein.RotatedTorsions>
[ 6907 6896 6895 6894 ] final  -44.26 input  -60.11 | X-H torsion
[ 7974 7965 7964 7962 ] final  157.62 input  175.53 | X-H torsion
[ 8008 7997 7996 7995 ] final  -33.93 input   59.86 | X-H torsion
[ 10167 10162 10161 10158 ] final   83.79 input  -65.29 | X-H torsion
[ 10718 10713 10712 10709 ] final  -36.13 input   66.30 | X-H torsion
[ 10763 10752 10751 10750 ] final    5.05 input  -60.55 | X-H torsion
[ 11005 11000 10999 10996 ] final  -96.39 input  -57.11 | X-H torsion

> <Gold.Protein.ActiveResidues>
 VAL166  LYS551  ARG553  GLY616  TRP617  ASP618  TYR619  PRO620  LYS621  CYS622 
 ASP623  PHE694  ASN695  SER759  ASP760  ASP761  ALA762  ILE779  LEU786  VAL792 
 PHE793  MET794  SER795  GLU796  ALA797  LYS798  CYS799  TRP800  GLU811  SER814 

> <Gold.Protein.RotatedAtoms>
  150.9348  134.8761  159.7574 H   0  0  0  0  0  0  0  0  0  0  0  0  # atno 6907 bound_to 6896
  152.5054  134.4027  159.9432 H   0  0  0  0  0  0  0  0  0  0  0  0  # atno 6908 bound_to 6896
  151.4051  133.3705  159.2772 H   0  0  0  0  0  0  0  0  0  0  0  0  # atno 6909 bound_to 6896
  144.7892  139.7366  143.6228 H   0  0  0  0  0  0  0  0  0  0  0  0  # atno 7974 bound_to 7965
  154.4135  140.1697  156.1968 H   0  0  0  0  0  0  0  0  0  0  0  0  # atno 8008 bound_to 7997
  155.9558  140.3397  155.6423 H   0  0  0  0  0  0  0  0  0  0  0  0  # atno 8009 bound_to 7997
  155.6812  140.0723  157.2474 H   0  0  0  0  0  0  0  0  0  0  0  0  # atno 8010 bound_to 7997
  139.9147  144.6250  150.8501 H   0  0  0  0  0  0  0  0  0  0  0  0  # atno 10167 bound_to 10162
  156.3305  130.4278  149.7877 H   0  0  0  0  0  0  0  0  0  0  0  0  # atno 10718 bound_to 10713
  153.2640  135.6926  153.7549 H   0  0  0  0  0  0  0  0  0  0  0  0  # atno 10763 bound_to 10752
  153.6598  135.3362  155.3124 H   0  0  0  0  0  0  0  0  0  0  0  0  # atno 10764 bound_to 10752
  154.8440  135.4474  154.1640 H   0  0  0  0  0  0  0  0  0  0  0  0  # atno 10765 bound_to 10752
  141.1413  133.8094  157.0564 H   0  0  0  0  0  0  0  0  0  0  0  0  # atno 11005 bound_to 11000
  146.2137  139.5512  142.9664 LP  0  0  0  0  0  0  0  0  0  0  0  0  # atno 17320 bound_to 7965
  145.5839  141.0379  143.2107 LP  0  0  0  0  0  0  0  0  0  0  0  0  # atno 17321 bound_to 7965
  140.7677  143.3340  151.2349 LP  0  0  0  0  0  0  0  0  0  0  0  0  # atno 17342 bound_to 10162
  139.6912  143.9689  152.2860 LP  0  0  0  0  0  0  0  0  0  0  0  0  # atno 17343 bound_to 10162
  156.5151  130.8190  151.3183 LP  0  0  0  0  0  0  0  0  0  0  0  0  # atno 17370 bound_to 10713
  157.7429  130.9901  150.2554 LP  0  0  0  0  0  0  0  0  0  0  0  0  # atno 17371 bound_to 10713
  140.0599  134.9760  157.1286 LP  0  0  0  0  0  0  0  0  0  0  0  0  # atno 17394 bound_to 11000
  140.3864  134.2231  155.7168 LP  0  0  0  0  0  0  0  0  0  0  0  0  # atno 17395 bound_to 11000

$$$$
