AV-unprocessed.smi:1177|AV-procd|sdf|4954|dock7
  -GOLD-   22720 3543D 1   1.00000     0.00000
 Structure written by MMmdl.
 30 31  0  0  0  0  0  0  0  0  1 V2000
  148.5805  144.4087  161.5831 O   0  0  0  0  0  0  0  0  0  0  0  0
  148.3531  144.7801  160.4315 C   0  0  0  0  0  0  0  0  0  0  0  0
  149.2978  145.2010  159.5789 N   0  0  0  0  0  0  0  0  0  0  0  0
  150.7219  145.2840  159.8831 C   0  0  0  0  0  0  0  0  0  0  0  0
  151.5281  144.2149  159.1267 C   0  0  0  0  0  0  0  0  0  0  0  0
  152.3039  143.3101  160.0653 C   0  0  0  0  0  0  0  0  0  0  0  0
  153.1092  142.2674  159.5589 C   0  0  0  0  0  0  0  0  0  0  0  0
  153.8044  141.4523  160.4732 C   0  0  0  0  0  0  0  0  0  0  0  0
  153.6668  141.7082  161.8511 C   0  0  0  0  0  0  0  0  0  0  0  0
  152.8360  142.7724  162.2551 C   0  0  0  0  0  0  0  0  0  0  0  0
  152.1656  143.5602  161.3869 N   0  0  0  0  0  0  0  0  0  0  0  0
  147.1338  144.8157  159.8775 N   0  0  0  0  0  0  0  0  0  0  0  0
  145.9201  144.4357  160.5250 C   0  0  0  0  0  0  0  0  0  0  0  0
  146.0084  143.4191  161.6426 C   0  0  0  0  0  0  0  0  0  0  0  0
  145.4246  143.0210  160.3153 C   0  0  0  0  0  0  0  0  0  0  0  0
  149.0127  145.4826  158.6523 H   0  0  0  0  0  0  0  0  0  0  0  0
  151.0961  146.2829  159.6515 H   0  0  0  0  0  0  0  0  0  0  0  0
  150.8448  145.1479  160.9577 H   0  0  0  0  0  0  0  0  0  0  0  0
  150.8595  143.6075  158.5151 H   0  0  0  0  0  0  0  0  0  0  0  0
  152.2289  144.6870  158.4364 H   0  0  0  0  0  0  0  0  0  0  0  0
  153.1923  142.0938  158.4961 H   0  0  0  0  0  0  0  0  0  0  0  0
  154.4306  140.6444  160.1238 H   0  0  0  0  0  0  0  0  0  0  0  0
  154.1843  141.1035  162.5809 H   0  0  0  0  0  0  0  0  0  0  0  0
  152.7062  142.9965  163.3035 H   0  0  0  0  0  0  0  0  0  0  0  0
  147.0562  145.1390  158.9242 H   0  0  0  0  0  0  0  0  0  0  0  0
  145.1512  145.1995  160.6335 H   0  0  0  0  0  0  0  0  0  0  0  0
  146.9903  143.0239  161.8969 H   0  0  0  0  0  0  0  0  0  0  0  0
  145.3221  143.5333  162.4793 H   0  0  0  0  0  0  0  0  0  0  0  0
  144.3484  142.8683  160.2659 H   0  0  0  0  0  0  0  0  0  0  0  0
  146.0173  142.3615  159.6843 H   0  0  0  0  0  0  0  0  0  0  0  0
  1  2  2  0  0  0  0
  2  3  1  0  0  0  0
  2 12  1  0  0  0  0
  3  4  1  0  0  0  0
  3 16  1  0  0  0  0
  4  5  1  0  0  0  0
  4 17  1  0  0  0  0
  4 18  1  0  0  0  0
  5  6  1  0  0  0  0
  5 19  1  0  0  0  0
  5 20  1  0  0  0  0
  6 11  1  0  0  0  0
  6  7  2  0  0  0  0
  7  8  1  0  0  0  0
  7 21  1  0  0  0  0
  8  9  2  0  0  0  0
  8 22  1  0  0  0  0
  9 10  1  0  0  0  0
  9 23  1  0  0  0  0
 10 11  2  0  0  0  0
 10 24  1  0  0  0  0
 12 13  1  0  0  0  0
 12 25  1  0  0  0  0
 13 15  1  0  0  0  0
 13 14  1  0  0  0  0
 13 26  1  0  0  0  0
 14 15  1  0  0  0  0
 14 27  1  0  0  0  0
 14 28  1  0  0  0  0
 15 29  1  0  0  0  0
 15 30  1  0  0  0  0
M  END
> <s_m_source_file>
AV-unprocessed.smi

> <i_m_source_file_index>
1177

> <i_lp_mmshare_version>
43012

> <i_f3d_flags>
0

> <s_epik_input>
W0NIMl0xW0NIMl1bQ0hdMVtOSF1DKD1PKVtOSF1bQ0gyXVtDSDJdYzJbY0hdW2NIXVtjSF1bY0hdbjI=

> <s_epik_cmdline>
J2VwaWtfcHl0aG9uJywgJy1waCcsICc3LjAnLCAnLXRuJywgJzgnLCAnLW1hJywgJzIwMCcsICctbWV0YWxfYmluZGluZycsICctaW1hZScsICc8aW5maWxlLm1hZT4nLCAnLW9tYWUnLCAnPG91dGZpbGUubWFlPic=

> <r_epik_Ionization_Penalty>
0.0440342

> <r_epik_Ionization_Penalty_Charging>
0

> <r_epik_Ionization_Penalty_Neutral>
0.0440342

> <r_epik_State_Penalty>
0.0372351

> <r_epik_Charging_Adjusted_Penalty>
0.0372351

> <i_epik_Tot_Q>
0

> <i_epik_Tot_abs_Q>
0

> <r_epik_Metal_State_Penalty>
0.0346506

> <b_epik_Metal_Only>
0

> <s_lp_Force_Field>
OPLS_2005

> <r_lp_Energy>
12.265

> <b_lp_Chiralities_Consistent>
1

> <s_lp_Variant>
AV-unprocessed.smi:1177-1

> <Gold.Version>
5.8.1

> <Gold.Id.Protein>
6NUR|6NUR_protein|mol2

> <Gold.PLP.Fitness>
47.6039

> <Gold.PLP.PLP>
-40.9179

> <Gold.PLP.part.hbond>
-3.0000

> <Gold.PLP.part.metal>
0.0000

> <Gold.PLP.part.buried>
-7.7636

> <Gold.PLP.part.nonpolar>
-31.3611

> <Gold.PLP.part.repulsive>
0.6878

> <Gold.PLP.ligand.clash>
0.0000

> <Gold.PLP.ligand.torsion>
0.7835

> <Gold.PLP.Chemscore.Hbond>
2.7360

> <Gold.PLP.Chemscore.CHOScore>
0.0000

> <Gold.PLP.Chemscore.Metal>
0.0000

> <Gold.Chemscore.Hbonds>
donor molecule, donor type, donor heavy atom, donor atom, acceptor molecule, acceptor atom, score
      L1  H     3    16       P1  8029  1.00
      L1  H    12    25       P1  8029  1.00
      P1  H  6933  6944       L1     1  0.75

> <Gold.PLP.Chemscore.Internal.Correction>
0.0450

> <Gold.Rescore>
     Score         DG    S(hbond)    S(metal)    S(lipo)     H(rot)  DE(clash)    DE(int)     intcor
     18.70     -20.99       2.78        0.00      88.56       1.61       0.00       2.29       ----

> <Gold.Chemscore.Fitness>
18.6978

> <Gold.Chemscore.DG>
-20.9895

> <Gold.Chemscore.ZeroCoef>
-5.4800

> <Gold.Chemscore.Hbond>
2.7789

> <Gold.Chemscore.Metal>
0.0000

> <Gold.Chemscore.Lipo>
88.5587

> <Gold.Chemscore.Internal_Hbond>
0.0000

> <Gold.Chemscore.DEClash>
0.0048

> <Gold.Chemscore.DEInternal>
2.2869

> <Gold.Chemscore.Rot>
1.6147

> <Gold.Chemscore.Internal.Correction>
   9.000000E+99

> <Gold.Chemscore.Hbonds>
donor molecule, donor type, donor heavy atom, donor atom, acceptor molecule, acceptor atom, score
      L1  H     3    16       P1  8029  0.99
      L1  H    12    25       P1  8029  0.92
      P1  H  6933  6944       L1     1  0.31

> <Gold.Chemscore.Hbond.Weighted>
-9.2817

> <Gold.Chemscore.Metal.Weighted>
-0.0000

> <Gold.Chemscore.Lipo.Weighted>
-10.3614

> <Gold.Chemscore.Internal_Hbond.Weighted>
0.0000

> <Gold.Chemscore.DEClash.Weighted>
0.0048

> <Gold.Chemscore.DEInternal.Weighted>
2.2869

> <Gold.Chemscore.Rot.Weighted>
4.1336

> <Gold.Chemscore.Internal.Correction.Weighted>
   9.000000E+99

> <Gold.Protein.RotatedTorsions>
[ 6907 6896 6895 6894 ] final   65.84 input  -60.11 | X-H torsion
[ 7974 7965 7964 7962 ] final -121.20 input  175.53 | X-H torsion
[ 8008 7997 7996 7995 ] final   69.33 input   59.86 | X-H torsion
[ 10167 10162 10161 10158 ] final  -83.86 input  -65.29 | X-H torsion
[ 10718 10713 10712 10709 ] final  147.89 input   66.30 | X-H torsion
[ 10763 10752 10751 10750 ] final  -25.14 input  -60.55 | X-H torsion
[ 11005 11000 10999 10996 ] final   42.93 input  -57.11 | X-H torsion

> <Gold.Protein.ActiveResidues>
 VAL166  LYS551  ARG553  GLY616  TRP617  ASP618  TYR619  PRO620  LYS621  CYS622 
 ASP623  PHE694  ASN695  SER759  ASP760  ASP761  ALA762  ILE779  LEU786  VAL792 
 PHE793  MET794  SER795  GLU796  ALA797  LYS798  CYS799  TRP800  GLU811  SER814 

> <Gold.Protein.RotatedAtoms>
  152.4437  134.5539  159.9874 H   0  0  0  0  0  0  0  0  0  0  0  0  # atno 6907 bound_to 6896
  151.5629  133.3395  159.2982 H   0  0  0  0  0  0  0  0  0  0  0  0  # atno 6908 bound_to 6896
  150.8348  134.7650  159.6948 H   0  0  0  0  0  0  0  0  0  0  0  0  # atno 6909 bound_to 6896
  145.0430  140.8159  143.4255 H   0  0  0  0  0  0  0  0  0  0  0  0  # atno 7974 bound_to 7965
  155.7220  140.3493  155.5020 H   0  0  0  0  0  0  0  0  0  0  0  0  # atno 8008 bound_to 7997
  155.9261  140.1076  157.1191 H   0  0  0  0  0  0  0  0  0  0  0  0  # atno 8009 bound_to 7997
  154.4077  140.1240  156.4729 H   0  0  0  0  0  0  0  0  0  0  0  0  # atno 8010 bound_to 7997
  140.4187  143.2593  151.8920 H   0  0  0  0  0  0  0  0  0  0  0  0  # atno 10167 bound_to 10162
  157.3153  131.0895  151.1283 H   0  0  0  0  0  0  0  0  0  0  0  0  # atno 10718 bound_to 10713
  153.6950  135.6959  153.5079 H   0  0  0  0  0  0  0  0  0  0  0  0  # atno 10763 bound_to 10752
  153.2384  135.4314  155.0671 H   0  0  0  0  0  0  0  0  0  0  0  0  # atno 10764 bound_to 10752
  154.8361  135.3502  154.6491 H   0  0  0  0  0  0  0  0  0  0  0  0  # atno 10765 bound_to 10752
  140.1693  134.4243  155.8267 H   0  0  0  0  0  0  0  0  0  0  0  0  # atno 11005 bound_to 11000
  145.1624  139.2451  143.5384 LP  0  0  0  0  0  0  0  0  0  0  0  0  # atno 17320 bound_to 7965
  146.3511  140.1354  142.8596 LP  0  0  0  0  0  0  0  0  0  0  0  0  # atno 17321 bound_to 7965
  139.4782  144.5460  151.8457 LP  0  0  0  0  0  0  0  0  0  0  0  0  # atno 17342 bound_to 10162
  140.4558  144.1792  150.5901 LP  0  0  0  0  0  0  0  0  0  0  0  0  # atno 17343 bound_to 10162
  157.2589  130.6649  149.5965 LP  0  0  0  0  0  0  0  0  0  0  0  0  # atno 17370 bound_to 10713
  155.9681  130.4515  150.5737 LP  0  0  0  0  0  0  0  0  0  0  0  0  # atno 17371 bound_to 10713
  141.2216  133.6948  156.7734 LP  0  0  0  0  0  0  0  0  0  0  0  0  # atno 17394 bound_to 11000
  140.2397  134.8623  157.3560 LP  0  0  0  0  0  0  0  0  0  0  0  0  # atno 17395 bound_to 11000

$$$$
