#       Name:                AV-unprocessed.smi:3343
#       Creating user name   scv26
#       Creation time:       Fri Mar 27 19:30:02 2020


#       File generated by GOLD software.
#

@<TRIPOS>MOLECULE
AV-unprocessed.smi:3343
    47    48     1
SMALL
NO_CHARGES


@<TRIPOS>ATOM
      1 ****        -4.1629   0.8511  -2.3554 C.3            1 S1                 0.0000
      2 ****        -3.3245  -0.3061  -1.7821 C.3            1 S1                 0.0000
      3 ****        -1.8235   0.0146  -1.7481 C.2            1 S1                 0.0000
      4 ****        -1.4316   1.1596  -1.5174 O.2            1 S1                 0.0000
      5 ****        -0.9908  -1.0184  -1.9503 N.am           1 S1                 0.0000
      6 ****         0.4618  -0.9459  -1.8655 C.3            1 S1                 0.0000
      7 ****         0.9186  -0.9546  -0.3947 C.3            1 S1                 0.0000
      8 ****         2.3772  -0.9612  -0.2621 N.3            1 S1                 0.0000
      9 ****         3.0411   0.2840  -0.6661 C.3            1 S1                 0.0000
     10 ****         2.7411   1.4483   0.3019 C.3            1 S1                 0.0000
     11 ****         3.1422   1.0901   1.6823 N.4            1 S1                 1.0000
     12 ****         2.9265   2.1920   2.6441 C.3            1 S1                 0.0000
     13 ****         2.4940  -0.1732   2.1046 C.3            1 S1                 0.0000
     14 ****         2.8043  -1.3023   1.0979 C.3            1 S1                 0.0000
     15 ****        -3.7758  -0.6757  -0.4477 N.pl3          1 S1                 0.0000
     16 ****        -3.9046   0.0516   0.6659 C.2            1 S1                 0.0000
     17 ****        -4.3165  -0.6432   1.7169 N.2            1 S1                 0.0000
     18 ****        -4.4290  -1.8780   1.1435 C.2            1 S1                 0.0000
     19 ****        -4.1107  -1.9538  -0.1489 N.2            1 S1                 0.0000
     20 ****        -3.8265   1.1234  -3.3564 H              1 S1                 0.0000
     21 ****        -4.1071   1.7441  -1.7319 H              1 S1                 0.0000
     22 ****        -5.2132   0.5676  -2.4300 H              1 S1                 0.0000
     23 ****        -3.4673  -1.1676  -2.4378 H              1 S1                 0.0000
     24 ****        -1.3946  -1.9257  -2.1349 H              1 S1                 0.0000
     25 ****         0.8786  -1.8048  -2.3925 H              1 S1                 0.0000
     26 ****         0.8068  -0.0563  -2.3930 H              1 S1                 0.0000
     27 ****         0.4771  -0.1175   0.1445 H              1 S1                 0.0000
     28 ****         0.5270  -1.8589   0.0735 H              1 S1                 0.0000
     29 ****         4.1169   0.1048  -0.6904 H              1 S1                 0.0000
     30 ****         2.7645   0.5565  -1.6836 H              1 S1                 0.0000
     31 ****         3.2989   2.3304  -0.0139 H              1 S1                 0.0000
     32 ****         1.6863   1.7243   0.2732 H              1 S1                 0.0000
     33 ****         1.8674   2.4409   2.7235 H              1 S1                 0.0000
     34 ****         3.4662   3.0863   2.3313 H              1 S1                 0.0000
     35 ****         3.2879   1.9140   3.6347 H              1 S1                 0.0000
     36 ****         2.8687  -0.4559   3.0889 H              1 S1                 0.0000
     37 ****         1.4184  -0.0263   2.2129 H              1 S1                 0.0000
     38 ****         2.3279  -2.2319   1.4118 H              1 S1                 0.0000
     39 ****         3.8773  -1.4980   1.0882 H              1 S1                 0.0000
     40 ****        -3.6854   1.1086   0.7098 H              1 S1                 0.0000
     41 ****        -4.7499  -2.7483   1.6969 H              1 S1                 0.0000
     42 ****         4.1360   0.9114   1.6584 H              1 S1                 0.0000
     43 ****        -2.0934   1.8904  -1.3501 LP             1 S1                 0.0000
     44 ****        -0.4517   1.3582  -1.4975 LP             1 S1                 0.0000
     45 ****         2.6657  -1.6706  -0.9052 LP             1 S1                 0.0000
     46 ****        -4.4934  -0.3491   2.6561 LP             1 S1                 0.0000
     47 ****        -4.1175  -2.7543  -0.7482 LP             1 S1                 0.0000
@<TRIPOS>BOND
    1    1    2 1     
    2    1   20 1     
    3    1   21 1     
    4    1   22 1     
    5    2    3 1     
    6    2   15 1     
    7    2   23 1     
    8    3    4 2     
    9    3    5 am    
   10    5    6 1     
   11    5   24 1     
   12    6    7 1     
   13    6   25 1     
   14    6   26 1     
   15    7    8 1     
   16    7   27 1     
   17    7   28 1     
   18    8   14 1     
   19    8    9 1     
   20    9   10 1     
   21    9   29 1     
   22    9   30 1     
   23   10   11 1     
   24   10   31 1     
   25   10   32 1     
   26   11   12 1     
   27   11   13 1     
   28   11   42 1     
   29   12   33 1     
   30   12   34 1     
   31   12   35 1     
   32   13   14 1     
   33   13   36 1     
   34   13   37 1     
   35   14   38 1     
   36   14   39 1     
   37   15   19 1     
   38   15   16 1     
   39   16   17 2     
   40   16   40 1     
   41   17   18 1     
   42   18   19 2     
   43   18   41 1     
   44    4   43 1     
   45    4   44 1     
   46    8   45 1     
   47   17   46 1     
   48   19   47 1     
@<TRIPOS>SUBSTRUCTURE
      1 S1             1
@<TRIPOS>SET
LONE_PAIRS      STATIC     ATOMS    <user>   **** ""
5 43 44 45 46 47
DONOR_HYDROGENS      STATIC     ATOMS    <user>   **** ""
2 24 42
ATOM$BLUE        STATIC     ATOMS    COLORGROUP SYSTEM
5 43 44 45 46 47
ATOM$RED        STATIC     ATOMS    COLORGROUP SYSTEM
2 24 42
