#       Name:                AV-unprocessed.smi:1221
#       Creating user name   scv26
#       Creation time:       Fri Mar 27 04:17:43 2020


#       File generated by GOLD software.
#

@<TRIPOS>MOLECULE
AV-unprocessed.smi:1221
    47    48     1
SMALL
NO_CHARGES


@<TRIPOS>ATOM
      1 ****        -7.7128   2.3583  -0.2670 C.3            1 S1                 0.0000
      2 ****        -6.2534   2.0610  -0.2150 C.2            1 S1                 0.0000
      3 ****        -5.4855   1.0724  -0.7634 C.2            1 S1                 0.0000
      4 ****        -4.1785   1.3948  -0.3106 C.2            1 S1                 0.0000
      5 ****        -3.0654   0.5928  -0.6699 N.am           1 S1                 0.0000
      6 ****        -1.7827   0.7652  -0.3082 C.2            1 S1                 0.0000
      7 ****        -1.3646   1.6724   0.4119 O.2            1 S1                 0.0000
      8 ****        -0.9959  -0.1867  -0.8305 N.am           1 S1                 0.0000
      9 ****         0.4434  -0.2823  -0.6215 C.3            1 S1                 0.0000
     10 ****         0.7748  -0.9428   0.7298 C.3            1 S1                 0.0000
     11 ****         2.2253  -1.0052   0.9476 N.am           1 S1                 0.0000
     12 ****         2.8821  -2.2806   0.6166 C.3            1 S1                 0.0000
     13 ****         3.7880  -2.2070  -0.6351 C.3            1 S1                 0.0000
     14 ****         4.4460  -0.8431  -0.9237 C.3            1 S1                 0.0000
     15 ****         5.2181  -0.2274   0.2617 C.3            1 S1                 0.0000
     16 ****         4.4379  -0.0753   1.5893 C.3            1 S1                 0.0000
     17 ****         2.9166   0.0627   1.4174 C.2            1 S1                 0.0000
     18 ****         2.3833   1.1346   1.7052 O.2            1 S1                 0.0000
     19 ****        -4.1512   2.4815   0.4457 N.2            1 S1                 0.0000
     20 ****        -5.4806   2.9151   0.5095 O.3            1 S1                 0.0000
     21 ****        -8.2793   1.4761  -0.5655 H              1 S1                 0.0000
     22 ****        -7.9184   3.1521  -0.9850 H              1 S1                 0.0000
     23 ****        -8.0786   2.6801   0.7082 H              1 S1                 0.0000
     24 ****        -5.8093   0.2526  -1.3872 H              1 S1                 0.0000
     25 ****        -3.2683  -0.1976  -1.2635 H              1 S1                 0.0000
     26 ****        -1.4210  -0.8949  -1.4108 H              1 S1                 0.0000
     27 ****         0.8673  -0.8718  -1.4351 H              1 S1                 0.0000
     28 ****         0.8934   0.7095  -0.6927 H              1 S1                 0.0000
     29 ****         0.3043  -0.3906   1.5454 H              1 S1                 0.0000
     30 ****         0.3317  -1.9382   0.7714 H              1 S1                 0.0000
     31 ****         3.4650  -2.6156   1.4750 H              1 S1                 0.0000
     32 ****         2.1513  -3.0762   0.4686 H              1 S1                 0.0000
     33 ****         4.5579  -2.9755  -0.5584 H              1 S1                 0.0000
     34 ****         3.1923  -2.4763  -1.5079 H              1 S1                 0.0000
     35 ****         5.1271  -0.9539  -1.7677 H              1 S1                 0.0000
     36 ****         3.6856  -0.1404  -1.2671 H              1 S1                 0.0000
     37 ****         6.1100  -0.8255   0.4513 H              1 S1                 0.0000
     38 ****         5.5845   0.7535  -0.0435 H              1 S1                 0.0000
     39 ****         4.6448  -0.9207   2.2452 H              1 S1                 0.0000
     40 ****         4.8166   0.7938   2.1288 H              1 S1                 0.0000
     41 ****        -1.9989   2.3544   0.7760 LP             1 S1                 0.0000
     42 ****        -0.3908   1.7271   0.6326 LP             1 S1                 0.0000
     43 ****         1.3956   1.2469   1.5959 LP             1 S1                 0.0000
     44 ****         2.9378   1.8927   2.0483 LP             1 S1                 0.0000
     45 ****        -3.3533   2.9016   0.8779 LP             1 S1                 0.0000
     46 ****        -5.7873   2.9212   1.4613 LP             1 S1                 0.0000
     47 ****        -5.5522   3.8376   0.1303 LP             1 S1                 0.0000
@<TRIPOS>BOND
    1    1    2 1     
    2    1   21 1     
    3    1   22 1     
    4    1   23 1     
    5    2   20 1     
    6    2    3 2     
    7    3    4 1     
    8    3   24 1     
    9    4    5 1     
   10    4   19 2     
   11    5    6 am    
   12    5   25 1     
   13    6    7 2     
   14    6    8 am    
   15    8    9 1     
   16    8   26 1     
   17    9   10 1     
   18    9   27 1     
   19    9   28 1     
   20   10   11 1     
   21   10   29 1     
   22   10   30 1     
   23   11   17 am    
   24   11   12 1     
   25   12   13 1     
   26   12   31 1     
   27   12   32 1     
   28   13   14 1     
   29   13   33 1     
   30   13   34 1     
   31   14   15 1     
   32   14   35 1     
   33   14   36 1     
   34   15   16 1     
   35   15   37 1     
   36   15   38 1     
   37   16   17 1     
   38   16   39 1     
   39   16   40 1     
   40   17   18 2     
   41   19   20 1     
   42    7   41 1     
   43    7   42 1     
   44   18   43 1     
   45   18   44 1     
   46   19   45 1     
   47   20   46 1     
   48   20   47 1     
@<TRIPOS>SUBSTRUCTURE
      1 S1             1
@<TRIPOS>SET
LONE_PAIRS      STATIC     ATOMS    <user>   **** ""
7 41 42 43 44 45 46 47
DONOR_HYDROGENS      STATIC     ATOMS    <user>   **** ""
2 25 26
ATOM$BLUE        STATIC     ATOMS    COLORGROUP SYSTEM
7 41 42 43 44 45 46 47
ATOM$RED        STATIC     ATOMS    COLORGROUP SYSTEM
2 25 26
