AV-unprocessed.smi:2300|AV-procd|sdf|9232|dock7
  -GOLD-   2272012453D 1   1.00000     0.00000
 Structure written by MMmdl.
 51 52  0  0  0  0  0  0  0  0  1 V2000
  145.7618  142.9550  156.4356 C   0  0  0  0  0  0  0  0  0  0  0  0
  146.4321  142.0194  155.4351 C   0  0  0  0  0  0  0  0  0  0  0  0
  145.7740  141.1472  154.8687 O   0  0  0  0  0  0  0  0  0  0  0  0
  147.7433  142.2107  155.2280 N   0  0  0  0  0  0  0  0  0  0  0  0
  148.5685  141.4344  154.3088 C   0  0  0  0  0  0  0  0  0  0  0  0
  149.5551  140.5236  155.0588 C   0  0  2  0  0  0  0  0  0  0  0  0
  150.3572  141.3028  156.1182 C   0  0  0  0  0  0  0  0  0  0  0  0
  151.3566  140.4390  156.7439 N   0  0  0  0  0  0  0  0  0  0  0  0
  151.9979  140.9115  157.9093 C   0  0  0  0  0  0  0  0  0  0  0  0
  152.7386  140.0360  158.7385 C   0  0  0  0  0  0  0  0  0  0  0  0
  153.3450  140.5963  159.8829 C   0  0  0  0  0  0  0  0  0  0  0  0
  154.1597  139.7422  160.8439 C   0  0  0  0  0  0  0  0  0  0  0  0
  155.6033  140.2520  160.9763 C   0  0  0  0  0  0  0  0  0  0  0  0
  154.0979  138.2518  160.4746 C   0  0  0  0  0  0  0  0  0  0  0  0
  153.2248  141.9099  160.1756 N   0  0  0  0  0  0  0  0  0  0  0  0
  152.5010  142.6546  159.3353 C   0  0  0  0  0  0  0  0  0  0  0  0
  152.3619  144.1346  159.6665 C   0  0  0  0  0  0  0  0  0  0  0  0
  151.8435  144.3580  161.0955 C   0  0  0  0  0  0  0  0  0  0  0  0
  151.5443  144.8868  158.6050 C   0  0  0  0  0  0  0  0  0  0  0  0
  151.8869  142.2245  158.2293 N   0  0  0  0  0  0  0  0  0  0  0  0
  152.2123  139.7492  155.7820 C   0  0  0  0  0  0  0  0  0  0  0  0
  151.3590  139.0359  154.7198 C   0  0  0  0  0  0  0  0  0  0  0  0
  150.4664  139.9653  154.1152 O   0  0  0  0  0  0  0  0  0  0  0  0
  146.0704  143.9872  156.2662 H   0  0  0  0  0  0  0  0  0  0  0  0
  146.0325  142.6755  157.4540 H   0  0  0  0  0  0  0  0  0  0  0  0
  144.6762  142.9058  156.3439 H   0  0  0  0  0  0  0  0  0  0  0  0
  148.2011  142.9551  155.7336 H   0  0  0  0  0  0  0  0  0  0  0  0
  147.9119  140.8352  153.6776 H   0  0  0  0  0  0  0  0  0  0  0  0
  149.1078  142.1085  153.6411 H   0  0  0  0  0  0  0  0  0  0  0  0
  149.0015  139.7198  155.5482 H   0  0  0  0  0  0  0  0  0  0  0  0
  150.8568  142.1579  155.6607 H   0  0  0  0  0  0  0  0  0  0  0  0
  149.6718  141.6903  156.8731 H   0  0  0  0  0  0  0  0  0  0  0  0
  152.8288  138.9817  158.5253 H   0  0  0  0  0  0  0  0  0  0  0  0
  153.7009  139.8405  161.8286 H   0  0  0  0  0  0  0  0  0  0  0  0
  155.6224  141.2929  161.3011 H   0  0  0  0  0  0  0  0  0  0  0  0
  156.1379  140.1892  160.0278 H   0  0  0  0  0  0  0  0  0  0  0  0
  156.1601  139.6676  161.7091 H   0  0  0  0  0  0  0  0  0  0  0  0
  153.0669  137.8981  160.4484 H   0  0  0  0  0  0  0  0  0  0  0  0
  154.6364  137.6449  161.2029 H   0  0  0  0  0  0  0  0  0  0  0  0
  154.5400  138.0635  159.4956 H   0  0  0  0  0  0  0  0  0  0  0  0
  153.3644  144.5656  159.6376 H   0  0  0  0  0  0  0  0  0  0  0  0
  152.4942  143.8775  161.8267 H   0  0  0  0  0  0  0  0  0  0  0  0
  150.8398  143.9517  161.2238 H   0  0  0  0  0  0  0  0  0  0  0  0
  151.8035  145.4205  161.3364 H   0  0  0  0  0  0  0  0  0  0  0  0
  151.9856  144.7678  157.6151 H   0  0  0  0  0  0  0  0  0  0  0  0
  151.5063  145.9543  158.8232 H   0  0  0  0  0  0  0  0  0  0  0  0
  150.5179  144.5213  158.5590 H   0  0  0  0  0  0  0  0  0  0  0  0
  152.8654  140.4810  155.3051 H   0  0  0  0  0  0  0  0  0  0  0  0
  152.8568  139.0166  156.2655 H   0  0  0  0  0  0  0  0  0  0  0  0
  152.0007  138.6082  153.9495 H   0  0  0  0  0  0  0  0  0  0  0  0
  150.7983  138.2102  155.1606 H   0  0  0  0  0  0  0  0  0  0  0  0
  1  2  1  0  0  0  0
  1 24  1  0  0  0  0
  1 25  1  0  0  0  0
  1 26  1  0  0  0  0
  2  3  2  0  0  0  0
  2  4  1  0  0  0  0
  4  5  1  0  0  0  0
  4 27  1  0  0  0  0
  5  6  1  0  0  0  0
  5 28  1  0  0  0  0
  5 29  1  0  0  0  0
  6 23  1  0  0  0  0
  6  7  1  0  0  0  0
  6 30  1  0  0  0  0
  7  8  1  0  0  0  0
  7 31  1  0  0  0  0
  7 32  1  0  0  0  0
  8  9  1  0  0  0  0
  8 21  1  0  0  0  0
  9 20  1  0  0  0  0
  9 10  2  0  0  0  0
 10 11  1  0  0  0  0
 10 33  1  0  0  0  0
 11 12  1  0  0  0  0
 11 15  2  0  0  0  0
 12 13  1  0  0  0  0
 12 14  1  0  0  0  0
 12 34  1  0  0  0  0
 13 35  1  0  0  0  0
 13 36  1  0  0  0  0
 13 37  1  0  0  0  0
 14 38  1  0  0  0  0
 14 39  1  0  0  0  0
 14 40  1  0  0  0  0
 15 16  1  0  0  0  0
 16 17  1  0  0  0  0
 16 20  2  0  0  0  0
 17 18  1  0  0  0  0
 17 19  1  0  0  0  0
 17 41  1  0  0  0  0
 18 42  1  0  0  0  0
 18 43  1  0  0  0  0
 18 44  1  0  0  0  0
 19 45  1  0  0  0  0
 19 46  1  0  0  0  0
 19 47  1  0  0  0  0
 21 22  1  0  0  0  0
 21 48  1  0  0  0  0
 21 49  1  0  0  0  0
 22 23  1  0  0  0  0
 22 50  1  0  0  0  0
 22 51  1  0  0  0  0
M  END
> <s_m_source_file>
AV-unprocessed.smi

> <i_m_source_file_index>
2300

> <i_lp_mmshare_version>
43012

> <i_f3d_flags>
0

> <s_epik_input>
W0NIM11DKD1PKVtOSF1bQ0gyXVtDQEBIXTFbQ0gyXU4oW0NIMl1bQ0gyXU8xKWMyW2NIXWMoW0NIXShbQ0gzXSlbQ0gzXSluYyhuMilbQ0hdKFtDSDNdKVtDSDNd

> <s_epik_cmdline>
J2VwaWtfcHl0aG9uJywgJy1waCcsICc3LjAnLCAnLXRuJywgJzgnLCAnLW1hJywgJzIwMCcsICctbWV0YWxfYmluZGluZycsICctaW1hZScsICc8aW5maWxlLm1hZT4nLCAnLW9tYWUnLCAnPG91dGZpbGUubWFlPic=

> <r_lp_tautomer_probability>
1

> <r_epik_Ionization_Penalty>
0.0035465

> <r_epik_Ionization_Penalty_Charging>
0

> <r_epik_Ionization_Penalty_Neutral>
0.0035465

> <r_epik_State_Penalty>
0.00247846

> <r_epik_Charging_Adjusted_Penalty>
0.00247846

> <i_epik_Tot_Q>
0

> <i_epik_Tot_abs_Q>
0

> <r_epik_Metal_State_Penalty>
-0

> <b_epik_Metal_Only>
0

> <s_lp_Force_Field>
OPLS_2005

> <r_lp_Energy>
0.953056

> <b_lp_Chiralities_Consistent>
1

> <s_lp_Variant>
AV-unprocessed.smi:2300-1

> <Gold.Version>
5.8.1

> <Gold.Id.Protein>
6NUR|6NUR_protein|mol2

> <Gold.PLP.Fitness>
54.3253

> <Gold.PLP.PLP>
-48.6258

> <Gold.PLP.part.hbond>
-2.0000

> <Gold.PLP.part.metal>
0.0000

> <Gold.PLP.part.buried>
-6.0487

> <Gold.PLP.part.nonpolar>
-40.5280

> <Gold.PLP.part.repulsive>
0.8385

> <Gold.PLP.ligand.clash>
0.0000

> <Gold.PLP.ligand.torsion>
0.3699

> <Gold.PLP.Chemscore.Hbond>
1.9920

> <Gold.PLP.Chemscore.CHOScore>
0.0000

> <Gold.PLP.Chemscore.Metal>
0.0000

> <Gold.Chemscore.Hbonds>
donor molecule, donor type, donor heavy atom, donor atom, acceptor molecule, acceptor atom, score
      L1  H     4    27       P1  8028  0.91
      P1  H  7989  7998       L1    23  0.75

> <Gold.PLP.Chemscore.Internal.Correction>
0.4633

> <Gold.Rescore>
     Score         DG    S(hbond)    S(metal)    S(lipo)     H(rot)  DE(clash)    DE(int)     intcor
     18.35     -19.04       1.51        0.00     112.52       1.82       0.12       0.57       ----

> <Gold.Chemscore.Fitness>
18.3466

> <Gold.Chemscore.DG>
-19.0355

> <Gold.Chemscore.ZeroCoef>
-5.4800

> <Gold.Chemscore.Hbond>
1.5084

> <Gold.Chemscore.Metal>
0.0000

> <Gold.Chemscore.Lipo>
112.5246

> <Gold.Chemscore.Internal_Hbond>
0.0000

> <Gold.Chemscore.DEClash>
0.1205

> <Gold.Chemscore.DEInternal>
0.5684

> <Gold.Chemscore.Rot>
1.8156

> <Gold.Chemscore.Internal.Correction>
   9.000000E+99

> <Gold.Chemscore.Hbonds>
donor molecule, donor type, donor heavy atom, donor atom, acceptor molecule, acceptor atom, score
      L1  H     4    27       P1  8028  0.80
      P1  H  7989  7998       L1    23  0.09

> <Gold.Chemscore.Hbond.Weighted>
-5.0382

> <Gold.Chemscore.Metal.Weighted>
-0.0000

> <Gold.Chemscore.Lipo.Weighted>
-13.1654

> <Gold.Chemscore.Internal_Hbond.Weighted>
0.0000

> <Gold.Chemscore.DEClash.Weighted>
0.1205

> <Gold.Chemscore.DEInternal.Weighted>
0.5684

> <Gold.Chemscore.Rot.Weighted>
4.6481

> <Gold.Chemscore.Internal.Correction.Weighted>
   9.000000E+99

> <Gold.Protein.RotatedTorsions>
[ 6907 6896 6895 6894 ] final -108.05 input  -60.11 | X-H torsion
[ 7974 7965 7964 7962 ] final   83.90 input  175.53 | X-H torsion
[ 8008 7997 7996 7995 ] final  171.01 input   59.86 | X-H torsion
[ 10167 10162 10161 10158 ] final  144.75 input  -65.29 | X-H torsion
[ 10718 10713 10712 10709 ] final -146.07 input   66.30 | X-H torsion
[ 10763 10752 10751 10750 ] final   66.46 input  -60.55 | X-H torsion
[ 11005 11000 10999 10996 ] final  -90.56 input  -57.11 | X-H torsion

> <Gold.Protein.ActiveResidues>
 VAL166  LYS551  ARG553  GLY616  TRP617  ASP618  TYR619  PRO620  LYS621  CYS622 
 ASP623  PHE694  ASN695  SER759  ASP760  ASP761  ALA762  ILE779  LEU786  VAL792 
 PHE793  MET794  SER795  GLU796  ALA797  LYS798  CYS799  TRP800  GLU811  SER814 

> <Gold.Protein.RotatedAtoms>
  150.7479  133.9735  159.3553 H   0  0  0  0  0  0  0  0  0  0  0  0  # atno 6907 bound_to 6896
  151.7670  135.0794  160.0363 H   0  0  0  0  0  0  0  0  0  0  0  0  # atno 6908 bound_to 6896
  152.3364  133.5980  159.5882 H   0  0  0  0  0  0  0  0  0  0  0  0  # atno 6909 bound_to 6896
  145.6059  139.2360  143.2219 H   0  0  0  0  0  0  0  0  0  0  0  0  # atno 7974 bound_to 7965
  156.1312  140.1523  156.9063 H   0  0  0  0  0  0  0  0  0  0  0  0  # atno 8008 bound_to 7997
  154.4910  140.0851  156.7634 H   0  0  0  0  0  0  0  0  0  0  0  0  # atno 8009 bound_to 7997
  155.4253  140.3425  155.4277 H   0  0  0  0  0  0  0  0  0  0  0  0  # atno 8010 bound_to 7997
  139.4940  144.5950  151.6602 H   0  0  0  0  0  0  0  0  0  0  0  0  # atno 10167 bound_to 10162
  156.3903  130.7882  151.2084 H   0  0  0  0  0  0  0  0  0  0  0  0  # atno 10718 bound_to 10713
  153.0141  135.5320  154.6827 H   0  0  0  0  0  0  0  0  0  0  0  0  # atno 10763 bound_to 10752
  154.5982  135.2865  155.0565 H   0  0  0  0  0  0  0  0  0  0  0  0  # atno 10764 bound_to 10752
  154.1632  135.6544  153.5043 H   0  0  0  0  0  0  0  0  0  0  0  0  # atno 10765 bound_to 10752
  141.1563  133.7700  156.9756 H   0  0  0  0  0  0  0  0  0  0  0  0  # atno 11005 bound_to 11000
  146.1541  140.6883  142.9308 LP  0  0  0  0  0  0  0  0  0  0  0  0  # atno 17320 bound_to 7965
  144.7290  140.4614  143.6952 LP  0  0  0  0  0  0  0  0  0  0  0  0  # atno 17321 bound_to 7965
  140.5585  144.0307  150.6159 LP  0  0  0  0  0  0  0  0  0  0  0  0  # atno 17342 bound_to 10162
  140.3385  143.3034  152.0613 LP  0  0  0  0  0  0  0  0  0  0  0  0  # atno 17343 bound_to 10162
  157.7498  131.0317  150.4196 LP  0  0  0  0  0  0  0  0  0  0  0  0  # atno 17370 bound_to 10713
  156.4456  130.4000  149.6669 LP  0  0  0  0  0  0  0  0  0  0  0  0  # atno 17371 bound_to 10713
  140.1100  134.9482  157.2051 LP  0  0  0  0  0  0  0  0  0  0  0  0  # atno 17394 bound_to 11000
  140.3206  134.2921  155.7247 LP  0  0  0  0  0  0  0  0  0  0  0  0  # atno 17395 bound_to 11000

$$$$
