AV-unprocessed.smi:1032|AV-procd|sdf|4484|dock2
  -GOLD-   22720 2463D 1   1.00000     0.00000
 Structure written by MMmdl.
 46 47  0  0  0  0  0  0  0  0  2 V2000
  144.5681  133.0734  151.2115 C   0  0  0  0  0  0  0  0  0  0  0  0
  145.8384  133.8794  150.8879 C   0  0  2  0  0  0  0  0  0  0  0  0
  147.0709  133.3895  151.6695 C   0  0  0  0  0  0  0  0  0  0  0  0
  147.0287  133.8101  153.1495 C   0  0  0  0  0  0  0  0  0  0  0  0
  146.8761  135.2814  153.2863 N   0  3  2  0  0  0  0  0  0  0  0  0
  146.9853  135.7284  154.6994 C   0  0  0  0  0  0  0  0  0  0  0  0
  146.9007  137.2615  154.8501 C   0  0  2  0  0  0  0  0  0  0  0  0
  147.7732  137.8386  153.8973 O   0  0  0  0  0  0  0  0  0  0  0  0
  147.3523  137.7201  156.2520 C   0  0  0  0  0  0  0  0  0  0  0  0
  147.1209  136.6926  157.2625 N   0  0  0  0  0  0  0  0  0  0  0  0
  147.4445  136.8059  158.5590 C   0  0  0  0  0  0  0  0  0  0  0  0
  147.9984  137.7986  159.0317 O   0  0  0  0  0  0  0  0  0  0  0  0
  147.1098  135.6995  159.2452 N   0  0  0  0  0  0  0  0  0  0  0  0
  147.2246  135.4543  160.6410 C   0  0  0  0  0  0  0  0  0  0  0  0
  146.9043  134.1641  161.1121 C   0  0  0  0  0  0  0  0  0  0  0  0
  146.9886  133.9052  162.4948 C   0  0  0  0  0  0  0  0  0  0  0  0
  147.3533  134.8350  163.4025 N   0  0  0  0  0  0  0  0  0  0  0  0
  147.6458  136.0731  162.9515 C   0  0  0  0  0  0  0  0  0  0  0  0
  147.5944  136.4368  161.5909 C   0  0  0  0  0  0  0  0  0  0  0  0
  145.6473  135.7671  152.6032 C   0  0  0  0  0  0  0  0  0  0  0  0
  145.6575  135.3921  151.1102 C   0  0  0  0  0  0  0  0  0  0  0  0
  144.2783  133.1625  152.2581 H   0  0  0  0  0  0  0  0  0  0  0  0
  144.7144  132.0138  150.9998 H   0  0  0  0  0  0  0  0  0  0  0  0
  143.7266  133.4129  150.6069 H   0  0  0  0  0  0  0  0  0  0  0  0
  146.0389  133.7245  149.8270 H   0  0  0  0  0  0  0  0  0  0  0  0
  147.1628  132.3058  151.5896 H   0  0  0  0  0  0  0  0  0  0  0  0
  147.9708  133.8026  151.2119 H   0  0  0  0  0  0  0  0  0  0  0  0
  146.2128  133.3065  153.6698 H   0  0  0  0  0  0  0  0  0  0  0  0
  147.9531  133.4901  153.6322 H   0  0  0  0  0  0  0  0  0  0  0  0
  146.2043  135.2418  155.2860 H   0  0  0  0  0  0  0  0  0  0  0  0
  147.9338  135.3922  155.1218 H   0  0  0  0  0  0  0  0  0  0  0  0
  145.8845  137.6034  154.6574 H   0  0  0  0  0  0  0  0  0  0  0  0
  147.8488  137.2523  153.1596 H   0  0  0  0  0  0  0  0  0  0  0  0
  148.4179  137.9568  156.2430 H   0  0  0  0  0  0  0  0  0  0  0  0
  146.8473  138.6409  156.5467 H   0  0  0  0  0  0  0  0  0  0  0  0
  146.6770  135.8399  156.9534 H   0  0  0  0  0  0  0  0  0  0  0  0
  146.7575  134.9268  158.6993 H   0  0  0  0  0  0  0  0  0  0  0  0
  146.6035  133.3815  160.4308 H   0  0  0  0  0  0  0  0  0  0  0  0
  146.7535  132.9249  162.8819 H   0  0  0  0  0  0  0  0  0  0  0  0
  147.9228  136.8005  163.6999 H   0  0  0  0  0  0  0  0  0  0  0  0
  147.8226  137.4531  161.3099 H   0  0  0  0  0  0  0  0  0  0  0  0
  144.7654  135.3541  153.0946 H   0  0  0  0  0  0  0  0  0  0  0  0
  145.5681  136.8501  152.6859 H   0  0  0  0  0  0  0  0  0  0  0  0
  146.4731  135.9248  150.6192 H   0  0  0  0  0  0  0  0  0  0  0  0
  144.7411  135.7374  150.6305 H   0  0  0  0  0  0  0  0  0  0  0  0
  147.6627  135.6911  152.8022 H   0  0  0  0  0  0  0  0  0  0  0  0
  1  2  1  0  0  0  0
  1 22  1  0  0  0  0
  1 23  1  0  0  0  0
  1 24  1  0  0  0  0
  2 21  1  0  0  0  0
  2  3  1  0  0  0  0
  2 25  1  0  0  0  0
  3  4  1  0  0  0  0
  3 26  1  0  0  0  0
  3 27  1  0  0  0  0
  4  5  1  0  0  0  0
  4 28  1  0  0  0  0
  4 29  1  0  0  0  0
  5  6  1  0  0  0  0
  5 20  1  0  0  0  0
  5 46  1  0  0  0  0
  6  7  1  0  0  0  0
  6 30  1  0  0  0  0
  6 31  1  0  0  0  0
  7  8  1  0  0  0  0
  7  9  1  0  0  0  0
  7 32  1  0  0  0  0
  8 33  1  0  0  0  0
  9 10  1  0  0  0  0
  9 34  1  0  0  0  0
  9 35  1  0  0  0  0
 10 11  1  0  0  0  0
 10 36  1  0  0  0  0
 11 12  2  0  0  0  0
 11 13  1  0  0  0  0
 13 14  1  0  0  0  0
 13 37  1  0  0  0  0
 14 19  1  0  0  0  0
 14 15  2  0  0  0  0
 15 16  1  0  0  0  0
 15 38  1  0  0  0  0
 16 17  2  0  0  0  0
 16 39  1  0  0  0  0
 17 18  1  0  0  0  0
 18 19  2  0  0  0  0
 18 40  1  0  0  0  0
 19 41  1  0  0  0  0
 20 21  1  0  0  0  0
 20 42  1  0  0  0  0
 20 43  1  0  0  0  0
 21 44  1  0  0  0  0
 21 45  1  0  0  0  0
M  CHG  1   5   1
M  END
> <s_m_source_file>
AV-unprocessed.smi

> <i_m_source_file_index>
1032

> <i_lp_mmshare_version>
43012

> <i_f3d_flags>
0

> <s_epik_input>
W0NIM11bQ0hdMVtDSDJdW0NIMl1OKFtDSDJdW0NIMl0xKVtDSDJdW0NASF0oW09IXSlbQ0gyXVtOSF1DKD1PKVtOSF1jMltjSF1bY0hdbltjSF1bY0hdMg==

> <s_epik_cmdline>
J2VwaWtfcHl0aG9uJywgJy1waCcsICc3LjAnLCAnLXRuJywgJzgnLCAnLW1hJywgJzIwMCcsICctbWV0YWxfYmluZGluZycsICctaW1hZScsICc8aW5maWxlLm1hZT4nLCAnLW9tYWUnLCAnPG91dGZpbGUubWFlPic=

> <r_epik_Ionization_Penalty>
0.11743

> <r_epik_Ionization_Penalty_Charging>
0.00147689

> <r_epik_Ionization_Penalty_Neutral>
0.115954

> <r_epik_State_Penalty>
0.105552

> <r_epik_Charging_Adjusted_Penalty>
0.107029

> <i_epik_Tot_Q>
1

> <i_epik_Tot_abs_Q>
1

> <r_epik_Metal_State_Penalty>
0.0881315

> <b_epik_Metal_Only>
0

> <s_lp_Force_Field>
OPLS_2005

> <r_lp_Energy>
27.8134

> <b_lp_Chiralities_Consistent>
1

> <s_lp_Variant>
AV-unprocessed.smi:1032-3

> <Gold.Version>
5.8.1

> <Gold.Id.Protein>
6NUR|6NUR_protein|mol2

> <Gold.PLP.Fitness>
42.6755

> <Gold.PLP.PLP>
-34.8264

> <Gold.PLP.part.hbond>
-4.3590

> <Gold.PLP.part.metal>
0.0000

> <Gold.PLP.part.buried>
-5.4648

> <Gold.PLP.part.nonpolar>
-25.4658

> <Gold.PLP.part.repulsive>
0.0540

> <Gold.PLP.ligand.clash>
0.2990

> <Gold.PLP.ligand.torsion>
0.5290

> <Gold.PLP.Chemscore.Hbond>
3.0499

> <Gold.PLP.Chemscore.CHOScore>
0.0000

> <Gold.PLP.Chemscore.Metal>
0.0000

> <Gold.Chemscore.Hbonds>
donor molecule, donor type, donor heavy atom, donor atom, acceptor molecule, acceptor atom, score
      L1  H     5    46       P1  7948  2.00
      L1  H     8    33       P1  7948  1.00
      P1  H  6934  6947       L1    12  0.06

> <Gold.PLP.Chemscore.Internal.Correction>
0.0564

> <Gold.Rescore>
     Score         DG    S(hbond)    S(metal)    S(lipo)     H(rot)  DE(clash)    DE(int)     intcor
     13.80     -15.65       2.15        0.00      75.51       2.29       0.07       1.77       ----

> <Gold.Chemscore.Fitness>
13.8027

> <Gold.Chemscore.DG>
-15.6462

> <Gold.Chemscore.ZeroCoef>
-5.4800

> <Gold.Chemscore.Hbond>
2.1511

> <Gold.Chemscore.Metal>
0.0000

> <Gold.Chemscore.Lipo>
75.5126

> <Gold.Chemscore.Internal_Hbond>
0.0000

> <Gold.Chemscore.DEClash>
0.0718

> <Gold.Chemscore.DEInternal>
1.7717

> <Gold.Chemscore.Rot>
2.2865

> <Gold.Chemscore.Internal.Correction>
   9.000000E+99

> <Gold.Chemscore.Hbonds>
donor molecule, donor type, donor heavy atom, donor atom, acceptor molecule, acceptor atom, score
      L1  H     5    46       P1  7948  1.00
      L1  H     8    33       P1  7948  0.93
      P1  H  6934  6947       L1    12  0.07

> <Gold.Chemscore.Hbond.Weighted>
-7.1848

> <Gold.Chemscore.Metal.Weighted>
-0.0000

> <Gold.Chemscore.Lipo.Weighted>
-8.8350

> <Gold.Chemscore.Internal_Hbond.Weighted>
0.0000

> <Gold.Chemscore.DEClash.Weighted>
0.0718

> <Gold.Chemscore.DEInternal.Weighted>
1.7717

> <Gold.Chemscore.Rot.Weighted>
5.8536

> <Gold.Chemscore.Internal.Correction.Weighted>
   9.000000E+99

> <Gold.Protein.RotatedTorsions>
[ 6907 6896 6895 6894 ] final   31.52 input  -60.11 | X-H torsion
[ 7974 7965 7964 7962 ] final   63.29 input  175.53 | X-H torsion
[ 8008 7997 7996 7995 ] final  -84.18 input   59.86 | X-H torsion
[ 10167 10162 10161 10158 ] final  -72.45 input  -65.29 | X-H torsion
[ 10718 10713 10712 10709 ] final -154.30 input   66.30 | X-H torsion
[ 10763 10752 10751 10750 ] final  -88.67 input  -60.55 | X-H torsion
[ 11005 11000 10999 10996 ] final -153.94 input  -57.11 | X-H torsion

> <Gold.Protein.ActiveResidues>
 VAL166  LYS551  ARG553  GLY616  TRP617  ASP618  TYR619  PRO620  LYS621  CYS622 
 ASP623  PHE694  ASN695  SER759  ASP760  ASP761  ALA762  ILE779  LEU786  VAL792 
 PHE793  MET794  SER795  GLU796  ALA797  LYS798  CYS799  TRP800  GLU811  SER814 

> <Gold.Protein.RotatedAtoms>
  152.0614  134.9592  160.0574 H   0  0  0  0  0  0  0  0  0  0  0  0  # atno 6907 bound_to 6896
  152.0953  133.4217  159.4571 H   0  0  0  0  0  0  0  0  0  0  0  0  # atno 6908 bound_to 6896
  150.6838  134.2743  159.4644 H   0  0  0  0  0  0  0  0  0  0  0  0  # atno 6909 bound_to 6896
  145.8635  139.3331  143.0805 H   0  0  0  0  0  0  0  0  0  0  0  0  # atno 7974 bound_to 7965
  154.6270  140.0608  156.9685 H   0  0  0  0  0  0  0  0  0  0  0  0  # atno 8008 bound_to 7997
  155.1726  140.3292  155.4371 H   0  0  0  0  0  0  0  0  0  0  0  0  # atno 8009 bound_to 7997
  156.2462  140.1911  156.6828 H   0  0  0  0  0  0  0  0  0  0  0  0  # atno 8010 bound_to 7997
  140.5191  143.2334  151.7461 H   0  0  0  0  0  0  0  0  0  0  0  0  # atno 10167 bound_to 10162
  156.4975  130.8376  151.2596 H   0  0  0  0  0  0  0  0  0  0  0  0  # atno 10718 bound_to 10713
  154.6470  135.5369  153.7857 H   0  0  0  0  0  0  0  0  0  0  0  0  # atno 10763 bound_to 10752
  153.0365  135.6473  154.1073 H   0  0  0  0  0  0  0  0  0  0  0  0  # atno 10764 bound_to 10752
  154.0994  135.2934  155.3235 H   0  0  0  0  0  0  0  0  0  0  0  0  # atno 10765 bound_to 10752
  140.7027  134.3919  157.5207 H   0  0  0  0  0  0  0  0  0  0  0  0  # atno 11005 bound_to 11000
  145.9220  140.9109  143.0400 LP  0  0  0  0  0  0  0  0  0  0  0  0  # atno 17320 bound_to 7965
  144.6726  140.1301  143.7444 LP  0  0  0  0  0  0  0  0  0  0  0  0  # atno 17321 bound_to 7965
  139.4918  144.4281  151.9903 LP  0  0  0  0  0  0  0  0  0  0  0  0  # atno 17342 bound_to 10162
  140.3376  144.3241  150.5974 LP  0  0  0  0  0  0  0  0  0  0  0  0  # atno 17343 bound_to 10162
  157.7467  130.9993  150.2883 LP  0  0  0  0  0  0  0  0  0  0  0  0  # atno 17370 bound_to 10713
  156.3365  130.3808  149.7445 LP  0  0  0  0  0  0  0  0  0  0  0  0  # atno 17371 bound_to 10713
  139.8892  134.8835  156.2432 LP  0  0  0  0  0  0  0  0  0  0  0  0  # atno 17394 bound_to 11000
  141.0150  133.7073  156.1174 LP  0  0  0  0  0  0  0  0  0  0  0  0  # atno 17395 bound_to 11000

$$$$
