#       Name:                AV-unprocessed.smi:447
#       Creating user name   scv26
#       Creation time:       Thu Mar 26 22:59:38 2020


#       File generated by GOLD software.
#

@<TRIPOS>MOLECULE
AV-unprocessed.smi:447
    50    52     1
SMALL
NO_CHARGES


@<TRIPOS>ATOM
      1 ****        -3.9713   1.5167  -3.0668 C.3            1 S1                 0.0000
      2 ****        -3.4450   0.8046  -1.8257 C.2            1 S1                 0.0000
      3 ****        -3.8713   1.1103  -0.7125 O.2            1 S1                 0.0000
      4 ****        -2.5180  -0.1422  -2.0358 N.am           1 S1                 0.0000
      5 ****        -1.8552  -0.9317  -0.9993 C.3            1 S1                 0.0000
      6 ****        -2.5594  -2.2831  -0.8125 C.3            1 S1                 0.0000
      7 ****        -0.4082  -1.0922  -1.3928 C.2            1 S1                 0.0000
      8 ****        -0.0448  -1.4328  -2.6334 N.2            1 S1                 0.0000
      9 ****         1.3328  -1.4672  -2.5547 C.ar           1 S1                 0.0000
     10 ****         2.3027  -1.7575  -3.5409 C.ar           1 S1                 0.0000
     11 ****         3.6762  -1.7300  -3.2211 C.ar           1 S1                 0.0000
     12 ****         4.0982  -1.4120  -1.9138 C.ar           1 S1                 0.0000
     13 ****         3.1476  -1.1199  -0.9169 C.ar           1 S1                 0.0000
     14 ****         1.7779  -1.1496  -1.2415 C.ar           1 S1                 0.0000
     15 ****         0.6149  -0.9197  -0.5137 N.pl3          1 S1                 0.0000
     16 ****         0.5617  -0.5647   0.8991 C.3            1 S1                 0.0000
     17 ****         0.7317   0.9498   1.1381 C.3            1 S1                 0.0000
     18 ****        -0.2447   1.6789   0.4192 O.3            1 S1                 0.0000
     19 ****         0.7126   1.2784   2.6225 C.ar           1 S1                 0.0000
     20 ****         1.9204   1.5440   3.3032 C.ar           1 S1                 0.0000
     21 ****         1.9088   1.8426   4.6797 C.ar           1 S1                 0.0000
     22 ****         0.6897   1.8744   5.3838 C.ar           1 S1                 0.0000
     23 ****        -0.5180   1.6062   4.7112 C.ar           1 S1                 0.0000
     24 ****        -0.5071   1.3081   3.3347 C.ar           1 S1                 0.0000
     25 ****        -3.1748   2.0904  -3.5412 H              1 S1                 0.0000
     26 ****        -4.7782   2.2027  -2.8071 H              1 S1                 0.0000
     27 ****        -4.3561   0.7953  -3.7880 H              1 S1                 0.0000
     28 ****        -2.2275  -0.3187  -2.9868 H              1 S1                 0.0000
     29 ****        -1.9165  -0.3841  -0.0605 H              1 S1                 0.0000
     30 ****        -2.0714  -2.8715  -0.0348 H              1 S1                 0.0000
     31 ****        -2.5471  -2.8699  -1.7316 H              1 S1                 0.0000
     32 ****        -3.6002  -2.1458  -0.5178 H              1 S1                 0.0000
     33 ****         1.9892  -2.0017  -4.5451 H              1 S1                 0.0000
     34 ****         4.4095  -1.9535  -3.9821 H              1 S1                 0.0000
     35 ****         5.1520  -1.3925  -1.6770 H              1 S1                 0.0000
     36 ****         3.4674  -0.8758   0.0853 H              1 S1                 0.0000
     37 ****        -0.3642  -0.9355   1.3373 H              1 S1                 0.0000
     38 ****         1.3590  -1.1051   1.4110 H              1 S1                 0.0000
     39 ****         1.6978   1.2560   0.7345 H              1 S1                 0.0000
     40 ****        -0.0555   2.6006   0.5074 H              1 S1                 0.0000
     41 ****         2.8610   1.5190   2.7726 H              1 S1                 0.0000
     42 ****         2.8354   2.0464   5.1962 H              1 S1                 0.0000
     43 ****         0.6809   2.1024   6.4395 H              1 S1                 0.0000
     44 ****        -1.4532   1.6281   5.2512 H              1 S1                 0.0000
     45 ****        -1.4382   1.1000   2.8273 H              1 S1                 0.0000
     46 ****        -4.5635   1.8263  -0.6215 LP             1 S1                 0.0000
     47 ****        -3.5256   0.6428   0.1010 LP             1 S1                 0.0000
     48 ****        -0.6281  -1.6174  -3.4245 LP             1 S1                 0.0000
     49 ****        -1.1526   1.4838   0.7903 LP             1 S1                 0.0000
     50 ****        -0.2165   1.4196  -0.5462 LP             1 S1                 0.0000
@<TRIPOS>BOND
    1    1    2 1     
    2    1   25 1     
    3    1   26 1     
    4    1   27 1     
    5    2    3 2     
    6    2    4 am    
    7    4    5 1     
    8    4   28 1     
    9    5    6 1     
   10    5    7 1     
   11    5   29 1     
   12    6   30 1     
   13    6   31 1     
   14    6   32 1     
   15    7   15 1     
   16    7    8 2     
   17    8    9 1     
   18    9   14 ar    
   19    9   10 ar    
   20   10   11 ar    
   21   10   33 1     
   22   11   12 ar    
   23   11   34 1     
   24   12   13 ar    
   25   12   35 1     
   26   13   14 ar    
   27   13   36 1     
   28   14   15 1     
   29   15   16 1     
   30   16   17 1     
   31   16   37 1     
   32   16   38 1     
   33   17   18 1     
   34   17   19 1     
   35   17   39 1     
   36   18   40 1     
   37   19   24 ar    
   38   19   20 ar    
   39   20   21 ar    
   40   20   41 1     
   41   21   22 ar    
   42   21   42 1     
   43   22   23 ar    
   44   22   43 1     
   45   23   24 ar    
   46   23   44 1     
   47   24   45 1     
   48    3   46 1     
   49    3   47 1     
   50    8   48 1     
   51   18   49 1     
   52   18   50 1     
@<TRIPOS>SUBSTRUCTURE
      1 S1             1
@<TRIPOS>SET
LONE_PAIRS      STATIC     ATOMS    <user>   **** ""
5 46 47 48 49 50
DONOR_HYDROGENS      STATIC     ATOMS    <user>   **** ""
2 28 40
ATOM$BLUE        STATIC     ATOMS    COLORGROUP SYSTEM
5 46 47 48 49 50
ATOM$RED        STATIC     ATOMS    COLORGROUP SYSTEM
2 28 40
