AV-unprocessed.smi:2710|AV-procd|sdf|10465|dock4
  -GOLD-   2272014503D 1   1.00000     0.00000
 Structure written by MMmdl.
 53 54  0  0  0  0  0  0  0  0  2 V2000
  143.5718  132.6916  148.1031 C   0  0  0  0  0  0  0  0  0  0  0  0
  143.5400  133.5224  149.3949 C   0  0  0  0  0  0  0  0  0  0  0  0
  144.8789  134.0630  149.7725 N   0  3  1  0  0  0  0  0  0  0  0  0
  144.8232  135.3285  150.5577 C   0  0  0  0  0  0  0  0  0  0  0  0
  144.3615  135.0900  152.0093 C   0  0  0  0  0  0  0  0  0  0  0  0
  145.2391  134.0402  152.7145 C   0  0  1  0  0  0  0  0  0  0  0  0
  144.6811  133.7215  154.0263 N   0  0  0  0  0  0  0  0  0  0  0  0
  145.1154  134.2019  155.2006 C   0  0  0  0  0  0  0  0  0  0  0  0
  146.0584  134.9847  155.3114 O   0  0  0  0  0  0  0  0  0  0  0  0
  144.3749  133.7336  156.2193 N   0  0  0  0  0  0  0  0  0  0  0  0
  144.5277  134.0002  157.6058 C   0  0  0  0  0  0  0  0  0  0  0  0
  145.8232  134.1573  158.1381 C   0  0  0  0  0  0  0  0  0  0  0  0
  146.0317  134.4217  159.4450 N   0  0  0  0  0  0  0  0  0  0  0  0
  144.9550  134.5376  160.2331 C   0  0  0  0  0  0  0  0  0  0  0  0
  145.2228  134.8663  161.7132 C   0  0  0  0  0  0  0  0  0  0  0  0
  146.7364  134.9746  162.0227 C   0  0  0  0  0  0  0  0  0  0  0  0
  144.6409  133.7530  162.6070 C   0  0  0  0  0  0  0  0  0  0  0  0
  144.5934  136.2293  162.0706 C   0  0  0  0  0  0  0  0  0  0  0  0
  143.6830  134.4384  159.8248 N   0  0  0  0  0  0  0  0  0  0  0  0
  143.4613  134.1674  158.5209 C   0  0  0  0  0  0  0  0  0  0  0  0
  145.3420  132.7608  151.8648 C   0  0  0  0  0  0  0  0  0  0  0  0
  145.8001  133.0852  150.4277 C   0  0  1  0  0  0  0  0  0  0  0  0
  146.0583  131.8207  149.5889 C   0  0  0  0  0  0  0  0  0  0  0  0
  142.6090  132.2073  147.9391 H   0  0  0  0  0  0  0  0  0  0  0  0
  144.3279  131.9079  148.1561 H   0  0  0  0  0  0  0  0  0  0  0  0
  143.7734  133.3015  147.2232 H   0  0  0  0  0  0  0  0  0  0  0  0
  142.8046  134.3219  149.3100 H   0  0  0  0  0  0  0  0  0  0  0  0
  143.1741  132.8582  150.1750 H   0  0  0  0  0  0  0  0  0  0  0  0
  145.8215  135.7680  150.5687 H   0  0  0  0  0  0  0  0  0  0  0  0
  144.1885  136.0687  150.0733 H   0  0  0  0  0  0  0  0  0  0  0  0
  144.3967  136.0299  152.5619 H   0  0  0  0  0  0  0  0  0  0  0  0
  143.3177  134.7749  152.0201 H   0  0  0  0  0  0  0  0  0  0  0  0
  146.2441  134.4537  152.8171 H   0  0  0  0  0  0  0  0  0  0  0  0
  143.8964  133.0864  154.0415 H   0  0  0  0  0  0  0  0  0  0  0  0
  143.5769  133.1672  155.9711 H   0  0  0  0  0  0  0  0  0  0  0  0
  146.7009  134.0664  157.5148 H   0  0  0  0  0  0  0  0  0  0  0  0
  146.9101  135.2222  163.0706 H   0  0  0  0  0  0  0  0  0  0  0  0
  147.2149  135.7517  161.4249 H   0  0  0  0  0  0  0  0  0  0  0  0
  147.2573  134.0363  161.8273 H   0  0  0  0  0  0  0  0  0  0  0  0
  145.0811  132.7840  162.3692 H   0  0  0  0  0  0  0  0  0  0  0  0
  143.5611  133.6628  162.4841 H   0  0  0  0  0  0  0  0  0  0  0  0
  144.8298  133.9512  163.6626 H   0  0  0  0  0  0  0  0  0  0  0  0
  144.7934  136.4999  163.1080 H   0  0  0  0  0  0  0  0  0  0  0  0
  143.5104  136.2211  161.9454 H   0  0  0  0  0  0  0  0  0  0  0  0
  144.9912  137.0255  161.4403 H   0  0  0  0  0  0  0  0  0  0  0  0
  142.4255  134.1100  158.2247 H   0  0  0  0  0  0  0  0  0  0  0  0
  146.0495  132.0733  152.3307 H   0  0  0  0  0  0  0  0  0  0  0  0
  144.3825  132.2422  151.8438 H   0  0  0  0  0  0  0  0  0  0  0  0
  146.7657  133.5886  150.5011 H   0  0  0  0  0  0  0  0  0  0  0  0
  146.8966  131.2562  149.9983 H   0  0  0  0  0  0  0  0  0  0  0  0
  146.3076  132.0727  148.5578 H   0  0  0  0  0  0  0  0  0  0  0  0
  145.2010  131.1476  149.5796 H   0  0  0  0  0  0  0  0  0  0  0  0
  145.3212  134.3013  148.8963 H   0  0  0  0  0  0  0  0  0  0  0  0
  1  2  1  0  0  0  0
  1 24  1  0  0  0  0
  1 25  1  0  0  0  0
  1 26  1  0  0  0  0
  2  3  1  0  0  0  0
  2 27  1  0  0  0  0
  2 28  1  0  0  0  0
  3 22  1  0  0  0  0
  3  4  1  0  0  0  0
  3 53  1  0  0  0  0
  4  5  1  0  0  0  0
  4 29  1  0  0  0  0
  4 30  1  0  0  0  0
  5  6  1  0  0  0  0
  5 31  1  0  0  0  0
  5 32  1  0  0  0  0
  6  7  1  0  0  0  0
  6 21  1  0  0  0  0
  6 33  1  0  0  0  0
  7  8  1  0  0  0  0
  7 34  1  0  0  0  0
  8  9  2  0  0  0  0
  8 10  1  0  0  0  0
 10 11  1  0  0  0  0
 10 35  1  0  0  0  0
 11 20  1  0  0  0  0
 11 12  2  0  0  0  0
 12 13  1  0  0  0  0
 12 36  1  0  0  0  0
 13 14  2  0  0  0  0
 14 15  1  0  0  0  0
 14 19  1  0  0  0  0
 15 16  1  0  0  0  0
 15 17  1  0  0  0  0
 15 18  1  0  0  0  0
 16 37  1  0  0  0  0
 16 38  1  0  0  0  0
 16 39  1  0  0  0  0
 17 40  1  0  0  0  0
 17 41  1  0  0  0  0
 17 42  1  0  0  0  0
 18 43  1  0  0  0  0
 18 44  1  0  0  0  0
 18 45  1  0  0  0  0
 19 20  2  0  0  0  0
 20 46  1  0  0  0  0
 21 22  1  0  0  0  0
 21 47  1  0  0  0  0
 21 48  1  0  0  0  0
 22 23  1  0  0  0  0
 22 49  1  0  0  0  0
 23 50  1  0  0  0  0
 23 51  1  0  0  0  0
 23 52  1  0  0  0  0
M  CHG  1   3   1
M  END
> <s_m_source_file>
AV-unprocessed.smi

> <i_m_source_file_index>
2710

> <i_lp_mmshare_version>
43012

> <i_f3d_flags>
0

> <s_epik_input>
W0NIM11bQ0gyXU4xW0NIMl1bQ0gyXVtDQEhdKFtDSDJdW0NASF0xW0NIM10pW05IXUMoPU8pW05IXWMyW2NIXW5jKEMoW0NIM10pKFtDSDNdKVtDSDNdKW5bY0hdMg==

> <s_epik_cmdline>
J2VwaWtfcHl0aG9uJywgJy1waCcsICc3LjAnLCAnLXRuJywgJzgnLCAnLW1hJywgJzIwMCcsICctbWV0YWxfYmluZGluZycsICctaW1hZScsICc8aW5maWxlLm1hZT4nLCAnLW9tYWUnLCAnPG91dGZpbGUubWFlPic=

> <r_lp_tautomer_probability>
1

> <r_epik_Ionization_Penalty>
0.00396003

> <r_epik_Ionization_Penalty_Charging>
0.0039379

> <r_epik_Ionization_Penalty_Neutral>
2.21316e-05

> <r_epik_State_Penalty>
0.00281651

> <r_epik_Charging_Adjusted_Penalty>
0.00675441

> <i_epik_Tot_Q>
1

> <i_epik_Tot_abs_Q>
1

> <r_epik_Metal_State_Penalty>
-0

> <b_epik_Metal_Only>
0

> <s_lp_Force_Field>
OPLS_2005

> <r_lp_Energy>
21.9784

> <b_lp_Chiralities_Consistent>
1

> <s_lp_Variant>
AV-unprocessed.smi:2710-2

> <Gold.Version>
5.8.1

> <Gold.Id.Protein>
6NUR|6NUR_protein|mol2

> <Gold.PLP.Fitness>
41.5583

> <Gold.PLP.PLP>
-31.0912

> <Gold.PLP.part.hbond>
-3.0000

> <Gold.PLP.part.metal>
0.0000

> <Gold.PLP.part.buried>
0.4595

> <Gold.PLP.part.nonpolar>
-28.8186

> <Gold.PLP.part.repulsive>
0.1171

> <Gold.PLP.ligand.clash>
0.0000

> <Gold.PLP.ligand.torsion>
0.7709

> <Gold.PLP.Chemscore.Hbond>
3.0000

> <Gold.PLP.Chemscore.CHOScore>
0.9878

> <Gold.PLP.Chemscore.Metal>
0.0000

> <Gold.Chemscore.Hbonds>
donor molecule, donor type, donor heavy atom, donor atom, acceptor molecule, acceptor atom, score
      L1  H     3    53       P1  7921  1.00
      L1  H     7    34       P1 10957  1.00
      L1  H    10    35       P1 10957  1.00
      L1  C    20    46       P1 11000  1.00

> <Gold.PLP.Chemscore.Internal.Correction>
0.0456

> <Gold.Rescore>
     Score         DG    S(hbond)    S(metal)    S(lipo)     H(rot)  DE(clash)    DE(int)     intcor
     20.26     -22.71       2.79        0.00      96.25       1.31       1.50       0.96       ----

> <Gold.Chemscore.Fitness>
20.2594

> <Gold.Chemscore.DG>
-22.7132

> <Gold.Chemscore.ZeroCoef>
-5.4800

> <Gold.Chemscore.Hbond>
2.7908

> <Gold.Chemscore.Metal>
0.0000

> <Gold.Chemscore.Lipo>
96.2459

> <Gold.Chemscore.Internal_Hbond>
0.0000

> <Gold.Chemscore.DEClash>
1.4960

> <Gold.Chemscore.DEInternal>
0.9577

> <Gold.Chemscore.Rot>
1.3081

> <Gold.Chemscore.Internal.Correction>
   9.000000E+99

> <Gold.Chemscore.Hbonds>
donor molecule, donor type, donor heavy atom, donor atom, acceptor molecule, acceptor atom, score
      L1  H     3    53       P1  7921  0.96
      L1  H     7    34       P1 10957  0.97
      L1  H    10    35       P1 10957  0.90

> <Gold.Chemscore.Hbond.Weighted>
-9.3212

> <Gold.Chemscore.Metal.Weighted>
-0.0000

> <Gold.Chemscore.Lipo.Weighted>
-11.2608

> <Gold.Chemscore.Internal_Hbond.Weighted>
0.0000

> <Gold.Chemscore.DEClash.Weighted>
1.4960

> <Gold.Chemscore.DEInternal.Weighted>
0.9577

> <Gold.Chemscore.Rot.Weighted>
3.3488

> <Gold.Chemscore.Internal.Correction.Weighted>
   9.000000E+99

> <Gold.Protein.RotatedTorsions>
[ 6907 6896 6895 6894 ] final  -50.93 input  -60.11 | X-H torsion
[ 7974 7965 7964 7962 ] final  155.18 input  175.53 | X-H torsion
[ 8008 7997 7996 7995 ] final -125.03 input   59.86 | X-H torsion
[ 10167 10162 10161 10158 ] final   23.04 input  -65.29 | X-H torsion
[ 10718 10713 10712 10709 ] final   82.65 input   66.30 | X-H torsion
[ 10763 10752 10751 10750 ] final  179.92 input  -60.55 | X-H torsion
[ 11005 11000 10999 10996 ] final   81.33 input  -57.11 | X-H torsion

> <Gold.Protein.ActiveResidues>
 VAL166  LYS551  ARG553  GLY616  TRP617  ASP618  TYR619  PRO620  LYS621  CYS622 
 ASP623  PHE694  ASN695  SER759  ASP760  ASP761  ALA762  ILE779  LEU786  VAL792 
 PHE793  MET794  SER795  GLU796  ALA797  LYS798  CYS799  TRP800  GLU811  SER814 

> <Gold.Protein.RotatedAtoms>
  150.8659  134.8023  159.7118 H   0  0  0  0  0  0  0  0  0  0  0  0  # atno 6907 bound_to 6896
  152.4681  134.5024  159.9738 H   0  0  0  0  0  0  0  0  0  0  0  0  # atno 6908 bound_to 6896
  151.5120  133.3445  159.2922 H   0  0  0  0  0  0  0  0  0  0  0  0  # atno 6909 bound_to 6896
  144.8041  139.7034  143.6169 H   0  0  0  0  0  0  0  0  0  0  0  0  # atno 7974 bound_to 7965
  155.2066  140.0417  157.2926 H   0  0  0  0  0  0  0  0  0  0  0  0  # atno 8008 bound_to 7997
  154.6039  140.2459  155.7727 H   0  0  0  0  0  0  0  0  0  0  0  0  # atno 8009 bound_to 7997
  156.2338  140.2929  156.0267 H   0  0  0  0  0  0  0  0  0  0  0  0  # atno 8010 bound_to 7997
  140.5300  143.9857  150.6461 H   0  0  0  0  0  0  0  0  0  0  0  0  # atno 10167 bound_to 10162
  157.6862  131.0057  150.2406 H   0  0  0  0  0  0  0  0  0  0  0  0  # atno 10718 bound_to 10713
  154.5269  135.2797  155.1214 H   0  0  0  0  0  0  0  0  0  0  0  0  # atno 10763 bound_to 10752
  154.2749  135.6296  153.5328 H   0  0  0  0  0  0  0  0  0  0  0  0  # atno 10764 bound_to 10752
  152.9948  135.5637  154.5773 H   0  0  0  0  0  0  0  0  0  0  0  0  # atno 10765 bound_to 10752
  139.9102  134.7988  156.2027 H   0  0  0  0  0  0  0  0  0  0  0  0  # atno 11005 bound_to 11000
  146.2329  139.5848  142.9543 LP  0  0  0  0  0  0  0  0  0  0  0  0  # atno 17320 bound_to 7965
  145.5481  141.0415  143.2293 LP  0  0  0  0  0  0  0  0  0  0  0  0  # atno 17321 bound_to 7965
  140.3230  143.3125  152.0765 LP  0  0  0  0  0  0  0  0  0  0  0  0  # atno 17342 bound_to 10162
  139.4951  144.6561  151.6569 LP  0  0  0  0  0  0  0  0  0  0  0  0  # atno 17343 bound_to 10162
  156.3021  130.3760  149.7741 LP  0  0  0  0  0  0  0  0  0  0  0  0  # atno 17370 bound_to 10713
  156.5367  130.8282  151.3255 LP  0  0  0  0  0  0  0  0  0  0  0  0  # atno 17371 bound_to 10713
  141.0515  133.6886  156.1780 LP  0  0  0  0  0  0  0  0  0  0  0  0  # atno 17394 bound_to 11000
  140.6803  134.4774  157.5589 LP  0  0  0  0  0  0  0  0  0  0  0  0  # atno 17395 bound_to 11000

$$$$
