AV-unprocessed.smi:1380|AV-procd|sdf|5600|dock3
  -GOLD-   22720 5203D 1   1.00000     0.00000
 Structure written by MMmdl.
 33 34  0  0  0  0  0  0  0  0  1 V2000
  151.1996  140.9275  156.5501 O   0  0  0  0  0  0  0  0  0  0  0  0
  150.6242  141.9888  156.3084 C   0  0  0  0  0  0  0  0  0  0  0  0
  149.7064  142.1413  155.3445 N   0  0  0  0  0  0  0  0  0  0  0  0
  149.2873  141.0934  154.4187 C   0  0  0  0  0  0  0  0  0  0  0  0
  147.8488  140.6067  154.6835 C   0  0  0  0  0  0  0  0  0  0  0  0
  146.8378  141.7363  154.7784 C   0  0  0  0  0  0  0  0  0  0  0  0
  146.5574  142.5492  153.6612 C   0  0  0  0  0  0  0  0  0  0  0  0
  145.6060  143.5788  153.7933 C   0  0  0  0  0  0  0  0  0  0  0  0
  144.9744  143.7522  155.0410 C   0  0  0  0  0  0  0  0  0  0  0  0
  145.2346  142.9798  156.1179 N   0  0  0  0  0  0  0  0  0  0  0  0
  146.1495  141.9959  155.9834 C   0  0  0  0  0  0  0  0  0  0  0  0
  150.8517  143.1345  156.9645 N   0  0  0  0  0  0  0  0  0  0  0  0
  151.8325  143.3013  158.0284 C   0  0  0  0  0  0  0  0  0  0  0  0
  151.9281  144.7072  158.5900 C   0  0  0  0  0  0  0  0  0  0  0  0
  152.1037  144.9478  160.0720 C   0  0  0  0  0  0  0  0  0  0  0  0
  150.7930  145.2837  159.4035 C   0  0  0  0  0  0  0  0  0  0  0  0
  149.2899  143.0526  155.2208 H   0  0  0  0  0  0  0  0  0  0  0  0
  149.3892  141.4374  153.3883 H   0  0  0  0  0  0  0  0  0  0  0  0
  149.9800  140.2596  154.5344 H   0  0  0  0  0  0  0  0  0  0  0  0
  147.5390  139.9205  153.8940 H   0  0  0  0  0  0  0  0  0  0  0  0
  147.8215  140.0299  155.6085 H   0  0  0  0  0  0  0  0  0  0  0  0
  147.0595  142.3855  152.7191 H   0  0  0  0  0  0  0  0  0  0  0  0
  145.3657  144.2203  152.9584 H   0  0  0  0  0  0  0  0  0  0  0  0
  144.2395  144.5318  155.1772 H   0  0  0  0  0  0  0  0  0  0  0  0
  146.3307  141.3930  156.8613 H   0  0  0  0  0  0  0  0  0  0  0  0
  150.3294  143.9543  156.6916 H   0  0  0  0  0  0  0  0  0  0  0  0
  151.5534  142.6300  158.8405 H   0  0  0  0  0  0  0  0  0  0  0  0
  152.8155  142.9733  157.6855 H   0  0  0  0  0  0  0  0  0  0  0  0
  152.4288  145.4098  157.9263 H   0  0  0  0  0  0  0  0  0  0  0  0
  152.1255  144.0798  160.7280 H   0  0  0  0  0  0  0  0  0  0  0  0
  152.7435  145.7748  160.3728 H   0  0  0  0  0  0  0  0  0  0  0  0
  150.5567  146.3362  159.2607 H   0  0  0  0  0  0  0  0  0  0  0  0
  149.9427  144.6396  159.6182 H   0  0  0  0  0  0  0  0  0  0  0  0
  1  2  2  0  0  0  0
  2  3  1  0  0  0  0
  2 12  1  0  0  0  0
  3  4  1  0  0  0  0
  3 17  1  0  0  0  0
  4  5  1  0  0  0  0
  4 18  1  0  0  0  0
  4 19  1  0  0  0  0
  5  6  1  0  0  0  0
  5 20  1  0  0  0  0
  5 21  1  0  0  0  0
  6 11  1  0  0  0  0
  6  7  2  0  0  0  0
  7  8  1  0  0  0  0
  7 22  1  0  0  0  0
  8  9  2  0  0  0  0
  8 23  1  0  0  0  0
  9 10  1  0  0  0  0
  9 24  1  0  0  0  0
 10 11  2  0  0  0  0
 11 25  1  0  0  0  0
 12 13  1  0  0  0  0
 12 26  1  0  0  0  0
 13 14  1  0  0  0  0
 13 27  1  0  0  0  0
 13 28  1  0  0  0  0
 14 16  1  0  0  0  0
 14 15  1  0  0  0  0
 14 29  1  0  0  0  0
 15 16  1  0  0  0  0
 15 30  1  0  0  0  0
 15 31  1  0  0  0  0
 16 32  1  0  0  0  0
 16 33  1  0  0  0  0
M  END
> <s_m_source_file>
AV-unprocessed.smi

> <i_m_source_file_index>
1380

> <i_lp_mmshare_version>
43012

> <i_f3d_flags>
0

> <s_epik_input>
W0NIMl0xW0NIMl1bQ0hdMVtDSDJdW05IXUMoPU8pW05IXVtDSDJdW0NIMl1jMltjSF1bY0hdW2NIXW5bY0hdMg==

> <s_epik_cmdline>
J2VwaWtfcHl0aG9uJywgJy1waCcsICc3LjAnLCAnLXRuJywgJzgnLCAnLW1hJywgJzIwMCcsICctbWV0YWxfYmluZGluZycsICctaW1hZScsICc8aW5maWxlLm1hZT4nLCAnLW9tYWUnLCAnPG91dGZpbGUubWFlPic=

> <r_epik_Ionization_Penalty>
0.0144004

> <r_epik_Ionization_Penalty_Charging>
0

> <r_epik_Ionization_Penalty_Neutral>
0.0144004

> <r_epik_State_Penalty>
0.0112076

> <r_epik_Charging_Adjusted_Penalty>
0.0112076

> <i_epik_Tot_Q>
0

> <i_epik_Tot_abs_Q>
0

> <r_epik_Metal_State_Penalty>
0.0109423

> <b_epik_Metal_Only>
0

> <s_lp_Force_Field>
OPLS_2005

> <r_lp_Energy>
8.98924

> <b_lp_Chiralities_Consistent>
1

> <s_lp_Variant>
AV-unprocessed.smi:1380-1

> <Gold.Version>
5.8.1

> <Gold.Id.Protein>
6NUR|6NUR_protein|mol2

> <Gold.PLP.Fitness>
44.5029

> <Gold.PLP.PLP>
-38.7325

> <Gold.PLP.part.hbond>
-2.0000

> <Gold.PLP.part.metal>
0.0000

> <Gold.PLP.part.buried>
-6.5449

> <Gold.PLP.part.nonpolar>
-29.6297

> <Gold.PLP.part.repulsive>
0.3675

> <Gold.PLP.ligand.clash>
0.0000

> <Gold.PLP.ligand.torsion>
0.3920

> <Gold.PLP.Chemscore.Hbond>
1.9920

> <Gold.PLP.Chemscore.CHOScore>
0.0000

> <Gold.PLP.Chemscore.Metal>
0.0000

> <Gold.Chemscore.Hbonds>
donor molecule, donor type, donor heavy atom, donor atom, acceptor molecule, acceptor atom, score
      L1  H     3    17       P1  8028  1.00
      L1  H    12    26       P1  8028  0.99

> <Gold.PLP.Chemscore.Internal.Correction>
0.5784

> <Gold.Rescore>
     Score         DG    S(hbond)    S(metal)    S(lipo)     H(rot)  DE(clash)    DE(int)     intcor
     17.34     -17.99       1.94        0.00      88.84       1.70       0.23       0.42       ----

> <Gold.Chemscore.Fitness>
17.3397

> <Gold.Chemscore.DG>
-17.9908

> <Gold.Chemscore.ZeroCoef>
-5.4800

> <Gold.Chemscore.Hbond>
1.9373

> <Gold.Chemscore.Metal>
0.0000

> <Gold.Chemscore.Lipo>
88.8354

> <Gold.Chemscore.Internal_Hbond>
0.0000

> <Gold.Chemscore.DEClash>
0.2288

> <Gold.Chemscore.DEInternal>
0.4222

> <Gold.Chemscore.Rot>
1.7006

> <Gold.Chemscore.Internal.Correction>
   9.000000E+99

> <Gold.Chemscore.Hbonds>
donor molecule, donor type, donor heavy atom, donor atom, acceptor molecule, acceptor atom, score
      L1  H     3    17       P1  8028  0.99
      L1  H    12    26       P1  8028  0.94

> <Gold.Chemscore.Hbond.Weighted>
-6.4705

> <Gold.Chemscore.Metal.Weighted>
-0.0000

> <Gold.Chemscore.Lipo.Weighted>
-10.3937

> <Gold.Chemscore.Internal_Hbond.Weighted>
0.0000

> <Gold.Chemscore.DEClash.Weighted>
0.2288

> <Gold.Chemscore.DEInternal.Weighted>
0.4222

> <Gold.Chemscore.Rot.Weighted>
4.3534

> <Gold.Chemscore.Internal.Correction.Weighted>
   9.000000E+99

> <Gold.Protein.RotatedTorsions>
[ 6907 6896 6895 6894 ] final    3.77 input  -60.11 | X-H torsion
[ 7974 7965 7964 7962 ] final  175.82 input  175.53 | X-H torsion
[ 8008 7997 7996 7995 ] final   62.62 input   59.86 | X-H torsion
[ 10167 10162 10161 10158 ] final   22.51 input  -65.29 | X-H torsion
[ 10718 10713 10712 10709 ] final   58.24 input   66.30 | X-H torsion
[ 10763 10752 10751 10750 ] final  -79.95 input  -60.55 | X-H torsion
[ 11005 11000 10999 10996 ] final   92.77 input  -57.11 | X-H torsion

> <Gold.Protein.ActiveResidues>
 VAL166  LYS551  ARG553  GLY616  TRP617  ASP618  TYR619  PRO620  LYS621  CYS622 
 ASP623  PHE694  ASN695  SER759  ASP760  ASP761  ALA762  ILE779  LEU786  VAL792 
 PHE793  MET794  SER795  GLU796  ALA797  LYS798  CYS799  TRP800  GLU811  SER814 

> <Gold.Protein.RotatedAtoms>
  151.6305  135.1023  160.0120 H   0  0  0  0  0  0  0  0  0  0  0  0  # atno 6907 bound_to 6896
  152.4109  133.6958  159.6405 H   0  0  0  0  0  0  0  0  0  0  0  0  # atno 6908 bound_to 6896
  150.8000  133.8543  159.3255 H   0  0  0  0  0  0  0  0  0  0  0  0  # atno 6909 bound_to 6896
  144.7195  140.0003  143.6440 H   0  0  0  0  0  0  0  0  0  0  0  0  # atno 7974 bound_to 7965
  155.6172  140.3495  155.4641 H   0  0  0  0  0  0  0  0  0  0  0  0  # atno 8008 bound_to 7997
  156.0107  140.1232  157.0480 H   0  0  0  0  0  0  0  0  0  0  0  0  # atno 8009 bound_to 7997
  154.4280  140.1082  156.5812 H   0  0  0  0  0  0  0  0  0  0  0  0  # atno 8010 bound_to 7997
  140.5343  143.9788  150.6482 H   0  0  0  0  0  0  0  0  0  0  0  0  # atno 10167 bound_to 10162
  157.5580  130.8814  149.9066 H   0  0  0  0  0  0  0  0  0  0  0  0  # atno 10718 bound_to 10713
  154.5450  135.5678  153.6872 H   0  0  0  0  0  0  0  0  0  0  0  0  # atno 10763 bound_to 10752
  152.9974  135.6237  154.2450 H   0  0  0  0  0  0  0  0  0  0  0  0  # atno 10764 bound_to 10752
  154.2383  135.2863  155.2843 H   0  0  0  0  0  0  0  0  0  0  0  0  # atno 10765 bound_to 10752
  139.8819  134.8752  156.3620 H   0  0  0  0  0  0  0  0  0  0  0  0  # atno 11005 bound_to 11000
  146.0340  139.3361  143.0737 LP  0  0  0  0  0  0  0  0  0  0  0  0  # atno 17320 bound_to 7965
  145.8417  140.9577  143.0796 LP  0  0  0  0  0  0  0  0  0  0  0  0  # atno 17321 bound_to 7965
  140.3171  143.3160  152.0821 LP  0  0  0  0  0  0  0  0  0  0  0  0  # atno 17342 bound_to 10162
  139.4965  144.6598  151.6491 LP  0  0  0  0  0  0  0  0  0  0  0  0  # atno 17343 bound_to 10162
  156.0636  130.3696  150.0927 LP  0  0  0  0  0  0  0  0  0  0  0  0  # atno 17370 bound_to 10713
  156.9094  130.9647  151.3565 LP  0  0  0  0  0  0  0  0  0  0  0  0  # atno 17371 bound_to 10713
  140.9523  133.7443  156.0288 LP  0  0  0  0  0  0  0  0  0  0  0  0  # atno 17394 bound_to 11000
  140.8091  134.3420  157.5417 LP  0  0  0  0  0  0  0  0  0  0  0  0  # atno 17395 bound_to 11000

$$$$
