AV-unprocessed.smi:1032|AV-procd|sdf|4485|dock1
  -GOLD-   22720 2463D 1   1.00000     0.00000
 Structure written by MMmdl.
 46 47  0  0  0  0  0  0  0  0  2 V2000
  145.7142  143.2059  157.2506 C   0  0  0  0  0  0  0  0  0  0  0  0
  144.7598  142.8005  156.1137 C   0  0  2  0  0  0  0  0  0  0  0  0
  144.4869  141.2857  156.0750 C   0  0  0  0  0  0  0  0  0  0  0  0
  145.6859  140.4898  155.5287 C   0  0  0  0  0  0  0  0  0  0  0  0
  146.0930  140.9842  154.1869 N   0  3  2  0  0  0  0  0  0  0  0  0
  147.1616  140.1655  153.5582 C   0  0  0  0  0  0  0  0  0  0  0  0
  146.5985  138.9906  152.7325 C   0  0  1  0  0  0  0  0  0  0  0  0
  147.5327  138.7253  151.7045 O   0  0  0  0  0  0  0  0  0  0  0  0
  146.4437  137.7189  153.5917 C   0  0  0  0  0  0  0  0  0  0  0  0
  146.6774  136.5040  152.8178 N   0  0  0  0  0  0  0  0  0  0  0  0
  145.7178  135.6999  152.3382 C   0  0  0  0  0  0  0  0  0  0  0  0
  144.5171  135.8952  152.5251 O   0  0  0  0  0  0  0  0  0  0  0  0
  146.2437  134.6630  151.6632 N   0  0  0  0  0  0  0  0  0  0  0  0
  145.5704  133.6180  150.9738 C   0  0  0  0  0  0  0  0  0  0  0  0
  144.1799  133.4896  151.1721 C   0  0  0  0  0  0  0  0  0  0  0  0
  143.4935  132.4482  150.5164 C   0  0  0  0  0  0  0  0  0  0  0  0
  144.1003  131.5530  149.7089 N   0  0  0  0  0  0  0  0  0  0  0  0
  145.4333  131.6689  149.5309 C   0  0  0  0  0  0  0  0  0  0  0  0
  146.2135  132.6734  150.1379 C   0  0  0  0  0  0  0  0  0  0  0  0
  146.4323  142.4300  154.2164 C   0  0  0  0  0  0  0  0  0  0  0  0
  145.2487  143.2687  154.7311 C   0  0  0  0  0  0  0  0  0  0  0  0
  146.7006  142.7560  157.1421 H   0  0  0  0  0  0  0  0  0  0  0  0
  145.3178  142.9009  158.2194 H   0  0  0  0  0  0  0  0  0  0  0  0
  145.8472  144.2878  157.2798 H   0  0  0  0  0  0  0  0  0  0  0  0
  143.8117  143.3012  156.3151 H   0  0  0  0  0  0  0  0  0  0  0  0
  144.2184  140.9245  157.0685 H   0  0  0  0  0  0  0  0  0  0  0  0
  143.6201  141.0954  155.4406 H   0  0  0  0  0  0  0  0  0  0  0  0
  146.5305  140.5555  156.2157 H   0  0  0  0  0  0  0  0  0  0  0  0
  145.4119  139.4367  155.4753 H   0  0  0  0  0  0  0  0  0  0  0  0
  147.7685  140.7886  152.8988 H   0  0  0  0  0  0  0  0  0  0  0  0
  147.8372  139.8035  154.3347 H   0  0  0  0  0  0  0  0  0  0  0  0
  145.6371  139.2561  152.2923 H   0  0  0  0  0  0  0  0  0  0  0  0
  148.2407  139.3492  151.7729 H   0  0  0  0  0  0  0  0  0  0  0  0
  147.0718  137.7542  154.4841 H   0  0  0  0  0  0  0  0  0  0  0  0
  145.4171  137.6476  153.9520 H   0  0  0  0  0  0  0  0  0  0  0  0
  147.6389  136.2660  152.6222 H   0  0  0  0  0  0  0  0  0  0  0  0
  147.2505  134.5917  151.6739 H   0  0  0  0  0  0  0  0  0  0  0  0
  143.6433  134.1762  151.8107 H   0  0  0  0  0  0  0  0  0  0  0  0
  142.4278  132.3299  150.6462 H   0  0  0  0  0  0  0  0  0  0  0  0
  145.8955  130.9334  148.8891 H   0  0  0  0  0  0  0  0  0  0  0  0
  147.2779  132.6881  149.9620 H   0  0  0  0  0  0  0  0  0  0  0  0
  147.3159  142.5877  154.8363 H   0  0  0  0  0  0  0  0  0  0  0  0
  146.6902  142.7664  153.2115 H   0  0  0  0  0  0  0  0  0  0  0  0
  144.4268  143.1928  154.0177 H   0  0  0  0  0  0  0  0  0  0  0  0
  145.5224  144.3239  154.7640 H   0  0  0  0  0  0  0  0  0  0  0  0
  145.2872  140.9002  153.5828 H   0  0  0  0  0  0  0  0  0  0  0  0
  1  2  1  0  0  0  0
  1 22  1  0  0  0  0
  1 23  1  0  0  0  0
  1 24  1  0  0  0  0
  2 21  1  0  0  0  0
  2  3  1  0  0  0  0
  2 25  1  0  0  0  0
  3  4  1  0  0  0  0
  3 26  1  0  0  0  0
  3 27  1  0  0  0  0
  4  5  1  0  0  0  0
  4 28  1  0  0  0  0
  4 29  1  0  0  0  0
  5  6  1  0  0  0  0
  5 20  1  0  0  0  0
  5 46  1  0  0  0  0
  6  7  1  0  0  0  0
  6 30  1  0  0  0  0
  6 31  1  0  0  0  0
  7  8  1  0  0  0  0
  7  9  1  0  0  0  0
  7 32  1  0  0  0  0
  8 33  1  0  0  0  0
  9 10  1  0  0  0  0
  9 34  1  0  0  0  0
  9 35  1  0  0  0  0
 10 11  1  0  0  0  0
 10 36  1  0  0  0  0
 11 12  2  0  0  0  0
 11 13  1  0  0  0  0
 13 14  1  0  0  0  0
 13 37  1  0  0  0  0
 14 19  1  0  0  0  0
 14 15  2  0  0  0  0
 15 16  1  0  0  0  0
 15 38  1  0  0  0  0
 16 17  2  0  0  0  0
 16 39  1  0  0  0  0
 17 18  1  0  0  0  0
 18 19  2  0  0  0  0
 18 40  1  0  0  0  0
 19 41  1  0  0  0  0
 20 21  1  0  0  0  0
 20 42  1  0  0  0  0
 20 43  1  0  0  0  0
 21 44  1  0  0  0  0
 21 45  1  0  0  0  0
M  CHG  1   5   1
M  END
> <s_m_source_file>
AV-unprocessed.smi

> <i_m_source_file_index>
1032

> <i_lp_mmshare_version>
43012

> <i_f3d_flags>
0

> <s_epik_input>
W0NIM11bQ0hdMVtDSDJdW0NIMl1OKFtDSDJdW0NIMl0xKVtDSDJdW0NASF0oW09IXSlbQ0gyXVtOSF1DKD1PKVtOSF1jMltjSF1bY0hdbltjSF1bY0hdMg==

> <s_epik_cmdline>
J2VwaWtfcHl0aG9uJywgJy1waCcsICc3LjAnLCAnLXRuJywgJzgnLCAnLW1hJywgJzIwMCcsICctbWV0YWxfYmluZGluZycsICctaW1hZScsICc8aW5maWxlLm1hZT4nLCAnLW9tYWUnLCAnPG91dGZpbGUubWFlPic=

> <r_epik_Ionization_Penalty>
0.11743

> <r_epik_Ionization_Penalty_Charging>
0.00147689

> <r_epik_Ionization_Penalty_Neutral>
0.115954

> <r_epik_State_Penalty>
0.105552

> <r_epik_Charging_Adjusted_Penalty>
0.107029

> <i_epik_Tot_Q>
1

> <i_epik_Tot_abs_Q>
1

> <r_epik_Metal_State_Penalty>
0.0881315

> <b_epik_Metal_Only>
0

> <s_lp_Force_Field>
OPLS_2005

> <r_lp_Energy>
26.5428

> <b_lp_Chiralities_Consistent>
1

> <s_lp_Variant>
AV-unprocessed.smi:1032-4

> <Gold.Version>
5.8.1

> <Gold.Id.Protein>
6NUR|6NUR_protein|mol2

> <Gold.PLP.Fitness>
54.4645

> <Gold.PLP.PLP>
-36.8770

> <Gold.PLP.part.hbond>
-6.2117

> <Gold.PLP.part.metal>
0.0000

> <Gold.PLP.part.buried>
-4.9511

> <Gold.PLP.part.nonpolar>
-27.8053

> <Gold.PLP.part.repulsive>
0.3625

> <Gold.PLP.ligand.clash>
0.0000

> <Gold.PLP.ligand.torsion>
1.3483

> <Gold.PLP.Chemscore.Hbond>
5.5856

> <Gold.PLP.Chemscore.CHOScore>
1.1208

> <Gold.PLP.Chemscore.Metal>
0.0000

> <Gold.Chemscore.Hbonds>
donor molecule, donor type, donor heavy atom, donor atom, acceptor molecule, acceptor atom, score
      L1  H     5    46       P1 10175  2.00
      L1  H     8    33       P1  7957  0.98
      L1  H    10    36       P1  7948  0.96
      L1  H    13    37       P1  7948  0.18
      P1  H  7954  7966       L1     8  0.61
      P1  H 10785 10796       L1    17  0.64
      L1  C    16    39       P1 10186  0.30
      L1  C    16    39       P1 10952  0.41

> <Gold.PLP.Chemscore.Internal.Correction>
0.1649

> <Gold.Rescore>
     Score         DG    S(hbond)    S(metal)    S(lipo)     H(rot)  DE(clash)    DE(int)     intcor
     18.27     -21.38       3.63        0.00      82.32       2.29       0.23       2.88       ----

> <Gold.Chemscore.Fitness>
18.2701

> <Gold.Chemscore.DG>
-21.3815

> <Gold.Chemscore.ZeroCoef>
-5.4800

> <Gold.Chemscore.Hbond>
3.6299

> <Gold.Chemscore.Metal>
0.0000

> <Gold.Chemscore.Lipo>
82.3166

> <Gold.Chemscore.Internal_Hbond>
0.0000

> <Gold.Chemscore.DEClash>
0.2319

> <Gold.Chemscore.DEInternal>
2.8795

> <Gold.Chemscore.Rot>
2.2865

> <Gold.Chemscore.Internal.Correction>
   9.000000E+99

> <Gold.Chemscore.Hbonds>
donor molecule, donor type, donor heavy atom, donor atom, acceptor molecule, acceptor atom, score
      L1  H     5    46       P1 10175  0.76
      L1  H     8    33       P1  7957  0.92
      L1  H    10    36       P1  7948  0.90
      L1  H    13    37       P1  7948  0.12
      P1  H  7954  7966       L1     8  0.07
      P1  H 10785 10796       L1    17  0.59

> <Gold.Chemscore.Hbond.Weighted>
-12.1240

> <Gold.Chemscore.Metal.Weighted>
-0.0000

> <Gold.Chemscore.Lipo.Weighted>
-9.6310

> <Gold.Chemscore.Internal_Hbond.Weighted>
0.0000

> <Gold.Chemscore.DEClash.Weighted>
0.2319

> <Gold.Chemscore.DEInternal.Weighted>
2.8795

> <Gold.Chemscore.Rot.Weighted>
5.8536

> <Gold.Chemscore.Internal.Correction.Weighted>
   9.000000E+99

> <Gold.Protein.RotatedTorsions>
[ 6907 6896 6895 6894 ] final  -84.66 input  -60.11 | X-H torsion
[ 7974 7965 7964 7962 ] final   53.77 input  175.53 | X-H torsion
[ 8008 7997 7996 7995 ] final   15.95 input   59.86 | X-H torsion
[ 10167 10162 10161 10158 ] final   -5.94 input  -65.29 | X-H torsion
[ 10718 10713 10712 10709 ] final -103.89 input   66.30 | X-H torsion
[ 10763 10752 10751 10750 ] final  -31.32 input  -60.55 | X-H torsion
[ 11005 11000 10999 10996 ] final   64.17 input  -57.11 | X-H torsion

> <Gold.Protein.ActiveResidues>
 VAL166  LYS551  ARG553  GLY616  TRP617  ASP618  TYR619  PRO620  LYS621  CYS622 
 ASP623  PHE694  ASN695  SER759  ASP760  ASP761  ALA762  ILE779  LEU786  VAL792 
 PHE793  MET794  SER795  GLU796  ALA797  LYS798  CYS799  TRP800  GLU811  SER814 

> <Gold.Protein.RotatedAtoms>
  150.6875  134.3325  159.4832 H   0  0  0  0  0  0  0  0  0  0  0  0  # atno 6907 bound_to 6896
  152.1188  134.9218  160.0573 H   0  0  0  0  0  0  0  0  0  0  0  0  # atno 6908 bound_to 6896
  152.0433  133.3952  159.4383 H   0  0  0  0  0  0  0  0  0  0  0  0  # atno 6909 bound_to 6896
  145.9678  139.4120  143.0209 H   0  0  0  0  0  0  0  0  0  0  0  0  # atno 7974 bound_to 7965
  154.8700  140.2957  155.5487 H   0  0  0  0  0  0  0  0  0  0  0  0  # atno 8008 bound_to 7997
  156.3021  140.2462  156.3621 H   0  0  0  0  0  0  0  0  0  0  0  0  # atno 8009 bound_to 7997
  154.8827  140.0397  157.1781 H   0  0  0  0  0  0  0  0  0  0  0  0  # atno 8010 bound_to 7997
  140.6980  143.6251  150.8575 H   0  0  0  0  0  0  0  0  0  0  0  0  # atno 10167 bound_to 10162
  156.0283  130.5489  150.7318 H   0  0  0  0  0  0  0  0  0  0  0  0  # atno 10718 bound_to 10713
  153.7954  135.6894  153.4864 H   0  0  0  0  0  0  0  0  0  0  0  0  # atno 10763 bound_to 10752
  153.1723  135.4538  154.9917 H   0  0  0  0  0  0  0  0  0  0  0  0  # atno 10764 bound_to 10752
  154.8028  135.3344  154.7447 H   0  0  0  0  0  0  0  0  0  0  0  0  # atno 10765 bound_to 10752
  139.9976  134.6492  155.9984 H   0  0  0  0  0  0  0  0  0  0  0  0  # atno 11005 bound_to 11000
  145.7949  140.9797  143.1029 LP  0  0  0  0  0  0  0  0  0  0  0  0  # atno 17320 bound_to 7965
  144.6829  139.9729  143.7482 LP  0  0  0  0  0  0  0  0  0  0  0  0  # atno 17321 bound_to 7965
  139.9971  143.5784  152.2889 LP  0  0  0  0  0  0  0  0  0  0  0  0  # atno 17342 bound_to 10162
  139.6460  144.7658  151.2242 LP  0  0  0  0  0  0  0  0  0  0  0  0  # atno 17343 bound_to 10162
  157.4908  131.0910  151.0429 LP  0  0  0  0  0  0  0  0  0  0  0  0  # atno 17370 bound_to 10713
  157.0836  130.5913  149.5425 LP  0  0  0  0  0  0  0  0  0  0  0  0  # atno 17371 bound_to 10713
  141.1617  133.6538  156.4341 LP  0  0  0  0  0  0  0  0  0  0  0  0  # atno 17394 bound_to 11000
  140.4788  134.6684  157.5162 LP  0  0  0  0  0  0  0  0  0  0  0  0  # atno 17395 bound_to 11000

$$$$
