AV-unprocessed.smi:2360|AV-procd|sdf|9410|dock9
  -GOLD-   2272013 43D 1   1.00000     0.00000
 Structure written by MMmdl.
 34 35  0  0  0  0  0  0  0  0  1 V2000
  152.3515  143.8303  161.2630 C   0  0  0  0  0  0  0  0  0  0  0  0
  152.1405  143.0080  160.0041 C   0  0  0  0  0  0  0  0  0  0  0  0
  151.2850  143.5699  159.0523 N   0  0  0  0  0  0  0  0  0  0  0  0
  151.0475  142.9406  157.9484 C   0  0  0  0  0  0  0  0  0  0  0  0
  151.6273  141.6912  157.6701 N   0  0  0  0  0  0  0  0  0  0  0  0
  151.2826  141.0854  156.3719 C   0  0  0  0  0  0  0  0  0  0  0  0
  149.9483  140.3065  156.4237 C   0  0  1  0  0  0  0  0  0  0  0  0
  149.6355  140.0167  157.7713 O   0  0  0  0  0  0  0  0  0  0  0  0
  148.8294  141.0958  155.7611 C   0  0  0  0  0  0  0  0  0  0  0  0
  148.8130  141.2824  154.3610 C   0  0  0  0  0  0  0  0  0  0  0  0
  147.7700  142.0080  153.7533 C   0  0  0  0  0  0  0  0  0  0  0  0
  146.7365  142.5503  154.5410 C   0  0  0  0  0  0  0  0  0  0  0  0
  145.7339  143.2473  153.9553 F   0  0  0  0  0  0  0  0  0  0  0  0
  146.7464  142.3659  155.9373 C   0  0  0  0  0  0  0  0  0  0  0  0
  145.7532  142.8855  156.6974 F   0  0  0  0  0  0  0  0  0  0  0  0
  147.7892  141.6396  156.5451 C   0  0  0  0  0  0  0  0  0  0  0  0
  152.4721  141.0722  158.5445 C   0  0  0  0  0  0  0  0  0  0  0  0
  152.9762  139.9760  158.2939 O   0  0  0  0  0  0  0  0  0  0  0  0
  152.7354  141.8018  159.7957 C   0  0  0  0  0  0  0  0  0  0  0  0
  153.6768  141.1419  160.7956 C   0  0  0  0  0  0  0  0  0  0  0  0
  153.4045  144.0875  161.3792 H   0  0  0  0  0  0  0  0  0  0  0  0
  152.0292  143.2721  162.1422 H   0  0  0  0  0  0  0  0  0  0  0  0
  151.7826  144.7602  161.2305 H   0  0  0  0  0  0  0  0  0  0  0  0
  150.3931  143.3377  157.1704 H   0  0  0  0  0  0  0  0  0  0  0  0
  151.2700  141.8205  155.5649 H   0  0  0  0  0  0  0  0  0  0  0  0
  152.0840  140.3984  156.0916 H   0  0  0  0  0  0  0  0  0  0  0  0
  150.0517  139.3558  155.8992 H   0  0  0  0  0  0  0  0  0  0  0  0
  149.0201  139.2999  157.7894 H   0  0  0  0  0  0  0  0  0  0  0  0
  149.6000  140.8672  153.7486 H   0  0  0  0  0  0  0  0  0  0  0  0
  147.7626  142.1474  152.6823 H   0  0  0  0  0  0  0  0  0  0  0  0
  147.7857  141.5014  157.6164 H   0  0  0  0  0  0  0  0  0  0  0  0
  153.2731  140.1801  161.1131 H   0  0  0  0  0  0  0  0  0  0  0  0
  153.8423  141.7400  161.6900 H   0  0  0  0  0  0  0  0  0  0  0  0
  154.6496  140.9652  160.3356 H   0  0  0  0  0  0  0  0  0  0  0  0
  1  2  1  0  0  0  0
  1 21  1  0  0  0  0
  1 22  1  0  0  0  0
  1 23  1  0  0  0  0
  2 19  2  0  0  0  0
  2  3  1  0  0  0  0
  3  4  2  0  0  0  0
  4  5  1  0  0  0  0
  4 24  1  0  0  0  0
  5  6  1  0  0  0  0
  5 17  1  0  0  0  0
  6  7  1  0  0  0  0
  6 25  1  0  0  0  0
  6 26  1  0  0  0  0
  7  8  1  0  0  0  0
  7  9  1  0  0  0  0
  7 27  1  0  0  0  0
  8 28  1  0  0  0  0
  9 16  1  0  0  0  0
  9 10  2  0  0  0  0
 10 11  1  0  0  0  0
 10 29  1  0  0  0  0
 11 12  2  0  0  0  0
 11 30  1  0  0  0  0
 12 13  1  0  0  0  0
 12 14  1  0  0  0  0
 14 15  1  0  0  0  0
 14 16  2  0  0  0  0
 16 31  1  0  0  0  0
 17 18  2  0  0  0  0
 17 19  1  0  0  0  0
 19 20  1  0  0  0  0
 20 32  1  0  0  0  0
 20 33  1  0  0  0  0
 20 34  1  0  0  0  0
M  END
> <s_m_source_file>
AV-unprocessed.smi

> <i_m_source_file_index>
2360

> <i_lp_mmshare_version>
43012

> <i_f3d_flags>
0

> <s_epik_input>
W0NIM11jMW5bY0hdbihjKD1PKWMxW0NIM10pW0NIMl1bQ0BIXShbT0hdKWMyW2NIXVtjSF1jKEYpYyhGKVtjSF0y

> <s_epik_cmdline>
J2VwaWtfcHl0aG9uJywgJy1waCcsICc3LjAnLCAnLXRuJywgJzgnLCAnLW1hJywgJzIwMCcsICctbWV0YWxfYmluZGluZycsICctaW1hZScsICc8aW5maWxlLm1hZT4nLCAnLW9tYWUnLCAnPG91dGZpbGUubWFlPic=

> <r_lp_tautomer_probability>
1

> <r_epik_Ionization_Penalty>
5.07449e-05

> <r_epik_Ionization_Penalty_Charging>
7.56727e-08

> <r_epik_Ionization_Penalty_Neutral>
5.06692e-05

> <r_epik_State_Penalty>
-0

> <r_epik_Charging_Adjusted_Penalty>
7.56727e-08

> <i_epik_Tot_Q>
0

> <i_epik_Tot_abs_Q>
0

> <r_epik_Metal_State_Penalty>
-0

> <b_epik_Metal_Only>
0

> <s_lp_Force_Field>
OPLS_2005

> <r_lp_Energy>
19.5716

> <b_lp_Chiralities_Consistent>
1

> <s_lp_Variant>
AV-unprocessed.smi:2360-2

> <Gold.Version>
5.8.1

> <Gold.Id.Protein>
6NUR|6NUR_protein|mol2

> <Gold.PLP.Fitness>
45.6376

> <Gold.PLP.PLP>
-42.0346

> <Gold.PLP.part.hbond>
-1.0000

> <Gold.PLP.part.metal>
0.0000

> <Gold.PLP.part.buried>
-5.2044

> <Gold.PLP.part.nonpolar>
-34.8449

> <Gold.PLP.part.repulsive>
0.0606

> <Gold.PLP.ligand.clash>
0.1094

> <Gold.PLP.ligand.torsion>
1.1493

> <Gold.PLP.Chemscore.Hbond>
1.0000

> <Gold.PLP.Chemscore.CHOScore>
1.0000

> <Gold.PLP.Chemscore.Metal>
0.0000

> <Gold.Chemscore.Hbonds>
donor molecule, donor type, donor heavy atom, donor atom, acceptor molecule, acceptor atom, score
      P1  H  7997  8009       L1    18  0.91
      L1  C     4    24       P1  8028  1.00

> <Gold.PLP.Chemscore.Internal.Correction>
0.0110

> <Gold.Rescore>
     Score         DG    S(hbond)    S(metal)    S(lipo)     H(rot)  DE(clash)    DE(int)     intcor
     12.19     -13.28       0.94        0.00      85.86       2.11       0.01       1.08       ----

> <Gold.Chemscore.Fitness>
12.1857

> <Gold.Chemscore.DG>
-13.2754

> <Gold.Chemscore.ZeroCoef>
-5.4800

> <Gold.Chemscore.Hbond>
0.9433

> <Gold.Chemscore.Metal>
0.0000

> <Gold.Chemscore.Lipo>
85.8609

> <Gold.Chemscore.Internal_Hbond>
0.0000

> <Gold.Chemscore.DEClash>
0.0113

> <Gold.Chemscore.DEInternal>
1.0784

> <Gold.Chemscore.Rot>
2.1097

> <Gold.Chemscore.Internal.Correction>
   9.000000E+99

> <Gold.Chemscore.Hbonds>
donor molecule, donor type, donor heavy atom, donor atom, acceptor molecule, acceptor atom, score
      P1  H  7997  8009       L1    18  0.71

> <Gold.Chemscore.Hbond.Weighted>
-3.1507

> <Gold.Chemscore.Metal.Weighted>
-0.0000

> <Gold.Chemscore.Lipo.Weighted>
-10.0457

> <Gold.Chemscore.Internal_Hbond.Weighted>
0.0000

> <Gold.Chemscore.DEClash.Weighted>
0.0113

> <Gold.Chemscore.DEInternal.Weighted>
1.0784

> <Gold.Chemscore.Rot.Weighted>
5.4009

> <Gold.Chemscore.Internal.Correction.Weighted>
   9.000000E+99

> <Gold.Protein.RotatedTorsions>
[ 6907 6896 6895 6894 ] final -156.93 input  -60.11 | X-H torsion
[ 7974 7965 7964 7962 ] final    3.84 input  175.53 | X-H torsion
[ 8008 7997 7996 7995 ] final  167.46 input   59.86 | X-H torsion
[ 10167 10162 10161 10158 ] final -162.03 input  -65.29 | X-H torsion
[ 10718 10713 10712 10709 ] final -127.16 input   66.30 | X-H torsion
[ 10763 10752 10751 10750 ] final   14.73 input  -60.55 | X-H torsion
[ 11005 11000 10999 10996 ] final   91.27 input  -57.11 | X-H torsion

> <Gold.Protein.ActiveResidues>
 VAL166  LYS551  ARG553  GLY616  TRP617  ASP618  TYR619  PRO620  LYS621  CYS622 
 ASP623  PHE694  ASN695  SER759  ASP760  ASP761  ALA762  ILE779  LEU786  VAL792 
 PHE793  MET794  SER795  GLU796  ALA797  LYS798  CYS799  TRP800  GLU811  SER814 

> <Gold.Protein.RotatedAtoms>
  151.2951  133.4148  159.2635 H   0  0  0  0  0  0  0  0  0  0  0  0  # atno 6907 bound_to 6896
  151.0244  134.9493  159.8087 H   0  0  0  0  0  0  0  0  0  0  0  0  # atno 6908 bound_to 6896
  152.5331  134.2913  159.9097 H   0  0  0  0  0  0  0  0  0  0  0  0  # atno 6909 bound_to 6896
  146.2445  140.0625  142.8367 H   0  0  0  0  0  0  0  0  0  0  0  0  # atno 7974 bound_to 7965
  156.1632  140.1616  156.8577 H   0  0  0  0  0  0  0  0  0  0  0  0  # atno 8008 bound_to 7997
  154.5181  140.0785  156.8155 H   0  0  0  0  0  0  0  0  0  0  0  0  # atno 8009 bound_to 7997
  155.3665  140.3398  155.4244 H   0  0  0  0  0  0  0  0  0  0  0  0  # atno 8010 bound_to 7997
  139.6422  144.0239  152.2100 H   0  0  0  0  0  0  0  0  0  0  0  0  # atno 10167 bound_to 10162
  156.1832  130.6746  151.0331 H   0  0  0  0  0  0  0  0  0  0  0  0  # atno 10718 bound_to 10713
  153.1593  135.6793  153.8765 H   0  0  0  0  0  0  0  0  0  0  0  0  # atno 10763 bound_to 10752
  153.8166  135.3136  155.3407 H   0  0  0  0  0  0  0  0  0  0  0  0  # atno 10764 bound_to 10752
  154.7921  135.4829  154.0165 H   0  0  0  0  0  0  0  0  0  0  0  0  # atno 10765 bound_to 10752
  139.8841  134.8664  156.3403 H   0  0  0  0  0  0  0  0  0  0  0  0  # atno 11005 bound_to 11000
  145.0888  140.9270  143.4781 LP  0  0  0  0  0  0  0  0  0  0  0  0  # atno 17320 bound_to 7965
  145.0793  139.2972  143.5792 LP  0  0  0  0  0  0  0  0  0  0  0  0  # atno 17321 bound_to 7965
  139.9931  144.6347  150.7796 LP  0  0  0  0  0  0  0  0  0  0  0  0  # atno 17342 bound_to 10162
  140.7496  143.2942  151.3249 LP  0  0  0  0  0  0  0  0  0  0  0  0  # atno 17343 bound_to 10162
  157.6881  131.0818  150.7184 LP  0  0  0  0  0  0  0  0  0  0  0  0  # atno 17370 bound_to 10713
  156.7241  130.4689  149.5515 LP  0  0  0  0  0  0  0  0  0  0  0  0  # atno 17371 bound_to 10713
  140.9663  133.7356  156.0471 LP  0  0  0  0  0  0  0  0  0  0  0  0  # atno 17394 bound_to 11000
  140.7927  134.3599  157.5460 LP  0  0  0  0  0  0  0  0  0  0  0  0  # atno 17395 bound_to 11000

$$$$
