AV-unprocessed.smi:229|AV-procd|sdf|1761|dock1
  -GOLD-   2262020293D 1   1.00000     0.00000
 Structure written by MMmdl.
 58 62  0  0  0  0  0  0  0  0  1 V2000
  154.1344  141.3279  161.3924 C   0  0  0  0  0  0  0  0  0  0  0  0
  153.6098  140.5710  160.1658 C   0  0  0  0  0  0  0  0  0  0  0  0
  152.3995  141.2554  159.5134 C   0  0  2  0  0  0  0  0  0  0  0  0
  151.9330  140.5131  158.2491 C   0  0  0  0  0  0  0  0  0  0  0  0
  150.8542  141.2570  157.6089 N   0  0  0  0  0  0  0  0  0  0  0  0
  150.1200  140.6333  156.6547 C   0  0  0  0  0  0  0  0  0  0  0  0
  150.4892  140.7151  155.3483 N   0  0  0  0  0  0  0  0  0  0  0  0
  149.7632  140.1102  154.4031 C   0  0  0  0  0  0  0  0  0  0  0  0
  148.6548  139.3800  154.5413 N   0  0  0  0  0  0  0  0  0  0  0  0
  148.2859  139.2866  155.8507 C   0  0  0  0  0  0  0  0  0  0  0  0
  148.9531  139.8780  156.9602 C   0  0  0  0  0  0  0  0  0  0  0  0
  148.2885  139.5559  158.1382 N   0  0  0  0  0  0  0  0  0  0  0  0
  147.2837  138.8204  157.7471 C   0  0  0  0  0  0  0  0  0  0  0  0
  147.2108  138.6034  156.3896 N   0  0  0  0  0  0  0  0  0  0  0  0
  146.2094  137.8230  155.6836 C   0  0  0  0  0  0  0  0  0  0  0  0
  146.5634  137.6088  154.1955 C   0  0  1  0  0  0  0  0  0  0  0  0
  147.6081  136.6567  154.1238 O   0  0  0  0  0  0  0  0  0  0  0  0
  145.3810  137.0761  153.3614 C   0  0  1  0  0  0  0  0  0  0  0  0
  145.7411  136.6439  151.9392 C   0  0  0  0  0  0  0  0  0  0  0  0
  144.6325  135.6714  151.5768 C   0  0  0  0  0  0  0  0  0  0  0  0
  144.0912  135.2151  152.9338 C   0  0  0  0  0  0  0  0  0  0  0  0
  144.9179  135.8472  153.9028 O   0  0  0  0  0  0  0  0  0  0  0  0
  151.2170  142.6345  157.2977 C   0  0  0  0  0  0  0  0  0  0  0  0
  151.7325  143.3650  158.5571 C   0  0  2  0  0  0  0  0  0  0  0  0
  150.6251  143.7046  159.5609 C   0  0  0  0  0  0  0  0  0  0  0  0
  150.3743  145.1884  159.3341 C   0  0  0  0  0  0  0  0  0  0  0  0
  151.6778  145.6758  159.0777 O   0  0  0  0  0  0  0  0  0  0  0  0
  152.3051  144.7506  158.2006 C   0  0  0  0  0  0  0  0  0  0  0  0
  152.7719  142.5895  159.1621 O   0  0  0  0  0  0  0  0  0  0  0  0
  154.9788  140.8034  161.8399 H   0  0  0  0  0  0  0  0  0  0  0  0
  153.3615  141.4262  162.1551 H   0  0  0  0  0  0  0  0  0  0  0  0
  154.4712  142.3299  161.1249 H   0  0  0  0  0  0  0  0  0  0  0  0
  154.4110  140.4629  159.4337 H   0  0  0  0  0  0  0  0  0  0  0  0
  153.3328  139.5611  160.4697 H   0  0  0  0  0  0  0  0  0  0  0  0
  151.5820  141.2757  160.2354 H   0  0  0  0  0  0  0  0  0  0  0  0
  152.7620  140.4000  157.5487 H   0  0  0  0  0  0  0  0  0  0  0  0
  151.5908  139.5120  158.5157 H   0  0  0  0  0  0  0  0  0  0  0  0
  150.1225  140.2283  153.3915 H   0  0  0  0  0  0  0  0  0  0  0  0
  146.5678  138.4074  158.4433 H   0  0  0  0  0  0  0  0  0  0  0  0
  146.0952  136.8625  156.1885 H   0  0  0  0  0  0  0  0  0  0  0  0
  145.2557  138.3421  155.7826 H   0  0  0  0  0  0  0  0  0  0  0  0
  146.9159  138.5487  153.7685 H   0  0  0  0  0  0  0  0  0  0  0  0
  148.1631  136.8772  153.3917 H   0  0  0  0  0  0  0  0  0  0  0  0
  144.5636  137.7995  153.3295 H   0  0  0  0  0  0  0  0  0  0  0  0
  145.8098  137.4817  151.2446 H   0  0  0  0  0  0  0  0  0  0  0  0
  146.6993  136.1222  151.9371 H   0  0  0  0  0  0  0  0  0  0  0  0
  143.8478  136.1699  151.0065 H   0  0  0  0  0  0  0  0  0  0  0  0
  145.0082  134.8401  150.9792 H   0  0  0  0  0  0  0  0  0  0  0  0
  143.0596  135.5435  153.0667 H   0  0  0  0  0  0  0  0  0  0  0  0
  144.1213  134.1316  153.0515 H   0  0  0  0  0  0  0  0  0  0  0  0
  151.9986  142.6160  156.5367 H   0  0  0  0  0  0  0  0  0  0  0  0
  150.3788  143.1835  156.8689 H   0  0  0  0  0  0  0  0  0  0  0  0
  149.7235  143.1028  159.4409 H   0  0  0  0  0  0  0  0  0  0  0  0
  150.9849  143.5643  160.5811 H   0  0  0  0  0  0  0  0  0  0  0  0
  149.7364  145.3524  158.4638 H   0  0  0  0  0  0  0  0  0  0  0  0
  149.9209  145.6778  160.1961 H   0  0  0  0  0  0  0  0  0  0  0  0
  153.3899  144.7993  158.3005 H   0  0  0  0  0  0  0  0  0  0  0  0
  152.0574  145.0289  157.1750 H   0  0  0  0  0  0  0  0  0  0  0  0
  1  2  1  0  0  0  0
  1 30  1  0  0  0  0
  1 31  1  0  0  0  0
  1 32  1  0  0  0  0
  2  3  1  0  0  0  0
  2 33  1  0  0  0  0
  2 34  1  0  0  0  0
  3 29  1  0  0  0  0
  3  4  1  0  0  0  0
  3 35  1  0  0  0  0
  4  5  1  0  0  0  0
  4 36  1  0  0  0  0
  4 37  1  0  0  0  0
  5  6  1  0  0  0  0
  5 23  1  0  0  0  0
  6 11  1  0  0  0  0
  6  7  2  0  0  0  0
  7  8  1  0  0  0  0
  8  9  2  0  0  0  0
  8 38  1  0  0  0  0
  9 10  1  0  0  0  0
 10 14  1  0  0  0  0
 10 11  2  0  0  0  0
 11 12  1  0  0  0  0
 12 13  2  0  0  0  0
 13 14  1  0  0  0  0
 13 39  1  0  0  0  0
 14 15  1  0  0  0  0
 15 16  1  0  0  0  0
 15 40  1  0  0  0  0
 15 41  1  0  0  0  0
 16 17  1  0  0  0  0
 16 18  1  0  0  0  0
 16 42  1  0  0  0  0
 17 43  1  0  0  0  0
 18 22  1  0  0  0  0
 18 19  1  0  0  0  0
 18 44  1  0  0  0  0
 19 20  1  0  0  0  0
 19 45  1  0  0  0  0
 19 46  1  0  0  0  0
 20 21  1  0  0  0  0
 20 47  1  0  0  0  0
 20 48  1  0  0  0  0
 21 22  1  0  0  0  0
 21 49  1  0  0  0  0
 21 50  1  0  0  0  0
 23 24  1  0  0  0  0
 23 51  1  0  0  0  0
 23 52  1  0  0  0  0
 24 28  1  0  0  0  0
 24 25  1  0  0  0  0
 24 29  1  0  0  0  0
 25 26  1  0  0  0  0
 25 53  1  0  0  0  0
 25 54  1  0  0  0  0
 26 27  1  0  0  0  0
 26 55  1  0  0  0  0
 26 56  1  0  0  0  0
 27 28  1  0  0  0  0
 28 57  1  0  0  0  0
 28 58  1  0  0  0  0
M  END
> <s_m_source_file>
AV-unprocessed.smi

> <i_m_source_file_index>
229

> <i_lp_mmshare_version>
43012

> <i_f3d_flags>
0

> <s_epik_input>
W0NIMl0xT1tDSDJdW0NIMl1bQ0BdMTJbQ0gyXU4oW0NIMl1bQ0BIXShPMilbQ0gyXVtDSDNdKWMobltjSF1uMyljKGMzNCluW2NIXW40W0NIMl1bQ0BIXShbT0hdKVtDQEBIXTVbQ0gyXVtDSDJdW0NIMl1PNQ==

> <s_epik_cmdline>
J2VwaWtfcHl0aG9uJywgJy1waCcsICc3LjAnLCAnLXRuJywgJzgnLCAnLW1hJywgJzIwMCcsICctbWV0YWxfYmluZGluZycsICctaW1hZScsICc8aW5maWxlLm1hZT4nLCAnLW9tYWUnLCAnPG91dGZpbGUubWFlPic=

> <r_lp_tautomer_probability>
1

> <r_epik_Ionization_Penalty>
0.00318402

> <r_epik_Ionization_Penalty_Charging>
0

> <r_epik_Ionization_Penalty_Neutral>
0.00318402

> <r_epik_State_Penalty>
0.00215642

> <r_epik_Charging_Adjusted_Penalty>
0.00215642

> <i_epik_Tot_Q>
0

> <i_epik_Tot_abs_Q>
0

> <r_epik_Metal_State_Penalty>
-0

> <b_epik_Metal_Only>
0

> <s_lp_Force_Field>
OPLS_2005

> <r_lp_Energy>
54.7562

> <b_lp_Chiralities_Consistent>
1

> <s_lp_Variant>
AV-unprocessed.smi:229-15

> <Gold.Version>
5.8.1

> <Gold.Id.Protein>
6NUR|6NUR_protein|mol2

> <Gold.PLP.Fitness>
46.9980

> <Gold.PLP.PLP>
-42.1556

> <Gold.PLP.part.hbond>
-3.9694

> <Gold.PLP.part.metal>
0.0000

> <Gold.PLP.part.buried>
-5.9564

> <Gold.PLP.part.nonpolar>
-32.6603

> <Gold.PLP.part.repulsive>
0.3558

> <Gold.PLP.ligand.clash>
0.0000

> <Gold.PLP.ligand.torsion>
0.7445

> <Gold.PLP.Chemscore.Hbond>
0.9760

> <Gold.PLP.Chemscore.CHOScore>
1.0000

> <Gold.PLP.Chemscore.Metal>
0.0000

> <Gold.Chemscore.Hbonds>
donor molecule, donor type, donor heavy atom, donor atom, acceptor molecule, acceptor atom, score
      L1  H    17    43       P1  7948  0.90
      L1  C     8    38       P1  7957  1.00

> <Gold.PLP.Chemscore.Internal.Correction>
0.4034

> <Gold.Rescore>
     Score         DG    S(hbond)    S(metal)    S(lipo)     H(rot)  DE(clash)    DE(int)     intcor
     12.47     -14.83       1.00        0.00     105.25       2.46       0.21       2.16       ----

> <Gold.Chemscore.Fitness>
12.4654

> <Gold.Chemscore.DG>
-14.8316

> <Gold.Chemscore.ZeroCoef>
-5.4800

> <Gold.Chemscore.Hbond>
0.9978

> <Gold.Chemscore.Metal>
0.0000

> <Gold.Chemscore.Lipo>
105.2497

> <Gold.Chemscore.Internal_Hbond>
0.0000

> <Gold.Chemscore.DEClash>
0.2105

> <Gold.Chemscore.DEInternal>
2.1558

> <Gold.Chemscore.Rot>
2.4591

> <Gold.Chemscore.Internal.Correction>
   9.000000E+99

> <Gold.Chemscore.Hbonds>
donor molecule, donor type, donor heavy atom, donor atom, acceptor molecule, acceptor atom, score
      L1  H    17    43       P1  7948  0.88

> <Gold.Chemscore.Hbond.Weighted>
-3.3327

> <Gold.Chemscore.Metal.Weighted>
-0.0000

> <Gold.Chemscore.Lipo.Weighted>
-12.3142

> <Gold.Chemscore.Internal_Hbond.Weighted>
0.0000

> <Gold.Chemscore.DEClash.Weighted>
0.2105

> <Gold.Chemscore.DEInternal.Weighted>
2.1558

> <Gold.Chemscore.Rot.Weighted>
6.2953

> <Gold.Chemscore.Internal.Correction.Weighted>
   9.000000E+99

> <Gold.Protein.RotatedTorsions>
[ 6907 6896 6895 6894 ] final   82.92 input  -60.11 | X-H torsion
[ 7974 7965 7964 7962 ] final  -54.83 input  175.53 | X-H torsion
[ 8008 7997 7996 7995 ] final   92.85 input   59.86 | X-H torsion
[ 10167 10162 10161 10158 ] final  163.11 input  -65.29 | X-H torsion
[ 10718 10713 10712 10709 ] final   52.99 input   66.30 | X-H torsion
[ 10763 10752 10751 10750 ] final -125.52 input  -60.55 | X-H torsion
[ 11005 11000 10999 10996 ] final   49.86 input  -57.11 | X-H torsion

> <Gold.Protein.ActiveResidues>
 VAL166  LYS551  ARG553  GLY616  TRP617  ASP618  TYR619  PRO620  LYS621  CYS622 
 ASP623  PHE694  ASN695  SER759  ASP760  ASP761  ALA762  ILE779  LEU786  VAL792 
 PHE793  MET794  SER795  GLU796  ALA797  LYS798  CYS799  TRP800  GLU811  SER814 

> <Gold.Protein.RotatedAtoms>
  152.5313  134.2976  159.9066 H   0  0  0  0  0  0  0  0  0  0  0  0  # atno 6907 bound_to 6896
  151.2927  133.4151  159.2642 H   0  0  0  0  0  0  0  0  0  0  0  0  # atno 6908 bound_to 6896
  151.0187  134.9468  159.8104 H   0  0  0  0  0  0  0  0  0  0  0  0  # atno 6909 bound_to 6896
  145.8810  140.8144  142.9839 H   0  0  0  0  0  0  0  0  0  0  0  0  # atno 7974 bound_to 7965
  156.0401  140.3320  155.7234 H   0  0  0  0  0  0  0  0  0  0  0  0  # atno 8008 bound_to 7997
  155.5757  140.0632  157.2813 H   0  0  0  0  0  0  0  0  0  0  0  0  # atno 8009 bound_to 7997
  154.4389  140.1853  156.0913 H   0  0  0  0  0  0  0  0  0  0  0  0  # atno 8010 bound_to 7997
  139.4869  144.4370  151.8999 H   0  0  0  0  0  0  0  0  0  0  0  0  # atno 10167 bound_to 10162
  157.5126  130.8511  149.8454 H   0  0  0  0  0  0  0  0  0  0  0  0  # atno 10718 bound_to 10713
  154.8736  135.4026  154.3282 H   0  0  0  0  0  0  0  0  0  0  0  0  # atno 10763 bound_to 10752
  153.4099  135.7020  153.6371 H   0  0  0  0  0  0  0  0  0  0  0  0  # atno 10764 bound_to 10752
  153.5078  135.3714  155.2542 H   0  0  0  0  0  0  0  0  0  0  0  0  # atno 10765 bound_to 10752
  140.1067  134.5009  155.8714 H   0  0  0  0  0  0  0  0  0  0  0  0  # atno 11005 bound_to 11000
  144.6727  140.1384  143.7439 LP  0  0  0  0  0  0  0  0  0  0  0  0  # atno 17320 bound_to 7965
  145.9023  139.2437  143.1486 LP  0  0  0  0  0  0  0  0  0  0  0  0  # atno 17321 bound_to 7965
  140.3820  144.2724  150.5907 LP  0  0  0  0  0  0  0  0  0  0  0  0  # atno 17342 bound_to 10162
  140.5224  143.2262  151.8367 LP  0  0  0  0  0  0  0  0  0  0  0  0  # atno 17343 bound_to 10162
  156.0299  130.3768  150.1717 LP  0  0  0  0  0  0  0  0  0  0  0  0  # atno 17370 bound_to 10713
  156.9906  130.9892  151.3415 LP  0  0  0  0  0  0  0  0  0  0  0  0  # atno 17371 bound_to 10713
  141.2120  133.6713  156.6625 LP  0  0  0  0  0  0  0  0  0  0  0  0  # atno 17394 bound_to 11000
  140.3146  134.8058  157.4204 LP  0  0  0  0  0  0  0  0  0  0  0  0  # atno 17395 bound_to 11000

$$$$
