AV-unprocessed.smi:2032|AV-procd|sdf|8233|dock1
  -GOLD-   2272010503D 1   1.00000     0.00000
 Structure written by MMmdl.
 42 43  0  0  0  0  0  0  0  0  1 V2000
  151.5967  137.9055  154.3569 C   0  0  0  0  0  0  0  0  0  0  0  0
  150.6145  138.8712  155.0281 C   0  0  2  0  0  0  0  0  0  0  0  0
  149.1822  138.7065  154.4885 C   0  0  0  0  0  0  0  0  0  0  0  0
  148.2500  139.6795  155.0609 N   0  0  0  0  0  0  0  0  0  0  0  0
  146.8667  139.5025  154.5660 C   0  0  1  0  0  0  0  0  0  0  0  0
  145.9061  140.6331  154.9994 C   0  0  0  0  0  0  0  0  0  0  0  0
  146.7641  139.3326  153.0269 C   0  0  0  0  0  0  0  0  0  0  0  0
  146.8725  137.9359  152.6089 N   0  0  0  0  0  0  0  0  0  0  0  0
  145.8445  137.1182  152.3412 C   0  0  0  0  0  0  0  0  0  0  0  0
  144.6638  137.4569  152.4313 O   0  0  0  0  0  0  0  0  0  0  0  0
  146.2769  135.9021  151.9646 N   0  0  0  0  0  0  0  0  0  0  0  0
  145.5027  134.7703  151.5977 C   0  0  0  0  0  0  0  0  0  0  0  0
  144.1686  134.7698  151.4944 N   0  0  0  0  0  0  0  0  0  0  0  0
  143.6723  133.5194  151.1172 C   0  0  0  0  0  0  0  0  0  0  0  0
  144.6495  132.5725  150.9365 C   0  0  0  0  0  0  0  0  0  0  0  0
  146.2419  133.2182  151.2319 S   0  0  0  0  0  0  0  0  0  0  0  0
  148.7733  141.0224  154.7938 C   0  0  0  0  0  0  0  0  0  0  0  0
  150.2172  141.2259  155.2932 C   0  0  1  0  0  0  0  0  0  0  0  0
  150.3194  141.3505  156.8231 C   0  0  0  0  0  0  0  0  0  0  0  0
  151.0667  140.1996  154.7842 O   0  0  0  0  0  0  0  0  0  0  0  0
  151.3040  136.8688  154.5243 H   0  0  0  0  0  0  0  0  0  0  0  0
  152.6032  138.0345  154.7556 H   0  0  0  0  0  0  0  0  0  0  0  0
  151.6406  138.0720  153.2802 H   0  0  0  0  0  0  0  0  0  0  0  0
  150.6235  138.6758  156.1007 H   0  0  0  0  0  0  0  0  0  0  0  0
  149.1861  138.7953  153.4010 H   0  0  0  0  0  0  0  0  0  0  0  0
  148.8636  137.6915  154.7204 H   0  0  0  0  0  0  0  0  0  0  0  0
  146.4708  138.5833  155.0005 H   0  0  0  0  0  0  0  0  0  0  0  0
  144.9359  140.5371  154.5110 H   0  0  0  0  0  0  0  0  0  0  0  0
  146.3046  141.6164  154.7483 H   0  0  0  0  0  0  0  0  0  0  0  0
  145.7078  140.6141  156.0705 H   0  0  0  0  0  0  0  0  0  0  0  0
  145.8167  139.7231  152.6574 H   0  0  0  0  0  0  0  0  0  0  0  0
  147.5186  139.9444  152.5295 H   0  0  0  0  0  0  0  0  0  0  0  0
  147.8076  137.5718  152.4989 H   0  0  0  0  0  0  0  0  0  0  0  0
  147.2770  135.7698  151.9382 H   0  0  0  0  0  0  0  0  0  0  0  0
  142.6065  133.3916  151.0000 H   0  0  0  0  0  0  0  0  0  0  0  0
  144.5295  131.5388  150.6480 H   0  0  0  0  0  0  0  0  0  0  0  0
  148.7405  141.2148  153.7203 H   0  0  0  0  0  0  0  0  0  0  0  0
  148.1507  141.7822  155.2631 H   0  0  0  0  0  0  0  0  0  0  0  0
  150.5866  142.1621  154.8739 H   0  0  0  0  0  0  0  0  0  0  0  0
  149.7559  142.2128  157.1795 H   0  0  0  0  0  0  0  0  0  0  0  0
  151.3560  141.4819  157.1338 H   0  0  0  0  0  0  0  0  0  0  0  0
  149.9255  140.4724  157.3342 H   0  0  0  0  0  0  0  0  0  0  0  0
  1  2  1  0  0  0  0
  1 21  1  0  0  0  0
  1 22  1  0  0  0  0
  1 23  1  0  0  0  0
  2 20  1  0  0  0  0
  2  3  1  0  0  0  0
  2 24  1  0  0  0  0
  3  4  1  0  0  0  0
  3 25  1  0  0  0  0
  3 26  1  0  0  0  0
  4  5  1  0  0  0  0
  4 17  1  0  0  0  0
  5  6  1  0  0  0  0
  5  7  1  0  0  0  0
  5 27  1  0  0  0  0
  6 28  1  0  0  0  0
  6 29  1  0  0  0  0
  6 30  1  0  0  0  0
  7  8  1  0  0  0  0
  7 31  1  0  0  0  0
  7 32  1  0  0  0  0
  8  9  1  0  0  0  0
  8 33  1  0  0  0  0
  9 10  2  0  0  0  0
  9 11  1  0  0  0  0
 11 12  1  0  0  0  0
 11 34  1  0  0  0  0
 12 16  1  0  0  0  0
 12 13  2  0  0  0  0
 13 14  1  0  0  0  0
 14 15  2  0  0  0  0
 14 35  1  0  0  0  0
 15 16  1  0  0  0  0
 15 36  1  0  0  0  0
 17 18  1  0  0  0  0
 17 37  1  0  0  0  0
 17 38  1  0  0  0  0
 18 19  1  0  0  0  0
 18 20  1  0  0  0  0
 18 39  1  0  0  0  0
 19 40  1  0  0  0  0
 19 41  1  0  0  0  0
 19 42  1  0  0  0  0
M  END
> <s_m_source_file>
AV-unprocessed.smi

> <i_m_source_file_index>
2032

> <i_lp_mmshare_version>
43012

> <i_f3d_flags>
0

> <s_epik_input>
W0NIM11bQ0BASF0xW0NIMl1OKFtDSDJdW0NASF0oTzEpW0NIM10pW0NASF0oW0NIM10pW0NIMl1bTkhdQyg9TylbTkhdYzJuW2NIXVtjSF1zMg==

> <s_epik_cmdline>
J2VwaWtfcHl0aG9uJywgJy1waCcsICc3LjAnLCAnLXRuJywgJzgnLCAnLW1hJywgJzIwMCcsICctbWV0YWxfYmluZGluZycsICctaW1hZScsICc8aW5maWxlLm1hZT4nLCAnLW9tYWUnLCAnPG91dGZpbGUubWFlPic=

> <r_lp_tautomer_probability>
0.999

> <r_epik_Ionization_Penalty>
0.219202

> <r_epik_Ionization_Penalty_Charging>
0

> <r_epik_Ionization_Penalty_Neutral>
0.219202

> <r_epik_State_Penalty>
0.209349

> <r_epik_Charging_Adjusted_Penalty>
0.209349

> <i_epik_Tot_Q>
0

> <i_epik_Tot_abs_Q>
0

> <r_epik_Metal_State_Penalty>
0.247737

> <b_epik_Metal_Only>
0

> <s_lp_Force_Field>
OPLS_2005

> <r_lp_Energy>
32.247

> <b_lp_Chiralities_Consistent>
1

> <s_lp_Variant>
AV-unprocessed.smi:2032-3

> <Gold.Version>
5.8.1

> <Gold.Id.Protein>
6NUR|6NUR_protein|mol2

> <Gold.PLP.Fitness>
43.1678

> <Gold.PLP.PLP>
-32.6863

> <Gold.PLP.part.hbond>
-2.9614

> <Gold.PLP.part.metal>
0.0000

> <Gold.PLP.part.buried>
-5.4447

> <Gold.PLP.part.nonpolar>
-25.7357

> <Gold.PLP.part.repulsive>
1.4197

> <Gold.PLP.ligand.clash>
0.0000

> <Gold.PLP.ligand.torsion>
0.7386

> <Gold.PLP.Chemscore.Hbond>
2.9600

> <Gold.PLP.Chemscore.CHOScore>
1.0000

> <Gold.PLP.Chemscore.Metal>
0.0000

> <Gold.Chemscore.Hbonds>
donor molecule, donor type, donor heavy atom, donor atom, acceptor molecule, acceptor atom, score
      L1  H     8    33       P1  7948  0.99
      L1  H    11    34       P1  7948  1.00
      P1  H  7989  7998       L1    20  1.00
      L1  C    14    35       P1 10186  1.00

> <Gold.PLP.Chemscore.Internal.Correction>
0.0787

> <Gold.Rescore>
     Score         DG    S(hbond)    S(metal)    S(lipo)     H(rot)  DE(clash)    DE(int)     intcor
     17.30     -19.64       2.80        0.00      75.47       1.57       0.18       2.16       ----

> <Gold.Chemscore.Fitness>
17.2978

> <Gold.Chemscore.DG>
-19.6394

> <Gold.Chemscore.ZeroCoef>
-5.4800

> <Gold.Chemscore.Hbond>
2.8026

> <Gold.Chemscore.Metal>
0.0000

> <Gold.Chemscore.Lipo>
75.4749

> <Gold.Chemscore.Internal_Hbond>
0.0000

> <Gold.Chemscore.DEClash>
0.1848

> <Gold.Chemscore.DEInternal>
2.1568

> <Gold.Chemscore.Rot>
1.5750

> <Gold.Chemscore.Internal.Correction>
   9.000000E+99

> <Gold.Chemscore.Hbonds>
donor molecule, donor type, donor heavy atom, donor atom, acceptor molecule, acceptor atom, score
      L1  H     8    33       P1  7948  0.94
      L1  H    11    34       P1  7948  0.99
      P1  H  7989  7998       L1    20  0.33

> <Gold.Chemscore.Hbond.Weighted>
-9.3608

> <Gold.Chemscore.Metal.Weighted>
-0.0000

> <Gold.Chemscore.Lipo.Weighted>
-8.8306

> <Gold.Chemscore.Internal_Hbond.Weighted>
0.0000

> <Gold.Chemscore.DEClash.Weighted>
0.1848

> <Gold.Chemscore.DEInternal.Weighted>
2.1568

> <Gold.Chemscore.Rot.Weighted>
4.0319

> <Gold.Chemscore.Internal.Correction.Weighted>
   9.000000E+99

> <Gold.Protein.RotatedTorsions>
[ 6907 6896 6895 6894 ] final -158.89 input  -60.11 | X-H torsion
[ 7974 7965 7964 7962 ] final  173.91 input  175.53 | X-H torsion
[ 8008 7997 7996 7995 ] final  -67.12 input   59.86 | X-H torsion
[ 10167 10162 10161 10158 ] final   98.37 input  -65.29 | X-H torsion
[ 10718 10713 10712 10709 ] final -107.63 input   66.30 | X-H torsion
[ 10763 10752 10751 10750 ] final   53.12 input  -60.55 | X-H torsion
[ 11005 11000 10999 10996 ] final  -11.65 input  -57.11 | X-H torsion

> <Gold.Protein.ActiveResidues>
 VAL166  LYS551  ARG553  GLY616  TRP617  ASP618  TYR619  PRO620  LYS621  CYS622 
 ASP623  PHE694  ASN695  SER759  ASP760  ASP761  ALA762  ILE779  LEU786  VAL792 
 PHE793  MET794  SER795  GLU796  ALA797  LYS798  CYS799  TRP800  GLU811  SER814 

> <Gold.Protein.RotatedAtoms>
  151.3251  133.4023  159.2657 H   0  0  0  0  0  0  0  0  0  0  0  0  # atno 6907 bound_to 6896
  151.0002  134.9316  159.7959 H   0  0  0  0  0  0  0  0  0  0  0  0  # atno 6908 bound_to 6896
  152.5273  134.3216  159.9203 H   0  0  0  0  0  0  0  0  0  0  0  0  # atno 6909 bound_to 6896
  144.7233  139.9718  143.6437 H   0  0  0  0  0  0  0  0  0  0  0  0  # atno 7974 bound_to 7965
  154.4779  140.0899  156.7306 H   0  0  0  0  0  0  0  0  0  0  0  0  # atno 8008 bound_to 7997
  155.4548  140.3459  155.4287 H   0  0  0  0  0  0  0  0  0  0  0  0  # atno 8009 bound_to 7997
  156.1145  140.1457  156.9280 H   0  0  0  0  0  0  0  0  0  0  0  0  # atno 8010 bound_to 7997
  139.7715  144.6921  151.0150 H   0  0  0  0  0  0  0  0  0  0  0  0  # atno 10167 bound_to 10162
  156.0446  130.5672  150.7849 H   0  0  0  0  0  0  0  0  0  0  0  0  # atno 10718 bound_to 10713
  152.9793  135.5789  154.4690 H   0  0  0  0  0  0  0  0  0  0  0  0  # atno 10763 bound_to 10752
  154.4255  135.2772  155.1949 H   0  0  0  0  0  0  0  0  0  0  0  0  # atno 10764 bound_to 10752
  154.3680  135.6174  153.5779 H   0  0  0  0  0  0  0  0  0  0  0  0  # atno 10765 bound_to 10752
  140.7574  133.8542  155.9096 H   0  0  0  0  0  0  0  0  0  0  0  0  # atno 11005 bound_to 11000
  146.0557  139.3554  143.0612 LP  0  0  0  0  0  0  0  0  0  0  0  0  # atno 17320 bound_to 7965
  145.8158  140.9703  143.0925 LP  0  0  0  0  0  0  0  0  0  0  0  0  # atno 17321 bound_to 7965
  140.7814  143.4583  151.0313 LP  0  0  0  0  0  0  0  0  0  0  0  0  # atno 17342 bound_to 10162
  139.8267  143.7746  152.3179 LP  0  0  0  0  0  0  0  0  0  0  0  0  # atno 17343 bound_to 10162
  157.5306  131.0936  150.9960 LP  0  0  0  0  0  0  0  0  0  0  0  0  # atno 17370 bound_to 10713
  157.0267  130.5695  149.5338 LP  0  0  0  0  0  0  0  0  0  0  0  0  # atno 17371 bound_to 10713
  140.9694  134.1551  157.4588 LP  0  0  0  0  0  0  0  0  0  0  0  0  # atno 17394 bound_to 11000
  139.8776  134.9973  156.5841 LP  0  0  0  0  0  0  0  0  0  0  0  0  # atno 17395 bound_to 11000

$$$$
