AV-unprocessed.smi:55|AV-procd|sdf|561|dock8
  -GOLD-   2262016463D 1   1.00000     0.00000
 Structure written by MMmdl.
 31 32  0  0  0  0  0  0  0  0  1 V2000
  148.4335  137.4517  158.8766 C   0  0  0  0  0  0  0  0  0  0  0  0
  149.6351  137.9566  158.0953 C   0  0  0  0  0  0  0  0  0  0  0  0
  149.5102  138.7505  157.0015 C   0  0  0  0  0  0  0  0  0  0  0  0
  150.5857  139.2265  156.2652 N   0  0  0  0  0  0  0  0  0  0  0  0
  150.3538  140.0869  155.0436 C   0  0  2  0  0  0  0  0  0  0  0  0
  149.7351  141.4373  155.4225 C   0  0  0  0  0  0  0  0  0  0  0  0
  148.3216  141.3152  154.8817 C   0  0  1  0  0  0  0  0  0  0  0  0
  147.8274  142.5721  154.4659 O   0  0  0  0  0  0  0  0  0  0  0  0
  148.4908  140.3390  153.7143 C   0  0  2  0  0  0  0  0  0  0  0  0
  147.2002  139.5898  153.3496 C   0  0  0  0  0  0  0  0  0  0  0  0
  147.4200  138.7655  152.2251 O   0  0  0  0  0  0  0  0  0  0  0  0
  149.4608  139.4197  154.2050 O   0  0  0  0  0  0  0  0  0  0  0  0
  151.8964  138.8687  156.6478 C   0  0  0  0  0  0  0  0  0  0  0  0
  152.9027  139.2477  156.0497 O   0  0  0  0  0  0  0  0  0  0  0  0
  152.0254  138.0534  157.7712 N   0  0  0  0  0  0  0  0  0  0  0  0
  150.9721  137.5596  158.5448 C   0  0  0  0  0  0  0  0  0  0  0  0
  151.2148  136.8489  159.5188 O   0  0  0  0  0  0  0  0  0  0  0  0
  151.3017  140.1987  154.5167 H   0  0  0  0  0  0  0  0  0  0  0  0
  147.6639  140.8954  155.6436 H   0  0  0  0  0  0  0  0  0  0  0  0
  148.9039  140.8656  152.8513 H   0  0  0  0  0  0  0  0  0  0  0  0
  152.9614  137.7975  158.0497 H   0  0  0  0  0  0  0  0  0  0  0  0
  147.4958  137.8173  158.4575 H   0  0  0  0  0  0  0  0  0  0  0  0
  148.4866  137.7826  159.9144 H   0  0  0  0  0  0  0  0  0  0  0  0
  148.4028  136.3616  158.8650 H   0  0  0  0  0  0  0  0  0  0  0  0
  148.5152  139.0234  156.6831 H   0  0  0  0  0  0  0  0  0  0  0  0
  149.7769  141.6269  156.4959 H   0  0  0  0  0  0  0  0  0  0  0  0
  150.2922  142.2215  154.9074 H   0  0  0  0  0  0  0  0  0  0  0  0
  148.2685  143.2479  154.9578 H   0  0  0  0  0  0  0  0  0  0  0  0
  146.8333  138.9994  154.1898 H   0  0  0  0  0  0  0  0  0  0  0  0
  146.4159  140.2995  153.0849 H   0  0  0  0  0  0  0  0  0  0  0  0
  148.0773  139.1701  151.6797 H   0  0  0  0  0  0  0  0  0  0  0  0
  1  2  1  0  0  0  0
  1 22  1  0  0  0  0
  1 23  1  0  0  0  0
  1 24  1  0  0  0  0
  2 16  1  0  0  0  0
  2  3  2  0  0  0  0
  3  4  1  0  0  0  0
  3 25  1  0  0  0  0
  4  5  1  0  0  0  0
  4 13  1  0  0  0  0
  5 18  1  0  0  0  0
  5 12  1  0  0  0  0
  5  6  1  0  0  0  0
  6  7  1  0  0  0  0
  6 26  1  0  0  0  0
  6 27  1  0  0  0  0
  7 19  1  0  0  0  0
  7  8  1  0  0  0  0
  7  9  1  0  0  0  0
  8 28  1  0  0  0  0
  9 20  1  0  0  0  0
  9 10  1  0  0  0  0
  9 12  1  0  0  0  0
 10 11  1  0  0  0  0
 10 29  1  0  0  0  0
 10 30  1  0  0  0  0
 11 31  1  0  0  0  0
 13 14  2  0  0  0  0
 13 15  1  0  0  0  0
 15 21  1  0  0  0  0
 15 16  1  0  0  0  0
 16 17  2  0  0  0  0
M  END
> <s_m_source_file>
AV-unprocessed.smi

> <i_m_source_file_index>
55

> <i_lp_mmshare_version>
43012

> <i_f3d_flags>
0

> <s_epik_input>
Tz1jMVtuSF1jKD1PKW4oW2NIXWMxW0NIM10pW0NAQEhdMltDSDJdW0NAQEhdKFtPSF0pW0NAQEhdKE8yKVtDSDJdW09IXQ==

> <s_epik_cmdline>
J2VwaWtfcHl0aG9uJywgJy1waCcsICc3LjAnLCAnLXRuJywgJzgnLCAnLW1hJywgJzIwMCcsICctbWV0YWxfYmluZGluZycsICctaW1hZScsICc8aW5maWxlLm1hZT4nLCAnLW9tYWUnLCAnPG91dGZpbGUubWFlPic=

> <r_lp_tautomer_probability>
0.999537

> <r_epik_Ionization_Penalty>
0.00121888

> <r_epik_Ionization_Penalty_Charging>
0.00121876

> <r_epik_Ionization_Penalty_Neutral>
1.19946e-07

> <r_epik_State_Penalty>
0.000805124

> <r_epik_Charging_Adjusted_Penalty>
0.00202389

> <i_epik_Tot_Q>
0

> <i_epik_Tot_abs_Q>
0

> <r_epik_Metal_State_Penalty>
0.662472

> <b_epik_Metal_Only>
0

> <s_epik_Chemistry_Notes>
This compound contains an acetal/aminal-like group ( X-CH(R)-Y where X, Y are N, S, or O) that may be acid/base labile, releasing an aldehyde.

> <s_lp_Force_Field>
OPLS_2005

> <r_lp_Energy>
24.9707

> <b_lp_Chiralities_Consistent>
1

> <s_lp_Variant>
AV-unprocessed.smi:55-1

> <Gold.Version>
5.8.1

> <Gold.Id.Protein>
6NUR|6NUR_protein|mol2

> <Gold.PLP.Fitness>
36.2849

> <Gold.PLP.PLP>
-24.4610

> <Gold.PLP.part.hbond>
-5.0997

> <Gold.PLP.part.metal>
0.0000

> <Gold.PLP.part.buried>
-2.0612

> <Gold.PLP.part.nonpolar>
-18.1502

> <Gold.PLP.part.repulsive>
0.3976

> <Gold.PLP.ligand.clash>
0.0000

> <Gold.PLP.ligand.torsion>
0.0944

> <Gold.PLP.Chemscore.Hbond>
4.0000

> <Gold.PLP.Chemscore.CHOScore>
0.0000

> <Gold.PLP.Chemscore.Metal>
0.0000

> <Gold.Chemscore.Hbonds>
donor molecule, donor type, donor heavy atom, donor atom, acceptor molecule, acceptor atom, score
      L1  H     8    28       P1  8028  1.00
      L1  H    11    31       P1  7957  1.00
      P1  H  6896  6909       L1    17  1.00
      P1  H  7997  8009       L1    14  1.00

> <Gold.PLP.Chemscore.Internal.Correction>
0.0127

> <Gold.Rescore>
     Score         DG    S(hbond)    S(metal)    S(lipo)     H(rot)  DE(clash)    DE(int)     intcor
     15.37     -15.70       3.97        0.00      33.74       2.73       0.13       0.19       ----

> <Gold.Chemscore.Fitness>
15.3743

> <Gold.Chemscore.DG>
-15.6989

> <Gold.Chemscore.ZeroCoef>
-5.4800

> <Gold.Chemscore.Hbond>
3.9665

> <Gold.Chemscore.Metal>
0.0000

> <Gold.Chemscore.Lipo>
33.7405

> <Gold.Chemscore.Internal_Hbond>
0.0000

> <Gold.Chemscore.DEClash>
0.1334

> <Gold.Chemscore.DEInternal>
0.1912

> <Gold.Chemscore.Rot>
2.7253

> <Gold.Chemscore.Internal.Correction>
   9.000000E+99

> <Gold.Chemscore.Hbonds>
donor molecule, donor type, donor heavy atom, donor atom, acceptor molecule, acceptor atom, score
      L1  H     8    28       P1  8028  0.98
      L1  H    11    31       P1  7957  0.96
      P1  H  6896  6909       L1    17  1.00
      P1  H  7997  8009       L1    14  0.99

> <Gold.Chemscore.Hbond.Weighted>
-13.2481

> <Gold.Chemscore.Metal.Weighted>
-0.0000

> <Gold.Chemscore.Lipo.Weighted>
-3.9476

> <Gold.Chemscore.Internal_Hbond.Weighted>
0.0000

> <Gold.Chemscore.DEClash.Weighted>
0.1334

> <Gold.Chemscore.DEInternal.Weighted>
0.1912

> <Gold.Chemscore.Rot.Weighted>
6.9769

> <Gold.Chemscore.Internal.Correction.Weighted>
   9.000000E+99

> <Gold.Protein.RotatedTorsions>
[ 6907 6896 6895 6894 ] final  118.22 input  -60.11 | X-H torsion
[ 7974 7965 7964 7962 ] final   43.41 input  175.53 | X-H torsion
[ 8008 7997 7996 7995 ] final -174.47 input   59.86 | X-H torsion
[ 10167 10162 10161 10158 ] final   42.69 input  -65.29 | X-H torsion
[ 10718 10713 10712 10709 ] final  169.21 input   66.30 | X-H torsion
[ 10763 10752 10751 10750 ] final  -82.83 input  -60.55 | X-H torsion
[ 11005 11000 10999 10996 ] final -129.53 input  -57.11 | X-H torsion

> <Gold.Protein.ActiveResidues>
 VAL166  LYS551  ARG553  GLY616  TRP617  ASP618  TYR619  PRO620  LYS621  CYS622 
 ASP623  PHE694  ASN695  SER759  ASP760  ASP761  ALA762  ILE779  LEU786  VAL792 
 PHE793  MET794  SER795  GLU796  ALA797  LYS798  CYS799  TRP800  GLU811  SER814 

> <Gold.Protein.RotatedAtoms>
  152.4558  133.7720  159.6803 H   0  0  0  0  0  0  0  0  0  0  0  0  # atno 6907 bound_to 6896
  150.8484  133.7815  159.3041 H   0  0  0  0  0  0  0  0  0  0  0  0  # atno 6908 bound_to 6896
  151.5418  135.1071  159.9980 H   0  0  0  0  0  0  0  0  0  0  0  0  # atno 6909 bound_to 6896
  146.0658  139.5190  142.9629 H   0  0  0  0  0  0  0  0  0  0  0  0  # atno 7974 bound_to 7965
  155.9705  140.1162  157.0817 H   0  0  0  0  0  0  0  0  0  0  0  0  # atno 8008 bound_to 7997
  154.4155  140.1164  156.5367 H   0  0  0  0  0  0  0  0  0  0  0  0  # atno 8009 bound_to 7997
  155.6603  140.3473  155.4782 H   0  0  0  0  0  0  0  0  0  0  0  0  # atno 8010 bound_to 7997
  140.3519  144.2340  150.6145 H   0  0  0  0  0  0  0  0  0  0  0  0  # atno 10167 bound_to 10162
  157.0260  131.0245  151.2760 H   0  0  0  0  0  0  0  0  0  0  0  0  # atno 10718 bound_to 10713
  154.5804  135.5577  153.7180 H   0  0  0  0  0  0  0  0  0  0  0  0  # atno 10763 bound_to 10752
  153.0079  135.6319  154.1990 H   0  0  0  0  0  0  0  0  0  0  0  0  # atno 10764 bound_to 10752
  154.1930  135.2881  155.2995 H   0  0  0  0  0  0  0  0  0  0  0  0  # atno 10765 bound_to 10752
  140.9424  134.1175  157.4138 H   0  0  0  0  0  0  0  0  0  0  0  0  # atno 11005 bound_to 11000
  145.6480  141.0269  143.1775 LP  0  0  0  0  0  0  0  0  0  0  0  0  # atno 17320 bound_to 7965
  144.7201  139.8059  143.7385 LP  0  0  0  0  0  0  0  0  0  0  0  0  # atno 17321 bound_to 7965
  140.5211  143.2265  151.8387 LP  0  0  0  0  0  0  0  0  0  0  0  0  # atno 17342 bound_to 10162
  139.4825  144.4835  151.9276 LP  0  0  0  0  0  0  0  0  0  0  0  0  # atno 17343 bound_to 10162
  157.5214  130.8000  149.7813 LP  0  0  0  0  0  0  0  0  0  0  0  0  # atno 17370 bound_to 10713
  156.0086  130.3844  150.2344 LP  0  0  0  0  0  0  0  0  0  0  0  0  # atno 17371 bound_to 10713
  139.8824  135.0041  156.6226 LP  0  0  0  0  0  0  0  0  0  0  0  0  # atno 17394 bound_to 11000
  140.7716  133.8734  155.8496 LP  0  0  0  0  0  0  0  0  0  0  0  0  # atno 17395 bound_to 11000

$$$$
