AV-unprocessed.smi:1144|AV-procd|sdf|4880|dock5
  -GOLD-   22720 3453D 1   1.00000     0.00000
 Structure written by MMmdl.
 34 35  0  0  0  0  0  0  0  0  1 V2000
  144.0790  133.6911  150.7659 C   0  0  0  0  0  0  0  0  0  0  0  0
  144.0947  134.8200  151.6838 N   0  0  0  0  0  0  0  0  0  0  0  0
  144.2204  134.3834  153.0679 C   0  0  0  0  0  0  0  0  0  0  0  0
  144.2599  135.5757  154.0383 C   0  0  0  0  0  0  0  0  0  0  0  0
  145.3180  136.4543  153.6679 O   0  0  0  0  0  0  0  0  0  0  0  0
  145.1923  136.9530  152.3372 C   0  0  1  0  0  0  0  0  0  0  0  0
  146.3769  137.8862  152.0539 C   0  0  0  0  0  0  0  0  0  0  0  0
  146.2135  139.1763  152.7070 N   0  0  0  0  0  0  0  0  0  0  0  0
  147.2185  139.8304  153.3934 C   0  0  0  0  0  0  0  0  0  0  0  0
  146.9587  141.0969  153.7259 N   0  0  0  0  0  0  0  0  0  0  0  0
  147.9208  141.7651  154.3979 C   0  0  0  0  0  0  0  0  0  0  0  0
  149.1470  141.1604  154.7371 C   0  0  0  0  0  0  0  0  0  0  0  0
  149.3143  139.8163  154.3351 C   0  0  0  0  0  0  0  0  0  0  0  0
  150.5853  139.0349  154.6308 C   0  0  0  0  0  0  0  0  0  0  0  0
  151.1018  138.5689  153.4932 F   0  0  0  0  0  0  0  0  0  0  0  0
  151.5005  139.7983  155.2288 F   0  0  0  0  0  0  0  0  0  0  0  0
  150.3058  138.0056  155.4305 F   0  0  0  0  0  0  0  0  0  0  0  0
  148.3431  139.1573  153.6614 N   0  0  0  0  0  0  0  0  0  0  0  0
  145.1668  135.7550  151.3668 C   0  0  0  0  0  0  0  0  0  0  0  0
  143.2552  133.0156  150.9990 H   0  0  0  0  0  0  0  0  0  0  0  0
  145.0093  133.1244  150.8221 H   0  0  0  0  0  0  0  0  0  0  0  0
  143.9495  134.0303  149.7379 H   0  0  0  0  0  0  0  0  0  0  0  0
  143.3865  133.7301  153.3277 H   0  0  0  0  0  0  0  0  0  0  0  0
  145.1300  133.7926  153.1879 H   0  0  0  0  0  0  0  0  0  0  0  0
  143.3109  136.1142  154.0301 H   0  0  0  0  0  0  0  0  0  0  0  0
  144.4243  135.2293  155.0587 H   0  0  0  0  0  0  0  0  0  0  0  0
  144.2592  137.5123  152.2448 H   0  0  0  0  0  0  0  0  0  0  0  0
  147.3095  137.4248  152.3814 H   0  0  0  0  0  0  0  0  0  0  0  0
  146.4610  138.0545  150.9796 H   0  0  0  0  0  0  0  0  0  0  0  0
  145.2959  139.5974  152.7134 H   0  0  0  0  0  0  0  0  0  0  0  0
  147.7104  142.7896  154.6675 H   0  0  0  0  0  0  0  0  0  0  0  0
  149.9103  141.7031  155.2746 H   0  0  0  0  0  0  0  0  0  0  0  0
  146.1277  135.2388  151.4031 H   0  0  0  0  0  0  0  0  0  0  0  0
  145.0473  136.1178  150.3451 H   0  0  0  0  0  0  0  0  0  0  0  0
  1  2  1  0  0  0  0
  1 20  1  0  0  0  0
  1 21  1  0  0  0  0
  1 22  1  0  0  0  0
  2 19  1  0  0  0  0
  2  3  1  0  0  0  0
  3  4  1  0  0  0  0
  3 23  1  0  0  0  0
  3 24  1  0  0  0  0
  4  5  1  0  0  0  0
  4 25  1  0  0  0  0
  4 26  1  0  0  0  0
  5  6  1  0  0  0  0
  6  7  1  0  0  0  0
  6 19  1  0  0  0  0
  6 27  1  0  0  0  0
  7  8  1  0  0  0  0
  7 28  1  0  0  0  0
  7 29  1  0  0  0  0
  8  9  1  0  0  0  0
  8 30  1  0  0  0  0
  9 18  1  0  0  0  0
  9 10  2  0  0  0  0
 10 11  1  0  0  0  0
 11 12  2  0  0  0  0
 11 31  1  0  0  0  0
 12 13  1  0  0  0  0
 12 32  1  0  0  0  0
 13 14  1  0  0  0  0
 13 18  2  0  0  0  0
 14 15  1  0  0  0  0
 14 16  1  0  0  0  0
 14 17  1  0  0  0  0
 19 33  1  0  0  0  0
 19 34  1  0  0  0  0
M  END
> <s_m_source_file>
AV-unprocessed.smi

> <i_m_source_file_index>
1144

> <i_lp_mmshare_version>
43012

> <i_f3d_flags>
0

> <s_epik_input>
W0NIM11OMVtDSDJdW0NIMl1PW0NASF0oW0NIMl0xKVtDSDJdW05IXWMybltjSF1bY0hdYyhuMilDKEYpKEYpRg==

> <s_epik_cmdline>
J2VwaWtfcHl0aG9uJywgJy1waCcsICc3LjAnLCAnLXRuJywgJzgnLCAnLW1hJywgJzIwMCcsICctbWV0YWxfYmluZGluZycsICctaW1hZScsICc8aW5maWxlLm1hZT4nLCAnLW9tYWUnLCAnPG91dGZpbGUubWFlPic=

> <r_lp_tautomer_probability>
1

> <r_epik_Ionization_Penalty>
0.797829

> <r_epik_Ionization_Penalty_Charging>
0

> <r_epik_Ionization_Penalty_Neutral>
0.797829

> <r_epik_State_Penalty>
0.828842

> <r_epik_Charging_Adjusted_Penalty>
0.828842

> <i_epik_Tot_Q>
0

> <i_epik_Tot_abs_Q>
0

> <r_epik_Metal_State_Penalty>
0.828842

> <b_epik_Metal_Only>
0

> <s_lp_Force_Field>
OPLS_2005

> <r_lp_Energy>
13.1173

> <b_lp_Chiralities_Consistent>
1

> <s_lp_Variant>
AV-unprocessed.smi:1144-5

> <Gold.Version>
5.8.1

> <Gold.Id.Protein>
6NUR|6NUR_protein|mol2

> <Gold.PLP.Fitness>
36.6238

> <Gold.PLP.PLP>
-31.1971

> <Gold.PLP.part.hbond>
-1.0000

> <Gold.PLP.part.metal>
0.0000

> <Gold.PLP.part.buried>
-1.7760

> <Gold.PLP.part.nonpolar>
-28.7708

> <Gold.PLP.part.repulsive>
1.5420

> <Gold.PLP.ligand.clash>
0.0000

> <Gold.PLP.ligand.torsion>
0.2838

> <Gold.PLP.Chemscore.Hbond>
1.0000

> <Gold.PLP.Chemscore.CHOScore>
0.9936

> <Gold.PLP.Chemscore.Metal>
0.0000

> <Gold.Chemscore.Hbonds>
donor molecule, donor type, donor heavy atom, donor atom, acceptor molecule, acceptor atom, score
      L1  H     8    30       P1 10175  1.00
      L1  C    11    31       P1  8028  1.00

> <Gold.PLP.Chemscore.Internal.Correction>
0.0134

> <Gold.Rescore>
     Score         DG    S(hbond)    S(metal)    S(lipo)     H(rot)  DE(clash)    DE(int)     intcor
     11.50     -11.96       0.99        0.00      55.91       1.31       0.30       0.16       ----

> <Gold.Chemscore.Fitness>
11.4986

> <Gold.Chemscore.DG>
-11.9584

> <Gold.Chemscore.ZeroCoef>
-5.4800

> <Gold.Chemscore.Hbond>
0.9891

> <Gold.Chemscore.Metal>
0.0000

> <Gold.Chemscore.Lipo>
55.9065

> <Gold.Chemscore.Internal_Hbond>
0.0000

> <Gold.Chemscore.DEClash>
0.2994

> <Gold.Chemscore.DEInternal>
0.1604

> <Gold.Chemscore.Rot>
1.3149

> <Gold.Chemscore.Internal.Correction>
   9.000000E+99

> <Gold.Chemscore.Hbonds>
donor molecule, donor type, donor heavy atom, donor atom, acceptor molecule, acceptor atom, score
      L1  H     8    30       P1 10175  1.00

> <Gold.Chemscore.Hbond.Weighted>
-3.3035

> <Gold.Chemscore.Metal.Weighted>
-0.0000

> <Gold.Chemscore.Lipo.Weighted>
-6.5411

> <Gold.Chemscore.Internal_Hbond.Weighted>
0.0000

> <Gold.Chemscore.DEClash.Weighted>
0.2994

> <Gold.Chemscore.DEInternal.Weighted>
0.1604

> <Gold.Chemscore.Rot.Weighted>
3.3662

> <Gold.Chemscore.Internal.Correction.Weighted>
   9.000000E+99

> <Gold.Protein.RotatedTorsions>
[ 6907 6896 6895 6894 ] final  -40.95 input  -60.11 | X-H torsion
[ 7974 7965 7964 7962 ] final   65.45 input  175.53 | X-H torsion
[ 8008 7997 7996 7995 ] final  -52.64 input   59.86 | X-H torsion
[ 10167 10162 10161 10158 ] final    6.77 input  -65.29 | X-H torsion
[ 10718 10713 10712 10709 ] final  -73.88 input   66.30 | X-H torsion
[ 10763 10752 10751 10750 ] final -104.11 input  -60.55 | X-H torsion
[ 11005 11000 10999 10996 ] final -135.68 input  -57.11 | X-H torsion

> <Gold.Protein.ActiveResidues>
 VAL166  LYS551  ARG553  GLY616  TRP617  ASP618  TYR619  PRO620  LYS621  CYS622 
 ASP623  PHE694  ASN695  SER759  ASP760  ASP761  ALA762  ILE779  LEU786  VAL792 
 PHE793  MET794  SER795  GLU796  ALA797  LYS798  CYS799  TRP800  GLU811  SER814 

> <Gold.Protein.RotatedAtoms>
  150.9724  134.9094  159.7795 H   0  0  0  0  0  0  0  0  0  0  0  0  # atno 6907 bound_to 6896
  152.5195  134.3523  159.9265 H   0  0  0  0  0  0  0  0  0  0  0  0  # atno 6908 bound_to 6896
  151.3531  133.3877  159.2717 H   0  0  0  0  0  0  0  0  0  0  0  0  # atno 6909 bound_to 6896
  145.8384  139.3180  143.0946 H   0  0  0  0  0  0  0  0  0  0  0  0  # atno 7974 bound_to 7965
  154.4112  140.1219  156.5024 H   0  0  0  0  0  0  0  0  0  0  0  0  # atno 8008 bound_to 7997
  155.6881  140.3495  155.4863 H   0  0  0  0  0  0  0  0  0  0  0  0  # atno 8009 bound_to 7997
  155.9493  140.1102  157.0980 H   0  0  0  0  0  0  0  0  0  0  0  0  # atno 8010 bound_to 7997
  140.6409  143.7776  150.7427 H   0  0  0  0  0  0  0  0  0  0  0  0  # atno 10167 bound_to 10162
  156.0263  130.4404  150.2808 H   0  0  0  0  0  0  0  0  0  0  0  0  # atno 10718 bound_to 10713
  154.7855  135.4798  153.9936 H   0  0  0  0  0  0  0  0  0  0  0  0  # atno 10763 bound_to 10752
  153.1554  135.6799  153.8827 H   0  0  0  0  0  0  0  0  0  0  0  0  # atno 10764 bound_to 10752
  153.8458  135.3173  155.3407 H   0  0  0  0  0  0  0  0  0  0  0  0  # atno 10765 bound_to 10752
  140.8876  134.1853  157.4550 H   0  0  0  0  0  0  0  0  0  0  0  0  # atno 11005 bound_to 11000
  145.9493  140.8921  143.0267 LP  0  0  0  0  0  0  0  0  0  0  0  0  # atno 17320 bound_to 7965
  144.6735  140.1658  143.7418 LP  0  0  0  0  0  0  0  0  0  0  0  0  # atno 17321 bound_to 7965
  140.1407  143.4443  152.2195 LP  0  0  0  0  0  0  0  0  0  0  0  0  # atno 17342 bound_to 10162
  139.5618  144.7410  151.4133 LP  0  0  0  0  0  0  0  0  0  0  0  0  # atno 17343 bound_to 10162
  157.0912  131.0170  151.3121 LP  0  0  0  0  0  0  0  0  0  0  0  0  # atno 17370 bound_to 10713
  157.4853  130.7789  149.7454 LP  0  0  0  0  0  0  0  0  0  0  0  0  # atno 17371 bound_to 10713
  139.8726  134.9844  156.5239 LP  0  0  0  0  0  0  0  0  0  0  0  0  # atno 17394 bound_to 11000
  140.8386  133.8223  155.9053 LP  0  0  0  0  0  0  0  0  0  0  0  0  # atno 17395 bound_to 11000

$$$$
