AV-unprocessed.smi:160|AV-procd|sdf|1348|dock5
  -GOLD-   2262019 53D 1   1.00000     0.00000
 Structure written by MMmdl.
 29 30  0  0  0  0  0  0  0  0  1 V2000
  152.0969  145.0595  158.7288 N   0  0  0  0  0  0  0  0  0  0  0  0
  151.9797  143.8969  159.3785 C   0  0  0  0  0  0  0  0  0  0  0  0
  152.1090  143.8078  160.5985 O   0  0  0  0  0  0  0  0  0  0  0  0
  151.6688  142.6931  158.5327 C   0  0  0  0  0  0  0  0  0  0  0  0
  151.9115  141.4281  158.9876 N   0  0  0  0  0  0  0  0  0  0  0  0
  151.4894  140.7429  157.9329 C   0  0  0  0  0  0  0  0  0  0  0  0
  151.0401  141.5030  156.9290 N   0  0  0  0  0  0  0  0  0  0  0  0
  150.4912  141.0983  155.5930 C   0  0  1  0  0  0  0  0  0  0  0  0
  151.4120  140.2492  154.9752 O   0  0  0  0  0  0  0  0  0  0  0  0
  150.9670  138.9009  155.0804 C   0  0  2  0  0  0  0  0  0  0  0  0
  151.6561  138.0004  154.0404 C   0  0  0  0  0  0  0  0  0  0  0  0
  151.0971  136.7046  154.0774 O   0  0  0  0  0  0  0  0  0  0  0  0
  149.4455  139.0425  154.9355 C   0  0  2  0  0  0  0  0  0  0  0  0
  149.0733  139.1630  153.5741 O   0  0  0  0  0  0  0  0  0  0  0  0
  149.1453  140.3374  155.6835 C   0  0  1  0  0  0  0  0  0  0  0  0
  148.7212  140.0510  157.0053 O   0  0  0  0  0  0  0  0  0  0  0  0
  151.1525  142.8015  157.3076 N   0  0  0  0  0  0  0  0  0  0  0  0
  150.4202  142.0333  155.0359 H   0  0  0  0  0  0  0  0  0  0  0  0
  151.1769  138.5300  156.0853 H   0  0  0  0  0  0  0  0  0  0  0  0
  148.9173  138.1837  155.3529 H   0  0  0  0  0  0  0  0  0  0  0  0
  148.3639  140.9211  155.1947 H   0  0  0  0  0  0  0  0  0  0  0  0
  152.3020  145.9049  159.2408 H   0  0  0  0  0  0  0  0  0  0  0  0
  151.9758  145.0833  157.7264 H   0  0  0  0  0  0  0  0  0  0  0  0
  151.5107  139.6638  157.8894 H   0  0  0  0  0  0  0  0  0  0  0  0
  151.4953  138.3953  153.0368 H   0  0  0  0  0  0  0  0  0  0  0  0
  152.7331  137.9520  154.2041 H   0  0  0  0  0  0  0  0  0  0  0  0
  150.8719  136.4481  153.1961 H   0  0  0  0  0  0  0  0  0  0  0  0
  149.6858  139.7404  153.1447 H   0  0  0  0  0  0  0  0  0  0  0  0
  147.9354  140.5446  157.1833 H   0  0  0  0  0  0  0  0  0  0  0  0
  1  2  1  0  0  0  0
  1 22  1  0  0  0  0
  1 23  1  0  0  0  0
  2  3  2  0  0  0  0
  2  4  1  0  0  0  0
  4 17  2  0  0  0  0
  4  5  1  0  0  0  0
  5  6  2  0  0  0  0
  6  7  1  0  0  0  0
  6 24  1  0  0  0  0
  7  8  1  0  0  0  0
  7 17  1  0  0  0  0
  8 18  1  0  0  0  0
  8 15  1  0  0  0  0
  8  9  1  0  0  0  0
  9 10  1  0  0  0  0
 10 19  1  0  0  0  0
 10 11  1  0  0  0  0
 10 13  1  0  0  0  0
 11 12  1  0  0  0  0
 11 25  1  0  0  0  0
 11 26  1  0  0  0  0
 12 27  1  0  0  0  0
 13 20  1  0  0  0  0
 13 14  1  0  0  0  0
 13 15  1  0  0  0  0
 14 28  1  0  0  0  0
 15 21  1  0  0  0  0
 15 16  1  0  0  0  0
 16 29  1  0  0  0  0
M  END
> <s_m_source_file>
AV-unprocessed.smi

> <i_m_source_file_index>
160

> <i_lp_mmshare_version>
43012

> <i_f3d_flags>
0

> <s_epik_input>
W05IMl1DKD1PKWMxbltjSF1uKG4xKVtDQEBIXTJPW0NASF0oW0NIMl1bT0hdKVtDQEBIXShbT0hdKVtDQEhdMltPSF0=

> <s_epik_cmdline>
J2VwaWtfcHl0aG9uJywgJy1waCcsICc3LjAnLCAnLXRuJywgJzgnLCAnLW1hJywgJzIwMCcsICctbWV0YWxfYmluZGluZycsICctaW1hZScsICc8aW5maWxlLm1hZT4nLCAnLW9tYWUnLCAnPG91dGZpbGUubWFlPic=

> <r_lp_tautomer_probability>
1

> <r_epik_Ionization_Penalty>
1.06932e-05

> <r_epik_Ionization_Penalty_Charging>
0

> <r_epik_Ionization_Penalty_Neutral>
1.06932e-05

> <r_epik_State_Penalty>
-0

> <r_epik_Charging_Adjusted_Penalty>
0

> <i_epik_Tot_Q>
0

> <i_epik_Tot_abs_Q>
0

> <r_epik_Metal_State_Penalty>
0.0142097

> <b_epik_Metal_Only>
0

> <s_epik_Chemistry_Notes>
This compound contains an acetal/aminal-like group ( X-CH(R)-Y where X, Y are N, S, or O) that may be acid/base labile, releasing an aldehyde.

> <s_lp_Force_Field>
OPLS_2005

> <r_lp_Energy>
42.6819

> <b_lp_Chiralities_Consistent>
1

> <s_lp_Variant>
AV-unprocessed.smi:160-6

> <Gold.Version>
5.8.1

> <Gold.Id.Protein>
6NUR|6NUR_protein|mol2

> <Gold.PLP.Fitness>
38.4825

> <Gold.PLP.PLP>
-28.8294

> <Gold.PLP.part.hbond>
-4.6931

> <Gold.PLP.part.metal>
0.0000

> <Gold.PLP.part.buried>
-6.4192

> <Gold.PLP.part.nonpolar>
-18.1664

> <Gold.PLP.part.repulsive>
0.3971

> <Gold.PLP.ligand.clash>
0.0000

> <Gold.PLP.ligand.torsion>
0.2645

> <Gold.PLP.Chemscore.Hbond>
3.3920

> <Gold.PLP.Chemscore.CHOScore>
0.0000

> <Gold.PLP.Chemscore.Metal>
0.0000

> <Gold.Chemscore.Hbonds>
donor molecule, donor type, donor heavy atom, donor atom, acceptor molecule, acceptor atom, score
      L1  H    12    27       P1  7949  0.75
      L1  H    14    28       P1  7957  0.43
      P1  H  7989  7998       L1     9  1.00
      P1  H 10752 10764       L1    12  0.46

> <Gold.PLP.Chemscore.Internal.Correction>
0.0061

> <Gold.Rescore>
     Score         DG    S(hbond)    S(metal)    S(lipo)     H(rot)  DE(clash)    DE(int)     intcor
      6.23      -8.45       3.13        0.00      24.92       4.06       1.07       1.15       ----

> <Gold.Chemscore.Fitness>
6.2338

> <Gold.Chemscore.DG>
-8.4462

> <Gold.Chemscore.ZeroCoef>
-5.4800

> <Gold.Chemscore.Hbond>
3.1270

> <Gold.Chemscore.Metal>
0.0000

> <Gold.Chemscore.Lipo>
24.9185

> <Gold.Chemscore.Internal_Hbond>
0.0000

> <Gold.Chemscore.DEClash>
1.0658

> <Gold.Chemscore.DEInternal>
1.1466

> <Gold.Chemscore.Rot>
4.0600

> <Gold.Chemscore.Internal.Correction>
   9.000000E+99

> <Gold.Chemscore.Hbonds>
donor molecule, donor type, donor heavy atom, donor atom, acceptor molecule, acceptor atom, score
      L1  H    12    27       P1  7949  0.09
      L1  H    14    28       P1  7957  0.40
      P1  H  7989  7998       L1     9  0.46
      P1  H 10752 10764       L1    12  0.05

> <Gold.Chemscore.Hbond.Weighted>
-10.4443

> <Gold.Chemscore.Metal.Weighted>
-0.0000

> <Gold.Chemscore.Lipo.Weighted>
-2.9155

> <Gold.Chemscore.Internal_Hbond.Weighted>
0.0000

> <Gold.Chemscore.DEClash.Weighted>
1.0658

> <Gold.Chemscore.DEInternal.Weighted>
1.1466

> <Gold.Chemscore.Rot.Weighted>
10.3936

> <Gold.Chemscore.Internal.Correction.Weighted>
   9.000000E+99

> <Gold.Protein.RotatedTorsions>
[ 6907 6896 6895 6894 ] final -148.93 input  -60.11 | X-H torsion
[ 7974 7965 7964 7962 ] final  -72.00 input  175.53 | X-H torsion
[ 8008 7997 7996 7995 ] final  175.09 input   59.86 | X-H torsion
[ 10167 10162 10161 10158 ] final   72.89 input  -65.29 | X-H torsion
[ 10718 10713 10712 10709 ] final  -88.32 input   66.30 | X-H torsion
[ 10763 10752 10751 10750 ] final  -56.49 input  -60.55 | X-H torsion
[ 11005 11000 10999 10996 ] final   34.04 input  -57.11 | X-H torsion

> <Gold.Protein.ActiveResidues>
 VAL166  LYS551  ARG553  GLY616  TRP617  ASP618  TYR619  PRO620  LYS621  CYS622 
 ASP623  PHE694  ASN695  SER759  ASP760  ASP761  ALA762  ILE779  LEU786  VAL792 
 PHE793  MET794  SER795  GLU796  ALA797  LYS798  CYS799  TRP800  GLU811  SER814 

> <Gold.Protein.RotatedAtoms>
  151.1768  133.4750  159.2593 H   0  0  0  0  0  0  0  0  0  0  0  0  # atno 6907 bound_to 6896
  151.1300  135.0125  159.8588 H   0  0  0  0  0  0  0  0  0  0  0  0  # atno 6908 bound_to 6896
  152.5459  134.1672  159.8635 H   0  0  0  0  0  0  0  0  0  0  0  0  # atno 6909 bound_to 6896
  145.6708  140.9221  143.0884 H   0  0  0  0  0  0  0  0  0  0  0  0  # atno 7974 bound_to 7965
  156.0907  140.1418  156.9596 H   0  0  0  0  0  0  0  0  0  0  0  0  # atno 8008 bound_to 7997
  154.4640  140.0933  156.7017 H   0  0  0  0  0  0  0  0  0  0  0  0  # atno 8009 bound_to 7997
  155.4925  140.3448  155.4359 H   0  0  0  0  0  0  0  0  0  0  0  0  # atno 8010 bound_to 7997
  140.0304  144.5470  150.7511 H   0  0  0  0  0  0  0  0  0  0  0  0  # atno 10167 bound_to 10162
  155.9984  130.4831  150.5001 H   0  0  0  0  0  0  0  0  0  0  0  0  # atno 10718 bound_to 10713
  154.2075  135.6400  153.5105 H   0  0  0  0  0  0  0  0  0  0  0  0  # atno 10763 bound_to 10752
  152.9997  135.5466  154.6250 H   0  0  0  0  0  0  0  0  0  0  0  0  # atno 10764 bound_to 10752
  154.5679  135.2914  155.0830 H   0  0  0  0  0  0  0  0  0  0  0  0  # atno 10765 bound_to 10752
  140.2569  134.3237  155.7871 H   0  0  0  0  0  0  0  0  0  0  0  0  # atno 11005 bound_to 11000
  144.7057  139.8570  143.7430 LP  0  0  0  0  0  0  0  0  0  0  0  0  # atno 17320 bound_to 7965
  146.1047  139.4045  143.0325 LP  0  0  0  0  0  0  0  0  0  0  0  0  # atno 17321 bound_to 7965
  140.7304  143.2683  151.3971 LP  0  0  0  0  0  0  0  0  0  0  0  0  # atno 17342 bound_to 10162
  139.6080  144.1158  152.2269 LP  0  0  0  0  0  0  0  0  0  0  0  0  # atno 17343 bound_to 10162
  157.2986  131.0640  151.2084 LP  0  0  0  0  0  0  0  0  0  0  0  0  # atno 17370 bound_to 10713
  157.3071  130.6871  149.6195 LP  0  0  0  0  0  0  0  0  0  0  0  0  # atno 17371 bound_to 10713
  141.2195  133.7386  156.9126 LP  0  0  0  0  0  0  0  0  0  0  0  0  # atno 17394 bound_to 11000
  140.1502  134.9235  157.2583 LP  0  0  0  0  0  0  0  0  0  0  0  0  # atno 17395 bound_to 11000

$$$$
