AV-unprocessed.smi:2136|AV-procd|sdf|8703|dock6
  -GOLD-   2272011463D 1   1.00000     0.00000
 Structure written by MMmdl.
 42 43  0  0  0  0  0  0  0  0  1 V2000
  151.7146  138.3442  157.1489 C   0  0  0  0  0  0  0  0  0  0  0  0
  151.6799  138.6427  155.3334 S   0  0  0  0  0  0  0  0  0  0  0  0
  152.6026  139.7479  155.0351 O   0  0  0  0  0  0  0  0  0  0  0  0
  151.8717  137.3518  154.6545 O   0  0  0  0  0  0  0  0  0  0  0  0
  150.0264  139.1584  155.0524 N   0  0  0  0  0  0  0  0  0  0  0  0
  149.9051  140.5135  154.4599 C   0  0  0  0  0  0  0  0  0  0  0  0
  148.4720  141.0579  154.4780 C   0  0  0  0  0  0  0  0  0  0  0  0
  147.5250  140.0938  153.7745 C   0  0  0  0  0  0  0  0  0  0  0  0
  147.5834  138.7562  154.5048 C   0  0  0  0  0  0  0  0  0  0  0  0
  149.0149  138.1669  154.5590 C   0  0  2  0  0  0  0  0  0  0  0  0
  148.9365  136.8301  155.3111 C   0  0  0  0  0  0  0  0  0  0  0  0
  148.9346  136.8192  156.5419 O   0  0  0  0  0  0  0  0  0  0  0  0
  148.8740  135.7155  154.5642 N   0  0  0  0  0  0  0  0  0  0  0  0
  148.7792  134.3602  155.0899 C   0  0  0  0  0  0  0  0  0  0  0  0
  149.2564  133.3203  154.0633 C   0  0  0  0  0  0  0  0  0  0  0  0
  148.0982  132.6601  153.3428 C   0  0  0  0  0  0  0  0  0  0  0  0
  147.7356  131.3261  153.6205 C   0  0  0  0  0  0  0  0  0  0  0  0
  146.6549  130.7577  152.9190 C   0  0  0  0  0  0  0  0  0  0  0  0
  145.9820  131.5500  151.9673 C   0  0  0  0  0  0  0  0  0  0  0  0
  146.3210  132.8281  151.6931 N   0  0  0  0  0  0  0  0  0  0  0  0
  147.3583  133.3658  152.3704 C   0  0  0  0  0  0  0  0  0  0  0  0
  152.6982  137.9711  157.4328 H   0  0  0  0  0  0  0  0  0  0  0  0
  150.9596  137.6064  157.4172 H   0  0  0  0  0  0  0  0  0  0  0  0
  151.5202  139.2766  157.6782 H   0  0  0  0  0  0  0  0  0  0  0  0
  150.5424  141.2120  155.0017 H   0  0  0  0  0  0  0  0  0  0  0  0
  150.2739  140.4834  153.4341 H   0  0  0  0  0  0  0  0  0  0  0  0
  148.1486  141.2176  155.5074 H   0  0  0  0  0  0  0  0  0  0  0  0
  148.4408  142.0318  153.9887 H   0  0  0  0  0  0  0  0  0  0  0  0
  146.5077  140.4863  153.7846 H   0  0  0  0  0  0  0  0  0  0  0  0
  147.8109  139.9708  152.7291 H   0  0  0  0  0  0  0  0  0  0  0  0
  147.1947  138.8932  155.5155 H   0  0  0  0  0  0  0  0  0  0  0  0
  146.9081  138.0534  154.0142 H   0  0  0  0  0  0  0  0  0  0  0  0
  149.2967  137.9273  153.5326 H   0  0  0  0  0  0  0  0  0  0  0  0
  148.8710  135.8187  153.5597 H   0  0  0  0  0  0  0  0  0  0  0  0
  149.3527  134.2805  156.0151 H   0  0  0  0  0  0  0  0  0  0  0  0
  147.7378  134.1723  155.3531 H   0  0  0  0  0  0  0  0  0  0  0  0
  149.9135  133.7910  153.3305 H   0  0  0  0  0  0  0  0  0  0  0  0
  149.8476  132.5455  154.5534 H   0  0  0  0  0  0  0  0  0  0  0  0
  148.2754  130.7472  154.3556 H   0  0  0  0  0  0  0  0  0  0  0  0
  146.3491  129.7388  153.1052 H   0  0  0  0  0  0  0  0  0  0  0  0
  145.1492  131.1461  151.4110 H   0  0  0  0  0  0  0  0  0  0  0  0
  147.6065  134.3886  152.1276 H   0  0  0  0  0  0  0  0  0  0  0  0
  1  2  1  0  0  0  0
  1 22  1  0  0  0  0
  1 23  1  0  0  0  0
  1 24  1  0  0  0  0
  2  3  2  0  0  0  0
  2  4  2  0  0  0  0
  2  5  1  0  0  0  0
  5 10  1  0  0  0  0
  5  6  1  0  0  0  0
  6  7  1  0  0  0  0
  6 25  1  0  0  0  0
  6 26  1  0  0  0  0
  7  8  1  0  0  0  0
  7 27  1  0  0  0  0
  7 28  1  0  0  0  0
  8  9  1  0  0  0  0
  8 29  1  0  0  0  0
  8 30  1  0  0  0  0
  9 10  1  0  0  0  0
  9 31  1  0  0  0  0
  9 32  1  0  0  0  0
 10 11  1  0  0  0  0
 10 33  1  0  0  0  0
 11 12  2  0  0  0  0
 11 13  1  0  0  0  0
 13 14  1  0  0  0  0
 13 34  1  0  0  0  0
 14 15  1  0  0  0  0
 14 35  1  0  0  0  0
 14 36  1  0  0  0  0
 15 16  1  0  0  0  0
 15 37  1  0  0  0  0
 15 38  1  0  0  0  0
 16 21  1  0  0  0  0
 16 17  2  0  0  0  0
 17 18  1  0  0  0  0
 17 39  1  0  0  0  0
 18 19  2  0  0  0  0
 18 40  1  0  0  0  0
 19 20  1  0  0  0  0
 19 41  1  0  0  0  0
 20 21  2  0  0  0  0
 21 42  1  0  0  0  0
M  END
> <s_m_source_file>
AV-unprocessed.smi

> <i_m_source_file_index>
2136

> <i_lp_mmshare_version>
43012

> <i_f3d_flags>
0

> <s_epik_input>
W0NIM11TKD1PKSg9TylOMVtDSDJdW0NIMl1bQ0gyXVtDSDJdW0NASF0xQyg9TylbTkhdW0NIMl1bQ0gyXWMyW2NIXVtjSF1bY0hdbltjSF0y

> <s_epik_cmdline>
J2VwaWtfcHl0aG9uJywgJy1waCcsICc3LjAnLCAnLXRuJywgJzgnLCAnLW1hJywgJzIwMCcsICctbWV0YWxfYmluZGluZycsICctaW1hZScsICc8aW5maWxlLm1hZT4nLCAnLW9tYWUnLCAnPG91dGZpbGUubWFlPic=

> <r_epik_Ionization_Penalty>
0.0126915

> <r_epik_Ionization_Penalty_Charging>
0

> <r_epik_Ionization_Penalty_Neutral>
0.0126915

> <r_epik_State_Penalty>
0.0098379

> <r_epik_Charging_Adjusted_Penalty>
0.0098379

> <i_epik_Tot_Q>
0

> <i_epik_Tot_abs_Q>
0

> <r_epik_Metal_State_Penalty>
0.00962913

> <b_epik_Metal_Only>
0

> <s_lp_Force_Field>
OPLS_2005

> <r_lp_Energy>
2.71494

> <b_lp_Chiralities_Consistent>
1

> <s_lp_Variant>
AV-unprocessed.smi:2136-2

> <Gold.Version>
5.8.1

> <Gold.Id.Protein>
6NUR|6NUR_protein|mol2

> <Gold.PLP.Fitness>
42.4088

> <Gold.PLP.PLP>
-31.7529

> <Gold.PLP.part.hbond>
-3.8757

> <Gold.PLP.part.metal>
0.0000

> <Gold.PLP.part.buried>
-1.8570

> <Gold.PLP.part.nonpolar>
-27.0045

> <Gold.PLP.part.repulsive>
0.3995

> <Gold.PLP.ligand.clash>
0.0000

> <Gold.PLP.ligand.torsion>
1.5518

> <Gold.PLP.Chemscore.Hbond>
3.3364

> <Gold.PLP.Chemscore.CHOScore>
1.0000

> <Gold.PLP.Chemscore.Metal>
0.0000

> <Gold.Chemscore.Hbonds>
donor molecule, donor type, donor heavy atom, donor atom, acceptor molecule, acceptor atom, score
      L1  H    13    34       P1  7948  1.00
      P1  H  7989  7998       L1     3  0.48
      P1  H  7997  8008       L1     3  0.88
      P1  H 10752 10763       L1     4  0.94
      L1  C    21    42       P1  7948  1.00

> <Gold.PLP.Chemscore.Internal.Correction>
0.7502

> <Gold.Rescore>
     Score         DG    S(hbond)    S(metal)    S(lipo)     H(rot)  DE(clash)    DE(int)     intcor
     17.25     -18.90       2.88        0.00      72.92       1.84       0.04       1.62       ----

> <Gold.Chemscore.Fitness>
17.2480

> <Gold.Chemscore.DG>
-18.9036

> <Gold.Chemscore.ZeroCoef>
-5.4800

> <Gold.Chemscore.Hbond>
2.8766

> <Gold.Chemscore.Metal>
0.0000

> <Gold.Chemscore.Lipo>
72.9162

> <Gold.Chemscore.Internal_Hbond>
0.0000

> <Gold.Chemscore.DEClash>
0.0369

> <Gold.Chemscore.DEInternal>
1.6187

> <Gold.Chemscore.Rot>
1.8419

> <Gold.Chemscore.Internal.Correction>
   9.000000E+99

> <Gold.Chemscore.Hbonds>
donor molecule, donor type, donor heavy atom, donor atom, acceptor molecule, acceptor atom, score
      L1  H    13    34       P1  7948  0.97
      P1  H  7989  7998       L1     3  0.26
      P1  H  7997  8008       L1     3  0.84
      P1  H 10752 10763       L1     4  0.85

> <Gold.Chemscore.Hbond.Weighted>
-9.6077

> <Gold.Chemscore.Metal.Weighted>
-0.0000

> <Gold.Chemscore.Lipo.Weighted>
-8.5312

> <Gold.Chemscore.Internal_Hbond.Weighted>
0.0000

> <Gold.Chemscore.DEClash.Weighted>
0.0369

> <Gold.Chemscore.DEInternal.Weighted>
1.6187

> <Gold.Chemscore.Rot.Weighted>
4.7153

> <Gold.Chemscore.Internal.Correction.Weighted>
   9.000000E+99

> <Gold.Protein.RotatedTorsions>
[ 6907 6896 6895 6894 ] final  126.27 input  -60.11 | X-H torsion
[ 7974 7965 7964 7962 ] final  -52.94 input  175.53 | X-H torsion
[ 8008 7997 7996 7995 ] final  -21.91 input   59.86 | X-H torsion
[ 10167 10162 10161 10158 ] final  -22.89 input  -65.29 | X-H torsion
[ 10718 10713 10712 10709 ] final  -72.87 input   66.30 | X-H torsion
[ 10763 10752 10751 10750 ] final   44.47 input  -60.55 | X-H torsion
[ 11005 11000 10999 10996 ] final -151.23 input  -57.11 | X-H torsion

> <Gold.Protein.ActiveResidues>
 VAL166  LYS551  ARG553  GLY616  TRP617  ASP618  TYR619  PRO620  LYS621  CYS622 
 ASP623  PHE694  ASN695  SER759  ASP760  ASP761  ALA762  ILE779  LEU786  VAL792 
 PHE793  MET794  SER795  GLU796  ALA797  LYS798  CYS799  TRP800  GLU811  SER814 

> <Gold.Protein.RotatedAtoms>
  152.3919  133.6690  159.6243 H   0  0  0  0  0  0  0  0  0  0  0  0  # atno 6907 bound_to 6896
  150.7825  133.8940  159.3330 H   0  0  0  0  0  0  0  0  0  0  0  0  # atno 6908 bound_to 6896
  151.6725  135.0975  160.0252 H   0  0  0  0  0  0  0  0  0  0  0  0  # atno 6909 bound_to 6896
  145.9024  140.7983  142.9736 H   0  0  0  0  0  0  0  0  0  0  0  0  # atno 7974 bound_to 7965
  154.4676  140.2022  156.0077 H   0  0  0  0  0  0  0  0  0  0  0  0  # atno 8008 bound_to 7997
  156.0955  140.3252  155.7842 H   0  0  0  0  0  0  0  0  0  0  0  0  # atno 8009 bound_to 7997
  155.4886  140.0544  157.2948 H   0  0  0  0  0  0  0  0  0  0  0  0  # atno 8010 bound_to 7997
  140.7287  143.4493  151.0541 H   0  0  0  0  0  0  0  0  0  0  0  0  # atno 10167 bound_to 10162
  156.0303  130.4381  150.2657 H   0  0  0  0  0  0  0  0  0  0  0  0  # atno 10718 bound_to 10713
  152.9841  135.6069  154.3279 H   0  0  0  0  0  0  0  0  0  0  0  0  # atno 10763 bound_to 10752
  154.2984  135.2773  155.2624 H   0  0  0  0  0  0  0  0  0  0  0  0  # atno 10764 bound_to 10752
  154.4887  135.5898  153.6499 H   0  0  0  0  0  0  0  0  0  0  0  0  # atno 10765 bound_to 10752
  140.7317  134.3613  157.5165 H   0  0  0  0  0  0  0  0  0  0  0  0  # atno 11005 bound_to 11000
  144.6737  140.1697  143.7415 LP  0  0  0  0  0  0  0  0  0  0  0  0  # atno 17320 bound_to 7965
  145.8774  139.2304  143.1625 LP  0  0  0  0  0  0  0  0  0  0  0  0  # atno 17321 bound_to 7965
  139.8167  143.7876  152.3175 LP  0  0  0  0  0  0  0  0  0  0  0  0  # atno 17342 bound_to 10162
  139.7944  144.7398  150.9910 LP  0  0  0  0  0  0  0  0  0  0  0  0  # atno 17343 bound_to 10162
  157.0760  131.0130  151.3173 LP  0  0  0  0  0  0  0  0  0  0  0  0  # atno 17370 bound_to 10713
  157.4963  130.7853  149.7559 LP  0  0  0  0  0  0  0  0  0  0  0  0  # atno 17371 bound_to 10713
  139.8825  134.9023  156.2829 LP  0  0  0  0  0  0  0  0  0  0  0  0  # atno 17394 bound_to 11000
  140.9915  133.7206  156.0821 LP  0  0  0  0  0  0  0  0  0  0  0  0  # atno 17395 bound_to 11000

$$$$
