#       Name:                AV-unprocessed.smi:804
#       Creating user name   scv26
#       Creation time:       Fri Mar 27 01:23:16 2020


#       File generated by GOLD software.
#

@<TRIPOS>MOLECULE
AV-unprocessed.smi:804
    45    46     1
SMALL
NO_CHARGES


@<TRIPOS>ATOM
      1 ****        -3.6585  -1.3983   0.0280 C.3            1 S1                 0.0000
      2 ****        -3.3430  -0.3507  -1.0545 C.3            1 S1                 0.0000
      3 ****        -3.8844  -0.8470  -2.4116 C.3            1 S1                 0.0000
      4 ****        -3.9940   0.9926  -0.6636 C.3            1 S1                 0.0000
      5 ****        -1.8795  -0.2120  -1.1096 N.pl3          1 S1                -1.0000
      6 ****        -1.1613   0.6163  -1.9273 C.2            1 S1                 0.0000
      7 ****        -1.5701   1.4075  -2.7829 O.2            1 S1                 0.0000
      8 ****         0.3298   0.4997  -1.7053 C.ar           1 S1                 0.0000
      9 ****         0.7675   0.3303  -0.4311 N.ar           1 S1                 0.0000
     10 ****         2.0808   0.2350  -0.2005 C.ar           1 S1                 0.0000
     11 ****         2.4938   0.0553   1.1264 N.pl3          1 S1                 0.0000
     12 ****         1.5426  -0.2629   2.1947 C.3            1 S1                 0.0000
     13 ****         2.0191   0.3103   3.5398 C.3            1 S1                 0.0000
     14 ****         3.3320  -0.1563   3.8257 O.3            1 S1                 0.0000
     15 ****         4.2640   0.2704   2.8397 C.3            1 S1                 0.0000
     16 ****         3.8727  -0.3028   1.4671 C.3            1 S1                 0.0000
     17 ****         3.0277   0.3007  -1.1434 N.ar           1 S1                 0.0000
     18 ****         2.6258   0.4679  -2.4197 C.ar           1 S1                 0.0000
     19 ****         1.2666   0.5742  -2.7714 C.ar           1 S1                 0.0000
     20 ****         0.8336   0.7483  -4.4386 Cl             1 S1                 0.0000
     21 ****        -4.7333  -1.5541   0.1256 H              1 S1                 0.0000
     22 ****        -3.2833  -1.0895   1.0047 H              1 S1                 0.0000
     23 ****        -3.2085  -2.3641  -0.2066 H              1 S1                 0.0000
     24 ****        -3.4075  -1.7803  -2.7143 H              1 S1                 0.0000
     25 ****        -3.7240  -0.1204  -3.2083 H              1 S1                 0.0000
     26 ****        -4.9578  -1.0309  -2.3600 H              1 S1                 0.0000
     27 ****        -5.0709   0.8818  -0.5338 H              1 S1                 0.0000
     28 ****        -3.8426   1.7584  -1.4243 H              1 S1                 0.0000
     29 ****        -3.5896   1.3740   0.2748 H              1 S1                 0.0000
     30 ****         0.5471   0.1315   1.9908 H              1 S1                 0.0000
     31 ****         1.4446  -1.3469   2.2624 H              1 S1                 0.0000
     32 ****         2.0025   1.4014   3.5249 H              1 S1                 0.0000
     33 ****         1.3491  -0.0063   4.3391 H              1 S1                 0.0000
     34 ****         4.3053   1.3605   2.8081 H              1 S1                 0.0000
     35 ****         5.2585  -0.0770   3.1200 H              1 S1                 0.0000
     36 ****         3.9584  -1.3898   1.4765 H              1 S1                 0.0000
     37 ****         4.5858   0.0642   0.7296 H              1 S1                 0.0000
     38 ****         3.4004   0.5097  -3.1711 H              1 S1                 0.0000
     39 ****        -1.3531  -0.7851  -0.4815 LP             1 S1                 0.0000
     40 ****        -2.5518   1.5018  -2.9484 LP             1 S1                 0.0000
     41 ****        -0.9194   1.9539  -3.3102 LP             1 S1                 0.0000
     42 ****         0.1156   0.2775   0.3253 LP             1 S1                 0.0000
     43 ****         3.3227  -1.1559   3.8528 LP             1 S1                 0.0000
     44 ****         3.6161   0.1987   4.7164 LP             1 S1                 0.0000
     45 ****         3.9975   0.2285  -0.9103 LP             1 S1                 0.0000
@<TRIPOS>BOND
    1    1    2 1     
    2    1   21 1     
    3    1   22 1     
    4    1   23 1     
    5    2    3 1     
    6    2    4 1     
    7    2    5 1     
    8    3   24 1     
    9    3   25 1     
   10    3   26 1     
   11    4   27 1     
   12    4   28 1     
   13    4   29 1     
   14    5    6 1     
   15    6    7 2     
   16    6    8 1     
   17    8   19 ar    
   18    8    9 ar    
   19    9   10 ar    
   20   10   11 1     
   21   10   17 ar    
   22   11   16 1     
   23   11   12 1     
   24   12   13 1     
   25   12   30 1     
   26   12   31 1     
   27   13   14 1     
   28   13   32 1     
   29   13   33 1     
   30   14   15 1     
   31   15   16 1     
   32   15   34 1     
   33   15   35 1     
   34   16   36 1     
   35   16   37 1     
   36   17   18 ar    
   37   18   19 ar    
   38   18   38 1     
   39   19   20 1     
   40    5   39 1     
   41    7   40 1     
   42    7   41 1     
   43    9   42 1     
   44   14   43 1     
   45   14   44 1     
   46   17   45 1     
@<TRIPOS>SUBSTRUCTURE
      1 S1             1
@<TRIPOS>SET
LONE_PAIRS      STATIC     ATOMS    <user>   **** ""
7 39 40 41 42 43 44 45
ATOM$BLUE        STATIC     ATOMS    COLORGROUP SYSTEM
7 39 40 41 42 43 44 45
