AV-unprocessed.smi:1075|AV-procd|sdf|4695|dock10
  -GOLD-   22720 3213D 1   1.00000     0.00000
 Structure written by MMmdl.
 50 51  0  0  0  0  0  0  0  0  1 V2000
  152.9997  140.3622  159.2085 C   0  0  0  0  0  0  0  0  0  0  0  0
  152.7957  141.6587  159.9389 C   0  0  0  0  0  0  0  0  0  0  0  0
  153.0755  141.7234  161.2292 N   0  0  0  0  0  0  0  0  0  0  0  0
  152.7853  142.9909  161.5805 N   0  0  0  0  0  0  0  0  0  0  0  0
  152.9793  143.4065  162.9560 C   0  0  0  0  0  0  0  0  0  0  0  0
  152.3171  143.7296  160.5109 C   0  0  0  0  0  0  0  0  0  0  0  0
  151.9212  145.1651  160.6596 C   0  0  0  0  0  0  0  0  0  0  0  0
  152.3131  142.8968  159.4196 C   0  0  0  0  0  0  0  0  0  0  0  0
  151.8934  143.1712  157.9889 C   0  0  2  0  0  0  0  0  0  0  0  0
  151.8077  144.6817  157.6988 C   0  0  0  0  0  0  0  0  0  0  0  0
  150.5913  142.4153  157.6741 C   0  0  0  0  0  0  0  0  0  0  0  0
  149.5416  142.7066  158.2479 O   0  0  0  0  0  0  0  0  0  0  0  0
  150.6917  141.4372  156.7549 N   0  0  0  0  0  0  0  0  0  0  0  0
  149.6621  140.4989  156.2924 C   0  0  1  0  0  0  0  0  0  0  0  0
  149.1290  139.6774  157.4898 C   0  0  0  0  0  0  0  0  0  0  0  0
  148.5338  141.3763  155.6936 C   0  0  0  0  0  0  0  0  0  0  0  0
  147.4737  140.5813  154.9111 C   0  0  0  0  0  0  0  0  0  0  0  0
  148.1103  139.7287  153.8017 C   0  0  2  0  0  0  0  0  0  0  0  0
  147.0514  138.9388  153.0196 C   0  0  0  0  0  0  0  0  0  0  0  0
  149.1783  138.8000  154.4014 C   0  0  0  0  0  0  0  0  0  0  0  0
  150.2477  139.5858  155.1800 C   0  0  0  0  0  0  0  0  0  0  0  0
  152.0730  140.0296  158.7405 H   0  0  0  0  0  0  0  0  0  0  0  0
  153.3350  139.5680  159.8767 H   0  0  0  0  0  0  0  0  0  0  0  0
  153.7481  140.4720  158.4236 H   0  0  0  0  0  0  0  0  0  0  0  0
  152.0106  143.5746  163.4267 H   0  0  0  0  0  0  0  0  0  0  0  0
  153.5557  144.3314  162.9832 H   0  0  0  0  0  0  0  0  0  0  0  0
  153.5173  142.6413  163.5174 H   0  0  0  0  0  0  0  0  0  0  0  0
  151.2749  145.4886  159.8447 H   0  0  0  0  0  0  0  0  0  0  0  0
  152.8016  145.8077  160.6654 H   0  0  0  0  0  0  0  0  0  0  0  0
  151.3764  145.3291  161.5893 H   0  0  0  0  0  0  0  0  0  0  0  0
  152.6387  142.7682  157.3024 H   0  0  0  0  0  0  0  0  0  0  0  0
  151.0685  145.1788  158.3272 H   0  0  0  0  0  0  0  0  0  0  0  0
  151.5392  144.8714  156.6590 H   0  0  0  0  0  0  0  0  0  0  0  0
  152.7691  145.1635  157.8783 H   0  0  0  0  0  0  0  0  0  0  0  0
  151.6077  141.3007  156.3524 H   0  0  0  0  0  0  0  0  0  0  0  0
  148.3014  139.0295  157.2039 H   0  0  0  0  0  0  0  0  0  0  0  0
  148.7687  140.3295  158.2861 H   0  0  0  0  0  0  0  0  0  0  0  0
  149.8972  139.0333  157.9171 H   0  0  0  0  0  0  0  0  0  0  0  0
  148.0485  141.9548  156.4808 H   0  0  0  0  0  0  0  0  0  0  0  0
  148.9704  142.1096  155.0130 H   0  0  0  0  0  0  0  0  0  0  0  0
  146.9063  139.9454  155.5909 H   0  0  0  0  0  0  0  0  0  0  0  0
  146.7536  141.2748  154.4756 H   0  0  0  0  0  0  0  0  0  0  0  0
  148.6038  140.4021  153.0993 H   0  0  0  0  0  0  0  0  0  0  0  0
  146.5201  138.2395  153.6659 H   0  0  0  0  0  0  0  0  0  0  0  0
  147.5067  138.3657  152.2115 H   0  0  0  0  0  0  0  0  0  0  0  0
  146.3134  139.6066  152.5743 H   0  0  0  0  0  0  0  0  0  0  0  0
  148.7074  138.0682  155.0584 H   0  0  0  0  0  0  0  0  0  0  0  0
  149.6591  138.2281  153.6071 H   0  0  0  0  0  0  0  0  0  0  0  0
  150.8063  140.1972  154.4690 H   0  0  0  0  0  0  0  0  0  0  0  0
  150.9675  138.8817  155.5977 H   0  0  0  0  0  0  0  0  0  0  0  0
  1  2  1  0  0  0  0
  1 22  1  0  0  0  0
  1 23  1  0  0  0  0
  1 24  1  0  0  0  0
  2  8  1  0  0  0  0
  2  3  2  0  0  0  0
  3  4  1  0  0  0  0
  4  5  1  0  0  0  0
  4  6  1  0  0  0  0
  5 25  1  0  0  0  0
  5 26  1  0  0  0  0
  5 27  1  0  0  0  0
  6  7  1  0  0  0  0
  6  8  2  0  0  0  0
  7 28  1  0  0  0  0
  7 29  1  0  0  0  0
  7 30  1  0  0  0  0
  8  9  1  0  0  0  0
  9 10  1  0  0  0  0
  9 11  1  0  0  0  0
  9 31  1  0  0  0  0
 10 32  1  0  0  0  0
 10 33  1  0  0  0  0
 10 34  1  0  0  0  0
 11 12  2  0  0  0  0
 11 13  1  0  0  0  0
 13 14  1  0  0  0  0
 13 35  1  0  0  0  0
 14 21  1  0  0  0  0
 14 15  1  0  0  0  0
 14 16  1  0  0  0  0
 15 36  1  0  0  0  0
 15 37  1  0  0  0  0
 15 38  1  0  0  0  0
 16 17  1  0  0  0  0
 16 39  1  0  0  0  0
 16 40  1  0  0  0  0
 17 18  1  0  0  0  0
 17 41  1  0  0  0  0
 17 42  1  0  0  0  0
 18 19  1  0  0  0  0
 18 20  1  0  0  0  0
 18 43  1  0  0  0  0
 19 44  1  0  0  0  0
 19 45  1  0  0  0  0
 19 46  1  0  0  0  0
 20 21  1  0  0  0  0
 20 47  1  0  0  0  0
 20 48  1  0  0  0  0
 21 49  1  0  0  0  0
 21 50  1  0  0  0  0
M  END
> <s_m_source_file>
AV-unprocessed.smi

> <i_m_source_file_index>
1075

> <i_lp_mmshare_version>
43012

> <i_f3d_flags>
0

> <s_epik_input>
W0NIM11jMW5uKFtDSDNdKWMoW0NIM10pYzFbQ0BIXShbQ0gzXSlDKD1PKVtOSF1bQ0BAXTIoW0NIM10pW0NIMl1bQ0gyXVtDQEBIXShbQ0gzXSlbQ0gyXVtDSDJdMg==

> <s_epik_cmdline>
J2VwaWtfcHl0aG9uJywgJy1waCcsICc3LjAnLCAnLXRuJywgJzgnLCAnLW1hJywgJzIwMCcsICctbWV0YWxfYmluZGluZycsICctaW1hZScsICc8aW5maWxlLm1hZT4nLCAnLW9tYWUnLCAnPG91dGZpbGUubWFlPic=

> <r_lp_tautomer_probability>
1

> <r_epik_Ionization_Penalty>
0.00502928

> <r_epik_Ionization_Penalty_Charging>
0

> <r_epik_Ionization_Penalty_Neutral>
0.00502928

> <r_epik_State_Penalty>
0.0036576

> <r_epik_Charging_Adjusted_Penalty>
0.0036576

> <i_epik_Tot_Q>
0

> <i_epik_Tot_abs_Q>
0

> <r_epik_Metal_State_Penalty>
-0

> <b_epik_Metal_Only>
0

> <s_lp_Force_Field>
OPLS_2005

> <r_lp_Energy>
7.43589

> <b_lp_Chiralities_Consistent>
1

> <s_lp_Variant>
AV-unprocessed.smi:1075-3

> <Gold.Version>
5.8.1

> <Gold.Id.Protein>
6NUR|6NUR_protein|mol2

> <Gold.PLP.Fitness>
44.3403

> <Gold.PLP.PLP>
-44.9349

> <Gold.PLP.part.hbond>
0.0000

> <Gold.PLP.part.metal>
0.0000

> <Gold.PLP.part.buried>
-3.6342

> <Gold.PLP.part.nonpolar>
-41.3217

> <Gold.PLP.part.repulsive>
0.2145

> <Gold.PLP.ligand.clash>
0.0000

> <Gold.PLP.ligand.torsion>
0.3399

> <Gold.PLP.Chemscore.Hbond>
0.0000

> <Gold.PLP.Chemscore.CHOScore>
0.0000

> <Gold.PLP.Chemscore.Metal>
0.0000

> <Gold.PLP.Chemscore.Internal.Correction>
0.0851

> <Gold.Rescore>
     Score         DG    S(hbond)    S(metal)    S(lipo)     H(rot)  DE(clash)    DE(int)     intcor
     16.00     -17.81       0.00        0.00     132.36       1.23       0.46       1.35       ----

> <Gold.Chemscore.Fitness>
15.9971

> <Gold.Chemscore.DG>
-17.8118

> <Gold.Chemscore.ZeroCoef>
-5.4800

> <Gold.Chemscore.Hbond>
0.0000

> <Gold.Chemscore.Metal>
0.0000

> <Gold.Chemscore.Lipo>
132.3582

> <Gold.Chemscore.Internal_Hbond>
0.0000

> <Gold.Chemscore.DEClash>
0.4623

> <Gold.Chemscore.DEInternal>
1.3525

> <Gold.Chemscore.Rot>
1.2321

> <Gold.Chemscore.Internal.Correction>
   9.000000E+99

> <Gold.Chemscore.Hbond.Weighted>
-0.0000

> <Gold.Chemscore.Metal.Weighted>
-0.0000

> <Gold.Chemscore.Lipo.Weighted>
-15.4859

> <Gold.Chemscore.Internal_Hbond.Weighted>
0.0000

> <Gold.Chemscore.DEClash.Weighted>
0.4623

> <Gold.Chemscore.DEInternal.Weighted>
1.3525

> <Gold.Chemscore.Rot.Weighted>
3.1541

> <Gold.Chemscore.Internal.Correction.Weighted>
   9.000000E+99

> <Gold.Protein.RotatedTorsions>
[ 6907 6896 6895 6894 ] final   16.24 input  -60.11 | X-H torsion
[ 7974 7965 7964 7962 ] final  167.58 input  175.53 | X-H torsion
[ 8008 7997 7996 7995 ] final -128.38 input   59.86 | X-H torsion
[ 10167 10162 10161 10158 ] final  -88.30 input  -65.29 | X-H torsion
[ 10718 10713 10712 10709 ] final    5.08 input   66.30 | X-H torsion
[ 10763 10752 10751 10750 ] final -114.98 input  -60.55 | X-H torsion
[ 11005 11000 10999 10996 ] final   -0.11 input  -57.11 | X-H torsion

> <Gold.Protein.ActiveResidues>
 VAL166  LYS551  ARG553  GLY616  TRP617  ASP618  TYR619  PRO620  LYS621  CYS622 
 ASP623  PHE694  ASN695  SER759  ASP760  ASP761  ALA762  ILE779  LEU786  VAL792 
 PHE793  MET794  SER795  GLU796  ALA797  LYS798  CYS799  TRP800  GLU811  SER814 

> <Gold.Protein.RotatedAtoms>
  151.8308  135.0622  160.0436 H   0  0  0  0  0  0  0  0  0  0  0  0  # atno 6907 bound_to 6896
  152.2882  133.5531  159.5549 H   0  0  0  0  0  0  0  0  0  0  0  0  # atno 6908 bound_to 6896
  150.7218  134.0383  159.3799 H   0  0  0  0  0  0  0  0  0  0  0  0  # atno 6909 bound_to 6896
  144.7419  139.8782  143.6394 H   0  0  0  0  0  0  0  0  0  0  0  0  # atno 7974 bound_to 7965
  155.2618  140.0436  157.2998 H   0  0  0  0  0  0  0  0  0  0  0  0  # atno 8008 bound_to 7997
  154.5706  140.2372  155.8167 H   0  0  0  0  0  0  0  0  0  0  0  0  # atno 8009 bound_to 7997
  156.2119  140.2996  155.9760 H   0  0  0  0  0  0  0  0  0  0  0  0  # atno 8010 bound_to 7997
  140.3760  143.2771  151.9442 H   0  0  0  0  0  0  0  0  0  0  0  0  # atno 10167 bound_to 10162
  156.9022  130.5726  149.5648 H   0  0  0  0  0  0  0  0  0  0  0  0  # atno 10718 bound_to 10713
  154.8463  135.4398  154.1591 H   0  0  0  0  0  0  0  0  0  0  0  0  # atno 10763 bound_to 10752
  153.2733  135.6947  153.7465 H   0  0  0  0  0  0  0  0  0  0  0  0  # atno 10764 bound_to 10752
  153.6697  135.3421  155.3125 H   0  0  0  0  0  0  0  0  0  0  0  0  # atno 10765 bound_to 10752
  140.6326  133.9561  155.8283 H   0  0  0  0  0  0  0  0  0  0  0  0  # atno 11005 bound_to 11000
  146.1231  139.4252  143.0216 LP  0  0  0  0  0  0  0  0  0  0  0  0  # atno 17320 bound_to 7965
  145.7275  141.0054  143.1369 LP  0  0  0  0  0  0  0  0  0  0  0  0  # atno 17321 bound_to 7965
  139.4799  144.5863  151.7848 LP  0  0  0  0  0  0  0  0  0  0  0  0  # atno 17342 bound_to 10162
  140.4985  144.1204  150.5965 LP  0  0  0  0  0  0  0  0  0  0  0  0  # atno 17343 bound_to 10162
  156.0576  130.5635  150.9125 LP  0  0  0  0  0  0  0  0  0  0  0  0  # atno 17370 bound_to 10713
  157.6019  131.0941  150.8945 LP  0  0  0  0  0  0  0  0  0  0  0  0  # atno 17371 bound_to 10713
  141.0664  134.0270  157.3588 LP  0  0  0  0  0  0  0  0  0  0  0  0  # atno 17394 bound_to 11000
  139.9110  135.0190  156.7691 LP  0  0  0  0  0  0  0  0  0  0  0  0  # atno 17395 bound_to 11000

$$$$
