AV-unprocessed.smi:1802|AV-procd|sdf|7272|dock3
  -GOLD-   22720 8533D 1   1.00000     0.00000
 Structure written by MMmdl.
 41 42  0  0  0  0  0  0  0  0  2 V2000
  148.6474  134.6289  154.6399 C   0  0  0  0  0  0  0  0  0  0  0  0
  148.8886  135.6842  155.7336 C   0  0  1  0  0  0  0  0  0  0  0  0
  150.3793  135.8562  156.0812 C   0  0  0  0  0  0  0  0  0  0  0  0
  151.1250  136.6201  154.9773 C   0  0  0  0  0  0  0  0  0  0  0  0
  150.4259  137.9506  154.6563 C   0  0  0  0  0  0  0  0  0  0  0  0
  149.0034  137.7314  154.2885 N   0  3  2  0  0  0  0  0  0  0  0  0
  148.3402  138.9739  153.8193 C   0  0  0  0  0  0  0  0  0  0  0  0
  148.4380  140.1076  154.8537 C   0  0  0  0  0  0  0  0  0  0  0  0
  149.7622  140.8825  154.7481 C   0  0  0  0  0  0  0  0  0  0  0  0
  149.8229  141.9790  155.7083 N   0  0  0  0  0  0  0  0  0  0  0  0
  150.5598  141.9740  156.8290 C   0  0  0  0  0  0  0  0  0  0  0  0
  151.2781  141.0302  157.1608 O   0  0  0  0  0  0  0  0  0  0  0  0
  150.4104  143.1188  157.5186 N   0  0  0  0  0  0  0  0  0  0  0  0
  151.0230  143.4929  158.7442 C   0  0  0  0  0  0  0  0  0  0  0  0
  151.3095  142.6257  159.7280 N   0  0  0  0  0  0  0  0  0  0  0  0
  151.9063  143.2513  160.8149 N   0  0  0  0  0  0  0  0  0  0  0  0
  152.0464  144.5638  160.6085 C   0  0  0  0  0  0  0  0  0  0  0  0
  151.4603  145.1647  159.0672 S   0  0  0  0  0  0  0  0  0  0  0  0
  148.2560  137.0449  155.3769 C   0  0  0  0  0  0  0  0  0  0  0  0
  149.0934  134.9179  153.6883 H   0  0  0  0  0  0  0  0  0  0  0  0
  147.5807  134.4804  154.4703 H   0  0  0  0  0  0  0  0  0  0  0  0
  149.0701  133.6651  154.9247 H   0  0  0  0  0  0  0  0  0  0  0  0
  148.3878  135.3160  156.6301 H   0  0  0  0  0  0  0  0  0  0  0  0
  150.4677  136.4094  157.0171 H   0  0  0  0  0  0  0  0  0  0  0  0
  150.8475  134.8867  156.2549 H   0  0  0  0  0  0  0  0  0  0  0  0
  152.1538  136.8068  155.2871 H   0  0  0  0  0  0  0  0  0  0  0  0
  151.1849  136.0087  154.0762 H   0  0  0  0  0  0  0  0  0  0  0  0
  150.4833  138.6257  155.5117 H   0  0  0  0  0  0  0  0  0  0  0  0
  150.9510  138.4358  153.8325 H   0  0  0  0  0  0  0  0  0  0  0  0
  148.7563  139.2822  152.8588 H   0  0  0  0  0  0  0  0  0  0  0  0
  147.2823  138.7722  153.6452 H   0  0  0  0  0  0  0  0  0  0  0  0
  147.6009  140.7916  154.7079 H   0  0  0  0  0  0  0  0  0  0  0  0
  148.3398  139.7120  155.8644 H   0  0  0  0  0  0  0  0  0  0  0  0
  150.6009  140.2134  154.9423 H   0  0  0  0  0  0  0  0  0  0  0  0
  149.9015  141.2684  153.7367 H   0  0  0  0  0  0  0  0  0  0  0  0
  149.2588  142.7927  155.5100 H   0  0  0  0  0  0  0  0  0  0  0  0
  149.7887  143.8062  157.1191 H   0  0  0  0  0  0  0  0  0  0  0  0
  152.4976  145.1824  161.3698 H   0  0  0  0  0  0  0  0  0  0  0  0
  147.2147  136.8947  155.0924 H   0  0  0  0  0  0  0  0  0  0  0  0
  148.2443  137.6876  156.2587 H   0  0  0  0  0  0  0  0  0  0  0  0
  149.0154  137.1023  153.4981 H   0  0  0  0  0  0  0  0  0  0  0  0
  1  2  1  0  0  0  0
  1 20  1  0  0  0  0
  1 21  1  0  0  0  0
  1 22  1  0  0  0  0
  2 19  1  0  0  0  0
  2  3  1  0  0  0  0
  2 23  1  0  0  0  0
  3  4  1  0  0  0  0
  3 24  1  0  0  0  0
  3 25  1  0  0  0  0
  4  5  1  0  0  0  0
  4 26  1  0  0  0  0
  4 27  1  0  0  0  0
  5  6  1  0  0  0  0
  5 28  1  0  0  0  0
  5 29  1  0  0  0  0
  6  7  1  0  0  0  0
  6 19  1  0  0  0  0
  6 41  1  0  0  0  0
  7  8  1  0  0  0  0
  7 30  1  0  0  0  0
  7 31  1  0  0  0  0
  8  9  1  0  0  0  0
  8 32  1  0  0  0  0
  8 33  1  0  0  0  0
  9 10  1  0  0  0  0
  9 34  1  0  0  0  0
  9 35  1  0  0  0  0
 10 11  1  0  0  0  0
 10 36  1  0  0  0  0
 11 12  2  0  0  0  0
 11 13  1  0  0  0  0
 13 14  1  0  0  0  0
 13 37  1  0  0  0  0
 14 18  1  0  0  0  0
 14 15  2  0  0  0  0
 15 16  1  0  0  0  0
 16 17  2  0  0  0  0
 17 18  1  0  0  0  0
 17 38  1  0  0  0  0
 19 39  1  0  0  0  0
 19 40  1  0  0  0  0
M  CHG  1   6   1
M  END
> <s_m_source_file>
AV-unprocessed.smi

> <i_m_source_file_index>
1802

> <i_lp_mmshare_version>
43012

> <i_f3d_flags>
0

> <s_epik_input>
W0NIM11bQ0BASF0xW0NIMl1bQ0gyXVtDSDJdTihbQ0gyXTEpW0NIMl1bQ0gyXVtDSDJdW05IXUMoPU8pW05IXWMybm5bY0hdczI=

> <s_epik_cmdline>
J2VwaWtfcHl0aG9uJywgJy1waCcsICc3LjAnLCAnLXRuJywgJzgnLCAnLW1hJywgJzIwMCcsICctbWV0YWxfYmluZGluZycsICctaW1hZScsICc8aW5maWxlLm1hZT4nLCAnLW9tYWUnLCAnPG91dGZpbGUubWFlPic=

> <r_lp_tautomer_probability>
1

> <r_epik_Ionization_Penalty>
0.00272894

> <r_epik_Ionization_Penalty_Charging>
0.000288442

> <r_epik_Ionization_Penalty_Neutral>
0.0024405

> <r_epik_State_Penalty>
-0

> <r_epik_Charging_Adjusted_Penalty>
0.000288442

> <i_epik_Tot_Q>
1

> <i_epik_Tot_abs_Q>
1

> <r_epik_Metal_State_Penalty>
0.350525

> <b_epik_Metal_Only>
0

> <s_lp_Force_Field>
OPLS_2005

> <r_lp_Energy>
17.5372

> <b_lp_Chiralities_Consistent>
1

> <s_lp_Variant>
AV-unprocessed.smi:1802-2

> <Gold.Version>
5.8.1

> <Gold.Id.Protein>
6NUR|6NUR_protein|mol2

> <Gold.PLP.Fitness>
42.1086

> <Gold.PLP.PLP>
-31.0692

> <Gold.PLP.part.hbond>
-4.1999

> <Gold.PLP.part.metal>
0.0000

> <Gold.PLP.part.buried>
-3.6704

> <Gold.PLP.part.nonpolar>
-23.0732

> <Gold.PLP.part.repulsive>
0.2864

> <Gold.PLP.ligand.clash>
0.0000

> <Gold.PLP.ligand.torsion>
0.4990

> <Gold.PLP.Chemscore.Hbond>
4.0000

> <Gold.PLP.Chemscore.CHOScore>
0.0000

> <Gold.PLP.Chemscore.Metal>
0.0000

> <Gold.Chemscore.Hbonds>
donor molecule, donor type, donor heavy atom, donor atom, acceptor molecule, acceptor atom, score
      L1  H     6    41       P1  7948  2.00
      L1  H    10    36       P1  8028  1.00
      L1  H    13    37       P1  8028  1.00

> <Gold.PLP.Chemscore.Internal.Correction>
0.0375

> <Gold.Rescore>
     Score         DG    S(hbond)    S(metal)    S(lipo)     H(rot)  DE(clash)    DE(int)     intcor
     17.05     -17.92       2.87        0.00      67.65       1.98       0.24       0.63       ----

> <Gold.Chemscore.Fitness>
17.0534

> <Gold.Chemscore.DG>
-17.9240

> <Gold.Chemscore.ZeroCoef>
-5.4800

> <Gold.Chemscore.Hbond>
2.8730

> <Gold.Chemscore.Metal>
0.0000

> <Gold.Chemscore.Lipo>
67.6517

> <Gold.Chemscore.Internal_Hbond>
0.0000

> <Gold.Chemscore.DEClash>
0.2403

> <Gold.Chemscore.DEInternal>
0.6304

> <Gold.Chemscore.Rot>
1.9793

> <Gold.Chemscore.Internal.Correction>
   9.000000E+99

> <Gold.Chemscore.Hbonds>
donor molecule, donor type, donor heavy atom, donor atom, acceptor molecule, acceptor atom, score
      L1  H     6    41       P1  7948  1.00
      L1  H    10    36       P1  8028  0.95
      L1  H    13    37       P1  8028  0.86

> <Gold.Chemscore.Hbond.Weighted>
-9.5957

> <Gold.Chemscore.Metal.Weighted>
-0.0000

> <Gold.Chemscore.Lipo.Weighted>
-7.9153

> <Gold.Chemscore.Internal_Hbond.Weighted>
0.0000

> <Gold.Chemscore.DEClash.Weighted>
0.2403

> <Gold.Chemscore.DEInternal.Weighted>
0.6304

> <Gold.Chemscore.Rot.Weighted>
5.0670

> <Gold.Chemscore.Internal.Correction.Weighted>
   9.000000E+99

> <Gold.Protein.RotatedTorsions>
[ 6907 6896 6895 6894 ] final   67.21 input  -60.11 | X-H torsion
[ 7974 7965 7964 7962 ] final -161.25 input  175.53 | X-H torsion
[ 8008 7997 7996 7995 ] final -168.92 input   59.86 | X-H torsion
[ 10167 10162 10161 10158 ] final  155.16 input  -65.29 | X-H torsion
[ 10718 10713 10712 10709 ] final  112.88 input   66.30 | X-H torsion
[ 10763 10752 10751 10750 ] final  103.74 input  -60.55 | X-H torsion
[ 11005 11000 10999 10996 ] final   96.70 input  -57.11 | X-H torsion

> <Gold.Protein.ActiveResidues>
 VAL166  LYS551  ARG553  GLY616  TRP617  ASP618  TYR619  PRO620  LYS621  CYS622 
 ASP623  PHE694  ASN695  SER759  ASP760  ASP761  ALA762  ILE779  LEU786  VAL792 
 PHE793  MET794  SER795  GLU796  ALA797  LYS798  CYS799  TRP800  GLU811  SER814 

> <Gold.Protein.RotatedAtoms>
  152.4536  134.5340  159.9819 H   0  0  0  0  0  0  0  0  0  0  0  0  # atno 6907 bound_to 6896
  151.5407  133.3427  159.2943 H   0  0  0  0  0  0  0  0  0  0  0  0  # atno 6908 bound_to 6896
  150.8473  134.7817  159.7043 H   0  0  0  0  0  0  0  0  0  0  0  0  # atno 6909 bound_to 6896
  144.7397  140.3424  143.6132 H   0  0  0  0  0  0  0  0  0  0  0  0  # atno 7974 bound_to 7965
  155.8980  140.1036  157.1370 H   0  0  0  0  0  0  0  0  0  0  0  0  # atno 8008 bound_to 7997
  154.4023  140.1298  156.4464 H   0  0  0  0  0  0  0  0  0  0  0  0  # atno 8009 bound_to 7997
  155.7456  140.3466  155.5127 H   0  0  0  0  0  0  0  0  0  0  0  0  # atno 8010 bound_to 7997
  139.4822  144.5123  151.8005 H   0  0  0  0  0  0  0  0  0  0  0  0  # atno 10167 bound_to 10162
  157.6368  131.0975  150.6960 H   0  0  0  0  0  0  0  0  0  0  0  0  # atno 10718 bound_to 10713
  153.3567  135.3966  155.1687 H   0  0  0  0  0  0  0  0  0  0  0  0  # atno 10763 bound_to 10752
  154.8672  135.3669  154.5152 H   0  0  0  0  0  0  0  0  0  0  0  0  # atno 10764 bound_to 10752
  153.5608  135.7081  153.5608 H   0  0  0  0  0  0  0  0  0  0  0  0  # atno 10765 bound_to 10752
  139.8780  134.8964  156.4198 H   0  0  0  0  0  0  0  0  0  0  0  0  # atno 11005 bound_to 11000
  145.7361  139.1750  143.2403 LP  0  0  0  0  0  0  0  0  0  0  0  0  # atno 17320 bound_to 7965
  146.1170  140.7357  142.9476 LP  0  0  0  0  0  0  0  0  0  0  0  0  # atno 17321 bound_to 7965
  140.4628  144.1698  150.5908 LP  0  0  0  0  0  0  0  0  0  0  0  0  # atno 17342 bound_to 10162
  140.4467  143.2504  151.9402 LP  0  0  0  0  0  0  0  0  0  0  0  0  # atno 17343 bound_to 10162
  156.7290  130.4704  149.5504 LP  0  0  0  0  0  0  0  0  0  0  0  0  # atno 17370 bound_to 10713
  156.1614  130.6377  151.0724 LP  0  0  0  0  0  0  0  0  0  0  0  0  # atno 17371 bound_to 10713
  140.9142  133.7690  155.9827 LP  0  0  0  0  0  0  0  0  0  0  0  0  # atno 17394 bound_to 11000
  140.8513  134.2951  157.5274 LP  0  0  0  0  0  0  0  0  0  0  0  0  # atno 17395 bound_to 11000

$$$$
