AV-unprocessed.smi:1180|AV-procd|sdf|4963|dock1
  -GOLD-   22720 3553D 1   1.00000     0.00000
 Structure written by MMmdl.
 38 39  0  0  0  0  0  0  0  0  1 V2000
  145.8446  143.0063  153.8336 C   0  0  0  0  0  0  0  0  0  0  0  0
  146.8696  141.8953  153.9092 C   0  0  0  0  0  0  0  0  0  0  0  0
  146.4197  140.6888  153.3993 N   0  0  0  0  0  0  0  0  0  0  0  0
  147.2904  139.6135  153.4133 C   0  0  0  0  0  0  0  0  0  0  0  0
  146.7180  138.3364  152.8233 C   0  0  0  0  0  0  0  0  0  0  0  0
  148.5458  139.7334  153.9165 C   0  0  0  0  0  0  0  0  0  0  0  0
  149.5458  138.5797  153.9520 C   0  0  0  0  0  0  0  0  0  0  0  0
  149.2468  137.4889  154.9807 C   0  0  0  0  0  0  0  0  0  0  0  0
  149.3147  137.7391  156.1835 O   0  0  0  0  0  0  0  0  0  0  0  0
  148.9199  136.2832  154.4908 N   0  0  0  0  0  0  0  0  0  0  0  0
  148.6092  135.0989  155.2848 C   0  0  0  0  0  0  0  0  0  0  0  0
  149.4132  133.8690  154.8226 C   0  0  1  0  0  0  0  0  0  0  0  0
  149.3892  132.7181  155.8075 C   0  0  0  0  0  0  0  0  0  0  0  0
  149.8332  131.5462  154.9369 C   0  0  0  0  0  0  0  0  0  0  0  0
  149.3753  131.8424  153.6206 O   0  0  0  0  0  0  0  0  0  0  0  0
  148.8864  133.1789  153.5629 C   0  0  0  0  0  0  0  0  0  0  0  0
  148.9648  141.0464  154.4618 C   0  0  0  0  0  0  0  0  0  0  0  0
  150.0819  141.2120  154.9505 O   0  0  0  0  0  0  0  0  0  0  0  0
  148.0467  142.1079  154.4140 N   0  0  0  0  0  0  0  0  0  0  0  0
  145.4965  140.5579  153.0116 H   0  0  0  0  0  0  0  0  0  0  0  0
  146.2452  143.9356  154.2406 H   0  0  0  0  0  0  0  0  0  0  0  0
  144.9536  142.7413  154.4035 H   0  0  0  0  0  0  0  0  0  0  0  0
  145.5535  143.1853  152.7979 H   0  0  0  0  0  0  0  0  0  0  0  0
  146.7210  137.5372  153.5641 H   0  0  0  0  0  0  0  0  0  0  0  0
  147.3067  138.0147  151.9641 H   0  0  0  0  0  0  0  0  0  0  0  0
  145.6894  138.4752  152.4881 H   0  0  0  0  0  0  0  0  0  0  0  0
  150.5556  138.9625  154.1080 H   0  0  0  0  0  0  0  0  0  0  0  0
  149.5856  138.1073  152.9707 H   0  0  0  0  0  0  0  0  0  0  0  0
  148.8909  136.1759  153.4871 H   0  0  0  0  0  0  0  0  0  0  0  0
  148.8587  135.3258  156.3214 H   0  0  0  0  0  0  0  0  0  0  0  0
  147.5380  134.8896  155.2691 H   0  0  0  0  0  0  0  0  0  0  0  0
  150.4526  134.1574  154.6558 H   0  0  0  0  0  0  0  0  0  0  0  0
  150.0389  132.8757  156.6688 H   0  0  0  0  0  0  0  0  0  0  0  0
  148.3749  132.5485  156.1717 H   0  0  0  0  0  0  0  0  0  0  0  0
  150.9215  131.4780  154.9167 H   0  0  0  0  0  0  0  0  0  0  0  0
  149.4405  130.5929  155.2912 H   0  0  0  0  0  0  0  0  0  0  0  0
  147.7961  133.1449  153.5685 H   0  0  0  0  0  0  0  0  0  0  0  0
  149.2044  133.6781  152.6474 H   0  0  0  0  0  0  0  0  0  0  0  0
  1 21  1  0  0  0  0
  1 22  1  0  0  0  0
  1 23  1  0  0  0  0
  1  2  1  0  0  0  0
  2  3  1  0  0  0  0
  2 19  2  0  0  0  0
  3  4  1  0  0  0  0
  3 20  1  0  0  0  0
  4  6  2  0  0  0  0
  4  5  1  0  0  0  0
  5 24  1  0  0  0  0
  5 25  1  0  0  0  0
  5 26  1  0  0  0  0
  6 17  1  0  0  0  0
  6  7  1  0  0  0  0
  7  8  1  0  0  0  0
  7 27  1  0  0  0  0
  7 28  1  0  0  0  0
  8  9  2  0  0  0  0
  8 10  1  0  0  0  0
 10 11  1  0  0  0  0
 10 29  1  0  0  0  0
 11 12  1  0  0  0  0
 11 30  1  0  0  0  0
 11 31  1  0  0  0  0
 12 16  1  0  0  0  0
 12 13  1  0  0  0  0
 12 32  1  0  0  0  0
 13 14  1  0  0  0  0
 13 33  1  0  0  0  0
 13 34  1  0  0  0  0
 14 15  1  0  0  0  0
 14 35  1  0  0  0  0
 14 36  1  0  0  0  0
 15 16  1  0  0  0  0
 16 37  1  0  0  0  0
 16 38  1  0  0  0  0
 17 18  2  0  0  0  0
 17 19  1  0  0  0  0
M  END
> <s_m_source_file>
AV-unprocessed.smi

> <i_m_source_file_index>
1180

> <i_lp_mmshare_version>
43012

> <i_f3d_flags>
0

> <s_epik_input>
W0NIM11jMW5jKFtDSDNdKWMoYyg9TylbbkhdMSlbQ0gyXUMoPU8pW05IXVtDSDJdW0NAQEhdMltDSDJdW0NIMl1PW0NIMl0y

> <s_epik_cmdline>
J2VwaWtfcHl0aG9uJywgJy1waCcsICc3LjAnLCAnLXRuJywgJzgnLCAnLW1hJywgJzIwMCcsICctbWV0YWxfYmluZGluZycsICctaW1hZScsICc8aW5maWxlLm1hZT4nLCAnLW9tYWUnLCAnPG91dGZpbGUubWFlPic=

> <r_lp_tautomer_probability>
0.156392

> <r_epik_Ionization_Penalty>
0.014237

> <r_epik_Ionization_Penalty_Charging>
0.0141173

> <r_epik_Ionization_Penalty_Neutral>
0.000119724

> <r_epik_State_Penalty>
1.52876

> <r_epik_Charging_Adjusted_Penalty>
1.54288

> <i_epik_Tot_Q>
0

> <i_epik_Tot_abs_Q>
0

> <r_epik_Metal_State_Penalty>
1.70686

> <b_epik_Metal_Only>
0

> <s_lp_Force_Field>
OPLS_2005

> <r_lp_Energy>
23.3722

> <b_lp_Chiralities_Consistent>
1

> <s_lp_Variant>
AV-unprocessed.smi:1180-4

> <Gold.Version>
5.8.1

> <Gold.Id.Protein>
6NUR|6NUR_protein|mol2

> <Gold.PLP.Fitness>
37.1113

> <Gold.PLP.PLP>
-30.0848

> <Gold.PLP.part.hbond>
-3.2329

> <Gold.PLP.part.metal>
0.0000

> <Gold.PLP.part.buried>
-0.1229

> <Gold.PLP.part.nonpolar>
-28.2702

> <Gold.PLP.part.repulsive>
1.9962

> <Gold.PLP.ligand.clash>
0.0000

> <Gold.PLP.ligand.torsion>
0.3594

> <Gold.PLP.Chemscore.Hbond>
2.5780

> <Gold.PLP.Chemscore.CHOScore>
0.0000

> <Gold.PLP.Chemscore.Metal>
0.0000

> <Gold.Chemscore.Hbonds>
donor molecule, donor type, donor heavy atom, donor atom, acceptor molecule, acceptor atom, score
      L1  H     3    20       P1 10175  1.00
      L1  H    10    29       P1  7948  1.00
      P1  H  7989  7998       L1    18  0.44

> <Gold.PLP.Chemscore.Internal.Correction>
0.0114

> <Gold.Rescore>
     Score         DG    S(hbond)    S(metal)    S(lipo)     H(rot)  DE(clash)    DE(int)     intcor
     14.72     -15.39       2.42        0.00      55.14       1.81       0.34       0.34       ----

> <Gold.Chemscore.Fitness>
14.7151

> <Gold.Chemscore.DG>
-15.3881

> <Gold.Chemscore.ZeroCoef>
-5.4800

> <Gold.Chemscore.Hbond>
2.4196

> <Gold.Chemscore.Metal>
0.0000

> <Gold.Chemscore.Lipo>
55.1391

> <Gold.Chemscore.Internal_Hbond>
0.0000

> <Gold.Chemscore.DEClash>
0.3351

> <Gold.Chemscore.DEInternal>
0.3380

> <Gold.Chemscore.Rot>
1.8065

> <Gold.Chemscore.Internal.Correction>
   9.000000E+99

> <Gold.Chemscore.Hbonds>
donor molecule, donor type, donor heavy atom, donor atom, acceptor molecule, acceptor atom, score
      L1  H     3    20       P1 10175  0.82
      L1  H    10    29       P1  7948  0.98
      P1  H  7989  7998       L1    18  0.33

> <Gold.Chemscore.Hbond.Weighted>
-8.0814

> <Gold.Chemscore.Metal.Weighted>
-0.0000

> <Gold.Chemscore.Lipo.Weighted>
-6.4513

> <Gold.Chemscore.Internal_Hbond.Weighted>
0.0000

> <Gold.Chemscore.DEClash.Weighted>
0.3351

> <Gold.Chemscore.DEInternal.Weighted>
0.3380

> <Gold.Chemscore.Rot.Weighted>
4.6246

> <Gold.Chemscore.Internal.Correction.Weighted>
   9.000000E+99

> <Gold.Protein.RotatedTorsions>
[ 6907 6896 6895 6894 ] final  110.28 input  -60.11 | X-H torsion
[ 7974 7965 7964 7962 ] final   23.23 input  175.53 | X-H torsion
[ 8008 7997 7996 7995 ] final  134.96 input   59.86 | X-H torsion
[ 10167 10162 10161 10158 ] final  109.57 input  -65.29 | X-H torsion
[ 10718 10713 10712 10709 ] final  168.40 input   66.30 | X-H torsion
[ 10763 10752 10751 10750 ] final -144.93 input  -60.55 | X-H torsion
[ 11005 11000 10999 10996 ] final -150.12 input  -57.11 | X-H torsion

> <Gold.Protein.ActiveResidues>
 VAL166  LYS551  ARG553  GLY616  TRP617  ASP618  TYR619  PRO620  LYS621  CYS622 
 ASP623  PHE694  ASN695  SER759  ASP760  ASP761  ALA762  ILE779  LEU786  VAL792 
 PHE793  MET794  SER795  GLU796  ALA797  LYS798  CYS799  TRP800  GLU811  SER814 

> <Gold.Protein.RotatedAtoms>
  152.5027  133.8822  159.7351 H   0  0  0  0  0  0  0  0  0  0  0  0  # atno 6907 bound_to 6896
  150.9282  133.6790  159.2823 H   0  0  0  0  0  0  0  0  0  0  0  0  # atno 6908 bound_to 6896
  151.4143  135.0994  159.9647 H   0  0  0  0  0  0  0  0  0  0  0  0  # atno 6909 bound_to 6896
  146.1993  139.7773  142.8773 H   0  0  0  0  0  0  0  0  0  0  0  0  # atno 7974 bound_to 7965
  156.3001  140.2483  156.3503 H   0  0  0  0  0  0  0  0  0  0  0  0  # atno 8008 bound_to 7997
  154.8972  140.0407  157.1892 H   0  0  0  0  0  0  0  0  0  0  0  0  # atno 8009 bound_to 7997
  154.8537  140.2910  155.5586 H   0  0  0  0  0  0  0  0  0  0  0  0  # atno 8010 bound_to 7997
  139.6756  144.7122  151.1608 H   0  0  0  0  0  0  0  0  0  0  0  0  # atno 10167 bound_to 10162
  157.0377  131.0277  151.2724 H   0  0  0  0  0  0  0  0  0  0  0  0  # atno 10718 bound_to 10713
  154.8406  135.3427  154.6423 H   0  0  0  0  0  0  0  0  0  0  0  0  # atno 10763 bound_to 10752
  153.7035  135.6968  153.5061 H   0  0  0  0  0  0  0  0  0  0  0  0  # atno 10764 bound_to 10752
  153.2505  135.4355  155.0747 H   0  0  0  0  0  0  0  0  0  0  0  0  # atno 10765 bound_to 10752
  140.7436  134.3487  157.5142 H   0  0  0  0  0  0  0  0  0  0  0  0  # atno 11005 bound_to 11000
  145.3537  141.0312  143.3324 LP  0  0  0  0  0  0  0  0  0  0  0  0  # atno 17320 bound_to 7965
  144.8649  139.5123  143.6795 LP  0  0  0  0  0  0  0  0  0  0  0  0  # atno 17321 bound_to 7965
  140.7634  143.5777  150.8928 LP  0  0  0  0  0  0  0  0  0  0  0  0  # atno 17342 bound_to 10162
  139.9445  143.6343  152.3045 LP  0  0  0  0  0  0  0  0  0  0  0  0  # atno 17343 bound_to 10162
  157.5129  130.7950  149.7724 LP  0  0  0  0  0  0  0  0  0  0  0  0  # atno 17370 bound_to 10713
  156.0048  130.3861  150.2470 LP  0  0  0  0  0  0  0  0  0  0  0  0  # atno 17371 bound_to 10713
  139.8801  134.9096  156.2995 LP  0  0  0  0  0  0  0  0  0  0  0  0  # atno 17394 bound_to 11000
  140.9815  133.7264  156.0679 LP  0  0  0  0  0  0  0  0  0  0  0  0  # atno 17395 bound_to 11000

$$$$
