AV-unprocessed.smi:3209|AV-procd|sdf|12270|dock2
  -GOLD-   2272018103D 1   1.00000     0.00000
 Structure written by MMmdl.
 37 39  0  0  0  0  0  0  0  0  2 V2000
  154.3816  140.5138  161.7656 C   0  0  0  0  0  0  0  0  0  0  0  0
  153.6158  141.7208  161.3429 C   0  0  0  0  0  0  0  0  0  0  0  0
  153.3394  142.0135  160.0690 N   0  0  0  0  0  0  0  0  0  0  0  0
  152.6134  143.2011  159.9347 C   0  0  0  0  0  0  0  0  0  0  0  0
  152.2161  143.6831  158.5726 C   0  0  0  0  0  0  0  0  0  0  0  0
  150.9610  142.9721  158.0489 C   0  0  0  0  0  0  0  0  0  0  0  0
  150.9208  142.9870  156.5724 N   0  3  0  0  0  0  0  0  0  0  0  0
  150.5502  141.6975  155.9476 C   0  0  2  0  0  0  0  0  0  0  0  0
  149.2728  141.1090  156.5875 C   0  0  0  0  0  0  0  0  0  0  0  0
  149.7330  139.7207  157.0679 C   0  0  1  0  0  0  0  0  0  0  0  0
  149.9969  138.8145  155.8513 C   0  0  0  0  0  0  0  0  0  0  0  0
  151.2986  139.3985  155.2704 C   0  0  0  0  0  0  0  0  0  0  0  0
  151.5909  140.5830  156.2109 C   0  0  2  0  0  0  0  0  0  0  0  0
  151.1455  140.0162  157.5558 C   0  0  0  0  0  0  0  0  0  0  0  0
  152.3367  143.8050  161.1359 C   0  0  0  0  0  0  0  0  0  0  0  0
  152.9820  142.9040  162.4800 S   0  0  0  0  0  0  0  0  0  0  0  0
  154.8244  140.0169  160.9018 H   0  0  0  0  0  0  0  0  0  0  0  0
  153.7195  139.8121  162.2728 H   0  0  0  0  0  0  0  0  0  0  0  0
  155.1803  140.7996  162.4504 H   0  0  0  0  0  0  0  0  0  0  0  0
  152.0398  144.7594  158.5978 H   0  0  0  0  0  0  0  0  0  0  0  0
  153.0393  143.5314  157.8730 H   0  0  0  0  0  0  0  0  0  0  0  0
  150.9464  141.9380  158.3960 H   0  0  0  0  0  0  0  0  0  0  0  0
  150.0704  143.4582  158.4476 H   0  0  0  0  0  0  0  0  0  0  0  0
  150.2715  143.6958  156.2628 H   0  0  0  0  0  0  0  0  0  0  0  0
  150.3985  141.8541  154.8783 H   0  0  0  0  0  0  0  0  0  0  0  0
  148.9326  141.7080  157.4339 H   0  0  0  0  0  0  0  0  0  0  0  0
  148.4468  141.0455  155.8781 H   0  0  0  0  0  0  0  0  0  0  0  0
  149.0722  139.2740  157.8115 H   0  0  0  0  0  0  0  0  0  0  0  0
  150.1458  137.7794  156.1612 H   0  0  0  0  0  0  0  0  0  0  0  0
  149.1745  138.8346  155.1349 H   0  0  0  0  0  0  0  0  0  0  0  0
  152.1015  138.6612  155.3166 H   0  0  0  0  0  0  0  0  0  0  0  0
  151.1905  139.7072  154.2300 H   0  0  0  0  0  0  0  0  0  0  0  0
  152.6302  140.9099  156.1719 H   0  0  0  0  0  0  0  0  0  0  0  0
  151.1804  140.7432  158.3690 H   0  0  0  0  0  0  0  0  0  0  0  0
  151.6962  139.1217  157.8530 H   0  0  0  0  0  0  0  0  0  0  0  0
  151.7948  144.7222  161.3130 H   0  0  0  0  0  0  0  0  0  0  0  0
  151.8446  143.2342  156.2473 H   0  0  0  0  0  0  0  0  0  0  0  0
  1  2  1  0  0  0  0
  1 17  1  0  0  0  0
  1 18  1  0  0  0  0
  1 19  1  0  0  0  0
  2 16  1  0  0  0  0
  2  3  2  0  0  0  0
  3  4  1  0  0  0  0
  4  5  1  0  0  0  0
  4 15  2  0  0  0  0
  5  6  1  0  0  0  0
  5 20  1  0  0  0  0
  5 21  1  0  0  0  0
  6  7  1  0  0  0  0
  6 22  1  0  0  0  0
  6 23  1  0  0  0  0
  7  8  1  0  0  0  0
  7 24  1  0  0  0  0
  7 37  1  0  0  0  0
  8 13  1  0  0  0  0
  8  9  1  0  0  0  0
  8 25  1  0  0  0  0
  9 10  1  0  0  0  0
  9 26  1  0  0  0  0
  9 27  1  0  0  0  0
 10 14  1  0  0  0  0
 10 11  1  0  0  0  0
 10 28  1  0  0  0  0
 11 12  1  0  0  0  0
 11 29  1  0  0  0  0
 11 30  1  0  0  0  0
 12 13  1  0  0  0  0
 12 31  1  0  0  0  0
 12 32  1  0  0  0  0
 13 14  1  0  0  0  0
 13 33  1  0  0  0  0
 14 34  1  0  0  0  0
 14 35  1  0  0  0  0
 15 16  1  0  0  0  0
 15 36  1  0  0  0  0
M  CHG  1   7   1
M  END
> <s_m_source_file>
AV-unprocessed.smi

> <i_m_source_file_index>
3209

> <i_lp_mmshare_version>
43012

> <i_f3d_flags>
0

> <s_epik_input>
W0NIM11jMW5jKFtjSF1zMSlbQ0gyXVtDSDJdW05IXVtDQEhdKFtDSDJdW0NASF0yMylbQ0BIXShbQ0gyXTMpW0NIMl1bQ0gyXTI=

> <s_epik_cmdline>
J2VwaWtfcHl0aG9uJywgJy1waCcsICc3LjAnLCAnLXRuJywgJzgnLCAnLW1hJywgJzIwMCcsICctbWV0YWxfYmluZGluZycsICctaW1hZScsICc8aW5maWxlLm1hZT4nLCAnLW9tYWUnLCAnPG91dGZpbGUubWFlPic=

> <r_lp_tautomer_probability>
1

> <r_epik_Ionization_Penalty>
0.000342479

> <r_epik_Ionization_Penalty_Charging>
0.000317129

> <r_epik_Ionization_Penalty_Neutral>
2.535e-05

> <r_epik_State_Penalty>
-0

> <r_epik_Charging_Adjusted_Penalty>
0.000317129

> <i_epik_Tot_Q>
1

> <i_epik_Tot_abs_Q>
1

> <r_epik_Metal_State_Penalty>
-0

> <b_epik_Metal_Only>
0

> <s_lp_Force_Field>
OPLS_2005

> <r_lp_Energy>
48.4774

> <b_lp_Chiralities_Consistent>
1

> <s_lp_Variant>
AV-unprocessed.smi:3209-3

> <Gold.Version>
5.8.1

> <Gold.Id.Protein>
6NUR|6NUR_protein|mol2

> <Gold.PLP.Fitness>
43.9855

> <Gold.PLP.PLP>
-39.5252

> <Gold.PLP.part.hbond>
-1.0000

> <Gold.PLP.part.metal>
0.0000

> <Gold.PLP.part.buried>
-5.3677

> <Gold.PLP.part.nonpolar>
-32.5746

> <Gold.PLP.part.repulsive>
0.0664

> <Gold.PLP.ligand.clash>
0.0000

> <Gold.PLP.ligand.torsion>
0.7920

> <Gold.PLP.Chemscore.Hbond>
2.0000

> <Gold.PLP.Chemscore.CHOScore>
0.0000

> <Gold.PLP.Chemscore.Metal>
0.0000

> <Gold.Chemscore.Hbonds>
donor molecule, donor type, donor heavy atom, donor atom, acceptor molecule, acceptor atom, score
      L1  H     7    24       P1  8028  2.00

> <Gold.PLP.Chemscore.Internal.Correction>
0.0442

> <Gold.Rescore>
     Score         DG    S(hbond)    S(metal)    S(lipo)     H(rot)  DE(clash)    DE(int)     intcor
     17.47     -19.28       1.00        0.00     118.10       1.31       0.04       1.77       ----

> <Gold.Chemscore.Fitness>
17.4737

> <Gold.Chemscore.DG>
-19.2803

> <Gold.Chemscore.ZeroCoef>
-5.4800

> <Gold.Chemscore.Hbond>
0.9995

> <Gold.Chemscore.Metal>
0.0000

> <Gold.Chemscore.Lipo>
118.0995

> <Gold.Chemscore.Internal_Hbond>
0.0000

> <Gold.Chemscore.DEClash>
0.0351

> <Gold.Chemscore.DEInternal>
1.7715

> <Gold.Chemscore.Rot>
1.3108

> <Gold.Chemscore.Internal.Correction>
   9.000000E+99

> <Gold.Chemscore.Hbonds>
donor molecule, donor type, donor heavy atom, donor atom, acceptor molecule, acceptor atom, score
      L1  H     7    24       P1  8028  1.00

> <Gold.Chemscore.Hbond.Weighted>
-3.3384

> <Gold.Chemscore.Metal.Weighted>
-0.0000

> <Gold.Chemscore.Lipo.Weighted>
-13.8176

> <Gold.Chemscore.Internal_Hbond.Weighted>
0.0000

> <Gold.Chemscore.DEClash.Weighted>
0.0351

> <Gold.Chemscore.DEInternal.Weighted>
1.7715

> <Gold.Chemscore.Rot.Weighted>
3.3558

> <Gold.Chemscore.Internal.Correction.Weighted>
   9.000000E+99

> <Gold.Protein.RotatedTorsions>
[ 6907 6896 6895 6894 ] final  -92.25 input  -60.11 | X-H torsion
[ 7974 7965 7964 7962 ] final  179.17 input  175.53 | X-H torsion
[ 8008 7997 7996 7995 ] final  -64.80 input   59.86 | X-H torsion
[ 10167 10162 10161 10158 ] final -176.52 input  -65.29 | X-H torsion
[ 10718 10713 10712 10709 ] final   70.86 input   66.30 | X-H torsion
[ 10763 10752 10751 10750 ] final  -86.94 input  -60.55 | X-H torsion
[ 11005 11000 10999 10996 ] final   74.27 input  -57.11 | X-H torsion

> <Gold.Protein.ActiveResidues>
 VAL166  LYS551  ARG553  GLY616  TRP617  ASP618  TYR619  PRO620  LYS621  CYS622 
 ASP623  PHE694  ASN695  SER759  ASP760  ASP761  ALA762  ILE779  LEU786  VAL792 
 PHE793  MET794  SER795  GLU796  ALA797  LYS798  CYS799  TRP800  GLU811  SER814 

> <Gold.Protein.RotatedAtoms>
  150.6903  134.2152  159.4374 H   0  0  0  0  0  0  0  0  0  0  0  0  # atno 6907 bound_to 6896
  152.0111  134.9873  160.0577 H   0  0  0  0  0  0  0  0  0  0  0  0  # atno 6908 bound_to 6896
  152.1487  133.4474  159.4839 H   0  0  0  0  0  0  0  0  0  0  0  0  # atno 6909 bound_to 6896
  144.7148  140.0508  143.6435 H   0  0  0  0  0  0  0  0  0  0  0  0  # atno 7974 bound_to 7965
  154.4633  140.0946  156.6953 H   0  0  0  0  0  0  0  0  0  0  0  0  # atno 8008 bound_to 7997
  155.4930  140.3471  155.4340 H   0  0  0  0  0  0  0  0  0  0  0  0  # atno 8009 bound_to 7997
  156.0911  140.1397  156.9580 H   0  0  0  0  0  0  0  0  0  0  0  0  # atno 8010 bound_to 7997
  139.5525  144.2072  152.1102 H   0  0  0  0  0  0  0  0  0  0  0  0  # atno 10167 bound_to 10162
  157.6422  130.9499  150.0709 H   0  0  0  0  0  0  0  0  0  0  0  0  # atno 10718 bound_to 10713
  154.6281  135.5431  153.7649 H   0  0  0  0  0  0  0  0  0  0  0  0  # atno 10763 bound_to 10752
  153.0270  135.6429  154.1342 H   0  0  0  0  0  0  0  0  0  0  0  0  # atno 10764 bound_to 10752
  154.1274  135.2916  155.3174 H   0  0  0  0  0  0  0  0  0  0  0  0  # atno 10765 bound_to 10752
  139.9399  134.7418  156.1127 H   0  0  0  0  0  0  0  0  0  0  0  0  # atno 11005 bound_to 11000
  145.9946  139.3042  143.0964 LP  0  0  0  0  0  0  0  0  0  0  0  0  # atno 17320 bound_to 7965
  145.8864  140.9331  143.0575 LP  0  0  0  0  0  0  0  0  0  0  0  0  # atno 17321 bound_to 7965
  140.1570  144.5061  150.6654 LP  0  0  0  0  0  0  0  0  0  0  0  0  # atno 17342 bound_to 10162
  140.6791  143.2318  151.5430 LP  0  0  0  0  0  0  0  0  0  0  0  0  # atno 17343 bound_to 10162
  156.1713  130.3646  149.9161 LP  0  0  0  0  0  0  0  0  0  0  0  0  # atno 17370 bound_to 10713
  156.7136  130.8979  151.3611 LP  0  0  0  0  0  0  0  0  0  0  0  0  # atno 17371 bound_to 10713
  141.1029  133.6670  156.2796 LP  0  0  0  0  0  0  0  0  0  0  0  0  # atno 17394 bound_to 11000
  140.5978  134.5585  157.5512 LP  0  0  0  0  0  0  0  0  0  0  0  0  # atno 17395 bound_to 11000

$$$$
