#       Name:                AV-unprocessed.smi:1535
#       Creating user name   scv26
#       Creation time:       Fri Mar 27 06:33:26 2020


#       File generated by GOLD software.
#

@<TRIPOS>MOLECULE
AV-unprocessed.smi:1535
    51    52     1
SMALL
NO_CHARGES


@<TRIPOS>ATOM
      1 ****        -4.4498   1.0213  -2.5048 C.3            1 S1                 0.0000
      2 ****        -3.2967   1.3396  -1.5692 C.ar           1 S1                 0.0000
      3 ****        -2.4775   2.4572  -1.8448 C.ar           1 S1                 0.0000
      4 ****        -1.3963   2.7886  -0.9995 C.ar           1 S1                 0.0000
      5 ****        -0.4782   3.8211  -1.0794 N.2            1 S1                 0.0000
      6 ****         0.2734   3.5956  -0.0065 C.2            1 S1                 0.0000
      7 ****        -0.0406   2.5287   0.7540 N.pl3          1 S1                 0.0000
      8 ****         0.6392   2.0854   1.9587 C.3            1 S1                 0.0000
      9 ****         1.3060   0.7049   1.7949 C.3            1 S1                 0.0000
     10 ****         2.0146   0.4172   2.9827 O.3            1 S1                 0.0000
     11 ****         2.2865   0.6212   0.6031 C.3            1 S1                 0.0000
     12 ****         2.7422  -0.7706   0.3649 N.4            1 S1                 1.0000
     13 ****         4.0873  -0.8224  -0.2509 C.3            1 S1                 0.0000
     14 ****         1.7488  -1.5947  -0.3728 C.3            1 S1                 0.0000
     15 ****         1.8011  -3.0719   0.0542 C.3            1 S1                 0.0000
     16 ****         0.8374  -3.9314  -0.7734 C.3            1 S1                 0.0000
     17 ****         1.5234  -3.2168   1.4926 C.1            1 S1                 0.0000
     18 ****         1.3061  -3.3260   2.6232 N.1            1 S1                 0.0000
     19 ****        -1.1548   1.9655   0.1394 C.ar           1 S1                 0.0000
     20 ****        -1.9669   0.8539   0.4268 C.ar           1 S1                 0.0000
     21 ****        -3.0403   0.5344  -0.4306 C.ar           1 S1                 0.0000
     22 ****        -3.9085  -0.6703  -0.1132 C.3            1 S1                 0.0000
     23 ****        -4.5252   1.7545  -3.3085 H              1 S1                 0.0000
     24 ****        -5.3946   1.0238  -1.9610 H              1 S1                 0.0000
     25 ****        -4.3140   0.0397  -2.9595 H              1 S1                 0.0000
     26 ****        -2.6740   3.0724  -2.7108 H              1 S1                 0.0000
     27 ****         1.1071   4.2388   0.2354 H              1 S1                 0.0000
     28 ****         1.3858   2.8343   2.2279 H              1 S1                 0.0000
     29 ****        -0.0882   2.0626   2.7713 H              1 S1                 0.0000
     30 ****         0.5250  -0.0474   1.6943 H              1 S1                 0.0000
     31 ****         1.4081   0.4300   3.7082 H              1 S1                 0.0000
     32 ****         1.8371   0.9973  -0.3168 H              1 S1                 0.0000
     33 ****         3.1396   1.2703   0.8087 H              1 S1                 0.0000
     34 ****         4.0849  -0.3514  -1.2348 H              1 S1                 0.0000
     35 ****         4.4271  -1.8516  -0.3655 H              1 S1                 0.0000
     36 ****         4.8163  -0.3052   0.3737 H              1 S1                 0.0000
     37 ****         0.7384  -1.2245  -0.1957 H              1 S1                 0.0000
     38 ****         1.9141  -1.4954  -1.4467 H              1 S1                 0.0000
     39 ****         2.8093  -3.4560  -0.1007 H              1 S1                 0.0000
     40 ****         0.9029  -4.9803  -0.4825 H              1 S1                 0.0000
     41 ****         1.0677  -3.8688  -1.8373 H              1 S1                 0.0000
     42 ****        -0.1960  -3.6120  -0.6346 H              1 S1                 0.0000
     43 ****        -1.7687   0.2514   1.3005 H              1 S1                 0.0000
     44 ****        -3.5372  -1.2104   0.7581 H              1 S1                 0.0000
     45 ****        -3.9241  -1.3646  -0.9533 H              1 S1                 0.0000
     46 ****        -4.9315  -0.3573   0.0970 H              1 S1                 0.0000
     47 ****         2.8360  -1.1788   1.2845 H              1 S1                 0.0000
     48 ****        -0.4007   4.5459  -1.7640 LP             1 S1                 0.0000
     49 ****         2.7251   1.1061   3.1259 LP             1 S1                 0.0000
     50 ****         2.4361  -0.4869   2.9124 LP             1 S1                 0.0000
     51 ****         1.1182  -3.4205   3.6008 LP             1 S1                 0.0000
@<TRIPOS>BOND
    1    1    2 1     
    2    1   23 1     
    3    1   24 1     
    4    1   25 1     
    5    2   21 ar    
    6    2    3 ar    
    7    3    4 ar    
    8    3   26 1     
    9    4   19 ar    
   10    4    5 1     
   11    5    6 2     
   12    6    7 1     
   13    6   27 1     
   14    7    8 1     
   15    7   19 1     
   16    8    9 1     
   17    8   28 1     
   18    8   29 1     
   19    9   10 1     
   20    9   11 1     
   21    9   30 1     
   22   10   31 1     
   23   11   12 1     
   24   11   32 1     
   25   11   33 1     
   26   12   13 1     
   27   12   14 1     
   28   12   47 1     
   29   13   34 1     
   30   13   35 1     
   31   13   36 1     
   32   14   15 1     
   33   14   37 1     
   34   14   38 1     
   35   15   16 1     
   36   15   17 1     
   37   15   39 1     
   38   16   40 1     
   39   16   41 1     
   40   16   42 1     
   41   17   18 3     
   42   19   20 ar    
   43   20   21 ar    
   44   20   43 1     
   45   21   22 1     
   46   22   44 1     
   47   22   45 1     
   48   22   46 1     
   49    5   48 1     
   50   10   49 1     
   51   10   50 1     
   52   18   51 1     
@<TRIPOS>SUBSTRUCTURE
      1 S1             1
@<TRIPOS>SET
LONE_PAIRS      STATIC     ATOMS    <user>   **** ""
4 48 49 50 51
DONOR_HYDROGENS      STATIC     ATOMS    <user>   **** ""
2 31 47
ATOM$BLUE        STATIC     ATOMS    COLORGROUP SYSTEM
4 48 49 50 51
ATOM$RED        STATIC     ATOMS    COLORGROUP SYSTEM
2 31 47
