AV-unprocessed.smi:1045|AV-procd|sdf|4544|dock1
  -GOLD-   22720 2573D 1   1.00000     0.00000
 Structure written by MMmdl.
 42 43  0  0  0  0  0  0  0  0  1 V2000
  142.1465  137.8828  153.7970 C   0  0  0  0  0  0  0  0  0  0  0  0
  143.1207  138.0241  152.7783 O   0  0  0  0  0  0  0  0  0  0  0  0
  144.4360  138.1438  153.2953 C   0  0  0  0  0  0  0  0  0  0  0  0
  145.4463  138.1199  152.1343 C   0  0  2  0  0  0  0  0  0  0  0  0
  145.3329  136.8366  151.2987 C   0  0  0  0  0  0  0  0  0  0  0  0
  146.8097  138.2350  152.6447 N   0  0  0  0  0  0  0  0  0  0  0  0
  147.2455  139.1772  153.4933 C   0  0  0  0  0  0  0  0  0  0  0  0
  146.5234  140.0584  153.9585 O   0  0  0  0  0  0  0  0  0  0  0  0
  148.5500  139.0102  153.7704 N   0  0  0  0  0  0  0  0  0  0  0  0
  149.3957  139.8019  154.5939 C   0  0  0  0  0  0  0  0  0  0  0  0
  150.6119  139.3548  155.1609 C   0  0  0  0  0  0  0  0  0  0  0  0
  151.3477  140.2341  155.9784 C   0  0  0  0  0  0  0  0  0  0  0  0
  150.8476  141.5357  156.2189 C   0  0  0  0  0  0  0  0  0  0  0  0
  151.5559  142.4468  157.0276 N   0  0  0  0  0  0  0  0  0  0  0  0
  151.3644  143.8841  156.9102 C   0  0  0  0  0  0  0  0  0  0  0  0
  152.1926  144.4783  158.0480 C   0  0  0  0  0  0  0  0  0  0  0  0
  152.0964  143.4119  159.1387 C   0  0  0  0  0  0  0  0  0  0  0  0
  152.0106  142.0910  158.3648 C   0  0  0  0  0  0  0  0  0  0  0  0
  149.6810  141.9598  155.6779 N   0  0  0  0  0  0  0  0  0  0  0  0
  148.9791  141.1135  154.8961 C   0  0  0  0  0  0  0  0  0  0  0  0
  141.1578  137.7924  153.3476 H   0  0  0  0  0  0  0  0  0  0  0  0
  142.1378  138.7502  154.4581 H   0  0  0  0  0  0  0  0  0  0  0  0
  142.3277  136.9883  154.3944 H   0  0  0  0  0  0  0  0  0  0  0  0
  144.5188  139.0805  153.8489 H   0  0  0  0  0  0  0  0  0  0  0  0
  144.6433  137.3324  153.9953 H   0  0  0  0  0  0  0  0  0  0  0  0
  145.2444  138.9678  151.4770 H   0  0  0  0  0  0  0  0  0  0  0  0
  144.3384  136.7360  150.8631 H   0  0  0  0  0  0  0  0  0  0  0  0
  145.5213  135.9495  151.9044 H   0  0  0  0  0  0  0  0  0  0  0  0
  146.0499  136.8386  150.4770 H   0  0  0  0  0  0  0  0  0  0  0  0
  147.4727  137.5461  152.3209 H   0  0  0  0  0  0  0  0  0  0  0  0
  148.9843  138.1913  153.3706 H   0  0  0  0  0  0  0  0  0  0  0  0
  150.9911  138.3580  154.9993 H   0  0  0  0  0  0  0  0  0  0  0  0
  152.2816  139.8997  156.4048 H   0  0  0  0  0  0  0  0  0  0  0  0
  151.6886  144.2566  155.9379 H   0  0  0  0  0  0  0  0  0  0  0  0
  150.3078  144.1224  157.0385 H   0  0  0  0  0  0  0  0  0  0  0  0
  153.2309  144.5888  157.7317 H   0  0  0  0  0  0  0  0  0  0  0  0
  151.8315  145.4550  158.3709 H   0  0  0  0  0  0  0  0  0  0  0  0
  152.9337  143.4397  159.8363 H   0  0  0  0  0  0  0  0  0  0  0  0
  151.1794  143.5600  159.7105 H   0  0  0  0  0  0  0  0  0  0  0  0
  151.3330  141.3945  158.8601 H   0  0  0  0  0  0  0  0  0  0  0  0
  152.9920  141.6217  158.2901 H   0  0  0  0  0  0  0  0  0  0  0  0
  148.0533  141.5006  154.4962 H   0  0  0  0  0  0  0  0  0  0  0  0
  1  2  1  0  0  0  0
  1 21  1  0  0  0  0
  1 22  1  0  0  0  0
  1 23  1  0  0  0  0
  2  3  1  0  0  0  0
  3  4  1  0  0  0  0
  3 24  1  0  0  0  0
  3 25  1  0  0  0  0
  4  5  1  0  0  0  0
  4  6  1  0  0  0  0
  4 26  1  0  0  0  0
  5 27  1  0  0  0  0
  5 28  1  0  0  0  0
  5 29  1  0  0  0  0
  6  7  1  0  0  0  0
  6 30  1  0  0  0  0
  7  8  2  0  0  0  0
  7  9  1  0  0  0  0
  9 10  1  0  0  0  0
  9 31  1  0  0  0  0
 10 20  1  0  0  0  0
 10 11  2  0  0  0  0
 11 12  1  0  0  0  0
 11 32  1  0  0  0  0
 12 13  2  0  0  0  0
 12 33  1  0  0  0  0
 13 14  1  0  0  0  0
 13 19  1  0  0  0  0
 14 18  1  0  0  0  0
 14 15  1  0  0  0  0
 15 16  1  0  0  0  0
 15 34  1  0  0  0  0
 15 35  1  0  0  0  0
 16 17  1  0  0  0  0
 16 36  1  0  0  0  0
 16 37  1  0  0  0  0
 17 18  1  0  0  0  0
 17 38  1  0  0  0  0
 17 39  1  0  0  0  0
 18 40  1  0  0  0  0
 18 41  1  0  0  0  0
 19 20  2  0  0  0  0
 20 42  1  0  0  0  0
M  END
> <s_m_source_file>
AV-unprocessed.smi

> <i_m_source_file_index>
1045

> <i_lp_mmshare_version>
43012

> <i_f3d_flags>
0

> <s_epik_input>
W0NIM11PW0NIMl1bQ0BIXShbQ0gzXSlbTkhdQyg9TylbTkhdYzFbY0hdW2NIXWMobltjSF0xKU4yW0NIMl1bQ0gyXVtDSDJdW0NIMl0y

> <s_epik_cmdline>
J2VwaWtfcHl0aG9uJywgJy1waCcsICc3LjAnLCAnLXRuJywgJzgnLCAnLW1hJywgJzIwMCcsICctbWV0YWxfYmluZGluZycsICctaW1hZScsICc8aW5maWxlLm1hZT4nLCAnLW9tYWUnLCAnPG91dGZpbGUubWFlPic=

> <r_lp_tautomer_probability>
1

> <r_epik_Ionization_Penalty>
0.10064

> <r_epik_Ionization_Penalty_Charging>
0

> <r_epik_Ionization_Penalty_Neutral>
0.10064

> <r_epik_State_Penalty>
0.0900987

> <r_epik_Charging_Adjusted_Penalty>
0.0900987

> <i_epik_Tot_Q>
0

> <i_epik_Tot_abs_Q>
0

> <r_epik_Metal_State_Penalty>
0.076945

> <b_epik_Metal_Only>
0

> <s_lp_Force_Field>
OPLS_2005

> <r_lp_Energy>
28.0744

> <b_lp_Chiralities_Consistent>
1

> <s_lp_Variant>
AV-unprocessed.smi:1045-1

> <Gold.Version>
5.8.1

> <Gold.Id.Protein>
6NUR|6NUR_protein|mol2

> <Gold.PLP.Fitness>
40.3630

> <Gold.PLP.PLP>
-36.3923

> <Gold.PLP.part.hbond>
-2.9911

> <Gold.PLP.part.metal>
0.0000

> <Gold.PLP.part.buried>
0.5177

> <Gold.PLP.part.nonpolar>
-36.1228

> <Gold.PLP.part.repulsive>
0.7171

> <Gold.PLP.ligand.clash>
0.0000

> <Gold.PLP.ligand.torsion>
0.7235

> <Gold.PLP.Chemscore.Hbond>
1.7293

> <Gold.PLP.Chemscore.CHOScore>
0.0000

> <Gold.PLP.Chemscore.Metal>
0.0000

> <Gold.Chemscore.Hbonds>
donor molecule, donor type, donor heavy atom, donor atom, acceptor molecule, acceptor atom, score
      L1  H     6    30       P1  7948  1.00

> <Gold.PLP.Chemscore.Internal.Correction>
0.2298

> <Gold.Rescore>
     Score         DG    S(hbond)    S(metal)    S(lipo)     H(rot)  DE(clash)    DE(int)     intcor
     13.82     -17.84       1.51        0.00      93.45       1.41       1.90       2.12       ----

> <Gold.Chemscore.Fitness>
13.8233

> <Gold.Chemscore.DG>
-17.8392

> <Gold.Chemscore.ZeroCoef>
-5.4800

> <Gold.Chemscore.Hbond>
1.5064

> <Gold.Chemscore.Metal>
0.0000

> <Gold.Chemscore.Lipo>
93.4514

> <Gold.Chemscore.Internal_Hbond>
0.0000

> <Gold.Chemscore.DEClash>
1.8975

> <Gold.Chemscore.DEInternal>
2.1184

> <Gold.Chemscore.Rot>
1.4086

> <Gold.Chemscore.Internal.Correction>
   9.000000E+99

> <Gold.Chemscore.Hbonds>
donor molecule, donor type, donor heavy atom, donor atom, acceptor molecule, acceptor atom, score
      L1  H     6    30       P1  7948  0.94
      L1  H     9    31       P1  7948  0.04

> <Gold.Chemscore.Hbond.Weighted>
-5.0314

> <Gold.Chemscore.Metal.Weighted>
-0.0000

> <Gold.Chemscore.Lipo.Weighted>
-10.9338

> <Gold.Chemscore.Internal_Hbond.Weighted>
0.0000

> <Gold.Chemscore.DEClash.Weighted>
1.8975

> <Gold.Chemscore.DEInternal.Weighted>
2.1184

> <Gold.Chemscore.Rot.Weighted>
3.6060

> <Gold.Chemscore.Internal.Correction.Weighted>
   9.000000E+99

> <Gold.Protein.RotatedTorsions>
[ 6907 6896 6895 6894 ] final  134.08 input  -60.11 | X-H torsion
[ 7974 7965 7964 7962 ] final  110.51 input  175.53 | X-H torsion
[ 8008 7997 7996 7995 ] final  -39.67 input   59.86 | X-H torsion
[ 10167 10162 10161 10158 ] final -129.11 input  -65.29 | X-H torsion
[ 10718 10713 10712 10709 ] final -142.68 input   66.30 | X-H torsion
[ 10763 10752 10751 10750 ] final  -84.43 input  -60.55 | X-H torsion
[ 11005 11000 10999 10996 ] final   31.17 input  -57.11 | X-H torsion

> <Gold.Protein.ActiveResidues>
 VAL166  LYS551  ARG553  GLY616  TRP617  ASP618  TYR619  PRO620  LYS621  CYS622 
 ASP623  PHE694  ASN695  SER759  ASP760  ASP761  ALA762  ILE779  LEU786  VAL792 
 PHE793  MET794  SER795  GLU796  ALA797  LYS798  CYS799  TRP800  GLU811  SER814 

> <Gold.Protein.RotatedAtoms>
  152.3151  133.5794  159.5706 H   0  0  0  0  0  0  0  0  0  0  0  0  # atno 6907 bound_to 6896
  150.7342  134.0094  159.3673 H   0  0  0  0  0  0  0  0  0  0  0  0  # atno 6908 bound_to 6896
  151.7983  135.0716  160.0448 H   0  0  0  0  0  0  0  0  0  0  0  0  # atno 6909 bound_to 6896
  145.2540  139.2728  143.4052 H   0  0  0  0  0  0  0  0  0  0  0  0  # atno 7974 bound_to 7965
  154.4020  140.1545  156.2901 H   0  0  0  0  0  0  0  0  0  0  0  0  # atno 8008 bound_to 7997
  155.8793  140.3444  155.5854 H   0  0  0  0  0  0  0  0  0  0  0  0  # atno 8009 bound_to 7997
  155.7686  140.0827  157.2110 H   0  0  0  0  0  0  0  0  0  0  0  0  # atno 8010 bound_to 7997
  139.9432  143.6139  152.2497 H   0  0  0  0  0  0  0  0  0  0  0  0  # atno 10167 bound_to 10162
  156.3488  130.7677  151.1826 H   0  0  0  0  0  0  0  0  0  0  0  0  # atno 10718 bound_to 10713
  154.5994  135.5521  153.7358 H   0  0  0  0  0  0  0  0  0  0  0  0  # atno 10763 bound_to 10752
  153.0148  135.6362  154.1736 H   0  0  0  0  0  0  0  0  0  0  0  0  # atno 10764 bound_to 10752
  154.1676  135.2894  155.3070 H   0  0  0  0  0  0  0  0  0  0  0  0  # atno 10765 bound_to 10752
  140.2866  134.2911  155.7786 H   0  0  0  0  0  0  0  0  0  0  0  0  # atno 11005 bound_to 11000
  146.3294  140.2939  142.8617 LP  0  0  0  0  0  0  0  0  0  0  0  0  # atno 17320 bound_to 7965
  144.9477  140.8146  143.5591 LP  0  0  0  0  0  0  0  0  0  0  0  0  # atno 17321 bound_to 7965
  139.6687  144.7661  151.1823 LP  0  0  0  0  0  0  0  0  0  0  0  0  # atno 17342 bound_to 10162
  140.7605  143.5897  150.8809 LP  0  0  0  0  0  0  0  0  0  0  0  0  # atno 17343 bound_to 10162
  157.7458  131.0433  150.4739 LP  0  0  0  0  0  0  0  0  0  0  0  0  # atno 17370 bound_to 10713
  156.4931  130.4100  149.6395 LP  0  0  0  0  0  0  0  0  0  0  0  0  # atno 17371 bound_to 10713
  141.2153  133.7559  156.9562 LP  0  0  0  0  0  0  0  0  0  0  0  0  # atno 17394 bound_to 11000
  140.1234  134.9403  157.2235 LP  0  0  0  0  0  0  0  0  0  0  0  0  # atno 17395 bound_to 11000

$$$$
