AV-unprocessed.smi:228|AV-procd|sdf|1743|dock5
  -GOLD-   2262020253D 1   1.00000     0.00000
 Structure written by MMmdl.
 60 63  0  0  0  0  0  0  0  0  2 V2000
  149.3590  130.5475  156.4287 C   0  0  0  0  0  0  0  0  0  0  0  0
  149.3916  130.1895  155.0152 N   0  0  0  0  0  0  0  0  0  0  0  0
  149.4413  128.7643  154.6800 C   0  0  0  0  0  0  0  0  0  0  0  0
  150.7445  128.0436  155.1006 C   0  0  2  0  0  0  0  0  0  0  0  0
  151.7859  128.6101  154.3341 O   0  0  0  0  0  0  0  0  0  0  0  0
  150.7453  126.5218  154.8294 C   0  0  0  0  0  0  0  0  0  0  0  0
  151.8445  126.0817  153.9304 N   0  3  0  0  0  0  0  0  0  0  0  0
  153.1325  125.9385  154.6500 C   0  0  0  0  0  0  0  0  0  0  0  0
  154.2516  125.5100  153.6862 C   0  0  0  0  0  0  0  0  0  0  0  0
  153.8879  124.2951  153.0442 O   0  0  0  0  0  0  0  0  0  0  0  0
  152.7083  124.4413  152.2653 C   0  0  0  0  0  0  0  0  0  0  0  0
  151.5312  124.8440  153.1707 C   0  0  0  0  0  0  0  0  0  0  0  0
  148.7213  131.0545  154.2112 C   0  0  0  0  0  0  0  0  0  0  0  0
  148.9724  132.3881  154.2820 N   0  0  0  0  0  0  0  0  0  0  0  0
  148.2976  133.2441  153.5090 C   0  0  0  0  0  0  0  0  0  0  0  0
  147.3395  132.9847  152.6177 N   0  0  0  0  0  0  0  0  0  0  0  0
  147.0859  131.6476  152.5372 C   0  0  0  0  0  0  0  0  0  0  0  0
  147.7338  130.6226  153.2820 C   0  0  0  0  0  0  0  0  0  0  0  0
  147.2129  129.3828  152.9325 N   0  0  0  0  0  0  0  0  0  0  0  0
  146.3166  129.6577  152.0248 C   0  0  0  0  0  0  0  0  0  0  0  0
  146.1462  130.9972  151.7567 N   0  0  0  0  0  0  0  0  0  0  0  0
  145.2459  131.5770  150.8038 C   0  0  0  0  0  0  0  0  0  0  0  0
  145.6444  132.8242  150.0098 C   0  0  0  0  0  0  0  0  0  0  0  0
  144.1944  133.3509  150.0827 C   0  0  0  0  0  0  0  0  0  0  0  0
  144.0558  134.8300  150.4758 C   0  0  0  0  0  0  0  0  0  0  0  0
  144.7619  135.6701  149.5855 O   0  0  0  0  0  0  0  0  0  0  0  0
  143.3004  133.1243  148.8427 C   0  0  0  0  0  0  0  0  0  0  0  0
  143.5375  134.0531  147.8044 O   0  0  0  0  0  0  0  0  0  0  0  0
  144.0075  132.3598  151.2535 C   0  0  0  0  0  0  0  0  0  0  0  0
  150.2063  131.1873  156.6759 H   0  0  0  0  0  0  0  0  0  0  0  0
  149.4153  129.6627  157.0635 H   0  0  0  0  0  0  0  0  0  0  0  0
  148.4409  131.0781  156.6859 H   0  0  0  0  0  0  0  0  0  0  0  0
  148.5964  128.2688  155.1602 H   0  0  0  0  0  0  0  0  0  0  0  0
  149.2838  128.6533  153.6060 H   0  0  0  0  0  0  0  0  0  0  0  0
  150.9946  128.2536  156.1381 H   0  0  0  0  0  0  0  0  0  0  0  0
  151.6358  128.4070  153.4231 H   0  0  0  0  0  0  0  0  0  0  0  0
  150.8142  125.9987  155.7847 H   0  0  0  0  0  0  0  0  0  0  0  0
  149.7974  126.2124  154.3854 H   0  0  0  0  0  0  0  0  0  0  0  0
  153.3993  126.8853  155.1208 H   0  0  0  0  0  0  0  0  0  0  0  0
  153.0253  125.2012  155.4474 H   0  0  0  0  0  0  0  0  0  0  0  0
  154.4491  126.2848  152.9447 H   0  0  0  0  0  0  0  0  0  0  0  0
  155.1796  125.3538  154.2359 H   0  0  0  0  0  0  0  0  0  0  0  0
  152.8701  125.1773  151.4786 H   0  0  0  0  0  0  0  0  0  0  0  0
  152.4927  123.4947  151.7698 H   0  0  0  0  0  0  0  0  0  0  0  0
  151.3107  124.0338  153.8674 H   0  0  0  0  0  0  0  0  0  0  0  0
  150.6441  124.9856  152.5547 H   0  0  0  0  0  0  0  0  0  0  0  0
  148.5578  134.2860  153.6258 H   0  0  0  0  0  0  0  0  0  0  0  0
  145.7406  128.8850  151.5363 H   0  0  0  0  0  0  0  0  0  0  0  0
  144.9662  130.7660  150.1304 H   0  0  0  0  0  0  0  0  0  0  0  0
  146.3508  133.4533  150.5547 H   0  0  0  0  0  0  0  0  0  0  0  0
  146.0061  132.6177  149.0020 H   0  0  0  0  0  0  0  0  0  0  0  0
  143.0093  135.1361  150.4973 H   0  0  0  0  0  0  0  0  0  0  0  0
  144.4488  135.0055  151.4777 H   0  0  0  0  0  0  0  0  0  0  0  0
  145.0459  135.1544  148.8463 H   0  0  0  0  0  0  0  0  0  0  0  0
  143.4540  132.1255  148.4330 H   0  0  0  0  0  0  0  0  0  0  0  0
  142.2444  133.1942  149.1048 H   0  0  0  0  0  0  0  0  0  0  0  0
  144.4658  134.0767  147.6286 H   0  0  0  0  0  0  0  0  0  0  0  0
  143.0802  131.7864  151.2267 H   0  0  0  0  0  0  0  0  0  0  0  0
  144.1436  132.8288  152.2294 H   0  0  0  0  0  0  0  0  0  0  0  0
  151.9801  126.8208  153.2550 H   0  0  0  0  0  0  0  0  0  0  0  0
  1  2  1  0  0  0  0
  1 30  1  0  0  0  0
  1 31  1  0  0  0  0
  1 32  1  0  0  0  0
  2  3  1  0  0  0  0
  2 13  1  0  0  0  0
  3  4  1  0  0  0  0
  3 33  1  0  0  0  0
  3 34  1  0  0  0  0
  4  5  1  0  0  0  0
  4  6  1  0  0  0  0
  4 35  1  0  0  0  0
  5 36  1  0  0  0  0
  6  7  1  0  0  0  0
  6 37  1  0  0  0  0
  6 38  1  0  0  0  0
  7 12  1  0  0  0  0
  7  8  1  0  0  0  0
  7 60  1  0  0  0  0
  8  9  1  0  0  0  0
  8 39  1  0  0  0  0
  8 40  1  0  0  0  0
  9 10  1  0  0  0  0
  9 41  1  0  0  0  0
  9 42  1  0  0  0  0
 10 11  1  0  0  0  0
 11 12  1  0  0  0  0
 11 43  1  0  0  0  0
 11 44  1  0  0  0  0
 12 45  1  0  0  0  0
 12 46  1  0  0  0  0
 13 18  1  0  0  0  0
 13 14  2  0  0  0  0
 14 15  1  0  0  0  0
 15 16  2  0  0  0  0
 15 47  1  0  0  0  0
 16 17  1  0  0  0  0
 17 21  1  0  0  0  0
 17 18  2  0  0  0  0
 18 19  1  0  0  0  0
 19 20  2  0  0  0  0
 20 21  1  0  0  0  0
 20 48  1  0  0  0  0
 21 22  1  0  0  0  0
 22 29  1  0  0  0  0
 22 23  1  0  0  0  0
 22 49  1  0  0  0  0
 23 24  1  0  0  0  0
 23 50  1  0  0  0  0
 23 51  1  0  0  0  0
 24 25  1  0  0  0  0
 24 27  1  0  0  0  0
 24 29  1  0  0  0  0
 25 26  1  0  0  0  0
 25 52  1  0  0  0  0
 25 53  1  0  0  0  0
 26 54  1  0  0  0  0
 27 28  1  0  0  0  0
 27 55  1  0  0  0  0
 27 56  1  0  0  0  0
 28 57  1  0  0  0  0
 29 58  1  0  0  0  0
 29 59  1  0  0  0  0
M  CHG  1   7   1
M  END
> <s_m_source_file>
AV-unprocessed.smi

> <i_m_source_file_index>
228

> <i_lp_mmshare_version>
43012

> <i_f3d_flags>
0

> <s_epik_input>
W0NIMl0xW0NIMl1PW0NIMl1bQ0gyXU4xW0NIMl1bQ0BASF0oW09IXSlbQ0gyXU4oW0NIM10pYyhuW2NIXW4yKWMoYzIzKW5bY0hdbjNbQ0hdKFtDSDJdNClbQ0gyXUM0KFtDSDJdW09IXSlbQ0gyXVtPSF0=

> <s_epik_cmdline>
J2VwaWtfcHl0aG9uJywgJy1waCcsICc3LjAnLCAnLXRuJywgJzgnLCAnLW1hJywgJzIwMCcsICctbWV0YWxfYmluZGluZycsICctaW1hZScsICc8aW5maWxlLm1hZT4nLCAnLW9tYWUnLCAnPG91dGZpbGUubWFlPic=

> <r_lp_tautomer_probability>
1

> <r_epik_Ionization_Penalty>
0.403032

> <r_epik_Ionization_Penalty_Charging>
0.40072

> <r_epik_Ionization_Penalty_Neutral>
0.00231206

> <r_epik_State_Penalty>
0.387266

> <r_epik_Charging_Adjusted_Penalty>
0.787986

> <i_epik_Tot_Q>
1

> <i_epik_Tot_abs_Q>
1

> <r_epik_Metal_State_Penalty>
0.385845

> <b_epik_Metal_Only>
0

> <s_lp_Force_Field>
OPLS_2005

> <r_lp_Energy>
45.878

> <b_lp_Chiralities_Consistent>
1

> <s_lp_Variant>
AV-unprocessed.smi:228-1

> <Gold.Version>
5.8.1

> <Gold.Id.Protein>
6NUR|6NUR_protein|mol2

> <Gold.PLP.Fitness>
58.6998

> <Gold.PLP.PLP>
-44.9476

> <Gold.PLP.part.hbond>
-7.7372

> <Gold.PLP.part.metal>
0.0000

> <Gold.PLP.part.buried>
-0.3210

> <Gold.PLP.part.nonpolar>
-37.0791

> <Gold.PLP.part.repulsive>
0.3964

> <Gold.PLP.ligand.clash>
0.0000

> <Gold.PLP.ligand.torsion>
2.5639

> <Gold.PLP.Chemscore.Hbond>
4.9760

> <Gold.PLP.Chemscore.CHOScore>
0.9451

> <Gold.PLP.Chemscore.Metal>
0.0000

> <Gold.Chemscore.Hbonds>
donor molecule, donor type, donor heavy atom, donor atom, acceptor molecule, acceptor atom, score
      L1  H     5    36       P1 10737  1.00
      L1  H     7    60       P1 10737  1.00
      L1  H    26    54       P1  7921  1.00
      L1  H    28    57       P1  7921  1.00
      P1  H 10192 10197       L1    28  1.00
      L1  C    15    47       P1  7948  0.78

> <Gold.PLP.Chemscore.Internal.Correction>
1.1167

> <Gold.Rescore>
     Score         DG    S(hbond)    S(metal)    S(lipo)     H(rot)  DE(clash)    DE(int)     intcor
     13.25     -18.78       4.95        0.00      76.90       4.77       1.66       3.87       ----

> <Gold.Chemscore.Fitness>
13.2466

> <Gold.Chemscore.DG>
-18.7813

> <Gold.Chemscore.ZeroCoef>
-5.4800

> <Gold.Chemscore.Hbond>
4.9477

> <Gold.Chemscore.Metal>
0.0000

> <Gold.Chemscore.Lipo>
76.8953

> <Gold.Chemscore.Internal_Hbond>
0.0000

> <Gold.Chemscore.DEClash>
1.6605

> <Gold.Chemscore.DEInternal>
3.8742

> <Gold.Chemscore.Rot>
4.7738

> <Gold.Chemscore.Internal.Correction>
   9.000000E+99

> <Gold.Chemscore.Hbonds>
donor molecule, donor type, donor heavy atom, donor atom, acceptor molecule, acceptor atom, score
      L1  H     5    36       P1 10737  0.94
      L1  H     7    60       P1 10737  1.00
      L1  H    26    54       P1  7921  0.95
      L1  H    28    57       P1  7921  0.98
      P1  H 10192 10197       L1    28  0.94

> <Gold.Chemscore.Hbond.Weighted>
-16.5254

> <Gold.Chemscore.Metal.Weighted>
-0.0000

> <Gold.Chemscore.Lipo.Weighted>
-8.9968

> <Gold.Chemscore.Internal_Hbond.Weighted>
0.0000

> <Gold.Chemscore.DEClash.Weighted>
1.6605

> <Gold.Chemscore.DEInternal.Weighted>
3.8742

> <Gold.Chemscore.Rot.Weighted>
12.2208

> <Gold.Chemscore.Internal.Correction.Weighted>
   9.000000E+99

> <Gold.Protein.RotatedTorsions>
[ 6907 6896 6895 6894 ] final    6.79 input  -60.11 | X-H torsion
[ 7974 7965 7964 7962 ] final   74.91 input  175.53 | X-H torsion
[ 8008 7997 7996 7995 ] final  114.67 input   59.86 | X-H torsion
[ 10167 10162 10161 10158 ] final   28.06 input  -65.29 | X-H torsion
[ 10718 10713 10712 10709 ] final -128.42 input   66.30 | X-H torsion
[ 10763 10752 10751 10750 ] final -110.50 input  -60.55 | X-H torsion
[ 11005 11000 10999 10996 ] final -159.53 input  -57.11 | X-H torsion

> <Gold.Protein.ActiveResidues>
 VAL166  LYS551  ARG553  GLY616  TRP617  ASP618  TYR619  PRO620  LYS621  CYS622 
 ASP623  PHE694  ASN695  SER759  ASP760  ASP761  ALA762  ILE779  LEU786  VAL792 
 PHE793  MET794  SER795  GLU796  ALA797  LYS798  CYS799  TRP800  GLU811  SER814 

> <Gold.Protein.RotatedAtoms>
  151.6793  135.0964  160.0212 H   0  0  0  0  0  0  0  0  0  0  0  0  # atno 6907 bound_to 6896
  152.3845  133.6587  159.6196 H   0  0  0  0  0  0  0  0  0  0  0  0  # atno 6908 bound_to 6896
  150.7774  133.8975  159.3373 H   0  0  0  0  0  0  0  0  0  0  0  0  # atno 6909 bound_to 6896
  145.7223  139.2653  143.1589 H   0  0  0  0  0  0  0  0  0  0  0  0  # atno 7974 bound_to 7965
  156.2335  140.2954  156.0251 H   0  0  0  0  0  0  0  0  0  0  0  0  # atno 8008 bound_to 7997
  155.2157  140.0414  157.2958 H   0  0  0  0  0  0  0  0  0  0  0  0  # atno 8009 bound_to 7997
  154.6037  140.2434  155.7766 H   0  0  0  0  0  0  0  0  0  0  0  0  # atno 8010 bound_to 7997
  140.4885  144.0504  150.6289 H   0  0  0  0  0  0  0  0  0  0  0  0  # atno 10167 bound_to 10162
  156.1950  130.6820  151.0470 H   0  0  0  0  0  0  0  0  0  0  0  0  # atno 10718 bound_to 10713
  154.8251  135.4562  154.0895 H   0  0  0  0  0  0  0  0  0  0  0  0  # atno 10763 bound_to 10752
  153.2216  135.6894  153.8000 H   0  0  0  0  0  0  0  0  0  0  0  0  # atno 10764 bound_to 10752
  153.7415  135.3311  155.3281 H   0  0  0  0  0  0  0  0  0  0  0  0  # atno 10765 bound_to 10752
  140.6415  134.4546  157.5233 H   0  0  0  0  0  0  0  0  0  0  0  0  # atno 11005 bound_to 11000
  146.0614  140.7966  142.9733 LP  0  0  0  0  0  0  0  0  0  0  0  0  # atno 17320 bound_to 7965
  144.6913  140.3202  143.7233 LP  0  0  0  0  0  0  0  0  0  0  0  0  # atno 17321 bound_to 7965
  140.3766  143.2825  152.0218 LP  0  0  0  0  0  0  0  0  0  0  0  0  # atno 17342 bound_to 10162
  139.4846  144.6188  151.7295 LP  0  0  0  0  0  0  0  0  0  0  0  0  # atno 17343 bound_to 10162
  157.6952  131.0796  150.6991 LP  0  0  0  0  0  0  0  0  0  0  0  0  # atno 17370 bound_to 10713
  156.7047  130.4634  149.5563 LP  0  0  0  0  0  0  0  0  0  0  0  0  # atno 17371 bound_to 10713
  139.9078  134.8410  156.1639 LP  0  0  0  0  0  0  0  0  0  0  0  0  # atno 17394 bound_to 11000
  141.0603  133.6845  156.1940 LP  0  0  0  0  0  0  0  0  0  0  0  0  # atno 17395 bound_to 11000

$$$$
