AV-unprocessed.smi:2156|AV-procd|sdf|8780|dock5
  -GOLD-   2272011563D 1   1.00000     0.00000
 Structure written by MMmdl.
 34 34  0  0  0  0  0  0  0  0  1 V2000
  153.2444  141.9224  161.3753 C   0  0  0  0  0  0  0  0  0  0  0  0
  152.5440  143.0238  160.5725 C   0  0  0  0  0  0  0  0  0  0  0  0
  151.8654  142.4854  159.3009 C   0  0  0  0  0  0  0  0  0  0  0  0
  151.3758  143.5836  158.3356 C   0  0  1  0  0  0  0  0  0  0  0  0
  152.4494  144.6574  158.1117 C   0  0  0  0  0  0  0  0  0  0  0  0
  150.9985  143.0113  157.0441 N   0  0  0  0  0  0  0  0  0  0  0  0
  150.1057  142.0284  156.8464 C   0  0  0  0  0  0  0  0  0  0  0  0
  149.5026  141.4668  157.7619 O   0  0  0  0  0  0  0  0  0  0  0  0
  149.8892  141.6016  155.3877 C   0  0  0  0  0  0  0  0  0  0  0  0
  150.2525  140.1987  155.1404 N   0  0  0  0  0  0  0  0  0  0  0  0
  151.4313  139.6790  155.6562 C   0  0  0  0  0  0  0  0  0  0  0  0
  151.8199  138.3939  155.4795 C   0  0  0  0  0  0  0  0  0  0  0  0
  150.9892  137.4695  154.7152 C   0  0  0  0  0  0  0  0  0  0  0  0
  151.2555  136.2894  154.4989 O   0  0  0  0  0  0  0  0  0  0  0  0
  149.8104  138.0293  154.2151 N   0  0  0  0  0  0  0  0  0  0  0  0
  149.4032  139.3521  154.3950 C   0  0  0  0  0  0  0  0  0  0  0  0
  148.3398  139.7426  153.9143 O   0  0  0  0  0  0  0  0  0  0  0  0
  149.2011  137.4263  153.6817 H   0  0  0  0  0  0  0  0  0  0  0  0
  153.7136  142.3327  162.2697 H   0  0  0  0  0  0  0  0  0  0  0  0
  154.0222  141.4377  160.7845 H   0  0  0  0  0  0  0  0  0  0  0  0
  152.5366  141.1562  161.6924 H   0  0  0  0  0  0  0  0  0  0  0  0
  151.8080  143.5109  161.2124 H   0  0  0  0  0  0  0  0  0  0  0  0
  153.2723  143.7892  160.3020 H   0  0  0  0  0  0  0  0  0  0  0  0
  152.5737  141.8454  158.7732 H   0  0  0  0  0  0  0  0  0  0  0  0
  151.0289  141.8431  159.5800 H   0  0  0  0  0  0  0  0  0  0  0  0
  150.5167  144.0787  158.7920 H   0  0  0  0  0  0  0  0  0  0  0  0
  152.7327  145.1309  159.0521 H   0  0  0  0  0  0  0  0  0  0  0  0
  152.0876  145.4416  157.4460 H   0  0  0  0  0  0  0  0  0  0  0  0
  153.3508  144.2330  157.6681 H   0  0  0  0  0  0  0  0  0  0  0  0
  151.4499  143.4028  156.2301 H   0  0  0  0  0  0  0  0  0  0  0  0
  148.8505  141.7774  155.1002 H   0  0  0  0  0  0  0  0  0  0  0  0
  150.4791  142.2624  154.7508 H   0  0  0  0  0  0  0  0  0  0  0  0
  152.0757  140.3264  156.2339 H   0  0  0  0  0  0  0  0  0  0  0  0
  152.7495  138.0476  155.9076 H   0  0  0  0  0  0  0  0  0  0  0  0
  1  2  1  0  0  0  0
  1 19  1  0  0  0  0
  1 20  1  0  0  0  0
  1 21  1  0  0  0  0
  2  3  1  0  0  0  0
  2 22  1  0  0  0  0
  2 23  1  0  0  0  0
  3  4  1  0  0  0  0
  3 24  1  0  0  0  0
  3 25  1  0  0  0  0
  4  5  1  0  0  0  0
  4  6  1  0  0  0  0
  4 26  1  0  0  0  0
  5 27  1  0  0  0  0
  5 28  1  0  0  0  0
  5 29  1  0  0  0  0
  6  7  1  0  0  0  0
  6 30  1  0  0  0  0
  7  8  2  0  0  0  0
  7  9  1  0  0  0  0
  9 10  1  0  0  0  0
  9 31  1  0  0  0  0
  9 32  1  0  0  0  0
 10 16  1  0  0  0  0
 10 11  1  0  0  0  0
 11 12  2  0  0  0  0
 11 33  1  0  0  0  0
 12 13  1  0  0  0  0
 12 34  1  0  0  0  0
 13 14  2  0  0  0  0
 13 15  1  0  0  0  0
 15 18  1  0  0  0  0
 15 16  1  0  0  0  0
 16 17  2  0  0  0  0
M  END
> <s_m_source_file>
AV-unprocessed.smi

> <i_m_source_file_index>
2156

> <i_lp_mmshare_version>
43012

> <i_f3d_flags>
0

> <s_epik_input>
W0NIM11bQ0gyXVtDSDJdW0NASF0oW0NIM10pW05IXUMoPU8pW0NIMl1uMVtjSF1bY0hdYyg9TylbbkhdYzE9Tw==

> <s_epik_cmdline>
J2VwaWtfcHl0aG9uJywgJy1waCcsICc3LjAnLCAnLXRuJywgJzgnLCAnLW1hJywgJzIwMCcsICctbWV0YWxfYmluZGluZycsICctaW1hZScsICc8aW5maWxlLm1hZT4nLCAnLW9tYWUnLCAnPG91dGZpbGUubWFlPic=

> <r_lp_tautomer_probability>
0.999537

> <r_epik_Ionization_Penalty>
0.00324917

> <r_epik_Ionization_Penalty_Charging>
0.00324916

> <r_epik_Ionization_Penalty_Neutral>
1.93017e-08

> <r_epik_State_Penalty>
0.00229371

> <r_epik_Charging_Adjusted_Penalty>
0.00554286

> <i_epik_Tot_Q>
0

> <i_epik_Tot_abs_Q>
0

> <r_epik_Metal_State_Penalty>
0.364744

> <b_epik_Metal_Only>
0

> <s_lp_Force_Field>
OPLS_2005

> <r_lp_Energy>
3.29576

> <b_lp_Chiralities_Consistent>
1

> <s_lp_Variant>
AV-unprocessed.smi:2156-2

> <Gold.Version>
5.8.1

> <Gold.Id.Protein>
6NUR|6NUR_protein|mol2

> <Gold.PLP.Fitness>
43.5609

> <Gold.PLP.PLP>
-39.0534

> <Gold.PLP.part.hbond>
-2.7160

> <Gold.PLP.part.metal>
0.0000

> <Gold.PLP.part.buried>
-4.1593

> <Gold.PLP.part.nonpolar>
-34.8591

> <Gold.PLP.part.repulsive>
2.2418

> <Gold.PLP.ligand.clash>
0.0000

> <Gold.PLP.ligand.torsion>
0.3022

> <Gold.PLP.Chemscore.Hbond>
1.6988

> <Gold.PLP.Chemscore.CHOScore>
0.0000

> <Gold.PLP.Chemscore.Metal>
0.0000

> <Gold.Chemscore.Hbonds>
donor molecule, donor type, donor heavy atom, donor atom, acceptor molecule, acceptor atom, score
      L1  H    15    18       P1  7948  0.58
      P1  H 10752 10763       L1    14  1.00

> <Gold.PLP.Chemscore.Internal.Correction>
0.0157

> <Gold.Rescore>
     Score         DG    S(hbond)    S(metal)    S(lipo)     H(rot)  DE(clash)    DE(int)     intcor
     13.22     -14.68       1.59        0.00      81.20       2.19       0.31       1.15       ----

> <Gold.Chemscore.Fitness>
13.2178

> <Gold.Chemscore.DG>
-14.6823

> <Gold.Chemscore.ZeroCoef>
-5.4800

> <Gold.Chemscore.Hbond>
1.5930

> <Gold.Chemscore.Metal>
0.0000

> <Gold.Chemscore.Lipo>
81.2008

> <Gold.Chemscore.Internal_Hbond>
0.0000

> <Gold.Chemscore.DEClash>
0.3105

> <Gold.Chemscore.DEInternal>
1.1540

> <Gold.Chemscore.Rot>
2.1949

> <Gold.Chemscore.Internal.Correction>
   9.000000E+99

> <Gold.Chemscore.Hbonds>
donor molecule, donor type, donor heavy atom, donor atom, acceptor molecule, acceptor atom, score
      L1  H    15    18       P1  7948  0.57
      P1  H 10752 10763       L1    14  1.00

> <Gold.Chemscore.Hbond.Weighted>
-5.3206

> <Gold.Chemscore.Metal.Weighted>
-0.0000

> <Gold.Chemscore.Lipo.Weighted>
-9.5005

> <Gold.Chemscore.Internal_Hbond.Weighted>
0.0000

> <Gold.Chemscore.DEClash.Weighted>
0.3105

> <Gold.Chemscore.DEInternal.Weighted>
1.1540

> <Gold.Chemscore.Rot.Weighted>
5.6188

> <Gold.Chemscore.Internal.Correction.Weighted>
   9.000000E+99

> <Gold.Protein.RotatedTorsions>
[ 6907 6896 6895 6894 ] final  107.68 input  -60.11 | X-H torsion
[ 7974 7965 7964 7962 ] final   -1.31 input  175.53 | X-H torsion
[ 8008 7997 7996 7995 ] final -129.32 input   59.86 | X-H torsion
[ 10167 10162 10161 10158 ] final  156.69 input  -65.29 | X-H torsion
[ 10718 10713 10712 10709 ] final  -22.37 input   66.30 | X-H torsion
[ 10763 10752 10751 10750 ] final   55.55 input  -60.55 | X-H torsion
[ 11005 11000 10999 10996 ] final   27.63 input  -57.11 | X-H torsion

> <Gold.Protein.ActiveResidues>
 VAL166  LYS551  ARG553  GLY616  TRP617  ASP618  TYR619  PRO620  LYS621  CYS622 
 ASP623  PHE694  ASN695  SER759  ASP760  ASP761  ALA762  ILE779  LEU786  VAL792 
 PHE793  MET794  SER795  GLU796  ALA797  LYS798  CYS799  TRP800  GLU811  SER814 

> <Gold.Protein.RotatedAtoms>
  152.5144  133.9200  159.7529 H   0  0  0  0  0  0  0  0  0  0  0  0  # atno 6907 bound_to 6896
  150.9573  133.6474  159.2767 H   0  0  0  0  0  0  0  0  0  0  0  0  # atno 6908 bound_to 6896
  151.3732  135.0931  159.9525 H   0  0  0  0  0  0  0  0  0  0  0  0  # atno 6909 bound_to 6896
  146.2418  140.1401  142.8336 H   0  0  0  0  0  0  0  0  0  0  0  0  # atno 7974 bound_to 7965
  155.2773  140.0442  157.3012 H   0  0  0  0  0  0  0  0  0  0  0  0  # atno 8008 bound_to 7997
  154.5618  140.2348  155.8292 H   0  0  0  0  0  0  0  0  0  0  0  0  # atno 8009 bound_to 7997
  156.2053  140.3014  155.9621 H   0  0  0  0  0  0  0  0  0  0  0  0  # atno 8010 bound_to 7997
  139.4821  144.4986  151.8203 H   0  0  0  0  0  0  0  0  0  0  0  0  # atno 10167 bound_to 10162
  156.5054  130.4597  149.6677 H   0  0  0  0  0  0  0  0  0  0  0  0  # atno 10718 bound_to 10713
  152.9818  135.5707  154.5086 H   0  0  0  0  0  0  0  0  0  0  0  0  # atno 10763 bound_to 10752
  154.4593  135.2781  155.1726 H   0  0  0  0  0  0  0  0  0  0  0  0  # atno 10764 bound_to 10752
  154.3321  135.6247  153.5609 H   0  0  0  0  0  0  0  0  0  0  0  0  # atno 10765 bound_to 10752
  140.3242  134.2509  155.7712 H   0  0  0  0  0  0  0  0  0  0  0  0  # atno 11005 bound_to 11000
  145.0254  140.8827  143.5142 LP  0  0  0  0  0  0  0  0  0  0  0  0  # atno 17320 bound_to 7965
  145.1456  139.2545  143.5467 LP  0  0  0  0  0  0  0  0  0  0  0  0  # atno 17321 bound_to 7965
  140.4477  144.1899  150.5895 LP  0  0  0  0  0  0  0  0  0  0  0  0  # atno 17342 bound_to 10162
  140.4618  143.2446  151.9210 LP  0  0  0  0  0  0  0  0  0  0  0  0  # atno 17343 bound_to 10162
  156.3292  130.7322  151.2248 LP  0  0  0  0  0  0  0  0  0  0  0  0  # atno 17370 bound_to 10713
  157.7457  131.0434  150.4744 LP  0  0  0  0  0  0  0  0  0  0  0  0  # atno 17371 bound_to 10713
  141.2079  133.7792  157.0090 LP  0  0  0  0  0  0  0  0  0  0  0  0  # atno 17394 bound_to 11000
  140.0915  134.9589  157.1784 LP  0  0  0  0  0  0  0  0  0  0  0  0  # atno 17395 bound_to 11000

$$$$
