AV-unprocessed.smi:373|AV-procd|sdf|2449|dock7
  -GOLD-   2262022383D 1   1.00000     0.00000
 Structure written by MMmdl.
 40 41  0  0  0  0  0  0  0  0  1 V2000
  151.8499  145.3426  159.5296 C   0  0  0  0  0  0  0  0  0  0  0  0
  152.4982  144.7038  158.2965 C   0  0  0  0  0  0  0  0  0  0  0  0
  151.5804  143.6877  157.6081 C   0  0  0  0  0  0  0  0  0  0  0  0
  150.9131  142.9286  158.6053 O   0  0  0  0  0  0  0  0  0  0  0  0
  150.8759  141.5306  158.3520 C   0  0  2  0  0  0  0  0  0  0  0  0
  152.2879  140.9868  158.0517 C   0  0  0  0  0  0  0  0  0  0  0  0
  152.2119  139.5132  157.6210 C   0  0  0  0  0  0  0  0  0  0  0  0
  151.2432  139.3316  156.4409 C   0  0  0  0  0  0  0  0  0  0  0  0
  149.9322  139.8948  156.7550 N   0  0  0  0  0  0  0  0  0  0  0  0
  148.9327  139.5104  155.8422 C   0  0  0  0  0  0  0  0  0  0  0  0
  148.9631  140.0616  154.6047 N   0  0  0  0  0  0  0  0  0  0  0  0
  148.0275  139.6932  153.7045 C   0  0  0  0  0  0  0  0  0  0  0  0
  147.0146  138.7488  153.9761 C   0  0  0  0  0  0  0  0  0  0  0  0
  145.9930  138.4023  152.9320 C   0  0  0  0  0  0  0  0  0  0  0  0
  145.9500  139.1999  151.8603 N   0  0  0  0  0  0  0  0  0  0  0  0
  145.2096  137.4682  153.0902 O   0  0  0  0  0  0  0  0  0  0  0  0
  146.9745  138.1864  155.2711 C   0  0  0  0  0  0  0  0  0  0  0  0
  147.9456  138.5656  156.2183 C   0  0  0  0  0  0  0  0  0  0  0  0
  147.8849  137.8909  157.8101 Cl  0  0  0  0  0  0  0  0  0  0  0  0
  149.9520  141.3052  157.1422 C   0  0  0  0  0  0  0  0  0  0  0  0
  152.5290  146.0533  160.0010 H   0  0  0  0  0  0  0  0  0  0  0  0
  151.5884  144.5887  160.2725 H   0  0  0  0  0  0  0  0  0  0  0  0
  150.9398  145.8796  159.2612 H   0  0  0  0  0  0  0  0  0  0  0  0
  152.7725  145.4856  157.5874 H   0  0  0  0  0  0  0  0  0  0  0  0
  153.4268  144.2133  158.5898 H   0  0  0  0  0  0  0  0  0  0  0  0
  150.8633  144.2084  156.9732 H   0  0  0  0  0  0  0  0  0  0  0  0
  152.1686  143.0268  156.9697 H   0  0  0  0  0  0  0  0  0  0  0  0
  150.4504  141.0049  159.2092 H   0  0  0  0  0  0  0  0  0  0  0  0
  152.7466  141.5760  157.2566 H   0  0  0  0  0  0  0  0  0  0  0  0
  152.9360  141.0790  158.9227 H   0  0  0  0  0  0  0  0  0  0  0  0
  153.2031  139.1503  157.3483 H   0  0  0  0  0  0  0  0  0  0  0  0
  151.8785  138.9042  158.4622 H   0  0  0  0  0  0  0  0  0  0  0  0
  151.6383  139.8306  155.5549 H   0  0  0  0  0  0  0  0  0  0  0  0
  151.1591  138.2730  156.1936 H   0  0  0  0  0  0  0  0  0  0  0  0
  148.0998  140.1670  152.7362 H   0  0  0  0  0  0  0  0  0  0  0  0
  145.2895  139.0177  151.1191 H   0  0  0  0  0  0  0  0  0  0  0  0
  146.5859  139.9817  151.7940 H   0  0  0  0  0  0  0  0  0  0  0  0
  146.2080  137.4767  155.5471 H   0  0  0  0  0  0  0  0  0  0  0  0
  148.9404  141.6344  157.3837 H   0  0  0  0  0  0  0  0  0  0  0  0
  150.2941  141.9081  156.2996 H   0  0  0  0  0  0  0  0  0  0  0  0
  1  2  1  0  0  0  0
  1 21  1  0  0  0  0
  1 22  1  0  0  0  0
  1 23  1  0  0  0  0
  2  3  1  0  0  0  0
  2 24  1  0  0  0  0
  2 25  1  0  0  0  0
  3  4  1  0  0  0  0
  3 26  1  0  0  0  0
  3 27  1  0  0  0  0
  4  5  1  0  0  0  0
  5 20  1  0  0  0  0
  5  6  1  0  0  0  0
  5 28  1  0  0  0  0
  6  7  1  0  0  0  0
  6 29  1  0  0  0  0
  6 30  1  0  0  0  0
  7  8  1  0  0  0  0
  7 31  1  0  0  0  0
  7 32  1  0  0  0  0
  8  9  1  0  0  0  0
  8 33  1  0  0  0  0
  8 34  1  0  0  0  0
  9 10  1  0  0  0  0
  9 20  1  0  0  0  0
 10 18  1  0  0  0  0
 10 11  2  0  0  0  0
 11 12  1  0  0  0  0
 12 13  2  0  0  0  0
 12 35  1  0  0  0  0
 13 14  1  0  0  0  0
 13 17  1  0  0  0  0
 14 15  1  0  0  0  0
 14 16  2  0  0  0  0
 15 36  1  0  0  0  0
 15 37  1  0  0  0  0
 17 18  2  0  0  0  0
 17 38  1  0  0  0  0
 18 19  1  0  0  0  0
 20 39  1  0  0  0  0
 20 40  1  0  0  0  0
M  END
> <s_m_source_file>
AV-unprocessed.smi

> <i_m_source_file_index>
373

> <i_lp_mmshare_version>
43012

> <i_f3d_flags>
0

> <s_epik_input>
W0NIM11bQ0gyXVtDSDJdT1tDQEBIXTFbQ0gyXVtDSDJdW0NIMl1OKFtDSDJdMSljMm5bY0hdYyhDKD1PKVtOSDJdKVtjSF1jMkNs

> <s_epik_cmdline>
J2VwaWtfcHl0aG9uJywgJy1waCcsICc3LjAnLCAnLXRuJywgJzgnLCAnLW1hJywgJzIwMCcsICctbWV0YWxfYmluZGluZycsICctaW1hZScsICc8aW5maWxlLm1hZT4nLCAnLW9tYWUnLCAnPG91dGZpbGUubWFlPic=

> <r_lp_tautomer_probability>
1

> <r_epik_Ionization_Penalty>
3.23666e-05

> <r_epik_Ionization_Penalty_Charging>
0

> <r_epik_Ionization_Penalty_Neutral>
3.23666e-05

> <r_epik_State_Penalty>
-0

> <r_epik_Charging_Adjusted_Penalty>
0

> <i_epik_Tot_Q>
0

> <i_epik_Tot_abs_Q>
0

> <r_epik_Metal_State_Penalty>
-0

> <b_epik_Metal_Only>
0

> <s_lp_Force_Field>
OPLS_2005

> <r_lp_Energy>
19.8682

> <b_lp_Chiralities_Consistent>
1

> <s_lp_Variant>
AV-unprocessed.smi:373-1

> <Gold.Version>
5.8.1

> <Gold.Id.Protein>
6NUR|6NUR_protein|mol2

> <Gold.PLP.Fitness>
33.2474

> <Gold.PLP.PLP>
-28.3406

> <Gold.PLP.part.hbond>
-2.0000

> <Gold.PLP.part.metal>
0.0000

> <Gold.PLP.part.buried>
-4.0691

> <Gold.PLP.part.nonpolar>
-23.7566

> <Gold.PLP.part.repulsive>
0.4386

> <Gold.PLP.ligand.clash>
0.0000

> <Gold.PLP.ligand.torsion>
0.6639

> <Gold.PLP.Chemscore.Hbond>
0.9913

> <Gold.PLP.Chemscore.CHOScore>
0.9953

> <Gold.PLP.Chemscore.Metal>
0.0000

> <Gold.Chemscore.Hbonds>
donor molecule, donor type, donor heavy atom, donor atom, acceptor molecule, acceptor atom, score
      L1  H    15    36       P1 10171  1.00
      L1  C    12    35       P1  7957  1.00

> <Gold.PLP.Chemscore.Internal.Correction>
0.2750

> <Gold.Rescore>
     Score         DG    S(hbond)    S(metal)    S(lipo)     H(rot)  DE(clash)    DE(int)     intcor
     13.39     -14.10       0.99        0.00      79.88       1.57       0.10       0.62       ----

> <Gold.Chemscore.Fitness>
13.3864

> <Gold.Chemscore.DG>
-14.1043

> <Gold.Chemscore.ZeroCoef>
-5.4800

> <Gold.Chemscore.Hbond>
0.9863

> <Gold.Chemscore.Metal>
0.0000

> <Gold.Chemscore.Lipo>
79.8777

> <Gold.Chemscore.Internal_Hbond>
0.0000

> <Gold.Chemscore.DEClash>
0.1007

> <Gold.Chemscore.DEInternal>
0.6172

> <Gold.Chemscore.Rot>
1.5687

> <Gold.Chemscore.Internal.Correction>
   9.000000E+99

> <Gold.Chemscore.Hbonds>
donor molecule, donor type, donor heavy atom, donor atom, acceptor molecule, acceptor atom, score
      L1  H    15    36       P1 10171  0.99

> <Gold.Chemscore.Hbond.Weighted>
-3.2944

> <Gold.Chemscore.Metal.Weighted>
-0.0000

> <Gold.Chemscore.Lipo.Weighted>
-9.3457

> <Gold.Chemscore.Internal_Hbond.Weighted>
0.0000

> <Gold.Chemscore.DEClash.Weighted>
0.1007

> <Gold.Chemscore.DEInternal.Weighted>
0.6172

> <Gold.Chemscore.Rot.Weighted>
4.0158

> <Gold.Chemscore.Internal.Correction.Weighted>
   9.000000E+99

> <Gold.Protein.RotatedTorsions>
[ 6907 6896 6895 6894 ] final   28.88 input  -60.11 | X-H torsion
[ 7974 7965 7964 7962 ] final  101.82 input  175.53 | X-H torsion
[ 8008 7997 7996 7995 ] final    3.84 input   59.86 | X-H torsion
[ 10167 10162 10161 10158 ] final  164.22 input  -65.29 | X-H torsion
[ 10718 10713 10712 10709 ] final   45.29 input   66.30 | X-H torsion
[ 10763 10752 10751 10750 ] final -157.32 input  -60.55 | X-H torsion
[ 11005 11000 10999 10996 ] final   92.36 input  -57.11 | X-H torsion

> <Gold.Protein.ActiveResidues>
 VAL166  LYS551  ARG553  GLY616  TRP617  ASP618  TYR619  PRO620  LYS621  CYS622 
 ASP623  PHE694  ASN695  SER759  ASP760  ASP761  ALA762  ILE779  LEU786  VAL792 
 PHE793  MET794  SER795  GLU796  ALA797  LYS798  CYS799  TRP800  GLU811  SER814 

> <Gold.Protein.RotatedAtoms>
  152.0233  134.9810  160.0570 H   0  0  0  0  0  0  0  0  0  0  0  0  # atno 6907 bound_to 6896
  152.1315  133.4406  159.4731 H   0  0  0  0  0  0  0  0  0  0  0  0  # atno 6908 bound_to 6896
  150.6857  134.2333  159.4486 H   0  0  0  0  0  0  0  0  0  0  0  0  # atno 6909 bound_to 6896
  145.3672  139.2405  143.3474 H   0  0  0  0  0  0  0  0  0  0  0  0  # atno 7974 bound_to 7965
  154.7086  140.2688  155.6651 H   0  0  0  0  0  0  0  0  0  0  0  0  # atno 8008 bound_to 7997
  156.2788  140.2758  156.1644 H   0  0  0  0  0  0  0  0  0  0  0  0  # atno 8009 bound_to 7997
  155.0666  140.0372  157.2584 H   0  0  0  0  0  0  0  0  0  0  0  0  # atno 8010 bound_to 7997
  139.4885  144.4258  151.9132 H   0  0  0  0  0  0  0  0  0  0  0  0  # atno 10167 bound_to 10162
  157.4359  130.8052  149.7648 H   0  0  0  0  0  0  0  0  0  0  0  0  # atno 10718 bound_to 10713
  154.7645  135.3127  154.8314 H   0  0  0  0  0  0  0  0  0  0  0  0  # atno 10763 bound_to 10752
  153.9066  135.6810  153.4757 H   0  0  0  0  0  0  0  0  0  0  0  0  # atno 10764 bound_to 10752
  153.1249  135.4806  154.9188 H   0  0  0  0  0  0  0  0  0  0  0  0  # atno 10765 bound_to 10752
  139.8824  134.8728  156.3561 H   0  0  0  0  0  0  0  0  0  0  0  0  # atno 11005 bound_to 11000
  146.2901  140.4317  142.8743 LP  0  0  0  0  0  0  0  0  0  0  0  0  # atno 17320 bound_to 7965
  144.8603  140.7129  143.6112 LP  0  0  0  0  0  0  0  0  0  0  0  0  # atno 17321 bound_to 7965
  140.3703  144.2863  150.5921 LP  0  0  0  0  0  0  0  0  0  0  0  0  # atno 17342 bound_to 10162
  140.5324  143.2240  151.8216 LP  0  0  0  0  0  0  0  0  0  0  0  0  # atno 17343 bound_to 10162
  155.9930  130.3927  150.2917 LP  0  0  0  0  0  0  0  0  0  0  0  0  # atno 17370 bound_to 10713
  157.1078  131.0213  151.3060 LP  0  0  0  0  0  0  0  0  0  0  0  0  # atno 17371 bound_to 10713
  140.9561  133.7419  156.0338 LP  0  0  0  0  0  0  0  0  0  0  0  0  # atno 17394 bound_to 11000
  140.8046  134.3469  157.5429 LP  0  0  0  0  0  0  0  0  0  0  0  0  # atno 17395 bound_to 11000

$$$$
