AV-unprocessed.smi:774|AV-procd|sdf|3693|dock1
  -GOLD-   22720 1113D 1   1.00000     0.00000
 Structure written by MMmdl.
 37 38  0  0  0  0  0  0  0  0  1 V2000
  144.7440  131.1106  151.2790 C   0  0  0  0  0  0  0  0  0  0  0  0
  145.4289  131.9016  150.1613 C   0  0  0  0  0  0  0  0  0  0  0  0
  144.4817  133.3847  149.7219 S   0  0  0  0  0  0  0  0  0  0  0  0
  144.2845  134.1445  151.3597 C   0  0  2  0  0  0  0  0  0  0  0  0
  143.8332  135.6027  151.2983 C   0  0  0  0  0  0  0  0  0  0  0  0
  144.2153  136.1699  152.6657 C   0  0  0  0  0  0  0  0  0  0  0  0
  145.4606  135.3828  153.1210 C   0  0  2  0  0  0  0  0  0  0  0  0
  146.6596  136.2170  153.1031 N   0  0  0  0  0  0  0  0  0  0  0  0
  146.7761  137.4111  153.7011 C   0  0  0  0  0  0  0  0  0  0  0  0
  145.8648  137.9451  154.3332 O   0  0  0  0  0  0  0  0  0  0  0  0
  147.9950  137.9394  153.4968 N   0  0  0  0  0  0  0  0  0  0  0  0
  148.5133  139.1748  153.9710 C   0  0  0  0  0  0  0  0  0  0  0  0
  147.6508  140.2903  153.9893 C   0  0  0  0  0  0  0  0  0  0  0  0
  148.1427  141.5311  154.4373 C   0  0  0  0  0  0  0  0  0  0  0  0
  149.4889  141.6104  154.8427 C   0  0  0  0  0  0  0  0  0  0  0  0
  150.3326  140.5574  154.8171 N   0  0  0  0  0  0  0  0  0  0  0  0
  149.8537  139.3695  154.3881 C   0  0  0  0  0  0  0  0  0  0  0  0
  145.5994  134.2009  152.1430 C   0  0  0  0  0  0  0  0  0  0  0  0
  145.3204  130.2215  151.5349 H   0  0  0  0  0  0  0  0  0  0  0  0
  143.7478  130.7863  150.9774 H   0  0  0  0  0  0  0  0  0  0  0  0
  144.6424  131.7133  152.1820 H   0  0  0  0  0  0  0  0  0  0  0  0
  146.4303  132.1961  150.4752 H   0  0  0  0  0  0  0  0  0  0  0  0
  145.5387  131.2754  149.2755 H   0  0  0  0  0  0  0  0  0  0  0  0
  143.5586  133.5663  151.9332 H   0  0  0  0  0  0  0  0  0  0  0  0
  144.3811  136.1320  150.5173 H   0  0  0  0  0  0  0  0  0  0  0  0
  142.7683  135.7081  151.0895 H   0  0  0  0  0  0  0  0  0  0  0  0
  144.3707  137.2491  152.6283 H   0  0  0  0  0  0  0  0  0  0  0  0
  143.4017  135.9901  153.3696 H   0  0  0  0  0  0  0  0  0  0  0  0
  145.2968  134.9981  154.1297 H   0  0  0  0  0  0  0  0  0  0  0  0
  147.4564  135.8568  152.5984 H   0  0  0  0  0  0  0  0  0  0  0  0
  148.6071  137.4200  152.8850 H   0  0  0  0  0  0  0  0  0  0  0  0
  146.6232  140.1984  153.6685 H   0  0  0  0  0  0  0  0  0  0  0  0
  147.5039  142.4012  154.4681 H   0  0  0  0  0  0  0  0  0  0  0  0
  149.9008  142.5458  155.1919 H   0  0  0  0  0  0  0  0  0  0  0  0
  150.5815  138.5735  154.3651 H   0  0  0  0  0  0  0  0  0  0  0  0
  145.8066  133.2627  152.6588 H   0  0  0  0  0  0  0  0  0  0  0  0
  146.4265  134.3757  151.4523 H   0  0  0  0  0  0  0  0  0  0  0  0
  1  2  1  0  0  0  0
  1 19  1  0  0  0  0
  1 20  1  0  0  0  0
  1 21  1  0  0  0  0
  2  3  1  0  0  0  0
  2 22  1  0  0  0  0
  2 23  1  0  0  0  0
  3  4  1  0  0  0  0
  4 18  1  0  0  0  0
  4  5  1  0  0  0  0
  4 24  1  0  0  0  0
  5  6  1  0  0  0  0
  5 25  1  0  0  0  0
  5 26  1  0  0  0  0
  6  7  1  0  0  0  0
  6 27  1  0  0  0  0
  6 28  1  0  0  0  0
  7  8  1  0  0  0  0
  7 18  1  0  0  0  0
  7 29  1  0  0  0  0
  8  9  1  0  0  0  0
  8 30  1  0  0  0  0
  9 10  2  0  0  0  0
  9 11  1  0  0  0  0
 11 12  1  0  0  0  0
 11 31  1  0  0  0  0
 12 17  1  0  0  0  0
 12 13  2  0  0  0  0
 13 14  1  0  0  0  0
 13 32  1  0  0  0  0
 14 15  2  0  0  0  0
 14 33  1  0  0  0  0
 15 16  1  0  0  0  0
 15 34  1  0  0  0  0
 16 17  2  0  0  0  0
 17 35  1  0  0  0  0
 18 36  1  0  0  0  0
 18 37  1  0  0  0  0
M  END
> <s_m_source_file>
AV-unprocessed.smi

> <i_m_source_file_index>
774

> <i_lp_mmshare_version>
43012

> <i_f3d_flags>
0

> <s_epik_input>
W0NIM11bQ0gyXVNbQ0BASF0xW0NIMl1bQ0gyXVtDQEhdKFtDSDJdMSlbTkhdQyg9TylbTkhdYzJbY0hdW2NIXVtjSF1uW2NIXTI=

> <s_epik_cmdline>
J2VwaWtfcHl0aG9uJywgJy1waCcsICc3LjAnLCAnLXRuJywgJzgnLCAnLW1hJywgJzIwMCcsICctbWV0YWxfYmluZGluZycsICctaW1hZScsICc8aW5maWxlLm1hZT4nLCAnLW9tYWUnLCAnPG91dGZpbGUubWFlPic=

> <r_epik_Ionization_Penalty>
0.00485718

> <r_epik_Ionization_Penalty_Charging>
0

> <r_epik_Ionization_Penalty_Neutral>
0.00485718

> <r_epik_State_Penalty>
0.00349461

> <r_epik_Charging_Adjusted_Penalty>
0.00349461

> <i_epik_Tot_Q>
0

> <i_epik_Tot_abs_Q>
0

> <r_epik_Metal_State_Penalty>
-0

> <b_epik_Metal_Only>
0

> <s_lp_Force_Field>
OPLS_2005

> <r_lp_Energy>
20.2727

> <b_lp_Chiralities_Consistent>
1

> <s_lp_Variant>
AV-unprocessed.smi:774-3

> <Gold.Version>
5.8.1

> <Gold.Id.Protein>
6NUR|6NUR_protein|mol2

> <Gold.PLP.Fitness>
41.6121

> <Gold.PLP.PLP>
-30.6976

> <Gold.PLP.part.hbond>
-3.0000

> <Gold.PLP.part.metal>
0.0000

> <Gold.PLP.part.buried>
-2.2998

> <Gold.PLP.part.nonpolar>
-26.0268

> <Gold.PLP.part.repulsive>
0.2084

> <Gold.PLP.ligand.clash>
0.0000

> <Gold.PLP.ligand.torsion>
0.4622

> <Gold.PLP.Chemscore.Hbond>
2.9360

> <Gold.PLP.Chemscore.CHOScore>
1.0000

> <Gold.PLP.Chemscore.Metal>
0.0000

> <Gold.Chemscore.Hbonds>
donor molecule, donor type, donor heavy atom, donor atom, acceptor molecule, acceptor atom, score
      L1  H     8    30       P1  7948  0.94
      L1  H    11    31       P1  7948  1.00
      P1  H  7989  7998       L1    16  0.94
      L1  C    15    34       P1  8028  1.00

> <Gold.PLP.Chemscore.Internal.Correction>
0.0310

> <Gold.Rescore>
     Score         DG    S(hbond)    S(metal)    S(lipo)     H(rot)  DE(clash)    DE(int)     intcor
     16.71     -19.15       2.23        0.00      81.65       1.30       0.04       2.40       ----

> <Gold.Chemscore.Fitness>
16.7100

> <Gold.Chemscore.DG>
-19.1524

> <Gold.Chemscore.ZeroCoef>
-5.4800

> <Gold.Chemscore.Hbond>
2.2327

> <Gold.Chemscore.Metal>
0.0000

> <Gold.Chemscore.Lipo>
81.6544

> <Gold.Chemscore.Internal_Hbond>
0.0000

> <Gold.Chemscore.DEClash>
0.0440

> <Gold.Chemscore.DEInternal>
2.3985

> <Gold.Chemscore.Rot>
1.3041

> <Gold.Chemscore.Internal.Correction>
   9.000000E+99

> <Gold.Chemscore.Hbonds>
donor molecule, donor type, donor heavy atom, donor atom, acceptor molecule, acceptor atom, score
      L1  H     8    30       P1  7948  0.91
      L1  H    11    31       P1  7948  0.96
      P1  H  7989  7998       L1    16  0.15

> <Gold.Chemscore.Hbond.Weighted>
-7.4573

> <Gold.Chemscore.Metal.Weighted>
-0.0000

> <Gold.Chemscore.Lipo.Weighted>
-9.5536

> <Gold.Chemscore.Internal_Hbond.Weighted>
0.0000

> <Gold.Chemscore.DEClash.Weighted>
0.0440

> <Gold.Chemscore.DEInternal.Weighted>
2.3985

> <Gold.Chemscore.Rot.Weighted>
3.3384

> <Gold.Chemscore.Internal.Correction.Weighted>
   9.000000E+99

> <Gold.Protein.RotatedTorsions>
[ 6907 6896 6895 6894 ] final   63.98 input  -60.11 | X-H torsion
[ 7974 7965 7964 7962 ] final -141.24 input  175.53 | X-H torsion
[ 8008 7997 7996 7995 ] final  -72.29 input   59.86 | X-H torsion
[ 10167 10162 10161 10158 ] final  -27.69 input  -65.29 | X-H torsion
[ 10718 10713 10712 10709 ] final  -81.65 input   66.30 | X-H torsion
[ 10763 10752 10751 10750 ] final -106.02 input  -60.55 | X-H torsion
[ 11005 11000 10999 10996 ] final -162.16 input  -57.11 | X-H torsion

> <Gold.Protein.ActiveResidues>
 VAL166  LYS551  ARG553  GLY616  TRP617  ASP618  TYR619  PRO620  LYS621  CYS622 
 ASP623  PHE694  ASN695  SER759  ASP760  ASP761  ALA762  ILE779  LEU786  VAL792 
 PHE793  MET794  SER795  GLU796  ALA797  LYS798  CYS799  TRP800  GLU811  SER814 

> <Gold.Protein.RotatedAtoms>
  152.4296  134.5803  159.9945 H   0  0  0  0  0  0  0  0  0  0  0  0  # atno 6907 bound_to 6896
  151.5930  133.3359  159.3039 H   0  0  0  0  0  0  0  0  0  0  0  0  # atno 6908 bound_to 6896
  150.8187  134.7420  159.6818 H   0  0  0  0  0  0  0  0  0  0  0  0  # atno 6909 bound_to 6896
  144.8535  140.6104  143.5375 H   0  0  0  0  0  0  0  0  0  0  0  0  # atno 7974 bound_to 7965
  154.5154  140.0800  156.8071 H   0  0  0  0  0  0  0  0  0  0  0  0  # atno 8008 bound_to 7997
  155.3692  140.3422  155.4224 H   0  0  0  0  0  0  0  0  0  0  0  0  # atno 8009 bound_to 7997
  156.1622  140.1592  156.8580 H   0  0  0  0  0  0  0  0  0  0  0  0  # atno 8010 bound_to 7997
  140.7275  143.4072  151.1165 H   0  0  0  0  0  0  0  0  0  0  0  0  # atno 10167 bound_to 10162
  156.0046  130.4610  150.3984 H   0  0  0  0  0  0  0  0  0  0  0  0  # atno 10718 bound_to 10713
  154.7985  135.4727  154.0219 H   0  0  0  0  0  0  0  0  0  0  0  0  # atno 10763 bound_to 10752
  153.1742  135.6830  153.8572 H   0  0  0  0  0  0  0  0  0  0  0  0  # atno 10764 bound_to 10752
  153.8144  135.3212  155.3382 H   0  0  0  0  0  0  0  0  0  0  0  0  # atno 10765 bound_to 10752
  140.6124  134.4835  157.5216 H   0  0  0  0  0  0  0  0  0  0  0  0  # atno 11005 bound_to 11000
  145.4453  139.1530  143.3948 LP  0  0  0  0  0  0  0  0  0  0  0  0  # atno 17320 bound_to 7965
  146.2804  140.4576  142.8778 LP  0  0  0  0  0  0  0  0  0  0  0  0  # atno 17321 bound_to 7965
  139.7701  143.8507  152.3118 LP  0  0  0  0  0  0  0  0  0  0  0  0  # atno 17342 bound_to 10162
  139.8423  144.7204  150.9316 LP  0  0  0  0  0  0  0  0  0  0  0  0  # atno 17343 bound_to 10162
  157.2055  131.0448  151.2628 LP  0  0  0  0  0  0  0  0  0  0  0  0  # atno 17370 bound_to 10713
  157.3937  130.7296  149.6716 LP  0  0  0  0  0  0  0  0  0  0  0  0  # atno 17371 bound_to 10713
  139.9187  134.8194  156.1282 LP  0  0  0  0  0  0  0  0  0  0  0  0  # atno 17394 bound_to 11000
  141.0799  133.6759  156.2314 LP  0  0  0  0  0  0  0  0  0  0  0  0  # atno 17395 bound_to 11000

$$$$
