#       Name:                AV-unprocessed.smi:130
#       Creating user name   scv26
#       Creation time:       Thu Mar 26 18:29:57 2020


#       File generated by GOLD software.
#

@<TRIPOS>MOLECULE
AV-unprocessed.smi:130
    52    55     1
SMALL
NO_CHARGES


@<TRIPOS>ATOM
      1 ****        -0.6995   0.7696   0.9350 O.2            1 S1                 0.0000
      2 ****        -1.3868  -0.1947   0.5965 C.2            1 S1                 0.0000
      3 ****        -0.6903  -1.5462   0.3230 C.3            1 S1                 0.0000
      4 ****         0.7829  -1.4945   0.4583 N.am           1 S1                 0.0000
      5 ****         1.3619  -1.7761   1.7210 C.2            1 S1                 0.0000
      6 ****         0.6642  -2.0753   2.6911 O.2            1 S1                 0.0000
      7 ****         2.8156  -1.6747   1.7843 C.2            1 S1                 0.0000
      8 ****         3.4499  -1.9179   2.9438 F              1 S1                 0.0000
      9 ****         3.5366  -1.3350   0.6960 C.2            1 S1                 0.0000
     10 ****         2.9583  -1.0673  -0.5315 N.am           1 S1                 0.0000
     11 ****         3.7955  -0.6773  -1.7298 C.3            1 S1                 0.0000
     12 ****         3.8977   0.8488  -1.8325 C.3            1 S1                 0.0000
     13 ****         5.1949   1.1233  -1.1034 C.3            1 S1                 0.0000
     14 ****         6.0229  -0.0997  -1.4810 C.3            1 S1                 0.0000
     15 ****         5.0921  -1.1758  -1.5646 O.3            1 S1                 0.0000
     16 ****         1.5549  -1.1284  -0.6704 C.2            1 S1                 0.0000
     17 ****         1.0168  -0.8577  -1.7464 O.2            1 S1                 0.0000
     18 ****        -2.7341  -0.1341   0.4514 N.am           1 S1                 0.0000
     19 ****        -3.5611  -1.2854   0.0494 C.3            1 S1                 0.0000
     20 ****        -5.0207  -0.7813   0.0144 C.3            1 S1                 0.0000
     21 ****        -4.8916   0.6591   0.4125 C.ar           1 S1                 0.0000
     22 ****        -5.9351   1.5921   0.5405 C.ar           1 S1                 0.0000
     23 ****        -5.6092   2.9092   0.9269 C.ar           1 S1                 0.0000
     24 ****        -4.2646   3.2684   1.1751 C.ar           1 S1                 0.0000
     25 ****        -3.2285   2.3180   1.0417 C.ar           1 S1                 0.0000
     26 ****        -3.5643   1.0004   0.6554 C.ar           1 S1                 0.0000
     27 ****        -1.1098  -2.2988   0.9917 H              1 S1                 0.0000
     28 ****        -0.9613  -1.8929  -0.6750 H              1 S1                 0.0000
     29 ****         4.6086  -1.2675   0.8047 H              1 S1                 0.0000
     30 ****         3.3282  -1.1507  -2.5947 H              1 S1                 0.0000
     31 ****         3.9858   1.1211  -2.8851 H              1 S1                 0.0000
     32 ****         3.0308   1.3559  -1.4072 H              1 S1                 0.0000
     33 ****         5.6628   2.0629  -1.3983 H              1 S1                 0.0000
     34 ****         5.0246   1.1482  -0.0264 H              1 S1                 0.0000
     35 ****         6.4820   0.0413  -2.4604 H              1 S1                 0.0000
     36 ****         6.8146  -0.3106  -0.7616 H              1 S1                 0.0000
     37 ****        -3.2643  -1.6507  -0.9345 H              1 S1                 0.0000
     38 ****        -3.4595  -2.1031   0.7641 H              1 S1                 0.0000
     39 ****        -5.4548  -0.8634  -0.9825 H              1 S1                 0.0000
     40 ****        -5.6542  -1.3181   0.7210 H              1 S1                 0.0000
     41 ****        -6.9596   1.3091   0.3482 H              1 S1                 0.0000
     42 ****        -6.3909   3.6469   1.0333 H              1 S1                 0.0000
     43 ****        -4.0268   4.2797   1.4700 H              1 S1                 0.0000
     44 ****        -2.2130   2.6231   1.2376 H              1 S1                 0.0000
     45 ****         0.2910   0.6694   1.0283 LP             1 S1                 0.0000
     46 ****        -1.1321   1.6528   1.1164 LP             1 S1                 0.0000
     47 ****        -0.3302  -2.1231   2.5961 LP             1 S1                 0.0000
     48 ****         1.0921  -2.2704   3.5735 LP             1 S1                 0.0000
     49 ****         5.3257  -1.7554  -2.3453 LP             1 S1                 0.0000
     50 ****         5.1343  -1.7159  -0.7241 LP             1 S1                 0.0000
     51 ****         0.0210  -0.8950  -1.8308 LP             1 S1                 0.0000
     52 ****         1.5761  -0.6008  -2.5345 LP             1 S1                 0.0000
@<TRIPOS>BOND
    1    1    2 2     
    2    2    3 1     
    3    2   18 am    
    4    3    4 1     
    5    3   27 1     
    6    3   28 1     
    7    4   16 am    
    8    4    5 am    
    9    5    6 2     
   10    5    7 1     
   11    7    8 1     
   12    7    9 2     
   13    9   10 1     
   14    9   29 1     
   15   10   11 1     
   16   10   16 am    
   17   11   15 1     
   18   11   12 1     
   19   11   30 1     
   20   12   13 1     
   21   12   31 1     
   22   12   32 1     
   23   13   14 1     
   24   13   33 1     
   25   13   34 1     
   26   14   15 1     
   27   14   35 1     
   28   14   36 1     
   29   16   17 2     
   30   18   26 1     
   31   18   19 1     
   32   19   20 1     
   33   19   37 1     
   34   19   38 1     
   35   20   21 1     
   36   20   39 1     
   37   20   40 1     
   38   21   26 ar    
   39   21   22 ar    
   40   22   23 ar    
   41   22   41 1     
   42   23   24 ar    
   43   23   42 1     
   44   24   25 ar    
   45   24   43 1     
   46   25   26 ar    
   47   25   44 1     
   48    1   45 1     
   49    1   46 1     
   50    6   47 1     
   51    6   48 1     
   52   15   49 1     
   53   15   50 1     
   54   17   51 1     
   55   17   52 1     
@<TRIPOS>SUBSTRUCTURE
      1 S1             1
@<TRIPOS>SET
LONE_PAIRS      STATIC     ATOMS    <user>   **** ""
8 45 46 47 48 49 50 51 52
ATOM$BLUE        STATIC     ATOMS    COLORGROUP SYSTEM
8 45 46 47 48 49 50 51 52
