#       Name:                AV-unprocessed.smi:1645
#       Creating user name   scv26
#       Creation time:       Fri Mar 27 07:31:43 2020


#       File generated by GOLD software.
#

@<TRIPOS>MOLECULE
AV-unprocessed.smi:1645
    59    62     1
SMALL
NO_CHARGES


@<TRIPOS>ATOM
      1 ****        -0.6295   1.4206   0.6186 O.2            1 S1                 0.0000
      2 ****        -1.1872   0.3414   0.3900 C.2            1 S1                 0.0000
      3 ****        -0.4608  -0.7767   0.2150 N.am           1 S1                 0.0000
      4 ****         0.9502  -0.9355   0.2371 C.ar           1 S1                 0.0000
      5 ****         1.5083  -1.9845  -0.5206 C.ar           1 S1                 0.0000
      6 ****         2.9035  -2.1858  -0.5174 C.ar           1 S1                 0.0000
      7 ****         3.7371  -1.3431   0.2609 C.ar           1 S1                 0.0000
      8 ****         5.1438  -1.4615   0.3166 N.3            1 S1                 0.0000
      9 ****         5.7499  -1.3729   1.6488 C.3            1 S1                 0.0000
     10 ****         7.2597  -1.0907   1.5621 C.3            1 S1                 0.0000
     11 ****         7.9626  -2.1069   0.6516 C.3            1 S1                 0.0000
     12 ****         7.2975  -2.1131  -0.7316 C.3            1 S1                 0.0000
     13 ****         5.7877  -2.3846  -0.6201 C.3            1 S1                 0.0000
     14 ****         3.1496  -0.3626   0.9893 N.pl3          1 S1                 1.0000
     15 ****         1.8188  -0.1321   1.0117 C.ar           1 S1                 0.0000
     16 ****        -2.5209   0.1074   0.2648 N.pl3          1 S1                -1.0000
     17 ****        -3.5593   1.1382   0.3286 C.3            1 S1                 0.0000
     18 ****        -4.1327   1.2801   1.7427 C.3            1 S1                 0.0000
     19 ****        -5.5872   1.7442   1.5435 C.3            1 S1                 0.0000
     20 ****        -5.9272   1.5357   0.1122 N.4            1 S1                 1.0000
     21 ****        -6.2476   2.8193  -0.5812 C.3            1 S1                 0.0000
     22 ****        -6.3408   2.6638  -2.1031 C.3            1 S1                 0.0000
     23 ****        -5.0199   2.1202  -2.6488 C.3            1 S1                 0.0000
     24 ****        -4.7434   0.7495  -2.0205 C.3            1 S1                 0.0000
     25 ****        -4.8130   0.7340  -0.4685 C.3            1 S1                 0.0000
     26 ****        -0.9883  -1.5937  -0.0553 H              1 S1                 0.0000
     27 ****         0.8730  -2.6299  -1.1098 H              1 S1                 0.0000
     28 ****         3.3059  -2.9944  -1.1083 H              1 S1                 0.0000
     29 ****         5.2867  -0.5910   2.2504 H              1 S1                 0.0000
     30 ****         5.5775  -2.3146   2.1716 H              1 S1                 0.0000
     31 ****         7.4211  -0.0832   1.1763 H              1 S1                 0.0000
     32 ****         7.7006  -1.1143   2.5590 H              1 S1                 0.0000
     33 ****         9.0215  -1.8631   0.5603 H              1 S1                 0.0000
     34 ****         7.9061  -3.1023   1.0941 H              1 S1                 0.0000
     35 ****         7.4601  -1.1500  -1.2179 H              1 S1                 0.0000
     36 ****         7.7645  -2.8644  -1.3692 H              1 S1                 0.0000
     37 ****         5.6145  -3.4090  -0.2880 H              1 S1                 0.0000
     38 ****         5.3465  -2.2834  -1.6121 H              1 S1                 0.0000
     39 ****         1.5046   0.6768   1.6544 H              1 S1                 0.0000
     40 ****        -3.2216   2.1140  -0.0247 H              1 S1                 0.0000
     41 ****        -4.1332   0.3175   2.2575 H              1 S1                 0.0000
     42 ****        -3.5543   1.9752   2.3522 H              1 S1                 0.0000
     43 ****        -6.2631   1.1581   2.1675 H              1 S1                 0.0000
     44 ****        -5.7087   2.7874   1.8425 H              1 S1                 0.0000
     45 ****        -7.1881   3.2064  -0.1881 H              1 S1                 0.0000
     46 ****        -5.4849   3.5658  -0.3520 H              1 S1                 0.0000
     47 ****        -7.1627   1.9963  -2.3654 H              1 S1                 0.0000
     48 ****        -6.5628   3.6280  -2.5612 H              1 S1                 0.0000
     49 ****        -5.0674   2.0315  -3.7345 H              1 S1                 0.0000
     50 ****        -4.2054   2.8110  -2.4270 H              1 S1                 0.0000
     51 ****        -5.5001   0.0590  -2.3951 H              1 S1                 0.0000
     52 ****        -3.7938   0.3521  -2.3845 H              1 S1                 0.0000
     53 ****        -5.0366  -0.2977  -0.1876 H              1 S1                 0.0000
     54 ****        -6.7586   0.9651   0.0592 H              1 S1                 0.0000
     55 ****         3.7471   0.2418   1.5534 H              1 S1                 0.0000
     56 ****         0.3679   1.4661   0.6744 LP             1 S1                 0.0000
     57 ****        -1.1757   2.2482   0.7477 LP             1 S1                 0.0000
     58 ****         5.4002  -0.5874  -0.0959 LP             1 S1                 0.0000
     59 ****        -2.8140  -0.8374   0.1185 LP             1 S1                 0.0000
@<TRIPOS>BOND
    1    1    2 2     
    2    2    3 am    
    3    2   16 1     
    4    3    4 1     
    5    3   26 1     
    6    4   15 ar    
    7    4    5 ar    
    8    5    6 ar    
    9    5   27 1     
   10    6    7 ar    
   11    6   28 1     
   12    7    8 1     
   13    7   14 ar    
   14    8   13 1     
   15    8    9 1     
   16    9   10 1     
   17    9   29 1     
   18    9   30 1     
   19   10   11 1     
   20   10   31 1     
   21   10   32 1     
   22   11   12 1     
   23   11   33 1     
   24   11   34 1     
   25   12   13 1     
   26   12   35 1     
   27   12   36 1     
   28   13   37 1     
   29   13   38 1     
   30   14   15 ar    
   31   14   55 1     
   32   15   39 1     
   33   16   17 1     
   34   17   25 1     
   35   17   18 1     
   36   17   40 1     
   37   18   19 1     
   38   18   41 1     
   39   18   42 1     
   40   19   20 1     
   41   19   43 1     
   42   19   44 1     
   43   20   25 1     
   44   20   21 1     
   45   20   54 1     
   46   21   22 1     
   47   21   45 1     
   48   21   46 1     
   49   22   23 1     
   50   22   47 1     
   51   22   48 1     
   52   23   24 1     
   53   23   49 1     
   54   23   50 1     
   55   24   25 1     
   56   24   51 1     
   57   24   52 1     
   58   25   53 1     
   59    1   56 1     
   60    1   57 1     
   61    8   58 1     
   62   16   59 1     
@<TRIPOS>SUBSTRUCTURE
      1 S1             1
@<TRIPOS>SET
LONE_PAIRS      STATIC     ATOMS    <user>   **** ""
4 56 57 58 59
DONOR_HYDROGENS      STATIC     ATOMS    <user>   **** ""
3 26 55 54
ATOM$BLUE        STATIC     ATOMS    COLORGROUP SYSTEM
4 56 57 58 59
ATOM$RED        STATIC     ATOMS    COLORGROUP SYSTEM
3 26 55 54
