AV-unprocessed.smi:1626|AV-procd|sdf|6513|dock2
  -GOLD-   22720 7183D 1   1.00000     0.00000
 Structure written by MMmdl.
 49 51  0  0  0  0  0  0  0  0  3 V2000
  152.6886  143.7157  160.3642 C   0  0  0  0  0  0  0  0  0  0  0  0
  152.2287  142.7717  159.2661 C   0  0  0  0  0  0  0  0  0  0  0  0
  151.4102  143.2850  158.2346 C   0  0  0  0  0  0  0  0  0  0  0  0
  151.0057  142.3972  157.2449 C   0  0  0  0  0  0  0  0  0  0  0  0
  150.2107  142.5887  156.1129 N   0  3  0  0  0  0  0  0  0  0  0  0
  150.0951  141.4136  155.4344 C   0  0  0  0  0  0  0  0  0  0  0  0
  150.7996  140.4725  156.1211 N   0  0  0  0  0  0  0  0  0  0  0  0
  151.0111  139.0487  155.8265 C   0  0  0  0  0  0  0  0  0  0  0  0
  150.1663  138.5440  154.6397 C   0  0  1  0  0  0  0  0  0  0  0  0
  150.7829  137.3976  154.0853 O   0  0  0  0  0  0  0  0  0  0  0  0
  148.7354  138.1741  155.0788 C   0  0  0  0  0  0  0  0  0  0  0  0
  147.8721  137.7692  153.9393 N   0  3  2  0  0  0  0  0  0  0  0  0
  147.3515  138.9225  153.1572 C   0  0  0  0  0  0  0  0  0  0  0  0
  146.5795  138.4507  151.9113 C   0  0  0  0  0  0  0  0  0  0  0  0
  145.4491  137.4727  152.2710 C   0  0  2  0  0  0  0  0  0  0  0  0
  144.4117  138.1526  152.9493 O   0  0  0  0  0  0  0  0  0  0  0  0
  145.9916  136.3302  153.1448 C   0  0  0  0  0  0  0  0  0  0  0  0
  146.7770  136.8570  154.3593 C   0  0  0  0  0  0  0  0  0  0  0  0
  151.3875  141.0416  157.2558 C   0  0  0  0  0  0  0  0  0  0  0  0
  152.1939  140.5191  158.2638 C   0  0  0  0  0  0  0  0  0  0  0  0
  152.6145  141.4059  159.2810 C   0  0  0  0  0  0  0  0  0  0  0  0
  153.4937  140.8652  160.3958 C   0  0  0  0  0  0  0  0  0  0  0  0
  152.3332  144.7321  160.1917 H   0  0  0  0  0  0  0  0  0  0  0  0
  153.7773  143.7484  160.4116 H   0  0  0  0  0  0  0  0  0  0  0  0
  152.3081  143.3897  161.3325 H   0  0  0  0  0  0  0  0  0  0  0  0
  151.1127  144.3235  158.2167 H   0  0  0  0  0  0  0  0  0  0  0  0
  149.5434  141.2570  154.5183 H   0  0  0  0  0  0  0  0  0  0  0  0
  152.0737  138.9141  155.6189 H   0  0  0  0  0  0  0  0  0  0  0  0
  150.7983  138.4756  156.7300 H   0  0  0  0  0  0  0  0  0  0  0  0
  150.1413  139.3174  153.8730 H   0  0  0  0  0  0  0  0  0  0  0  0
  150.4900  136.6372  154.5647 H   0  0  0  0  0  0  0  0  0  0  0  0
  148.7995  137.3590  155.8017 H   0  0  0  0  0  0  0  0  0  0  0  0
  148.2675  139.0075  155.6055 H   0  0  0  0  0  0  0  0  0  0  0  0
  146.7058  139.5313  153.7920 H   0  0  0  0  0  0  0  0  0  0  0  0
  148.1702  139.5662  152.8385 H   0  0  0  0  0  0  0  0  0  0  0  0
  146.1807  139.3083  151.3681 H   0  0  0  0  0  0  0  0  0  0  0  0
  147.2743  137.9567  151.2306 H   0  0  0  0  0  0  0  0  0  0  0  0
  145.0204  137.0583  151.3580 H   0  0  0  0  0  0  0  0  0  0  0  0
  144.4332  139.0641  152.6990 H   0  0  0  0  0  0  0  0  0  0  0  0
  145.1762  135.6854  153.4752 H   0  0  0  0  0  0  0  0  0  0  0  0
  146.6500  135.7025  152.5426 H   0  0  0  0  0  0  0  0  0  0  0  0
  147.1926  136.0087  154.9047 H   0  0  0  0  0  0  0  0  0  0  0  0
  146.1100  137.3781  155.0477 H   0  0  0  0  0  0  0  0  0  0  0  0
  152.4899  139.4807  158.2735 H   0  0  0  0  0  0  0  0  0  0  0  0
  153.6709  139.7954  160.2817 H   0  0  0  0  0  0  0  0  0  0  0  0
  153.0229  141.0221  161.3666 H   0  0  0  0  0  0  0  0  0  0  0  0
  154.4622  141.3654  160.3954 H   0  0  0  0  0  0  0  0  0  0  0  0
  148.4617  137.2309  153.3204 H   0  0  0  0  0  0  0  0  0  0  0  0
  149.7807  143.4574  155.8208 H   0  0  0  0  0  0  0  0  0  0  0  0
  1  2  1  0  0  0  0
  1 23  1  0  0  0  0
  1 24  1  0  0  0  0
  1 25  1  0  0  0  0
  2 21  1  0  0  0  0
  2  3  2  0  0  0  0
  3  4  1  0  0  0  0
  3 26  1  0  0  0  0
  4 19  2  0  0  0  0
  4  5  1  0  0  0  0
  5  6  2  0  0  0  0
  5 49  1  0  0  0  0
  6  7  1  0  0  0  0
  6 27  1  0  0  0  0
  7  8  1  0  0  0  0
  7 19  1  0  0  0  0
  8  9  1  0  0  0  0
  8 28  1  0  0  0  0
  8 29  1  0  0  0  0
  9 10  1  0  0  0  0
  9 11  1  0  0  0  0
  9 30  1  0  0  0  0
 10 31  1  0  0  0  0
 11 12  1  0  0  0  0
 11 32  1  0  0  0  0
 11 33  1  0  0  0  0
 12 18  1  0  0  0  0
 12 13  1  0  0  0  0
 12 48  1  0  0  0  0
 13 14  1  0  0  0  0
 13 34  1  0  0  0  0
 13 35  1  0  0  0  0
 14 15  1  0  0  0  0
 14 36  1  0  0  0  0
 14 37  1  0  0  0  0
 15 16  1  0  0  0  0
 15 17  1  0  0  0  0
 15 38  1  0  0  0  0
 16 39  1  0  0  0  0
 17 18  1  0  0  0  0
 17 40  1  0  0  0  0
 17 41  1  0  0  0  0
 18 42  1  0  0  0  0
 18 43  1  0  0  0  0
 19 20  1  0  0  0  0
 20 21  2  0  0  0  0
 20 44  1  0  0  0  0
 21 22  1  0  0  0  0
 22 45  1  0  0  0  0
 22 46  1  0  0  0  0
 22 47  1  0  0  0  0
M  CHG  1   5   1
M  CHG  1  12   1
M  END
> <s_m_source_file>
AV-unprocessed.smi

> <i_m_source_file_index>
1626

> <i_lp_mmshare_version>
43012

> <i_f3d_flags>
0

> <s_epik_input>
W0NIM11jKFtjSF0xKWMoW0NIM10pW2NIXWMoYzEyKW4oW2NIXW4yKVtDSDJdW0NASF0oW09IXSlbQ0gyXU4zW0NIMl1bQ0gyXVtDSF0oW09IXSlbQ0gyXVtDSDJdMw==

> <s_epik_cmdline>
J2VwaWtfcHl0aG9uJywgJy1waCcsICc3LjAnLCAnLXRuJywgJzgnLCAnLW1hJywgJzIwMCcsICctbWV0YWxfYmluZGluZycsICctaW1hZScsICc8aW5maWxlLm1hZT4nLCAnLW9tYWUnLCAnPG91dGZpbGUubWFlPic=

> <r_epik_Ionization_Penalty>
1.19369

> <r_epik_Ionization_Penalty_Charging>
1.19369

> <r_epik_Ionization_Penalty_Neutral>
1.68219e-06

> <r_epik_State_Penalty>
1.27429

> <r_epik_Charging_Adjusted_Penalty>
2.46798

> <i_epik_Tot_Q>
2

> <i_epik_Tot_abs_Q>
2

> <r_epik_Metal_State_Penalty>
5.29157

> <b_epik_Metal_Only>
0

> <s_lp_Force_Field>
OPLS_2005

> <r_lp_Energy>
31.8675

> <b_lp_Chiralities_Consistent>
1

> <s_lp_Variant>
AV-unprocessed.smi:1626-8

> <Gold.Version>
5.8.1

> <Gold.Id.Protein>
6NUR|6NUR_protein|mol2

> <Gold.PLP.Fitness>
58.3318

> <Gold.PLP.PLP>
-44.3602

> <Gold.PLP.part.hbond>
-4.9555

> <Gold.PLP.part.metal>
0.0000

> <Gold.PLP.part.buried>
-4.7491

> <Gold.PLP.part.nonpolar>
-36.4336

> <Gold.PLP.part.repulsive>
0.1209

> <Gold.PLP.ligand.clash>
0.0000

> <Gold.PLP.ligand.torsion>
0.5359

> <Gold.PLP.Chemscore.Hbond>
5.0000

> <Gold.PLP.Chemscore.CHOScore>
0.0000

> <Gold.PLP.Chemscore.Metal>
0.0000

> <Gold.Chemscore.Hbonds>
donor molecule, donor type, donor heavy atom, donor atom, acceptor molecule, acceptor atom, score
      L1  H     5    49       P1  8028  2.00
      L1  H    12    48       P1  7948  2.00
      L1  H    16    39       P1 10175  0.99

> <Gold.PLP.Chemscore.Internal.Correction>
0.0434

> <Gold.Rescore>
     Score         DG    S(hbond)    S(metal)    S(lipo)     H(rot)  DE(clash)    DE(int)     intcor
     21.18     -21.72       2.96        0.00     114.31       2.74       0.01       0.53       ----

> <Gold.Chemscore.Fitness>
21.1753

> <Gold.Chemscore.DG>
-21.7246

> <Gold.Chemscore.ZeroCoef>
-5.4800

> <Gold.Chemscore.Hbond>
2.9584

> <Gold.Chemscore.Metal>
0.0000

> <Gold.Chemscore.Lipo>
114.3061

> <Gold.Chemscore.Internal_Hbond>
0.0000

> <Gold.Chemscore.DEClash>
0.0149

> <Gold.Chemscore.DEInternal>
0.5344

> <Gold.Chemscore.Rot>
2.7384

> <Gold.Chemscore.Internal.Correction>
   9.000000E+99

> <Gold.Chemscore.Hbonds>
donor molecule, donor type, donor heavy atom, donor atom, acceptor molecule, acceptor atom, score
      L1  H     5    49       P1  8028  0.95
      L1  H    12    48       P1  7948  1.00
      L1  H    16    39       P1 10175  0.92

> <Gold.Chemscore.Hbond.Weighted>
-9.8812

> <Gold.Chemscore.Metal.Weighted>
-0.0000

> <Gold.Chemscore.Lipo.Weighted>
-13.3738

> <Gold.Chemscore.Internal_Hbond.Weighted>
0.0000

> <Gold.Chemscore.DEClash.Weighted>
0.0149

> <Gold.Chemscore.DEInternal.Weighted>
0.5344

> <Gold.Chemscore.Rot.Weighted>
7.0103

> <Gold.Chemscore.Internal.Correction.Weighted>
   9.000000E+99

> <Gold.Protein.RotatedTorsions>
[ 6907 6896 6895 6894 ] final  -59.06 input  -60.11 | X-H torsion
[ 7974 7965 7964 7962 ] final  -17.71 input  175.53 | X-H torsion
[ 8008 7997 7996 7995 ] final   88.98 input   59.86 | X-H torsion
[ 10167 10162 10161 10158 ] final   37.52 input  -65.29 | X-H torsion
[ 10718 10713 10712 10709 ] final -130.70 input   66.30 | X-H torsion
[ 10763 10752 10751 10750 ] final  114.93 input  -60.55 | X-H torsion
[ 11005 11000 10999 10996 ] final  150.17 input  -57.11 | X-H torsion

> <Gold.Protein.ActiveResidues>
 VAL166  LYS551  ARG553  GLY616  TRP617  ASP618  TYR619  PRO620  LYS621  CYS622 
 ASP623  PHE694  ASN695  SER759  ASP760  ASP761  ALA762  ILE779  LEU786  VAL792 
 PHE793  MET794  SER795  GLU796  ALA797  LYS798  CYS799  TRP800  GLU811  SER814 

> <Gold.Protein.RotatedAtoms>
  150.7959  134.7018  159.6553 H   0  0  0  0  0  0  0  0  0  0  0  0  # atno 6907 bound_to 6896
  152.4071  134.6185  160.0054 H   0  0  0  0  0  0  0  0  0  0  0  0  # atno 6908 bound_to 6896
  151.6439  133.3287  159.3172 H   0  0  0  0  0  0  0  0  0  0  0  0  # atno 6909 bound_to 6896
  146.1928  140.3818  142.8452 H   0  0  0  0  0  0  0  0  0  0  0  0  # atno 7974 bound_to 7965
  155.9943  140.3366  155.6784 H   0  0  0  0  0  0  0  0  0  0  0  0  # atno 8008 bound_to 7997
  155.6377  140.0692  157.2646 H   0  0  0  0  0  0  0  0  0  0  0  0  # atno 8009 bound_to 7997
  154.4229  140.1748  156.1527 H   0  0  0  0  0  0  0  0  0  0  0  0  # atno 8010 bound_to 7997
  140.4024  144.1705  150.6134 H   0  0  0  0  0  0  0  0  0  0  0  0  # atno 10167 bound_to 10162
  156.2170  130.6954  151.0714 H   0  0  0  0  0  0  0  0  0  0  0  0  # atno 10718 bound_to 10713
  153.5146  135.3611  155.2603 H   0  0  0  0  0  0  0  0  0  0  0  0  # atno 10763 bound_to 10752
  154.8739  135.4031  154.3330 H   0  0  0  0  0  0  0  0  0  0  0  0  # atno 10764 bound_to 10752
  153.3989  135.7074  153.6507 H   0  0  0  0  0  0  0  0  0  0  0  0  # atno 10765 bound_to 10752
  140.1108  134.8925  157.1933 H   0  0  0  0  0  0  0  0  0  0  0  0  # atno 11005 bound_to 11000
  144.8519  140.7014  143.6162 LP  0  0  0  0  0  0  0  0  0  0  0  0  # atno 17320 bound_to 7965
  145.3740  139.1652  143.4316 LP  0  0  0  0  0  0  0  0  0  0  0  0  # atno 17321 bound_to 7965
  140.4725  143.2408  151.9069 LP  0  0  0  0  0  0  0  0  0  0  0  0  # atno 17342 bound_to 10162
  139.4784  144.5355  151.8605 LP  0  0  0  0  0  0  0  0  0  0  0  0  # atno 17343 bound_to 10162
  157.7068  131.0752  150.6638 LP  0  0  0  0  0  0  0  0  0  0  0  0  # atno 17370 bound_to 10713
  156.6700  130.4537  149.5660 LP  0  0  0  0  0  0  0  0  0  0  0  0  # atno 17371 bound_to 10713
  140.3094  134.3041  155.7270 LP  0  0  0  0  0  0  0  0  0  0  0  0  # atno 17394 bound_to 11000
  141.2129  133.7641  156.9754 LP  0  0  0  0  0  0  0  0  0  0  0  0  # atno 17395 bound_to 11000

$$$$
