AV-unprocessed.smi:45|AV-procd|sdf|412|dock4
  -GOLD-   2262016273D 1   1.00000     0.00000
 Structure written by MMmdl.
 61 64  0  0  0  0  0  0  0  0  2 V2000
  150.6082  141.2592  155.9260 C   0  0  0  0  0  0  0  0  0  0  0  0
  149.4732  141.7201  155.2076 O   0  0  0  0  0  0  0  0  0  0  0  0
  148.7070  140.7926  154.5320 C   0  0  0  0  0  0  0  0  0  0  0  0
  149.0757  139.4330  154.3686 C   0  0  0  0  0  0  0  0  0  0  0  0
  148.2413  138.5446  153.6631 C   0  0  0  0  0  0  0  0  0  0  0  0
  147.0273  138.9970  153.1094 C   0  0  0  0  0  0  0  0  0  0  0  0
  146.1327  138.0410  152.3451 C   0  0  0  0  0  0  0  0  0  0  0  0
  144.7730  137.9986  152.8629 N   0  0  0  0  0  0  0  0  0  0  0  0
  143.9867  136.8395  152.7647 C   0  0  0  0  0  0  0  0  0  0  0  0
  144.5357  135.7389  152.1854 N   0  3  0  0  0  0  0  0  0  0  0  0
  143.8410  134.5945  152.0761 C   0  0  0  0  0  0  0  0  0  0  0  0
  144.4362  133.4885  151.4712 N   0  0  0  0  0  0  0  0  0  0  0  0
  143.6609  132.5574  150.6578 C   0  0  0  0  0  0  0  0  0  0  0  0
  144.6164  132.0366  149.5854 C   0  0  0  0  0  0  0  0  0  0  0  0
  145.9766  132.1301  150.2645 C   0  0  0  0  0  0  0  0  0  0  0  0
  145.8567  133.3920  151.1311 C   0  0  2  0  0  0  0  0  0  0  0  0
  146.7807  133.3511  152.3669 C   0  0  0  0  0  0  0  0  0  0  0  0
  148.0944  133.0206  151.9717 O   0  0  0  0  0  0  0  0  0  0  0  0
  142.5829  134.4842  152.5219 N   0  0  0  0  0  0  0  0  0  0  0  0
  141.9924  135.5453  153.1025 C   0  0  0  0  0  0  0  0  0  0  0  0
  142.6595  136.7754  153.2621 C   0  0  0  0  0  0  0  0  0  0  0  0
  141.9556  137.9497  153.8867 C   0  0  0  0  0  0  0  0  0  0  0  0
  142.4648  138.5806  154.8130 O   0  0  0  0  0  0  0  0  0  0  0  0
  140.7463  138.2301  153.3757 N   0  0  0  0  0  0  0  0  0  0  0  0
  139.9149  139.3577  153.7794 C   0  0  0  0  0  0  0  0  0  0  0  0
  138.4895  138.9397  154.0971 C   0  0  0  0  0  0  0  0  0  0  0  0
  138.2413  137.6272  154.1493 N   0  0  0  0  0  0  0  0  0  0  0  0
  136.9768  137.2560  154.4458 C   0  0  0  0  0  0  0  0  0  0  0  0
  135.9634  138.2050  154.6892 C   0  0  0  0  0  0  0  0  0  0  0  0
  136.3442  139.5593  154.6067 C   0  0  0  0  0  0  0  0  0  0  0  0
  137.6104  139.9249  154.3106 N   0  0  0  0  0  0  0  0  0  0  0  0
  146.6526  140.3453  153.2705 C   0  0  0  0  0  0  0  0  0  0  0  0
  147.4865  141.2358  153.9751 C   0  0  0  0  0  0  0  0  0  0  0  0
  146.9986  142.8838  154.1499 Cl  0  0  0  0  0  0  0  0  0  0  0  0
  146.1019  134.2629  150.5209 H   0  0  0  0  0  0  0  0  0  0  0  0
  151.1037  142.1073  156.3984 H   0  0  0  0  0  0  0  0  0  0  0  0
  151.3324  140.7818  155.2643 H   0  0  0  0  0  0  0  0  0  0  0  0
  150.3242  140.5624  156.7158 H   0  0  0  0  0  0  0  0  0  0  0  0
  149.9971  139.0446  154.7751 H   0  0  0  0  0  0  0  0  0  0  0  0
  148.5382  137.5124  153.5471 H   0  0  0  0  0  0  0  0  0  0  0  0
  146.1111  138.3493  151.2992 H   0  0  0  0  0  0  0  0  0  0  0  0
  146.5600  137.0378  152.3758 H   0  0  0  0  0  0  0  0  0  0  0  0
  144.4085  138.8135  153.3368 H   0  0  0  0  0  0  0  0  0  0  0  0
  143.3131  131.7428  151.2941 H   0  0  0  0  0  0  0  0  0  0  0  0
  142.7884  133.0293  150.2041 H   0  0  0  0  0  0  0  0  0  0  0  0
  144.3714  131.0281  149.2511 H   0  0  0  0  0  0  0  0  0  0  0  0
  144.5932  132.6959  148.7164 H   0  0  0  0  0  0  0  0  0  0  0  0
  146.1282  131.2486  150.8897 H   0  0  0  0  0  0  0  0  0  0  0  0
  146.8028  132.1820  149.5547 H   0  0  0  0  0  0  0  0  0  0  0  0
  146.8211  134.3120  152.8780 H   0  0  0  0  0  0  0  0  0  0  0  0
  146.4268  132.6195  153.0941 H   0  0  0  0  0  0  0  0  0  0  0  0
  148.0526  132.3369  151.3202 H   0  0  0  0  0  0  0  0  0  0  0  0
  140.9733  135.4057  153.4332 H   0  0  0  0  0  0  0  0  0  0  0  0
  140.3910  137.6521  152.6283 H   0  0  0  0  0  0  0  0  0  0  0  0
  140.3548  139.8087  154.6693 H   0  0  0  0  0  0  0  0  0  0  0  0
  139.9273  140.1296  153.0073 H   0  0  0  0  0  0  0  0  0  0  0  0
  136.7723  136.1966  154.4885 H   0  0  0  0  0  0  0  0  0  0  0  0
  134.9516  137.9107  154.9260 H   0  0  0  0  0  0  0  0  0  0  0  0
  135.6314  140.3516  154.7805 H   0  0  0  0  0  0  0  0  0  0  0  0
  145.7243  140.7036  152.8504 H   0  0  0  0  0  0  0  0  0  0  0  0
  145.4902  135.7940  151.8311 H   0  0  0  0  0  0  0  0  0  0  0  0
  1  2  1  0  0  0  0
  1 36  1  0  0  0  0
  1 37  1  0  0  0  0
  1 38  1  0  0  0  0
  2  3  1  0  0  0  0
  3 33  1  0  0  0  0
  3  4  2  0  0  0  0
  4  5  1  0  0  0  0
  4 39  1  0  0  0  0
  5  6  2  0  0  0  0
  5 40  1  0  0  0  0
  6  7  1  0  0  0  0
  6 32  1  0  0  0  0
  7  8  1  0  0  0  0
  7 41  1  0  0  0  0
  7 42  1  0  0  0  0
  8  9  1  0  0  0  0
  8 43  1  0  0  0  0
  9 21  1  0  0  0  0
  9 10  2  0  0  0  0
 10 11  1  0  0  0  0
 10 61  1  0  0  0  0
 11 12  1  0  0  0  0
 11 19  2  0  0  0  0
 12 16  1  0  0  0  0
 12 13  1  0  0  0  0
 13 14  1  0  0  0  0
 13 44  1  0  0  0  0
 13 45  1  0  0  0  0
 14 15  1  0  0  0  0
 14 46  1  0  0  0  0
 14 47  1  0  0  0  0
 15 16  1  0  0  0  0
 15 48  1  0  0  0  0
 15 49  1  0  0  0  0
 16 35  1  0  0  0  0
 16 17  1  0  0  0  0
 17 18  1  0  0  0  0
 17 50  1  0  0  0  0
 17 51  1  0  0  0  0
 18 52  1  0  0  0  0
 19 20  1  0  0  0  0
 20 21  2  0  0  0  0
 20 53  1  0  0  0  0
 21 22  1  0  0  0  0
 22 23  2  0  0  0  0
 22 24  1  0  0  0  0
 24 25  1  0  0  0  0
 24 54  1  0  0  0  0
 25 26  1  0  0  0  0
 25 55  1  0  0  0  0
 25 56  1  0  0  0  0
 26 31  1  0  0  0  0
 26 27  2  0  0  0  0
 27 28  1  0  0  0  0
 28 29  2  0  0  0  0
 28 57  1  0  0  0  0
 29 30  1  0  0  0  0
 29 58  1  0  0  0  0
 30 31  2  0  0  0  0
 30 59  1  0  0  0  0
 32 33  2  0  0  0  0
 32 60  1  0  0  0  0
 33 34  1  0  0  0  0
M  CHG  1  10   1
M  END
> <s_m_source_file>
AV-unprocessed.smi

> <i_m_source_file_index>
45

> <i_lp_mmshare_version>
43012

> <i_f3d_flags>
0

> <s_epik_input>
W0NIM11PYzFbY0hdW2NIXWMoW2NIXWMxQ2wpW0NIMl1bTkhdYzJuYyhOM1tDSDJdW0NIMl1bQ0gyXVtDQEhdM1tDSDJdW09IXSluW2NIXWMyQyg9TylbTkhdW0NIMl1jNG5bY0hdW2NIXVtjSF1uNA==

> <s_epik_cmdline>
J2VwaWtfcHl0aG9uJywgJy1waCcsICc3LjAnLCAnLXRuJywgJzgnLCAnLW1hJywgJzIwMCcsICctbWV0YWxfYmluZGluZycsICctaW1hZScsICc8aW5maWxlLm1hZT4nLCAnLW9tYWUnLCAnPG91dGZpbGUubWFlPic=

> <r_lp_tautomer_probability>
0.424989

> <r_epik_Ionization_Penalty>
2.31209

> <r_epik_Ionization_Penalty_Charging>
2.31199

> <r_epik_Ionization_Penalty_Neutral>
9.65277e-05

> <r_epik_State_Penalty>
2.29675

> <r_epik_Charging_Adjusted_Penalty>
4.60874

> <i_epik_Tot_Q>
1

> <i_epik_Tot_abs_Q>
1

> <r_epik_Metal_State_Penalty>
2.3404

> <b_epik_Metal_Only>
0

> <s_epik_Chemistry_Notes>
This compound contains an electron-poor aromatic ring that is susceptible to covalent hydrolysis at low pH, typically resulting in measured values for nitrogen ring protonation that are around two units higher than predicted values.

> <s_lp_Force_Field>
OPLS_2005

> <r_lp_Energy>
35.4262

> <b_lp_Chiralities_Consistent>
1

> <s_lp_Variant>
AV-unprocessed.smi:45-6

> <Gold.Version>
5.8.1

> <Gold.Id.Protein>
6NUR|6NUR_protein|mol2

> <Gold.PLP.Fitness>
60.7262

> <Gold.PLP.PLP>
-55.8184

> <Gold.PLP.part.hbond>
-2.4860

> <Gold.PLP.part.metal>
0.0000

> <Gold.PLP.part.buried>
-2.3433

> <Gold.PLP.part.nonpolar>
-51.8247

> <Gold.PLP.part.repulsive>
0.6938

> <Gold.PLP.ligand.clash>
0.0000

> <Gold.PLP.ligand.torsion>
1.6382

> <Gold.PLP.Chemscore.Hbond>
2.0960

> <Gold.PLP.Chemscore.CHOScore>
0.0000

> <Gold.PLP.Chemscore.Metal>
0.0000

> <Gold.Chemscore.Hbonds>
donor molecule, donor type, donor heavy atom, donor atom, acceptor molecule, acceptor atom, score
      L1  H     8    43       P1 10175  1.06
      L1  H    18    52       P1 10747  0.98

> <Gold.PLP.Chemscore.Internal.Correction>
1.8962

> <Gold.Rescore>
     Score         DG    S(hbond)    S(metal)    S(lipo)     H(rot)  DE(clash)    DE(int)     intcor
     16.10     -19.21       1.43        0.00     140.95       2.94       1.38       1.73       ----

> <Gold.Chemscore.Fitness>
16.0957

> <Gold.Chemscore.DG>
-19.2083

> <Gold.Chemscore.ZeroCoef>
-5.4800

> <Gold.Chemscore.Hbond>
1.4259

> <Gold.Chemscore.Metal>
0.0000

> <Gold.Chemscore.Lipo>
140.9488

> <Gold.Chemscore.Internal_Hbond>
0.0000

> <Gold.Chemscore.DEClash>
1.3805

> <Gold.Chemscore.DEInternal>
1.7321

> <Gold.Chemscore.Rot>
2.9395

> <Gold.Chemscore.Internal.Correction>
   9.000000E+99

> <Gold.Chemscore.Hbonds>
donor molecule, donor type, donor heavy atom, donor atom, acceptor molecule, acceptor atom, score
      L1  H     8    43       P1 10175  0.50
      L1  H    18    52       P1 10747  0.87

> <Gold.Chemscore.Hbond.Weighted>
-4.7624

> <Gold.Chemscore.Metal.Weighted>
-0.0000

> <Gold.Chemscore.Lipo.Weighted>
-16.4910

> <Gold.Chemscore.Internal_Hbond.Weighted>
0.0000

> <Gold.Chemscore.DEClash.Weighted>
1.3805

> <Gold.Chemscore.DEInternal.Weighted>
1.7321

> <Gold.Chemscore.Rot.Weighted>
7.5251

> <Gold.Chemscore.Internal.Correction.Weighted>
   9.000000E+99

> <Gold.Protein.RotatedTorsions>
[ 6907 6896 6895 6894 ] final  -70.08 input  -60.11 | X-H torsion
[ 7974 7965 7964 7962 ] final -168.90 input  175.53 | X-H torsion
[ 8008 7997 7996 7995 ] final -115.97 input   59.86 | X-H torsion
[ 10167 10162 10161 10158 ] final -104.64 input  -65.29 | X-H torsion
[ 10718 10713 10712 10709 ] final   15.71 input   66.30 | X-H torsion
[ 10763 10752 10751 10750 ] final -146.57 input  -60.55 | X-H torsion
[ 11005 11000 10999 10996 ] final  -83.00 input  -57.11 | X-H torsion

> <Gold.Protein.ActiveResidues>
 VAL166  LYS551  ARG553  GLY616  TRP617  ASP618  TYR619  PRO620  LYS621  CYS622 
 ASP623  PHE694  ASN695  SER759  ASP760  ASP761  ALA762  ILE779  LEU786  VAL792 
 PHE793  MET794  SER795  GLU796  ALA797  LYS798  CYS799  TRP800  GLU811  SER814 

> <Gold.Protein.RotatedAtoms>
  150.7275  134.5505  159.5791 H   0  0  0  0  0  0  0  0  0  0  0  0  # atno 6907 bound_to 6896
  152.2993  134.7627  160.0370 H   0  0  0  0  0  0  0  0  0  0  0  0  # atno 6908 bound_to 6896
  151.8213  133.3359  159.3621 H   0  0  0  0  0  0  0  0  0  0  0  0  # atno 6909 bound_to 6896
  144.7195  140.2301  143.6305 H   0  0  0  0  0  0  0  0  0  0  0  0  # atno 7974 bound_to 7965
  155.0605  140.0393  157.2575 H   0  0  0  0  0  0  0  0  0  0  0  0  # atno 8008 bound_to 7997
  154.7063  140.2683  155.6647 H   0  0  0  0  0  0  0  0  0  0  0  0  # atno 8009 bound_to 7997
  156.2776  140.2730  156.1691 H   0  0  0  0  0  0  0  0  0  0  0  0  # atno 8010 bound_to 7997
  140.2071  143.3775  152.1082 H   0  0  0  0  0  0  0  0  0  0  0  0  # atno 10167 bound_to 10162
  157.0575  130.6295  149.5779 H   0  0  0  0  0  0  0  0  0  0  0  0  # atno 10718 bound_to 10713
  154.8329  135.3383  154.6683 H   0  0  0  0  0  0  0  0  0  0  0  0  # atno 10763 bound_to 10752
  153.7301  135.6952  153.4996 H   0  0  0  0  0  0  0  0  0  0  0  0  # atno 10764 bound_to 10752
  153.2319  135.4414  155.0556 H   0  0  0  0  0  0  0  0  0  0  0  0  # atno 10765 bound_to 10752
  141.1660  133.7272  156.8655 H   0  0  0  0  0  0  0  0  0  0  0  0  # atno 11005 bound_to 11000
  145.8419  139.2134  143.1823 LP  0  0  0  0  0  0  0  0  0  0  0  0  # atno 17320 bound_to 7965
  146.0339  140.8231  142.9862 LP  0  0  0  0  0  0  0  0  0  0  0  0  # atno 17321 bound_to 7965
  139.5194  144.7019  151.5467 LP  0  0  0  0  0  0  0  0  0  0  0  0  # atno 17342 bound_to 10162
  140.6350  143.9002  150.6639 LP  0  0  0  0  0  0  0  0  0  0  0  0  # atno 17343 bound_to 10162
  155.9989  130.5063  150.7586 LP  0  0  0  0  0  0  0  0  0  0  0  0  # atno 17370 bound_to 10713
  157.4981  131.0916  151.0347 LP  0  0  0  0  0  0  0  0  0  0  0  0  # atno 17371 bound_to 10713
  140.1818  134.9027  157.2958 LP  0  0  0  0  0  0  0  0  0  0  0  0  # atno 17394 bound_to 11000
  140.2386  134.3822  155.7490 LP  0  0  0  0  0  0  0  0  0  0  0  0  # atno 17395 bound_to 11000

$$$$
