#       Name:                AV-unprocessed.smi:1701
#       Creating user name   scv26
#       Creation time:       Fri Mar 27 08:01:31 2020


#       File generated by GOLD software.
#

@<TRIPOS>MOLECULE
AV-unprocessed.smi:1701
    57    59     1
SMALL
NO_CHARGES


@<TRIPOS>ATOM
      1 ****        -6.0320  -2.1868  -1.6716 C.3            1 S1                 0.0000
      2 ****        -6.2511  -1.6852  -0.2358 C.3            1 S1                 0.0000
      3 ****        -5.7632  -0.3221  -0.0290 N.pl3          1 S1                 0.0000
      4 ****        -6.5368   0.7623  -0.6376 C.3            1 S1                 0.0000
      5 ****        -6.4834   2.0686   0.1709 C.3            1 S1                 0.0000
      6 ****        -4.3572  -0.1982   0.0333 C.ar           1 S1                 0.0000
      7 ****        -3.5726  -0.9790   0.9144 C.ar           1 S1                 0.0000
      8 ****        -2.1714  -0.8255   0.9283 C.ar           1 S1                 0.0000
      9 ****        -1.5613   0.1121   0.0701 C.ar           1 S1                 0.0000
     10 ****        -0.1450   0.2183   0.1025 N.am           1 S1                 0.0000
     11 ****         0.6442   1.2690  -0.2319 C.2            1 S1                 0.0000
     12 ****         0.1177   2.3259  -0.5751 O.2            1 S1                 0.0000
     13 ****         2.0044   1.1487  -0.1569 N.pl3          1 S1                -1.0000
     14 ****         2.8165  -0.0166   0.2376 C.3            1 S1                 0.0000
     15 ****         3.1236   0.0468   1.7457 C.3            1 S1                 0.0000
     16 ****         4.4731   0.7768   1.8711 C.3            1 S1                 0.0000
     17 ****         4.9170   1.0454   0.4870 N.4            1 S1                 1.0000
     18 ****         6.3782   1.1940   0.2671 C.3            1 S1                 0.0000
     19 ****         7.1054  -0.1584   0.1844 C.3            1 S1                 0.0000
     20 ****         6.4413  -1.0691  -0.8543 C.3            1 S1                 0.0000
     21 ****         4.9657  -1.2685  -0.4897 C.3            1 S1                 0.0000
     22 ****         4.2152   0.0903  -0.4017 C.3            1 S1                 0.0000
     23 ****        -2.3865   0.8565  -0.8053 C.ar           1 S1                 0.0000
     24 ****        -3.7247   0.6771  -0.7861 N.pl3          1 S1                 1.0000
     25 ****        -6.4266  -3.1961  -1.7901 H              1 S1                 0.0000
     26 ****        -4.9722  -2.2160  -1.9269 H              1 S1                 0.0000
     27 ****        -6.5353  -1.5492  -2.3987 H              1 S1                 0.0000
     28 ****        -7.3169  -1.7083  -0.0067 H              1 S1                 0.0000
     29 ****        -5.7878  -2.3733   0.4702 H              1 S1                 0.0000
     30 ****        -6.1927   0.9361  -1.6578 H              1 S1                 0.0000
     31 ****        -7.5779   0.4487  -0.7218 H              1 S1                 0.0000
     32 ****        -7.1092   2.8309  -0.2932 H              1 S1                 0.0000
     33 ****        -5.4739   2.4733   0.2381 H              1 S1                 0.0000
     34 ****        -6.8497   1.9153   1.1864 H              1 S1                 0.0000
     35 ****        -4.0315  -1.6862   1.5889 H              1 S1                 0.0000
     36 ****        -1.5715  -1.4205   1.6017 H              1 S1                 0.0000
     37 ****         0.3413  -0.5852   0.4726 H              1 S1                 0.0000
     38 ****         2.3394  -0.9613  -0.0270 H              1 S1                 0.0000
     39 ****         2.3352   0.5330   2.3226 H              1 S1                 0.0000
     40 ****         3.2237  -0.9650   2.1404 H              1 S1                 0.0000
     41 ****         4.3802   1.7154   2.4187 H              1 S1                 0.0000
     42 ****         5.1931   0.1514   2.4006 H              1 S1                 0.0000
     43 ****         6.5187   1.7323  -0.6709 H              1 S1                 0.0000
     44 ****         6.8087   1.8188   1.0504 H              1 S1                 0.0000
     45 ****         8.1525   0.0005  -0.0751 H              1 S1                 0.0000
     46 ****         7.1012  -0.6461   1.1597 H              1 S1                 0.0000
     47 ****         6.5244  -0.6286  -1.8488 H              1 S1                 0.0000
     48 ****         6.9522  -2.0317  -0.8921 H              1 S1                 0.0000
     49 ****         4.4953  -1.9132  -1.2344 H              1 S1                 0.0000
     50 ****         4.9259  -1.8168   0.4546 H              1 S1                 0.0000
     51 ****         4.1590   0.5142  -1.4060 H              1 S1                 0.0000
     52 ****        -2.0336   1.5766  -1.5284 H              1 S1                 0.0000
     53 ****         4.5031   1.9404   0.2658 H              1 S1                 0.0000
     54 ****        -4.2904   1.2306  -1.4296 H              1 S1                 0.0000
     55 ****        -0.8790   2.4015  -0.6046 LP             1 S1                 0.0000
     56 ****         0.6862   3.1097  -0.8247 LP             1 S1                 0.0000
     57 ****         2.5217   1.9677  -0.4050 LP             1 S1                 0.0000
@<TRIPOS>BOND
    1    1    2 1     
    2    1   25 1     
    3    1   26 1     
    4    1   27 1     
    5    2    3 1     
    6    2   28 1     
    7    2   29 1     
    8    3    4 1     
    9    3    6 1     
   10    4    5 1     
   11    4   30 1     
   12    4   31 1     
   13    5   32 1     
   14    5   33 1     
   15    5   34 1     
   16    6   24 ar    
   17    6    7 ar    
   18    7    8 ar    
   19    7   35 1     
   20    8    9 ar    
   21    8   36 1     
   22    9   10 1     
   23    9   23 ar    
   24   10   11 am    
   25   10   37 1     
   26   11   12 2     
   27   11   13 1     
   28   13   14 1     
   29   14   22 1     
   30   14   15 1     
   31   14   38 1     
   32   15   16 1     
   33   15   39 1     
   34   15   40 1     
   35   16   17 1     
   36   16   41 1     
   37   16   42 1     
   38   17   22 1     
   39   17   18 1     
   40   17   53 1     
   41   18   19 1     
   42   18   43 1     
   43   18   44 1     
   44   19   20 1     
   45   19   45 1     
   46   19   46 1     
   47   20   21 1     
   48   20   47 1     
   49   20   48 1     
   50   21   22 1     
   51   21   49 1     
   52   21   50 1     
   53   22   51 1     
   54   23   24 ar    
   55   23   52 1     
   56   24   54 1     
   57   12   55 1     
   58   12   56 1     
   59   13   57 1     
@<TRIPOS>SUBSTRUCTURE
      1 S1             1
@<TRIPOS>SET
LONE_PAIRS      STATIC     ATOMS    <user>   **** ""
3 55 56 57
DONOR_HYDROGENS      STATIC     ATOMS    <user>   **** ""
3 37 53 54
ATOM$BLUE        STATIC     ATOMS    COLORGROUP SYSTEM
3 55 56 57
ATOM$RED        STATIC     ATOMS    COLORGROUP SYSTEM
3 37 53 54
