AV-unprocessed.smi:1802|AV-procd|sdf|7275|dock2
  -GOLD-   22720 8533D 1   1.00000     0.00000
 Structure written by MMmdl.
 40 41  0  0  0  0  0  0  0  0  3 V2000
  144.4486  135.2905  150.0099 C   0  0  0  0  0  0  0  0  0  0  0  0
  145.5418  135.2608  151.0874 C   0  0  2  0  0  0  0  0  0  0  0  0
  145.3473  134.0790  152.0523 C   0  0  0  0  0  0  0  0  0  0  0  0
  146.4364  134.0899  153.1317 C   0  0  0  0  0  0  0  0  0  0  0  0
  146.4720  135.4410  153.8634 C   0  0  0  0  0  0  0  0  0  0  0  0
  146.6650  136.5627  152.9085 N   0  3  2  0  0  0  0  0  0  0  0  0
  146.8402  137.8644  153.6013 C   0  0  0  0  0  0  0  0  0  0  0  0
  146.9271  139.0445  152.6191 C   0  0  0  0  0  0  0  0  0  0  0  0
  147.5555  140.2889  153.2589 C   0  0  0  0  0  0  0  0  0  0  0  0
  148.9414  140.0290  153.6230 N   0  0  0  0  0  0  0  0  0  0  0  0
  149.3932  139.8608  154.8727 C   0  0  0  0  0  0  0  0  0  0  0  0
  148.6105  139.9310  155.8228 O   0  0  0  0  0  0  0  0  0  0  0  0
  150.7214  139.6183  154.9419 N   0  5  0  0  0  0  0  0  0  0  0  0
  151.3541  139.6773  156.1255 C   0  0  0  0  0  0  0  0  0  0  0  0
  152.4884  139.0012  156.3693 N   0  0  0  0  0  0  0  0  0  0  0  0
  152.9741  139.1959  157.6554 N   0  0  0  0  0  0  0  0  0  0  0  0
  152.1849  140.0112  158.3544 C   0  0  0  0  0  0  0  0  0  0  0  0
  150.7764  140.6138  157.5066 S   0  0  0  0  0  0  0  0  0  0  0  0
  145.5980  136.5873  151.8719 C   0  0  0  0  0  0  0  0  0  0  0  0
  143.4601  135.4234  150.4509 H   0  0  0  0  0  0  0  0  0  0  0  0
  144.4353  134.3622  149.4382 H   0  0  0  0  0  0  0  0  0  0  0  0
  144.6117  136.1071  149.3061 H   0  0  0  0  0  0  0  0  0  0  0  0
  146.4988  135.1289  150.5797 H   0  0  0  0  0  0  0  0  0  0  0  0
  144.3646  134.1385  152.5225 H   0  0  0  0  0  0  0  0  0  0  0  0
  145.3757  133.1350  151.5068 H   0  0  0  0  0  0  0  0  0  0  0  0
  146.2616  133.2839  153.8450 H   0  0  0  0  0  0  0  0  0  0  0  0
  147.4074  133.8939  152.6752 H   0  0  0  0  0  0  0  0  0  0  0  0
  145.5476  135.5924  154.4231 H   0  0  0  0  0  0  0  0  0  0  0  0
  147.2853  135.4297  154.5900 H   0  0  0  0  0  0  0  0  0  0  0  0
  146.0355  138.0163  154.3224 H   0  0  0  0  0  0  0  0  0  0  0  0
  147.7670  137.8396  154.1760 H   0  0  0  0  0  0  0  0  0  0  0  0
  147.5184  138.7497  151.7508 H   0  0  0  0  0  0  0  0  0  0  0  0
  145.9365  139.3042  152.2461 H   0  0  0  0  0  0  0  0  0  0  0  0
  147.5197  141.1308  152.5660 H   0  0  0  0  0  0  0  0  0  0  0  0
  146.9920  140.5761  154.1482 H   0  0  0  0  0  0  0  0  0  0  0  0
  149.6138  139.9678  152.8726 H   0  0  0  0  0  0  0  0  0  0  0  0
  152.4319  140.2571  159.3763 H   0  0  0  0  0  0  0  0  0  0  0  0
  145.7764  137.4025  151.1716 H   0  0  0  0  0  0  0  0  0  0  0  0
  144.6359  136.7867  152.3469 H   0  0  0  0  0  0  0  0  0  0  0  0
  147.5356  136.3763  152.4314 H   0  0  0  0  0  0  0  0  0  0  0  0
  1  2  1  0  0  0  0
  1 20  1  0  0  0  0
  1 21  1  0  0  0  0
  1 22  1  0  0  0  0
  2 19  1  0  0  0  0
  2  3  1  0  0  0  0
  2 23  1  0  0  0  0
  3  4  1  0  0  0  0
  3 24  1  0  0  0  0
  3 25  1  0  0  0  0
  4  5  1  0  0  0  0
  4 26  1  0  0  0  0
  4 27  1  0  0  0  0
  5  6  1  0  0  0  0
  5 28  1  0  0  0  0
  5 29  1  0  0  0  0
  6  7  1  0  0  0  0
  6 19  1  0  0  0  0
  6 40  1  0  0  0  0
  7  8  1  0  0  0  0
  7 30  1  0  0  0  0
  7 31  1  0  0  0  0
  8  9  1  0  0  0  0
  8 32  1  0  0  0  0
  8 33  1  0  0  0  0
  9 10  1  0  0  0  0
  9 34  1  0  0  0  0
  9 35  1  0  0  0  0
 10 11  1  0  0  0  0
 10 36  1  0  0  0  0
 11 12  2  0  0  0  0
 11 13  1  0  0  0  0
 13 14  1  0  0  0  0
 14 18  1  0  0  0  0
 14 15  2  0  0  0  0
 15 16  1  0  0  0  0
 16 17  2  0  0  0  0
 17 18  1  0  0  0  0
 17 37  1  0  0  0  0
 19 38  1  0  0  0  0
 19 39  1  0  0  0  0
M  CHG  1   6   1
M  CHG  1  13  -1
M  END
> <s_m_source_file>
AV-unprocessed.smi

> <i_m_source_file_index>
1802

> <i_lp_mmshare_version>
43012

> <i_f3d_flags>
0

> <s_epik_input>
W0NIM11bQ0BASF0xW0NIMl1bQ0gyXVtDSDJdTihbQ0gyXTEpW0NIMl1bQ0gyXVtDSDJdW05IXUMoPU8pW05IXWMybm5bY0hdczI=

> <s_epik_cmdline>
J2VwaWtfcHl0aG9uJywgJy1waCcsICc3LjAnLCAnLXRuJywgJzgnLCAnLW1hJywgJzIwMCcsICctbWV0YWxfYmluZGluZycsICctaW1hZScsICc8aW5maWxlLm1hZT4nLCAnLW9tYWUnLCAnPG91dGZpbGUubWFlPic=

> <r_lp_tautomer_probability>
1

> <r_epik_Ionization_Penalty>
3.29702

> <r_epik_Ionization_Penalty_Charging>
3.26059

> <r_epik_Ionization_Penalty_Neutral>
0.0364294

> <r_epik_State_Penalty>
3.25788

> <r_epik_Charging_Adjusted_Penalty>
6.51847

> <i_epik_Tot_Q>
0

> <i_epik_Tot_abs_Q>
2

> <r_epik_Metal_State_Penalty>
0.477639

> <b_epik_Metal_Only>
1

> <s_lp_Force_Field>
OPLS_2005

> <r_lp_Energy>
10.8961

> <b_lp_Chiralities_Consistent>
1

> <s_lp_Variant>
AV-unprocessed.smi:1802-5

> <Gold.Version>
5.8.1

> <Gold.Id.Protein>
6NUR|6NUR_protein|mol2

> <Gold.PLP.Fitness>
45.2112

> <Gold.PLP.PLP>
-30.9638

> <Gold.PLP.part.hbond>
-4.7100

> <Gold.PLP.part.metal>
0.0000

> <Gold.PLP.part.buried>
-1.9140

> <Gold.PLP.part.nonpolar>
-24.5122

> <Gold.PLP.part.repulsive>
0.2734

> <Gold.PLP.ligand.clash>
0.0000

> <Gold.PLP.ligand.torsion>
0.3696

> <Gold.PLP.Chemscore.Hbond>
4.9440

> <Gold.PLP.Chemscore.CHOScore>
0.0000

> <Gold.PLP.Chemscore.Metal>
0.0000

> <Gold.Chemscore.Hbonds>
donor molecule, donor type, donor heavy atom, donor atom, acceptor molecule, acceptor atom, score
      L1  H     6    40       P1  7948  1.98
      L1  H    10    36       P1  7957  0.77
      P1  H  7989  7998       L1    13  0.78
      P1  H  7997  8010       L1    16  0.55

> <Gold.PLP.Chemscore.Internal.Correction>
0.1547

> <Gold.Rescore>
     Score         DG    S(hbond)    S(metal)    S(lipo)     H(rot)  DE(clash)    DE(int)     intcor
     14.59     -16.50       2.90        0.00      53.70       1.94       0.00       1.91       ----

> <Gold.Chemscore.Fitness>
14.5942

> <Gold.Chemscore.DG>
-16.4994

> <Gold.Chemscore.ZeroCoef>
-5.4800

> <Gold.Chemscore.Hbond>
2.9038

> <Gold.Chemscore.Metal>
0.0000

> <Gold.Chemscore.Lipo>
53.6992

> <Gold.Chemscore.Internal_Hbond>
0.0000

> <Gold.Chemscore.DEClash>
0.0000

> <Gold.Chemscore.DEInternal>
1.9052

> <Gold.Chemscore.Rot>
1.9383

> <Gold.Chemscore.Internal.Correction>
   9.000000E+99

> <Gold.Chemscore.Hbonds>
donor molecule, donor type, donor heavy atom, donor atom, acceptor molecule, acceptor atom, score
      L1  H     6    40       P1  7948  0.92
      L1  H    10    36       P1  7957  0.76
      P1  H  7989  7998       L1    13  0.36
      P1  H  7997  8010       L1    16  0.03

> <Gold.Chemscore.Hbond.Weighted>
-9.6986

> <Gold.Chemscore.Metal.Weighted>
-0.0000

> <Gold.Chemscore.Lipo.Weighted>
-6.2828

> <Gold.Chemscore.Internal_Hbond.Weighted>
0.0000

> <Gold.Chemscore.DEClash.Weighted>
0.0000

> <Gold.Chemscore.DEInternal.Weighted>
1.9052

> <Gold.Chemscore.Rot.Weighted>
4.9620

> <Gold.Chemscore.Internal.Correction.Weighted>
   9.000000E+99

> <Gold.Protein.RotatedTorsions>
[ 6907 6896 6895 6894 ] final -136.51 input  -60.11 | X-H torsion
[ 7974 7965 7964 7962 ] final   95.70 input  175.53 | X-H torsion
[ 8008 7997 7996 7995 ] final   38.69 input   59.86 | X-H torsion
[ 10167 10162 10161 10158 ] final   -1.86 input  -65.29 | X-H torsion
[ 10718 10713 10712 10709 ] final  -86.78 input   66.30 | X-H torsion
[ 10763 10752 10751 10750 ] final   46.98 input  -60.55 | X-H torsion
[ 11005 11000 10999 10996 ] final  149.73 input  -57.11 | X-H torsion

> <Gold.Protein.ActiveResidues>
 VAL166  LYS551  ARG553  GLY616  TRP617  ASP618  TYR619  PRO620  LYS621  CYS622 
 ASP623  PHE694  ASN695  SER759  ASP760  ASP761  ALA762  ILE779  LEU786  VAL792 
 PHE793  MET794  SER795  GLU796  ALA797  LYS798  CYS799  TRP800  GLU811  SER814 

> <Gold.Protein.RotatedAtoms>
  151.0110  133.5965  159.2682 H   0  0  0  0  0  0  0  0  0  0  0  0  # atno 6907 bound_to 6896
  151.3116  135.0795  159.9284 H   0  0  0  0  0  0  0  0  0  0  0  0  # atno 6908 bound_to 6896
  152.5299  133.9774  159.7844 H   0  0  0  0  0  0  0  0  0  0  0  0  # atno 6909 bound_to 6896
  145.4488  139.2295  143.3051 H   0  0  0  0  0  0  0  0  0  0  0  0  # atno 7974 bound_to 7965
  155.2243  140.3333  155.4311 H   0  0  0  0  0  0  0  0  0  0  0  0  # atno 8008 bound_to 7997
  156.2321  140.1855  156.7263 H   0  0  0  0  0  0  0  0  0  0  0  0  # atno 8009 bound_to 7997
  154.5995  140.0625  156.9334 H   0  0  0  0  0  0  0  0  0  0  0  0  # atno 8010 bound_to 7997
  140.6827  143.6725  150.8173 H   0  0  0  0  0  0  0  0  0  0  0  0  # atno 10167 bound_to 10162
  155.9988  130.4777  150.4767 H   0  0  0  0  0  0  0  0  0  0  0  0  # atno 10718 bound_to 10713
  152.9804  135.5991  154.3689 H   0  0  0  0  0  0  0  0  0  0  0  0  # atno 10763 bound_to 10752
  154.3364  135.2768  155.2447 H   0  0  0  0  0  0  0  0  0  0  0  0  # atno 10764 bound_to 10752
  154.4548  135.5980  153.6271 H   0  0  0  0  0  0  0  0  0  0  0  0  # atno 10765 bound_to 10752
  140.1070  134.8948  157.1880 H   0  0  0  0  0  0  0  0  0  0  0  0  # atno 11005 bound_to 11000
  146.2516  140.5244  142.8891 LP  0  0  0  0  0  0  0  0  0  0  0  0  # atno 17320 bound_to 7965
  144.8075  140.6326  143.6437 LP  0  0  0  0  0  0  0  0  0  0  0  0  # atno 17321 bound_to 7965
  140.0428  143.5329  152.2710 LP  0  0  0  0  0  0  0  0  0  0  0  0  # atno 17342 bound_to 10162
  139.6162  144.7620  151.2841 LP  0  0  0  0  0  0  0  0  0  0  0  0  # atno 17343 bound_to 10162
  157.2777  131.0600  151.2218 LP  0  0  0  0  0  0  0  0  0  0  0  0  # atno 17370 bound_to 10713
  157.3276  130.6968  149.6305 LP  0  0  0  0  0  0  0  0  0  0  0  0  # atno 17371 bound_to 10713
  140.3143  134.2988  155.7260 LP  0  0  0  0  0  0  0  0  0  0  0  0  # atno 17394 bound_to 11000
  141.2120  133.7670  156.9820 LP  0  0  0  0  0  0  0  0  0  0  0  0  # atno 17395 bound_to 11000

$$$$
