AV-unprocessed.smi:3068|AV-procd|sdf|11703|dock10
  -GOLD-   2272017103D 1   1.00000     0.00000
 Structure written by MMmdl.
 40 42  0  0  0  0  0  0  0  0  2 V2000
  150.8126  137.9859  153.9643 N   0  0  0  0  0  0  0  0  0  0  0  0
  149.8850  138.6775  153.9806 C   0  0  0  0  0  0  0  0  0  0  0  0
  148.7175  139.5497  154.0005 C   0  0  0  0  0  0  0  0  0  0  0  0
  148.9284  140.8386  154.3542 N   0  0  0  0  0  0  0  0  0  0  0  0
  147.8553  141.6571  154.3794 C   0  0  0  0  0  0  0  0  0  0  0  0
  146.5665  141.1930  154.0526 C   0  0  0  0  0  0  0  0  0  0  0  0
  146.3464  139.9087  153.6997 N   0  0  0  0  0  0  0  0  0  0  0  0
  147.4165  139.0749  153.6703 C   0  0  0  0  0  0  0  0  0  0  0  0
  147.2031  137.7328  153.3040 N   0  0  0  0  0  0  0  0  0  0  0  0
  146.1723  136.9145  153.9321 C   0  0  0  0  0  0  0  0  0  0  0  0
  145.8487  135.6493  153.1194 C   0  0  1  0  0  0  0  0  0  0  0  0
  145.1132  134.5996  153.9813 C   0  0  0  0  0  0  0  0  0  0  0  0
  144.6892  133.4305  153.1734 N   0  3  2  0  0  0  0  0  0  0  0  0
  145.8003  132.4895  152.8644 C   0  0  0  0  0  0  0  0  0  0  0  0
  145.2949  131.2648  152.0883 C   0  0  0  0  0  0  0  0  0  0  0  0
  144.5854  131.6964  150.8003 C   0  0  0  0  0  0  0  0  0  0  0  0
  143.4420  132.6637  151.1346 C   0  0  0  0  0  0  0  0  0  0  0  0
  143.9117  133.8666  151.9803 C   0  0  2  0  0  0  0  0  0  0  0  0
  144.6929  134.9287  151.1784 C   0  0  0  0  0  0  0  0  0  0  0  0
  145.0058  136.0226  152.0329 O   0  0  0  0  0  0  0  0  0  0  0  0
  148.0259  142.6856  154.6616 H   0  0  0  0  0  0  0  0  0  0  0  0
  145.7113  141.8521  154.0741 H   0  0  0  0  0  0  0  0  0  0  0  0
  147.8439  137.2869  152.6623 H   0  0  0  0  0  0  0  0  0  0  0  0
  146.4874  136.6472  154.9414 H   0  0  0  0  0  0  0  0  0  0  0  0
  145.2734  137.5204  154.0480 H   0  0  0  0  0  0  0  0  0  0  0  0
  146.7748  135.2237  152.7315 H   0  0  0  0  0  0  0  0  0  0  0  0
  145.7388  134.2737  154.8132 H   0  0  0  0  0  0  0  0  0  0  0  0
  144.2229  135.0495  154.4230 H   0  0  0  0  0  0  0  0  0  0  0  0
  146.5789  132.9891  152.2879 H   0  0  0  0  0  0  0  0  0  0  0  0
  146.2633  132.1617  153.7959 H   0  0  0  0  0  0  0  0  0  0  0  0
  146.1288  130.6034  151.8512 H   0  0  0  0  0  0  0  0  0  0  0  0
  144.6103  130.6890  152.7123 H   0  0  0  0  0  0  0  0  0  0  0  0
  145.2964  132.1725  150.1241 H   0  0  0  0  0  0  0  0  0  0  0  0
  144.1955  130.8231  150.2764 H   0  0  0  0  0  0  0  0  0  0  0  0
  142.9619  133.0095  150.2184 H   0  0  0  0  0  0  0  0  0  0  0  0
  142.6755  132.1201  151.6888 H   0  0  0  0  0  0  0  0  0  0  0  0
  143.0117  134.3570  152.3551 H   0  0  0  0  0  0  0  0  0  0  0  0
  145.6042  134.5221  150.7385 H   0  0  0  0  0  0  0  0  0  0  0  0
  144.0840  135.2992  150.3534 H   0  0  0  0  0  0  0  0  0  0  0  0
  144.0488  132.9041  153.7504 H   0  0  0  0  0  0  0  0  0  0  0  0
  1  2  3  0  0  0  0
  2  3  1  0  0  0  0
  3  8  1  0  0  0  0
  3  4  2  0  0  0  0
  4  5  1  0  0  0  0
  5  6  2  0  0  0  0
  5 21  1  0  0  0  0
  6  7  1  0  0  0  0
  6 22  1  0  0  0  0
  7  8  2  0  0  0  0
  8  9  1  0  0  0  0
  9 10  1  0  0  0  0
  9 23  1  0  0  0  0
 10 11  1  0  0  0  0
 10 24  1  0  0  0  0
 10 25  1  0  0  0  0
 11 20  1  0  0  0  0
 11 12  1  0  0  0  0
 11 26  1  0  0  0  0
 12 13  1  0  0  0  0
 12 27  1  0  0  0  0
 12 28  1  0  0  0  0
 13 18  1  0  0  0  0
 13 14  1  0  0  0  0
 13 40  1  0  0  0  0
 14 15  1  0  0  0  0
 14 29  1  0  0  0  0
 14 30  1  0  0  0  0
 15 16  1  0  0  0  0
 15 31  1  0  0  0  0
 15 32  1  0  0  0  0
 16 17  1  0  0  0  0
 16 33  1  0  0  0  0
 16 34  1  0  0  0  0
 17 18  1  0  0  0  0
 17 35  1  0  0  0  0
 17 36  1  0  0  0  0
 18 19  1  0  0  0  0
 18 37  1  0  0  0  0
 19 20  1  0  0  0  0
 19 38  1  0  0  0  0
 19 39  1  0  0  0  0
M  CHG  1  13   1
M  END
> <s_m_source_file>
AV-unprocessed.smi

> <i_m_source_file_index>
3068

> <i_lp_mmshare_version>
43012

> <i_f3d_flags>
0

> <s_epik_input>
TiNDYzFuW2NIXVtjSF1uYzFbTkhdW0NIMl1bQ0BIXShbQ0gyXTIpT1tDSDJdW0NAQEhdKE4yMylbQ0gyXVtDSDJdW0NIMl1bQ0gyXTM=

> <s_epik_cmdline>
J2VwaWtfcHl0aG9uJywgJy1waCcsICc3LjAnLCAnLXRuJywgJzgnLCAnLW1hJywgJzIwMCcsICctbWV0YWxfYmluZGluZycsICctaW1hZScsICc8aW5maWxlLm1hZT4nLCAnLW9tYWUnLCAnPG91dGZpbGUubWFlPic=

> <r_epik_Ionization_Penalty>
0.0804321

> <r_epik_Ionization_Penalty_Charging>
0.0803403

> <r_epik_Ionization_Penalty_Neutral>
9.17277e-05

> <r_epik_State_Penalty>
0.0711481

> <r_epik_Charging_Adjusted_Penalty>
0.151488

> <i_epik_Tot_Q>
1

> <i_epik_Tot_abs_Q>
1

> <r_epik_Metal_State_Penalty>
0.0711481

> <b_epik_Metal_Only>
0

> <s_lp_Force_Field>
OPLS_2005

> <r_lp_Energy>
39.7851

> <b_lp_Chiralities_Consistent>
1

> <s_lp_Variant>
AV-unprocessed.smi:3068-6

> <Gold.Version>
5.8.1

> <Gold.Id.Protein>
6NUR|6NUR_protein|mol2

> <Gold.PLP.Fitness>
39.6477

> <Gold.PLP.PLP>
-29.2238

> <Gold.PLP.part.hbond>
-1.9300

> <Gold.PLP.part.metal>
0.0000

> <Gold.PLP.part.buried>
-7.0484

> <Gold.PLP.part.nonpolar>
-23.1502

> <Gold.PLP.part.repulsive>
0.6886

> <Gold.PLP.ligand.clash>
0.0000

> <Gold.PLP.ligand.torsion>
0.7148

> <Gold.PLP.Chemscore.Hbond>
2.9500

> <Gold.PLP.Chemscore.CHOScore>
1.0000

> <Gold.PLP.Chemscore.Metal>
0.0000

> <Gold.Chemscore.Hbonds>
donor molecule, donor type, donor heavy atom, donor atom, acceptor molecule, acceptor atom, score
      L1  H     9    23       P1  7948  1.00
      L1  H    13    40       P1 10957  1.85
      L1  C     5    21       P1  8028  1.00
      L1  C     6    22       P1 10175  0.03

> <Gold.PLP.Chemscore.Internal.Correction>
0.0035

> <Gold.Rescore>
     Score         DG    S(hbond)    S(metal)    S(lipo)     H(rot)  DE(clash)    DE(int)     intcor
     15.33     -16.12       1.98        0.00      63.29       1.32       0.04       0.75       ----

> <Gold.Chemscore.Fitness>
15.3304

> <Gold.Chemscore.DG>
-16.1238

> <Gold.Chemscore.ZeroCoef>
-5.4800

> <Gold.Chemscore.Hbond>
1.9809

> <Gold.Chemscore.Metal>
0.0000

> <Gold.Chemscore.Lipo>
63.2892

> <Gold.Chemscore.Internal_Hbond>
0.0000

> <Gold.Chemscore.DEClash>
0.0431

> <Gold.Chemscore.DEInternal>
0.7503

> <Gold.Chemscore.Rot>
1.3193

> <Gold.Chemscore.Internal.Correction>
   9.000000E+99

> <Gold.Chemscore.Hbonds>
donor molecule, donor type, donor heavy atom, donor atom, acceptor molecule, acceptor atom, score
      L1  H     9    23       P1  7948  1.00
      L1  H    13    40       P1 10957  0.76

> <Gold.Chemscore.Hbond.Weighted>
-6.6163

> <Gold.Chemscore.Metal.Weighted>
-0.0000

> <Gold.Chemscore.Lipo.Weighted>
-7.4048

> <Gold.Chemscore.Internal_Hbond.Weighted>
0.0000

> <Gold.Chemscore.DEClash.Weighted>
0.0431

> <Gold.Chemscore.DEInternal.Weighted>
0.7503

> <Gold.Chemscore.Rot.Weighted>
3.3774

> <Gold.Chemscore.Internal.Correction.Weighted>
   9.000000E+99

> <Gold.Protein.RotatedTorsions>
[ 6907 6896 6895 6894 ] final   81.81 input  -60.11 | X-H torsion
[ 7974 7965 7964 7962 ] final  -22.37 input  175.53 | X-H torsion
[ 8008 7997 7996 7995 ] final    5.63 input   59.86 | X-H torsion
[ 10167 10162 10161 10158 ] final -143.67 input  -65.29 | X-H torsion
[ 10718 10713 10712 10709 ] final  -78.98 input   66.30 | X-H torsion
[ 10763 10752 10751 10750 ] final  175.99 input  -60.55 | X-H torsion
[ 11005 11000 10999 10996 ] final -166.92 input  -57.11 | X-H torsion

> <Gold.Protein.ActiveResidues>
 VAL166  LYS551  ARG553  GLY616  TRP617  ASP618  TYR619  PRO620  LYS621  CYS622 
 ASP623  PHE694  ASN695  SER759  ASP760  ASP761  ALA762  ILE779  LEU786  VAL792 
 PHE793  MET794  SER795  GLU796  ALA797  LYS798  CYS799  TRP800  GLU811  SER814 

> <Gold.Protein.RotatedAtoms>
  152.5280  134.3146  159.9125 H   0  0  0  0  0  0  0  0  0  0  0  0  # atno 6907 bound_to 6896
  151.3095  133.4080  159.2653 H   0  0  0  0  0  0  0  0  0  0  0  0  # atno 6908 bound_to 6896
  151.0050  134.9369  159.8033 H   0  0  0  0  0  0  0  0  0  0  0  0  # atno 6909 bound_to 6896
  146.1680  140.4469  142.8544 H   0  0  0  0  0  0  0  0  0  0  0  0  # atno 7974 bound_to 7965
  154.7308  140.2730  155.6458 H   0  0  0  0  0  0  0  0  0  0  0  0  # atno 8008 bound_to 7997
  156.2849  140.2716  156.1932 H   0  0  0  0  0  0  0  0  0  0  0  0  # atno 8009 bound_to 7997
  155.0384  140.0371  157.2490 H   0  0  0  0  0  0  0  0  0  0  0  0  # atno 8010 bound_to 7997
  139.7971  143.7885  152.2655 H   0  0  0  0  0  0  0  0  0  0  0  0  # atno 10167 bound_to 10162
  156.0104  130.4533  150.3579 H   0  0  0  0  0  0  0  0  0  0  0  0  # atno 10718 bound_to 10713
  154.4751  135.2772  155.1613 H   0  0  0  0  0  0  0  0  0  0  0  0  # atno 10763 bound_to 10752
  154.3347  135.6183  153.5571 H   0  0  0  0  0  0  0  0  0  0  0  0  # atno 10764 bound_to 10752
  152.9868  135.5774  154.5140 H   0  0  0  0  0  0  0  0  0  0  0  0  # atno 10765 bound_to 10752
  140.5591  134.5351  157.5139 H   0  0  0  0  0  0  0  0  0  0  0  0  # atno 11005 bound_to 11000
  144.8120  140.6402  143.6409 LP  0  0  0  0  0  0  0  0  0  0  0  0  # atno 17320 bound_to 7965
  145.4417  139.1535  143.3967 LP  0  0  0  0  0  0  0  0  0  0  0  0  # atno 17321 bound_to 7965
  139.7994  144.7380  150.9846 LP  0  0  0  0  0  0  0  0  0  0  0  0  # atno 17342 bound_to 10162
  140.7820  143.4361  151.0622 LP  0  0  0  0  0  0  0  0  0  0  0  0  # atno 17343 bound_to 10162
  157.1668  131.0359  151.2814 LP  0  0  0  0  0  0  0  0  0  0  0  0  # atno 17370 bound_to 10713
  157.4263  130.7465  149.6954 LP  0  0  0  0  0  0  0  0  0  0  0  0  # atno 17371 bound_to 10713
  139.9417  134.7776  156.0663 LP  0  0  0  0  0  0  0  0  0  0  0  0  # atno 17394 bound_to 11000
  141.1125  133.6638  156.3014 LP  0  0  0  0  0  0  0  0  0  0  0  0  # atno 17395 bound_to 11000

$$$$
