AV-unprocessed.smi:244|AV-procd|sdf|1875|dock7
  -GOLD-   2262020513D 1   1.00000     0.00000
 Structure written by MMmdl.
 56 60  0  0  0  0  0  0  0  0  1 V2000
  149.7112  143.5387  158.9220 C   0  0  0  0  0  0  0  0  0  0  0  0
  151.0656  143.8320  158.4668 N   0  0  0  0  0  0  0  0  0  0  0  0
  151.8715  144.5003  159.4926 C   0  0  0  0  0  0  0  0  0  0  0  0
  152.2917  143.5487  160.6319 C   0  0  0  0  0  0  0  0  0  0  0  0
  153.0275  142.3311  160.0631 C   0  0  1  0  0  0  0  0  0  0  0  0
  153.3505  141.4185  161.1070 O   0  0  0  0  0  0  0  0  0  0  0  0
  154.0888  140.3032  160.6171 C   0  0  0  0  0  0  0  0  0  0  0  0
  153.2489  139.5474  159.5737 C   0  0  0  0  0  0  0  0  0  0  0  0
  152.8292  140.4519  158.5070 N   0  0  0  0  0  0  0  0  0  0  0  0
  152.1856  139.8106  157.5064 C   0  0  0  0  0  0  0  0  0  0  0  0
  152.5676  139.9990  156.2152 N   0  0  0  0  0  0  0  0  0  0  0  0
  151.9496  139.3328  155.2349 C   0  0  0  0  0  0  0  0  0  0  0  0
  150.9565  138.4449  155.3253 N   0  0  0  0  0  0  0  0  0  0  0  0
  150.5753  138.2564  156.6218 C   0  0  0  0  0  0  0  0  0  0  0  0
  151.1279  138.9009  157.7623 C   0  0  0  0  0  0  0  0  0  0  0  0
  150.4881  138.4668  158.9155 N   0  0  0  0  0  0  0  0  0  0  0  0
  149.6049  137.6098  158.4804 C   0  0  0  0  0  0  0  0  0  0  0  0
  149.6033  137.4055  157.1183 N   0  0  0  0  0  0  0  0  0  0  0  0
  148.7442  136.4986  156.3735 C   0  0  0  0  0  0  0  0  0  0  0  0
  149.4976  135.3502  155.6541 C   0  0  0  0  0  0  0  0  0  0  0  0
  150.3070  135.9864  154.6817 O   0  0  0  0  0  0  0  0  0  0  0  0
  150.4146  134.5442  156.5999 C   0  0  0  0  0  0  0  0  0  0  0  0
  151.0773  133.3547  155.8817 C   0  0  0  0  0  0  0  0  0  0  0  0
  150.0824  132.5221  155.2971 O   0  0  0  0  0  0  0  0  0  0  0  0
  149.3157  133.1897  154.3015 C   0  0  0  0  0  0  0  0  0  0  0  0
  148.5505  134.3689  154.9292 C   0  0  0  0  0  0  0  0  0  0  0  0
  152.1315  141.6315  159.0228 C   0  0  2  0  0  0  0  0  0  0  0  0
  151.7430  142.6523  157.9205 C   0  0  0  0  0  0  0  0  0  0  0  0
  149.2122  144.4553  159.2375 H   0  0  0  0  0  0  0  0  0  0  0  0
  149.6944  142.8417  159.7590 H   0  0  0  0  0  0  0  0  0  0  0  0
  149.1244  143.1065  158.1110 H   0  0  0  0  0  0  0  0  0  0  0  0
  152.7651  144.9023  159.0138 H   0  0  0  0  0  0  0  0  0  0  0  0
  151.3253  145.3557  159.8914 H   0  0  0  0  0  0  0  0  0  0  0  0
  152.9389  144.0774  161.3319 H   0  0  0  0  0  0  0  0  0  0  0  0
  151.4209  143.2288  161.2046 H   0  0  0  0  0  0  0  0  0  0  0  0
  153.9513  142.6719  159.5905 H   0  0  0  0  0  0  0  0  0  0  0  0
  155.0338  140.6381  160.1864 H   0  0  0  0  0  0  0  0  0  0  0  0
  154.3347  139.6452  161.4505 H   0  0  0  0  0  0  0  0  0  0  0  0
  153.8286  138.7234  159.1552 H   0  0  0  0  0  0  0  0  0  0  0  0
  152.3731  139.1121  160.0574 H   0  0  0  0  0  0  0  0  0  0  0  0
  152.3054  139.5357  154.2357 H   0  0  0  0  0  0  0  0  0  0  0  0
  148.9349  137.0873  159.1478 H   0  0  0  0  0  0  0  0  0  0  0  0
  148.0082  136.0887  157.0668 H   0  0  0  0  0  0  0  0  0  0  0  0
  148.1804  137.0880  155.6487 H   0  0  0  0  0  0  0  0  0  0  0  0
  149.7663  136.2085  153.9390 H   0  0  0  0  0  0  0  0  0  0  0  0
  151.1751  135.1906  157.0399 H   0  0  0  0  0  0  0  0  0  0  0  0
  149.8322  134.1466  157.4310 H   0  0  0  0  0  0  0  0  0  0  0  0
  151.7783  133.6940  155.1178 H   0  0  0  0  0  0  0  0  0  0  0  0
  151.6522  132.7638  156.5949 H   0  0  0  0  0  0  0  0  0  0  0  0
  149.9637  133.5246  153.4901 H   0  0  0  0  0  0  0  0  0  0  0  0
  148.6118  132.4791  153.8681 H   0  0  0  0  0  0  0  0  0  0  0  0
  147.8320  133.9551  155.6361 H   0  0  0  0  0  0  0  0  0  0  0  0
  147.9683  134.8891  154.1676 H   0  0  0  0  0  0  0  0  0  0  0  0
  151.2275  141.2804  159.5216 H   0  0  0  0  0  0  0  0  0  0  0  0
  151.0955  142.1969  157.1705 H   0  0  0  0  0  0  0  0  0  0  0  0
  152.6404  142.9812  157.3946 H   0  0  0  0  0  0  0  0  0  0  0  0
  1  2  1  0  0  0  0
  1 29  1  0  0  0  0
  1 30  1  0  0  0  0
  1 31  1  0  0  0  0
  2 28  1  0  0  0  0
  2  3  1  0  0  0  0
  3  4  1  0  0  0  0
  3 32  1  0  0  0  0
  3 33  1  0  0  0  0
  4  5  1  0  0  0  0
  4 34  1  0  0  0  0
  4 35  1  0  0  0  0
  5 27  1  0  0  0  0
  5  6  1  0  0  0  0
  5 36  1  0  0  0  0
  6  7  1  0  0  0  0
  7  8  1  0  0  0  0
  7 37  1  0  0  0  0
  7 38  1  0  0  0  0
  8  9  1  0  0  0  0
  8 39  1  0  0  0  0
  8 40  1  0  0  0  0
  9 10  1  0  0  0  0
  9 27  1  0  0  0  0
 10 15  1  0  0  0  0
 10 11  2  0  0  0  0
 11 12  1  0  0  0  0
 12 13  2  0  0  0  0
 12 41  1  0  0  0  0
 13 14  1  0  0  0  0
 14 18  1  0  0  0  0
 14 15  2  0  0  0  0
 15 16  1  0  0  0  0
 16 17  2  0  0  0  0
 17 18  1  0  0  0  0
 17 42  1  0  0  0  0
 18 19  1  0  0  0  0
 19 20  1  0  0  0  0
 19 43  1  0  0  0  0
 19 44  1  0  0  0  0
 20 26  1  0  0  0  0
 20 21  1  0  0  0  0
 20 22  1  0  0  0  0
 21 45  1  0  0  0  0
 22 23  1  0  0  0  0
 22 46  1  0  0  0  0
 22 47  1  0  0  0  0
 23 24  1  0  0  0  0
 23 48  1  0  0  0  0
 23 49  1  0  0  0  0
 24 25  1  0  0  0  0
 25 26  1  0  0  0  0
 25 50  1  0  0  0  0
 25 51  1  0  0  0  0
 26 52  1  0  0  0  0
 26 53  1  0  0  0  0
 27 28  1  0  0  0  0
 27 54  1  0  0  0  0
 28 55  1  0  0  0  0
 28 56  1  0  0  0  0
M  END
> <s_m_source_file>
AV-unprocessed.smi

> <i_m_source_file_index>
244

> <i_lp_mmshare_version>
43012

> <i_f3d_flags>
0

> <s_epik_input>
W0NIMl0xW0NIMl1OKFtDSDNdKVtDSDJdW0NAQEhdKFtDQEhdMTIpTihbQ0gyXVtDSDJdTzIpYyhuW2NIXW4zKWMoYzM0KW5bY0hdbjRbQ0gyXUM1KFtPSF0pW0NIMl1bQ0gyXU9bQ0gyXVtDSDJdNQ==

> <s_epik_cmdline>
J2VwaWtfcHl0aG9uJywgJy1waCcsICc3LjAnLCAnLXRuJywgJzgnLCAnLW1hJywgJzIwMCcsICctbWV0YWxfYmluZGluZycsICctaW1hZScsICc8aW5maWxlLm1hZT4nLCAnLW9tYWUnLCAnPG91dGZpbGUubWFlPic=

> <r_lp_tautomer_probability>
1

> <r_epik_Ionization_Penalty>
2.27765

> <r_epik_Ionization_Penalty_Charging>
0

> <r_epik_Ionization_Penalty_Neutral>
2.27765

> <r_epik_State_Penalty>
2.4114

> <r_epik_Charging_Adjusted_Penalty>
2.4114

> <i_epik_Tot_Q>
0

> <i_epik_Tot_abs_Q>
0

> <r_epik_Metal_State_Penalty>
2.39769

> <b_epik_Metal_Only>
0

> <s_lp_Force_Field>
OPLS_2005

> <r_lp_Energy>
45.6912

> <b_lp_Chiralities_Consistent>
1

> <s_lp_Variant>
AV-unprocessed.smi:244-12

> <Gold.Version>
5.8.1

> <Gold.Id.Protein>
6NUR|6NUR_protein|mol2

> <Gold.PLP.Fitness>
46.0288

> <Gold.PLP.PLP>
-40.8441

> <Gold.PLP.part.hbond>
-2.7545

> <Gold.PLP.part.metal>
0.0000

> <Gold.PLP.part.buried>
-5.6239

> <Gold.PLP.part.nonpolar>
-31.7955

> <Gold.PLP.part.repulsive>
0.1986

> <Gold.PLP.ligand.clash>
0.0619

> <Gold.PLP.ligand.torsion>
0.4177

> <Gold.PLP.Chemscore.Hbond>
1.9920

> <Gold.PLP.Chemscore.CHOScore>
0.0000

> <Gold.PLP.Chemscore.Metal>
0.0000

> <Gold.Chemscore.Hbonds>
donor molecule, donor type, donor heavy atom, donor atom, acceptor molecule, acceptor atom, score
      L1  H    21    45       P1  7948  0.59
      P1  H  7997  8008       L1    11  1.00

> <Gold.PLP.Chemscore.Internal.Correction>
0.1060

> <Gold.Rescore>
     Score         DG    S(hbond)    S(metal)    S(lipo)     H(rot)  DE(clash)    DE(int)     intcor
     15.80     -17.23       1.76        0.00      95.26       2.06       0.06       1.37       ----

> <Gold.Chemscore.Fitness>
15.8026

> <Gold.Chemscore.DG>
-17.2336

> <Gold.Chemscore.ZeroCoef>
-5.4800

> <Gold.Chemscore.Hbond>
1.7617

> <Gold.Chemscore.Metal>
0.0000

> <Gold.Chemscore.Lipo>
95.2640

> <Gold.Chemscore.Internal_Hbond>
0.0000

> <Gold.Chemscore.DEClash>
0.0580

> <Gold.Chemscore.DEInternal>
1.3730

> <Gold.Chemscore.Rot>
2.0611

> <Gold.Chemscore.Internal.Correction>
   9.000000E+99

> <Gold.Chemscore.Hbonds>
donor molecule, donor type, donor heavy atom, donor atom, acceptor molecule, acceptor atom, score
      L1  H    21    45       P1  7948  0.23
      P1  H  7997  8008       L1    11  0.30

> <Gold.Chemscore.Hbond.Weighted>
-5.8842

> <Gold.Chemscore.Metal.Weighted>
-0.0000

> <Gold.Chemscore.Lipo.Weighted>
-11.1459

> <Gold.Chemscore.Internal_Hbond.Weighted>
0.0000

> <Gold.Chemscore.DEClash.Weighted>
0.0580

> <Gold.Chemscore.DEInternal.Weighted>
1.3730

> <Gold.Chemscore.Rot.Weighted>
5.2765

> <Gold.Chemscore.Internal.Correction.Weighted>
   9.000000E+99

> <Gold.Protein.RotatedTorsions>
[ 6907 6896 6895 6894 ] final  -29.48 input  -60.11 | X-H torsion
[ 7974 7965 7964 7962 ] final  -84.89 input  175.53 | X-H torsion
[ 8008 7997 7996 7995 ] final  -46.77 input   59.86 | X-H torsion
[ 10167 10162 10161 10158 ] final  149.99 input  -65.29 | X-H torsion
[ 10718 10713 10712 10709 ] final  -90.23 input   66.30 | X-H torsion
[ 10763 10752 10751 10750 ] final    4.74 input  -60.55 | X-H torsion
[ 11005 11000 10999 10996 ] final  -97.61 input  -57.11 | X-H torsion

> <Gold.Protein.ActiveResidues>
 VAL166  LYS551  ARG553  GLY616  TRP617  ASP618  TYR619  PRO620  LYS621  CYS622 
 ASP623  PHE694  ASN695  SER759  ASP760  ASP761  ALA762  ILE779  LEU786  VAL792 
 PHE793  MET794  SER795  GLU796  ALA797  LYS798  CYS799  TRP800  GLU811  SER814 

> <Gold.Protein.RotatedAtoms>
  151.1187  135.0067  159.8527 H   0  0  0  0  0  0  0  0  0  0  0  0  # atno 6907 bound_to 6896
  152.5447  134.1749  159.8622 H   0  0  0  0  0  0  0  0  0  0  0  0  # atno 6908 bound_to 6896
  151.1805  133.4683  159.2627 H   0  0  0  0  0  0  0  0  0  0  0  0  # atno 6909 bound_to 6896
  145.5006  140.9547  143.1762 H   0  0  0  0  0  0  0  0  0  0  0  0  # atno 7974 bound_to 7965
  154.4010  140.1363  156.4066 H   0  0  0  0  0  0  0  0  0  0  0  0  # atno 8008 bound_to 7997
  155.7773  140.3482  155.5258 H   0  0  0  0  0  0  0  0  0  0  0  0  # atno 8009 bound_to 7997
  155.8708  140.0971  157.1541 H   0  0  0  0  0  0  0  0  0  0  0  0  # atno 8010 bound_to 7997
  139.4855  144.5558  151.7320 H   0  0  0  0  0  0  0  0  0  0  0  0  # atno 10167 bound_to 10162
  155.9987  130.4902  150.5291 H   0  0  0  0  0  0  0  0  0  0  0  0  # atno 10718 bound_to 10713
  153.2677  135.6929  153.7513 H   0  0  0  0  0  0  0  0  0  0  0  0  # atno 10763 bound_to 10752
  153.6548  135.3370  155.3111 H   0  0  0  0  0  0  0  0  0  0  0  0  # atno 10764 bound_to 10752
  154.8453  135.4463  154.1688 H   0  0  0  0  0  0  0  0  0  0  0  0  # atno 10765 bound_to 10752
  141.1373  133.8183  157.0729 H   0  0  0  0  0  0  0  0  0  0  0  0  # atno 11005 bound_to 11000
  144.7782  139.6583  143.7166 LP  0  0  0  0  0  0  0  0  0  0  0  0  # atno 17320 bound_to 7965
  146.2228  139.5667  142.9607 LP  0  0  0  0  0  0  0  0  0  0  0  0  # atno 17321 bound_to 7965
  140.5119  144.1012  150.5997 LP  0  0  0  0  0  0  0  0  0  0  0  0  # atno 17342 bound_to 10162
  140.3940  143.2737  152.0026 LP  0  0  0  0  0  0  0  0  0  0  0  0  # atno 17343 bound_to 10162
  157.3242  131.0687  151.1909 LP  0  0  0  0  0  0  0  0  0  0  0  0  # atno 17370 bound_to 10713
  157.2812  130.6751  149.6067 LP  0  0  0  0  0  0  0  0  0  0  0  0  # atno 17371 bound_to 10713
  140.0500  134.9810  157.1119 LP  0  0  0  0  0  0  0  0  0  0  0  0  # atno 17394 bound_to 11000
  140.4004  134.2088  155.7163 LP  0  0  0  0  0  0  0  0  0  0  0  0  # atno 17395 bound_to 11000

$$$$
