AV-unprocessed.smi:1352|AV-procd|sdf|5530|dock5
  -GOLD-   22720 5123D 1   1.00000     0.00000
 Structure written by MMmdl.
 47 48  0  0  0  0  0  0  0  0  2 V2000
  143.6695  135.6394  151.9417 C   0  0  0  0  0  0  0  0  0  0  0  0
  145.0694  135.1284  151.5728 C   0  0  2  0  0  0  0  0  0  0  0  0
  144.9965  133.9694  150.5649 C   0  0  0  0  0  0  0  0  0  0  0  0
  146.4063  133.4588  150.2237 C   0  0  2  0  0  0  0  0  0  0  0  0
  146.3537  132.2863  149.2339 C   0  0  0  0  0  0  0  0  0  0  0  0
  147.1608  133.0764  151.5117 C   0  0  0  0  0  0  0  0  0  0  0  0
  147.2204  134.2147  152.4650 N   0  3  2  0  0  0  0  0  0  0  0  0
  148.0641  133.9107  153.6485 C   0  0  0  0  0  0  0  0  0  0  0  0
  147.7565  134.8352  154.8424 C   0  0  0  0  0  0  0  0  0  0  0  0
  147.8510  136.2418  154.4701 N   0  0  0  0  0  0  0  0  0  0  0  0
  147.2604  137.2522  155.1260 C   0  0  0  0  0  0  0  0  0  0  0  0
  146.5457  137.0835  156.1151 O   0  0  0  0  0  0  0  0  0  0  0  0
  147.5033  138.6577  154.5574 C   0  0  0  0  0  0  0  0  0  0  0  0
  148.7716  139.2579  155.0043 N   0  0  0  0  0  0  0  0  0  0  0  0
  149.9609  138.6991  154.4954 C   0  0  0  0  0  0  0  0  0  0  0  0
  151.1703  139.1709  154.8374 C   0  0  0  0  0  0  0  0  0  0  0  0
  151.2344  140.2830  155.7557 C   0  0  0  0  0  0  0  0  0  0  0  0
  150.1027  140.8273  156.2459 C   0  0  0  0  0  0  0  0  0  0  0  0
  148.7785  140.3170  155.8719 C   0  0  0  0  0  0  0  0  0  0  0  0
  147.7390  140.8108  156.3102 O   0  0  0  0  0  0  0  0  0  0  0  0
  145.8601  134.6977  152.8232 C   0  0  0  0  0  0  0  0  0  0  0  0
  143.0765  134.8604  152.4223 H   0  0  0  0  0  0  0  0  0  0  0  0
  143.1269  135.9722  151.0561 H   0  0  0  0  0  0  0  0  0  0  0  0
  143.7275  136.4848  152.6279 H   0  0  0  0  0  0  0  0  0  0  0  0
  145.6055  135.9538  151.1013 H   0  0  0  0  0  0  0  0  0  0  0  0
  144.3978  133.1562  150.9784 H   0  0  0  0  0  0  0  0  0  0  0  0
  144.4900  134.2975  149.6564 H   0  0  0  0  0  0  0  0  0  0  0  0
  146.9525  134.2709  149.7410 H   0  0  0  0  0  0  0  0  0  0  0  0
  145.8213  131.4335  149.6564 H   0  0  0  0  0  0  0  0  0  0  0  0
  147.3566  131.9527  148.9654 H   0  0  0  0  0  0  0  0  0  0  0  0
  145.8453  132.5725  148.3125 H   0  0  0  0  0  0  0  0  0  0  0  0
  146.6823  132.2228  151.9948 H   0  0  0  0  0  0  0  0  0  0  0  0
  148.1740  132.7663  151.2519 H   0  0  0  0  0  0  0  0  0  0  0  0
  147.9485  132.8623  153.9279 H   0  0  0  0  0  0  0  0  0  0  0  0
  149.1128  134.0407  153.3776 H   0  0  0  0  0  0  0  0  0  0  0  0
  146.7641  134.6230  155.2442 H   0  0  0  0  0  0  0  0  0  0  0  0
  148.4616  134.6700  155.6561 H   0  0  0  0  0  0  0  0  0  0  0  0
  148.4187  136.4665  153.6652 H   0  0  0  0  0  0  0  0  0  0  0  0
  147.4741  138.6172  153.4665 H   0  0  0  0  0  0  0  0  0  0  0  0
  146.6601  139.2893  154.8411 H   0  0  0  0  0  0  0  0  0  0  0  0
  149.8268  137.8748  153.8100 H   0  0  0  0  0  0  0  0  0  0  0  0
  152.0713  138.7321  154.4341 H   0  0  0  0  0  0  0  0  0  0  0  0
  152.1944  140.6811  156.0500 H   0  0  0  0  0  0  0  0  0  0  0  0
  150.1700  141.6595  156.9311 H   0  0  0  0  0  0  0  0  0  0  0  0
  145.9311  135.5453  153.5040 H   0  0  0  0  0  0  0  0  0  0  0  0
  145.3244  133.9105  153.3567 H   0  0  0  0  0  0  0  0  0  0  0  0
  147.6816  134.9666  151.9726 H   0  0  0  0  0  0  0  0  0  0  0  0
  1  2  1  0  0  0  0
  1 22  1  0  0  0  0
  1 23  1  0  0  0  0
  1 24  1  0  0  0  0
  2 21  1  0  0  0  0
  2  3  1  0  0  0  0
  2 25  1  0  0  0  0
  3  4  1  0  0  0  0
  3 26  1  0  0  0  0
  3 27  1  0  0  0  0
  4  5  1  0  0  0  0
  4  6  1  0  0  0  0
  4 28  1  0  0  0  0
  5 29  1  0  0  0  0
  5 30  1  0  0  0  0
  5 31  1  0  0  0  0
  6  7  1  0  0  0  0
  6 32  1  0  0  0  0
  6 33  1  0  0  0  0
  7  8  1  0  0  0  0
  7 21  1  0  0  0  0
  7 47  1  0  0  0  0
  8  9  1  0  0  0  0
  8 34  1  0  0  0  0
  8 35  1  0  0  0  0
  9 10  1  0  0  0  0
  9 36  1  0  0  0  0
  9 37  1  0  0  0  0
 10 11  1  0  0  0  0
 10 38  1  0  0  0  0
 11 12  2  0  0  0  0
 11 13  1  0  0  0  0
 13 14  1  0  0  0  0
 13 39  1  0  0  0  0
 13 40  1  0  0  0  0
 14 19  1  0  0  0  0
 14 15  1  0  0  0  0
 15 16  2  0  0  0  0
 15 41  1  0  0  0  0
 16 17  1  0  0  0  0
 16 42  1  0  0  0  0
 17 18  2  0  0  0  0
 17 43  1  0  0  0  0
 18 19  1  0  0  0  0
 18 44  1  0  0  0  0
 19 20  2  0  0  0  0
 21 45  1  0  0  0  0
 21 46  1  0  0  0  0
M  CHG  1   7   1
M  END
> <s_m_source_file>
AV-unprocessed.smi

> <i_m_source_file_index>
1352

> <i_lp_mmshare_version>
43012

> <i_f3d_flags>
0

> <s_epik_input>
W0NIM11bQ0BASF0xW0NIMl1bQ0BASF0oW0NIM10pW0NIMl1OKFtDSDJdMSlbQ0gyXVtDSDJdW05IXUMoPU8pW0NIMl1uMltjSF1bY0hdW2NIXVtjSF1jMj1P

> <s_epik_cmdline>
J2VwaWtfcHl0aG9uJywgJy1waCcsICc3LjAnLCAnLXRuJywgJzgnLCAnLW1hJywgJzIwMCcsICctbWV0YWxfYmluZGluZycsICctaW1hZScsICc8aW5maWxlLm1hZT4nLCAnLW9tYWUnLCAnPG91dGZpbGUubWFlPic=

> <r_lp_tautomer_probability>
1

> <r_epik_Ionization_Penalty>
0.00156146

> <r_epik_Ionization_Penalty_Charging>
0.00156138

> <r_epik_Ionization_Penalty_Neutral>
8.12891e-08

> <r_epik_State_Penalty>
0.00104868

> <r_epik_Charging_Adjusted_Penalty>
0.00261006

> <i_epik_Tot_Q>
1

> <i_epik_Tot_abs_Q>
1

> <r_epik_Metal_State_Penalty>
-0

> <b_epik_Metal_Only>
0

> <s_lp_Force_Field>
OPLS_2005

> <r_lp_Energy>
25.1883

> <b_lp_Chiralities_Consistent>
1

> <s_lp_Variant>
AV-unprocessed.smi:1352-3

> <Gold.Version>
5.8.1

> <Gold.Id.Protein>
6NUR|6NUR_protein|mol2

> <Gold.PLP.Fitness>
49.1764

> <Gold.PLP.PLP>
-38.3109

> <Gold.PLP.part.hbond>
-2.0000

> <Gold.PLP.part.metal>
0.0000

> <Gold.PLP.part.buried>
-2.2267

> <Gold.PLP.part.nonpolar>
-34.0752

> <Gold.PLP.part.repulsive>
0.0862

> <Gold.PLP.ligand.clash>
0.0000

> <Gold.PLP.ligand.torsion>
0.8347

> <Gold.PLP.Chemscore.Hbond>
2.9760

> <Gold.PLP.Chemscore.CHOScore>
1.1931

> <Gold.PLP.Chemscore.Metal>
0.0000

> <Gold.Chemscore.Hbonds>
donor molecule, donor type, donor heavy atom, donor atom, acceptor molecule, acceptor atom, score
      L1  H     7    47       P1  7948  2.00
      L1  H    10    38       P1  7948  1.00
      L1  C    15    41       P1  7948  0.68

> <Gold.PLP.Chemscore.Internal.Correction>
0.0276

> <Gold.Rescore>
     Score         DG    S(hbond)    S(metal)    S(lipo)     H(rot)  DE(clash)    DE(int)     intcor
     15.84     -16.92       1.74        0.00      88.12       1.83       0.39       0.69       ----

> <Gold.Chemscore.Fitness>
15.8362

> <Gold.Chemscore.DG>
-16.9208

> <Gold.Chemscore.ZeroCoef>
-5.4800

> <Gold.Chemscore.Hbond>
1.7434

> <Gold.Chemscore.Metal>
0.0000

> <Gold.Chemscore.Lipo>
88.1216

> <Gold.Chemscore.Internal_Hbond>
0.0000

> <Gold.Chemscore.DEClash>
0.3938

> <Gold.Chemscore.DEInternal>
0.6909

> <Gold.Chemscore.Rot>
1.8329

> <Gold.Chemscore.Internal.Correction>
   9.000000E+99

> <Gold.Chemscore.Hbonds>
donor molecule, donor type, donor heavy atom, donor atom, acceptor molecule, acceptor atom, score
      L1  H     7    47       P1  7948  0.75
      L1  H    10    38       P1  7948  0.97

> <Gold.Chemscore.Hbond.Weighted>
-5.8228

> <Gold.Chemscore.Metal.Weighted>
-0.0000

> <Gold.Chemscore.Lipo.Weighted>
-10.3102

> <Gold.Chemscore.Internal_Hbond.Weighted>
0.0000

> <Gold.Chemscore.DEClash.Weighted>
0.3938

> <Gold.Chemscore.DEInternal.Weighted>
0.6909

> <Gold.Chemscore.Rot.Weighted>
4.6922

> <Gold.Chemscore.Internal.Correction.Weighted>
   9.000000E+99

> <Gold.Protein.RotatedTorsions>
[ 6907 6896 6895 6894 ] final   79.43 input  -60.11 | X-H torsion
[ 7974 7965 7964 7962 ] final -113.45 input  175.53 | X-H torsion
[ 8008 7997 7996 7995 ] final -125.00 input   59.86 | X-H torsion
[ 10167 10162 10161 10158 ] final -128.33 input  -65.29 | X-H torsion
[ 10718 10713 10712 10709 ] final  -19.91 input   66.30 | X-H torsion
[ 10763 10752 10751 10750 ] final -119.22 input  -60.55 | X-H torsion
[ 11005 11000 10999 10996 ] final  -46.68 input  -57.11 | X-H torsion

> <Gold.Protein.ActiveResidues>
 VAL166  LYS551  ARG553  GLY616  TRP617  ASP618  TYR619  PRO620  LYS621  CYS622 
 ASP623  PHE694  ASN695  SER759  ASP760  ASP761  ALA762  ILE779  LEU786  VAL792 
 PHE793  MET794  SER795  GLU796  ALA797  LYS798  CYS799  TRP800  GLU811  SER814 

> <Gold.Protein.RotatedAtoms>
  152.5198  134.3513  159.9251 H   0  0  0  0  0  0  0  0  0  0  0  0  # atno 6907 bound_to 6896
  151.3464  133.3936  159.2683 H   0  0  0  0  0  0  0  0  0  0  0  0  # atno 6908 bound_to 6896
  150.9762  134.9144  159.7875 H   0  0  0  0  0  0  0  0  0  0  0  0  # atno 6909 bound_to 6896
  145.1318  140.8729  143.3753 H   0  0  0  0  0  0  0  0  0  0  0  0  # atno 7974 bound_to 7965
  155.2060  140.0417  157.2925 H   0  0  0  0  0  0  0  0  0  0  0  0  # atno 8008 bound_to 7997
  154.6043  140.2460  155.7723 H   0  0  0  0  0  0  0  0  0  0  0  0  # atno 8009 bound_to 7997
  156.2340  140.2928  156.0273 H   0  0  0  0  0  0  0  0  0  0  0  0  # atno 8010 bound_to 7997
  139.9514  143.6051  152.2474 H   0  0  0  0  0  0  0  0  0  0  0  0  # atno 10167 bound_to 10162
  156.5392  130.4674  149.6507 H   0  0  0  0  0  0  0  0  0  0  0  0  # atno 10718 bound_to 10713
  154.8611  135.4246  154.2263 H   0  0  0  0  0  0  0  0  0  0  0  0  # atno 10763 bound_to 10752
  153.3258  135.6985  153.6997 H   0  0  0  0  0  0  0  0  0  0  0  0  # atno 10764 bound_to 10752
  153.6033  135.3533  155.2927 H   0  0  0  0  0  0  0  0  0  0  0  0  # atno 10765 bound_to 10752
  141.0594  133.6714  156.3189 H   0  0  0  0  0  0  0  0  0  0  0  0  # atno 11005 bound_to 11000
  145.0627  139.3093  143.5872 LP  0  0  0  0  0  0  0  0  0  0  0  0  # atno 17320 bound_to 7965
  146.3513  140.0074  142.8670 LP  0  0  0  0  0  0  0  0  0  0  0  0  # atno 17321 bound_to 7965
  139.6625  144.7662  151.1935 LP  0  0  0  0  0  0  0  0  0  0  0  0  # atno 17342 bound_to 10162
  140.7581  143.5988  150.8721 LP  0  0  0  0  0  0  0  0  0  0  0  0  # atno 17343 bound_to 10162
  156.2987  130.7165  151.2031 LP  0  0  0  0  0  0  0  0  0  0  0  0  # atno 17370 bound_to 10713
  157.7408  131.0512  150.5139 LP  0  0  0  0  0  0  0  0  0  0  0  0  # atno 17371 bound_to 10713
  140.5899  134.5661  157.5497 LP  0  0  0  0  0  0  0  0  0  0  0  0  # atno 17394 bound_to 11000
  139.9419  134.7772  156.0658 LP  0  0  0  0  0  0  0  0  0  0  0  0  # atno 17395 bound_to 11000

$$$$
