#       Name:                AV-unprocessed.smi:3020
#       Creating user name   scv26
#       Creation time:       Fri Mar 27 16:43:14 2020


#       File generated by GOLD software.
#

@<TRIPOS>MOLECULE
AV-unprocessed.smi:3020
    34    35     1
SMALL
NO_CHARGES


@<TRIPOS>ATOM
      1 ****        -2.5749   0.3490   1.7680 O.2            1 S1                 0.0000
      2 ****        -1.6868   0.0501   0.9698 C.2            1 S1                 0.0000
      3 ****        -0.9646  -1.2888   1.1209 C.3            1 S1                 0.0000
      4 ****         0.4178  -1.1112   0.8511 O.3            1 S1                 0.0000
      5 ****         1.1527  -2.3179   0.9553 C.3            1 S1                 0.0000
      6 ****         2.6084  -2.0338   0.6536 C.3            1 S1                 0.0000
      7 ****         3.1251  -2.0824  -0.7665 C.3            1 S1                 0.0000
      8 ****         3.5314  -3.1492   0.2183 C.3            1 S1                 0.0000
      9 ****        -1.2987   0.8175  -0.0662 N.am           1 S1                 0.0000
     10 ****        -1.7899   2.0939  -0.4454 C.ar           1 S1                 0.0000
     11 ****        -1.1768   2.6756  -1.5803 C.ar           1 S1                 0.0000
     12 ****        -1.5358   3.8856  -2.0637 N.ar           1 S1                 0.0000
     13 ****        -2.5237   4.5294  -1.4062 C.ar           1 S1                 0.0000
     14 ****        -3.1462   3.9655  -0.2747 C.ar           1 S1                 0.0000
     15 ****        -2.7822   2.7556   0.2033 N.ar           1 S1                 0.0000
     16 ****        -1.1062  -1.6713   2.1332 H              1 S1                 0.0000
     17 ****        -1.4012  -2.0079   0.4261 H              1 S1                 0.0000
     18 ****         1.0725  -2.7271   1.9634 H              1 S1                 0.0000
     19 ****         0.7677  -3.0632   0.2570 H              1 S1                 0.0000
     20 ****         3.0516  -1.2788   1.3005 H              1 S1                 0.0000
     21 ****         2.4258  -2.3632  -1.5516 H              1 S1                 0.0000
     22 ****         3.8759  -1.3482  -1.0520 H              1 S1                 0.0000
     23 ****         4.5544  -3.1279   0.5884 H              1 S1                 0.0000
     24 ****         3.1036  -4.1413   0.0873 H              1 S1                 0.0000
     25 ****        -0.5577   0.4451  -0.6423 H              1 S1                 0.0000
     26 ****        -0.3861   2.1644  -2.1102 H              1 S1                 0.0000
     27 ****        -2.8191   5.4972  -1.7836 H              1 S1                 0.0000
     28 ****        -3.9361   4.4846   0.2475 H              1 S1                 0.0000
     29 ****        -2.8172  -0.2814   2.5055 LP             1 S1                 0.0000
     30 ****        -3.0542   1.2221   1.6789 LP             1 S1                 0.0000
     31 ****         0.7896  -0.4523   1.5049 LP             1 S1                 0.0000
     32 ****         0.5195  -0.7534  -0.0772 LP             1 S1                 0.0000
     33 ****        -1.0926   4.2835  -2.8670 LP             1 S1                 0.0000
     34 ****        -3.2280   2.3611   1.0068 LP             1 S1                 0.0000
@<TRIPOS>BOND
    1    1    2 2     
    2    2    3 1     
    3    2    9 am    
    4    3    4 1     
    5    3   16 1     
    6    3   17 1     
    7    4    5 1     
    8    5    6 1     
    9    5   18 1     
   10    5   19 1     
   11    6    8 1     
   12    6    7 1     
   13    6   20 1     
   14    7    8 1     
   15    7   21 1     
   16    7   22 1     
   17    8   23 1     
   18    8   24 1     
   19    9   10 1     
   20    9   25 1     
   21   10   15 ar    
   22   10   11 ar    
   23   11   12 ar    
   24   11   26 1     
   25   12   13 ar    
   26   13   14 ar    
   27   13   27 1     
   28   14   15 ar    
   29   14   28 1     
   30    1   29 1     
   31    1   30 1     
   32    4   31 1     
   33    4   32 1     
   34   12   33 1     
   35   15   34 1     
@<TRIPOS>SUBSTRUCTURE
      1 S1             1
@<TRIPOS>SET
LONE_PAIRS      STATIC     ATOMS    <user>   **** ""
6 29 30 31 32 33 34
DONOR_HYDROGENS      STATIC     ATOMS    <user>   **** ""
1 25
ATOM$BLUE        STATIC     ATOMS    COLORGROUP SYSTEM
6 29 30 31 32 33 34
ATOM$RED        STATIC     ATOMS    COLORGROUP SYSTEM
1 25
