#       Name:                AV-unprocessed.smi:35
#       Creating user name   scv26
#       Creation time:       Thu Mar 26 16:01:03 2020


#       File generated by GOLD software.
#

@<TRIPOS>MOLECULE
AV-unprocessed.smi:35
    41    42     1
SMALL
NO_CHARGES


@<TRIPOS>ATOM
      1 ****        -2.2128   4.7473  -0.9156 O.2            1 S1                 0.0000
      2 ****        -1.8719   3.6146  -0.5818 C.2            1 S1                 0.0000
      3 ****        -2.7833   2.7578   0.0425 N.am           1 S1                 0.0000
      4 ****        -2.5144   1.4542   0.4659 C.2            1 S1                 0.0000
      5 ****        -3.4035   0.7864   0.9918 O.2            1 S1                 0.0000
      6 ****        -1.2058   0.9649   0.2512 N.am           1 S1                 0.0000
      7 ****        -0.8429  -0.4366   0.6849 C.3            1 S1                 0.0000
      8 ****         0.4332  -0.4014   1.2506 O.3            1 S1                 0.0000
      9 ****         1.2285  -1.4542   0.7192 C.3            1 S1                 0.0000
     10 ****         2.7098  -1.0544   0.8037 C.3            1 S1                 0.0000
     11 ****         3.5389  -2.1374   0.4402 O.3            1 S1                 0.0000
     12 ****         0.6854  -1.6277  -0.7017 C.3            1 S1                 0.0000
     13 ****         0.9865  -2.8929  -1.2605 O.3            1 S1                 0.0000
     14 ****        -0.8120  -1.3875  -0.5243 C.3            1 S1                 0.0000
     15 ****        -1.5269  -2.5795  -0.2509 O.3            1 S1                 0.0000
     16 ****        -0.2691   1.7772  -0.3729 C.2            1 S1                 0.0000
     17 ****        -0.5473   3.0372  -0.7808 C.2            1 S1                 0.0000
     18 ****         0.9280   4.0310  -1.6525 Br             1 S1                 0.0000
     19 ****        -3.7167   3.1104   0.1976 H              1 S1                 0.0000
     20 ****        -1.5491  -0.7359   1.4611 H              1 S1                 0.0000
     21 ****         1.0338  -2.3492   1.3134 H              1 S1                 0.0000
     22 ****         2.9221  -0.1972   0.1641 H              1 S1                 0.0000
     23 ****         2.9589  -0.7632   1.8244 H              1 S1                 0.0000
     24 ****         4.4408  -1.8728   0.5413 H              1 S1                 0.0000
     25 ****         1.0973  -0.8526  -1.3490 H              1 S1                 0.0000
     26 ****         1.9262  -2.9946  -1.2805 H              1 S1                 0.0000
     27 ****        -1.2530  -0.9177  -1.4047 H              1 S1                 0.0000
     28 ****        -1.1068  -3.0217   0.4708 H              1 S1                 0.0000
     29 ****         0.7266   1.3967  -0.5461 H              1 S1                 0.0000
     30 ****        -1.5572   5.3551  -1.3637 LP             1 S1                 0.0000
     31 ****        -3.1458   5.0610  -0.7391 LP             1 S1                 0.0000
     32 ****        -4.3157   1.1771   1.1151 LP             1 S1                 0.0000
     33 ****        -3.2141  -0.1472   1.2959 LP             1 S1                 0.0000
     34 ****         0.3593  -0.5098   2.2419 LP             1 S1                 0.0000
     35 ****         0.8639   0.4767   1.0424 LP             1 S1                 0.0000
     36 ****         3.3662  -2.3894  -0.5120 LP             1 S1                 0.0000
     37 ****         3.3490  -2.9208   1.0320 LP             1 S1                 0.0000
     38 ****         0.6211  -2.9472  -2.1898 LP             1 S1                 0.0000
     39 ****         0.5806  -3.6148  -0.7001 LP             1 S1                 0.0000
     40 ****        -1.5203  -3.1697  -1.0582 LP             1 S1                 0.0000
     41 ****        -2.4713  -2.3583  -0.0075 LP             1 S1                 0.0000
@<TRIPOS>BOND
    1    1    2 2     
    2    2   17 1     
    3    2    3 1     
    4    3   19 1     
    5    3    4 1     
    6    4    5 2     
    7    4    6 1     
    8    6    7 1     
    9    6   16 1     
   10    7   14 1     
   11    7    8 1     
   12    7   20 1     
   13    8    9 1     
   14    9   10 1     
   15    9   12 1     
   16    9   21 1     
   17   10   11 1     
   18   10   22 1     
   19   10   23 1     
   20   11   24 1     
   21   12   13 1     
   22   12   14 1     
   23   12   25 1     
   24   13   26 1     
   25   14   15 1     
   26   14   27 1     
   27   15   28 1     
   28   16   17 2     
   29   16   29 1     
   30   17   18 1     
   31    1   30 1     
   32    1   31 1     
   33    5   32 1     
   34    5   33 1     
   35    8   34 1     
   36    8   35 1     
   37   11   36 1     
   38   11   37 1     
   39   13   38 1     
   40   13   39 1     
   41   15   40 1     
   42   15   41 1     
@<TRIPOS>SUBSTRUCTURE
      1 S1             1
@<TRIPOS>SET
LONE_PAIRS      STATIC     ATOMS    <user>   **** ""
12 30 31 32 33 34 35 36 37 38 39 40 41
DONOR_HYDROGENS      STATIC     ATOMS    <user>   **** ""
4 19 24 26 28
ATOM$BLUE        STATIC     ATOMS    COLORGROUP SYSTEM
12 30 31 32 33 34 35 36 37 38 39 40 41
ATOM$RED        STATIC     ATOMS    COLORGROUP SYSTEM
4 19 24 26 28
