AV-unprocessed.smi:1403|AV-procd|sdf|5704|dock1
  -GOLD-   22720 5333D 1   1.00000     0.00000
 Structure written by MMmdl.
 35 36  0  0  0  0  0  0  0  0  2 V2000
  151.2968  140.7001  157.7157 C   0  0  0  0  0  0  0  0  0  0  0  0
  151.2328  142.1259  157.1463 C   0  0  1  0  0  0  0  0  0  0  0  0
  150.0888  142.2123  156.2419 N   0  0  0  0  0  0  0  0  0  0  0  0
  149.8054  141.3524  155.2514 C   0  0  0  0  0  0  0  0  0  0  0  0
  150.5014  140.3716  154.9847 O   0  0  0  0  0  0  0  0  0  0  0  0
  148.5602  141.6781  154.4159 C   0  0  0  0  0  0  0  0  0  0  0  0
  147.6333  140.5411  154.2995 N   0  0  0  0  0  0  0  0  0  0  0  0
  147.3461  140.0606  153.0097 C   0  0  0  0  0  0  0  0  0  0  0  0
  146.5123  139.0226  152.8080 C   0  0  0  0  0  0  0  0  0  0  0  0
  145.8995  138.3933  153.9711 C   0  0  0  0  0  0  0  0  0  0  0  0
  145.1309  137.4480  153.8054 O   0  0  0  0  0  0  0  0  0  0  0  0
  146.2138  138.8927  155.2023 N   0  5  0  0  0  0  0  0  0  0  0  0
  147.0666  139.9470  155.3927 C   0  0  0  0  0  0  0  0  0  0  0  0
  147.3391  140.3798  156.5131 O   0  0  0  0  0  0  0  0  0  0  0  0
  151.1101  143.1967  158.2510 C   0  0  1  0  0  0  0  0  0  0  0  0
  152.1024  143.0359  159.4054 C   0  0  0  0  0  0  0  0  0  0  0  0
  152.2081  144.4513  159.9240 C   0  0  0  0  0  0  0  0  0  0  0  0
  152.1792  145.2522  158.6279 C   0  0  0  0  0  0  0  0  0  0  0  0
  151.3729  144.4990  157.7271 O   0  0  0  0  0  0  0  0  0  0  0  0
  152.1646  140.5670  158.3619 H   0  0  0  0  0  0  0  0  0  0  0  0
  151.3738  139.9633  156.9153 H   0  0  0  0  0  0  0  0  0  0  0  0
  150.4066  140.4644  158.3001 H   0  0  0  0  0  0  0  0  0  0  0  0
  152.1555  142.3000  156.5897 H   0  0  0  0  0  0  0  0  0  0  0  0
  149.4615  142.9914  156.3789 H   0  0  0  0  0  0  0  0  0  0  0  0
  148.0439  142.5417  154.8396 H   0  0  0  0  0  0  0  0  0  0  0  0
  148.8924  142.0008  153.4284 H   0  0  0  0  0  0  0  0  0  0  0  0
  147.8461  140.5774  152.2040 H   0  0  0  0  0  0  0  0  0  0  0  0
  146.3048  138.6634  151.8109 H   0  0  0  0  0  0  0  0  0  0  0  0
  150.0959  143.2062  158.6543 H   0  0  0  0  0  0  0  0  0  0  0  0
  151.7635  142.3298  160.1639 H   0  0  0  0  0  0  0  0  0  0  0  0
  153.0737  142.7029  159.0361 H   0  0  0  0  0  0  0  0  0  0  0  0
  151.3384  144.6926  160.5364 H   0  0  0  0  0  0  0  0  0  0  0  0
  153.1064  144.6282  160.5159 H   0  0  0  0  0  0  0  0  0  0  0  0
  151.7876  146.2599  158.7683 H   0  0  0  0  0  0  0  0  0  0  0  0
  153.1823  145.3330  158.2074 H   0  0  0  0  0  0  0  0  0  0  0  0
  1  2  1  0  0  0  0
  1 20  1  0  0  0  0
  1 21  1  0  0  0  0
  1 22  1  0  0  0  0
  2  3  1  0  0  0  0
  2 15  1  0  0  0  0
  2 23  1  0  0  0  0
  3  4  1  0  0  0  0
  3 24  1  0  0  0  0
  4  5  2  0  0  0  0
  4  6  1  0  0  0  0
  6  7  1  0  0  0  0
  6 25  1  0  0  0  0
  6 26  1  0  0  0  0
  7 13  1  0  0  0  0
  7  8  1  0  0  0  0
  8  9  2  0  0  0  0
  8 27  1  0  0  0  0
  9 10  1  0  0  0  0
  9 28  1  0  0  0  0
 10 11  2  0  0  0  0
 10 12  1  0  0  0  0
 12 13  1  0  0  0  0
 13 14  2  0  0  0  0
 15 19  1  0  0  0  0
 15 16  1  0  0  0  0
 15 29  1  0  0  0  0
 16 17  1  0  0  0  0
 16 30  1  0  0  0  0
 16 31  1  0  0  0  0
 17 18  1  0  0  0  0
 17 32  1  0  0  0  0
 17 33  1  0  0  0  0
 18 19  1  0  0  0  0
 18 34  1  0  0  0  0
 18 35  1  0  0  0  0
M  CHG  1  12  -1
M  END
> <s_m_source_file>
AV-unprocessed.smi

> <i_m_source_file_index>
1403

> <i_lp_mmshare_version>
43012

> <i_f3d_flags>
0

> <s_epik_input>
TzFbQ0gyXVtDSDJdW0NIMl1bQ0BIXTFbQ0BIXShbQ0gzXSlbTkhdQyg9TylbQ0gyXW4yW2NIXVtjSF1jKD1PKVtuSF1jMj1P

> <s_epik_cmdline>
J2VwaWtfcHl0aG9uJywgJy1waCcsICc3LjAnLCAnLXRuJywgJzgnLCAnLW1hJywgJzIwMCcsICctbWV0YWxfYmluZGluZycsICctaW1hZScsICc8aW5maWxlLm1hZT4nLCAnLW9tYWUnLCAnPG91dGZpbGUubWFlPic=

> <r_lp_tautomer_probability>
0.999537

> <r_epik_Ionization_Penalty>
3.07438

> <r_epik_Ionization_Penalty_Charging>
2.82466e-08

> <r_epik_Ionization_Penalty_Neutral>
3.07438

> <r_epik_State_Penalty>
3.07341

> <r_epik_Charging_Adjusted_Penalty>
3.07341

> <i_epik_Tot_Q>
-1

> <i_epik_Tot_abs_Q>
1

> <r_epik_Metal_State_Penalty>
0.45947

> <b_epik_Metal_Only>
1

> <s_lp_Force_Field>
OPLS_2005

> <r_lp_Energy>
26.7212

> <b_lp_Chiralities_Consistent>
1

> <s_lp_Variant>
AV-unprocessed.smi:1403-8

> <Gold.Version>
5.8.1

> <Gold.Id.Protein>
6NUR|6NUR_protein|mol2

> <Gold.PLP.Fitness>
41.5179

> <Gold.PLP.PLP>
-33.3581

> <Gold.PLP.part.hbond>
-2.0000

> <Gold.PLP.part.metal>
0.0000

> <Gold.PLP.part.buried>
-2.1355

> <Gold.PLP.part.nonpolar>
-28.8446

> <Gold.PLP.part.repulsive>
0.5229

> <Gold.PLP.ligand.clash>
0.0000

> <Gold.PLP.ligand.torsion>
0.2899

> <Gold.PLP.Chemscore.Hbond>
1.9120

> <Gold.PLP.Chemscore.CHOScore>
0.9913

> <Gold.PLP.Chemscore.Metal>
0.0000

> <Gold.Chemscore.Hbonds>
donor molecule, donor type, donor heavy atom, donor atom, acceptor molecule, acceptor atom, score
      L1  H     3    24       P1  8028  0.90
      P1  H  7989  7998       L1     5  1.00
      L1  C     8    27       P1  7957  1.00

> <Gold.PLP.Chemscore.Internal.Correction>
0.0297

> <Gold.Rescore>
     Score         DG    S(hbond)    S(metal)    S(lipo)     H(rot)  DE(clash)    DE(int)     intcor
     12.57     -15.31       1.53        0.00      83.85       1.99       0.14       2.60       ----

> <Gold.Chemscore.Fitness>
12.5655

> <Gold.Chemscore.DG>
-15.3083

> <Gold.Chemscore.ZeroCoef>
-5.4800

> <Gold.Chemscore.Hbond>
1.5335

> <Gold.Chemscore.Metal>
0.0000

> <Gold.Chemscore.Lipo>
83.8544

> <Gold.Chemscore.Internal_Hbond>
0.0000

> <Gold.Chemscore.DEClash>
0.1402

> <Gold.Chemscore.DEInternal>
2.6026

> <Gold.Chemscore.Rot>
1.9940

> <Gold.Chemscore.Internal.Correction>
   9.000000E+99

> <Gold.Chemscore.Hbonds>
donor molecule, donor type, donor heavy atom, donor atom, acceptor molecule, acceptor atom, score
      L1  H     3    24       P1  8028  0.87
      P1  H  7989  7998       L1     5  0.54

> <Gold.Chemscore.Hbond.Weighted>
-5.1220

> <Gold.Chemscore.Metal.Weighted>
-0.0000

> <Gold.Chemscore.Lipo.Weighted>
-9.8110

> <Gold.Chemscore.Internal_Hbond.Weighted>
0.0000

> <Gold.Chemscore.DEClash.Weighted>
0.1402

> <Gold.Chemscore.DEInternal.Weighted>
2.6026

> <Gold.Chemscore.Rot.Weighted>
5.1047

> <Gold.Chemscore.Internal.Correction.Weighted>
   9.000000E+99

> <Gold.Protein.RotatedTorsions>
[ 6907 6896 6895 6894 ] final   -9.61 input  -60.11 | X-H torsion
[ 7974 7965 7964 7962 ] final  -53.10 input  175.53 | X-H torsion
[ 8008 7997 7996 7995 ] final -174.16 input   59.86 | X-H torsion
[ 10167 10162 10161 10158 ] final  -14.49 input  -65.29 | X-H torsion
[ 10718 10713 10712 10709 ] final  178.63 input   66.30 | X-H torsion
[ 10763 10752 10751 10750 ] final  155.25 input  -60.55 | X-H torsion
[ 11005 11000 10999 10996 ] final -135.38 input  -57.11 | X-H torsion

> <Gold.Protein.ActiveResidues>
 VAL166  LYS551  ARG553  GLY616  TRP617  ASP618  TYR619  PRO620  LYS621  CYS622 
 ASP623  PHE694  ASN695  SER759  ASP760  ASP761  ALA762  ILE779  LEU786  VAL792 
 PHE793  MET794  SER795  GLU796  ALA797  LYS798  CYS799  TRP800  GLU811  SER814 

> <Gold.Protein.RotatedAtoms>
  151.4150  135.0990  159.9596 H   0  0  0  0  0  0  0  0  0  0  0  0  # atno 6907 bound_to 6896
  152.5007  133.8761  159.7333 H   0  0  0  0  0  0  0  0  0  0  0  0  # atno 6908 bound_to 6896
  150.9264  133.6761  159.2848 H   0  0  0  0  0  0  0  0  0  0  0  0  # atno 6909 bound_to 6896
  145.9006  140.7997  142.9745 H   0  0  0  0  0  0  0  0  0  0  0  0  # atno 7974 bound_to 7965
  155.9666  140.1154  157.0849 H   0  0  0  0  0  0  0  0  0  0  0  0  # atno 8008 bound_to 7997
  154.4145  140.1171  156.5317 H   0  0  0  0  0  0  0  0  0  0  0  0  # atno 8009 bound_to 7997
  155.6651  140.3473  155.4799 H   0  0  0  0  0  0  0  0  0  0  0  0  # atno 8010 bound_to 7997
  140.7202  143.5316  150.9513 H   0  0  0  0  0  0  0  0  0  0  0  0  # atno 10167 bound_to 10162
  156.8877  130.9837  151.3053 H   0  0  0  0  0  0  0  0  0  0  0  0  # atno 10718 bound_to 10713
  154.1654  135.2807  155.3096 H   0  0  0  0  0  0  0  0  0  0  0  0  # atno 10763 bound_to 10752
  154.6115  135.5497  153.7482 H   0  0  0  0  0  0  0  0  0  0  0  0  # atno 10764 bound_to 10752
  153.0180  135.6416  154.1795 H   0  0  0  0  0  0  0  0  0  0  0  0  # atno 10765 bound_to 10752
  140.8903  134.1819  157.4532 H   0  0  0  0  0  0  0  0  0  0  0  0  # atno 11005 bound_to 11000
  144.6735  140.1671  143.7417 LP  0  0  0  0  0  0  0  0  0  0  0  0  # atno 17320 bound_to 7965
  145.8795  139.2315  143.1613 LP  0  0  0  0  0  0  0  0  0  0  0  0  # atno 17321 bound_to 7965
  139.9037  143.6805  152.3127 LP  0  0  0  0  0  0  0  0  0  0  0  0  # atno 17342 bound_to 10162
  139.7163  144.7611  151.1028 LP  0  0  0  0  0  0  0  0  0  0  0  0  # atno 17343 bound_to 10162
  157.6102  130.8577  149.8940 LP  0  0  0  0  0  0  0  0  0  0  0  0  # atno 17370 bound_to 10713
  156.0645  130.3694  150.0909 LP  0  0  0  0  0  0  0  0  0  0  0  0  # atno 17371 bound_to 10713
  139.8729  134.9856  156.5287 LP  0  0  0  0  0  0  0  0  0  0  0  0  # atno 17394 bound_to 11000
  140.8354  133.8246  155.9024 LP  0  0  0  0  0  0  0  0  0  0  0  0  # atno 17395 bound_to 11000

$$$$
