AV-unprocessed.smi:91|AV-procd|sdf|833|dock8
  -GOLD-   2262017253D 1   1.00000     0.00000
 Structure written by MMmdl.
 60 63  0  0  0  0  0  0  0  0  1 V2000
  150.0327  144.7958  160.1709 C   0  0  0  0  0  0  0  0  0  0  0  0
  150.7476  143.5844  160.3389 O   0  0  0  0  0  0  0  0  0  0  0  0
  152.1527  143.7812  160.3687 C   0  0  0  0  0  0  0  0  0  0  0  0
  152.8679  142.5647  159.7648 C   0  0  2  0  0  0  0  0  0  0  0  0
  151.9814  141.7706  158.7888 C   0  0  0  0  0  0  0  0  0  0  0  0
  152.6874  140.5798  158.3416 N   0  0  0  0  0  0  0  0  0  0  0  0
  152.0550  139.9160  157.3515 C   0  0  0  0  0  0  0  0  0  0  0  0
  152.2060  138.5711  157.2265 N   0  0  0  0  0  0  0  0  0  0  0  0
  151.5732  137.9200  156.2456 C   0  0  0  0  0  0  0  0  0  0  0  0
  150.7611  138.4100  155.3060 N   0  0  0  0  0  0  0  0  0  0  0  0
  150.6073  139.7593  155.4349 C   0  0  0  0  0  0  0  0  0  0  0  0
  151.2170  140.5829  156.4214 C   0  0  0  0  0  0  0  0  0  0  0  0
  150.8389  141.9067  156.2410 N   0  0  0  0  0  0  0  0  0  0  0  0
  150.0473  141.8684  155.2035 C   0  0  0  0  0  0  0  0  0  0  0  0
  149.8454  140.6181  154.6618 N   0  0  0  0  0  0  0  0  0  0  0  0
  149.0103  140.2859  153.5200 C   0  0  0  0  0  0  0  0  0  0  0  0
  147.7893  139.4102  153.9138 C   0  0  2  0  0  0  0  0  0  0  0  0
  146.9795  138.9994  152.6630 C   0  0  0  0  0  0  0  0  0  0  0  0
  147.7557  138.1945  151.8012 O   0  0  0  0  0  0  0  0  0  0  0  0
  146.8839  140.1261  154.9494 C   0  0  2  0  0  0  0  0  0  0  0  0
  146.3807  141.4950  154.5243 C   0  0  0  0  0  0  0  0  0  0  0  0
  145.9527  142.1063  155.8526 C   0  0  0  0  0  0  0  0  0  0  0  0
  146.8706  141.5992  156.8126 O   0  0  0  0  0  0  0  0  0  0  0  0
  147.5771  140.4880  156.2694 C   0  0  0  0  0  0  0  0  0  0  0  0
  153.1072  139.7348  159.4520 C   0  0  0  0  0  0  0  0  0  0  0  0
  153.9939  140.5263  160.4394 C   0  0  0  0  0  0  0  0  0  0  0  0
  154.1798  139.7179  161.7325 C   0  0  0  0  0  0  0  0  0  0  0  0
  155.3793  140.8490  159.8398 C   0  0  0  0  0  0  0  0  0  0  0  0
  153.3122  141.7240  160.8315 O   0  0  0  0  0  0  0  0  0  0  0  0
  148.9626  144.5904  160.1546 H   0  0  0  0  0  0  0  0  0  0  0  0
  150.2965  145.2822  159.2309 H   0  0  0  0  0  0  0  0  0  0  0  0
  150.2303  145.4873  160.9910 H   0  0  0  0  0  0  0  0  0  0  0  0
  152.4086  144.6762  159.7994 H   0  0  0  0  0  0  0  0  0  0  0  0
  152.4907  143.9405  161.3940 H   0  0  0  0  0  0  0  0  0  0  0  0
  153.7394  142.9389  159.2275 H   0  0  0  0  0  0  0  0  0  0  0  0
  151.0502  141.4767  159.2754 H   0  0  0  0  0  0  0  0  0  0  0  0
  151.7165  142.3913  157.9315 H   0  0  0  0  0  0  0  0  0  0  0  0
  151.7408  136.8536  156.2083 H   0  0  0  0  0  0  0  0  0  0  0  0
  149.5869  142.7601  154.8060 H   0  0  0  0  0  0  0  0  0  0  0  0
  148.7006  141.2154  153.0423 H   0  0  0  0  0  0  0  0  0  0  0  0
  149.6350  139.7836  152.7804 H   0  0  0  0  0  0  0  0  0  0  0  0
  148.1475  138.4904  154.3807 H   0  0  0  0  0  0  0  0  0  0  0  0
  146.1001  138.4168  152.9350 H   0  0  0  0  0  0  0  0  0  0  0  0
  146.6259  139.8772  152.1213 H   0  0  0  0  0  0  0  0  0  0  0  0
  148.2223  137.5581  152.3211 H   0  0  0  0  0  0  0  0  0  0  0  0
  146.0211  139.4962  155.1733 H   0  0  0  0  0  0  0  0  0  0  0  0
  147.1906  142.0814  154.0878 H   0  0  0  0  0  0  0  0  0  0  0  0
  145.5605  141.4537  153.8076 H   0  0  0  0  0  0  0  0  0  0  0  0
  145.9538  143.1963  155.8328 H   0  0  0  0  0  0  0  0  0  0  0  0
  144.9495  141.7719  156.1195 H   0  0  0  0  0  0  0  0  0  0  0  0
  147.5885  139.6564  156.9744 H   0  0  0  0  0  0  0  0  0  0  0  0
  148.6091  140.7952  156.0946 H   0  0  0  0  0  0  0  0  0  0  0  0
  152.2206  139.3634  159.9688 H   0  0  0  0  0  0  0  0  0  0  0  0
  153.6438  138.8627  159.0754 H   0  0  0  0  0  0  0  0  0  0  0  0
  154.6762  138.7666  161.5379 H   0  0  0  0  0  0  0  0  0  0  0  0
  153.2209  139.5000  162.2039 H   0  0  0  0  0  0  0  0  0  0  0  0
  154.7838  140.2653  162.4568 H   0  0  0  0  0  0  0  0  0  0  0  0
  155.9453  139.9357  159.6544 H   0  0  0  0  0  0  0  0  0  0  0  0
  155.9658  141.4683  160.5191 H   0  0  0  0  0  0  0  0  0  0  0  0
  155.3104  141.3758  158.8884 H   0  0  0  0  0  0  0  0  0  0  0  0
  1  2  1  0  0  0  0
  1 30  1  0  0  0  0
  1 31  1  0  0  0  0
  1 32  1  0  0  0  0
  2  3  1  0  0  0  0
  3  4  1  0  0  0  0
  3 33  1  0  0  0  0
  3 34  1  0  0  0  0
  4 29  1  0  0  0  0
  4  5  1  0  0  0  0
  4 35  1  0  0  0  0
  5  6  1  0  0  0  0
  5 36  1  0  0  0  0
  5 37  1  0  0  0  0
  6  7  1  0  0  0  0
  6 25  1  0  0  0  0
  7 12  1  0  0  0  0
  7  8  2  0  0  0  0
  8  9  1  0  0  0  0
  9 10  2  0  0  0  0
  9 38  1  0  0  0  0
 10 11  1  0  0  0  0
 11 15  1  0  0  0  0
 11 12  2  0  0  0  0
 12 13  1  0  0  0  0
 13 14  2  0  0  0  0
 14 15  1  0  0  0  0
 14 39  1  0  0  0  0
 15 16  1  0  0  0  0
 16 17  1  0  0  0  0
 16 40  1  0  0  0  0
 16 41  1  0  0  0  0
 17 18  1  0  0  0  0
 17 20  1  0  0  0  0
 17 42  1  0  0  0  0
 18 19  1  0  0  0  0
 18 43  1  0  0  0  0
 18 44  1  0  0  0  0
 19 45  1  0  0  0  0
 20 24  1  0  0  0  0
 20 21  1  0  0  0  0
 20 46  1  0  0  0  0
 21 22  1  0  0  0  0
 21 47  1  0  0  0  0
 21 48  1  0  0  0  0
 22 23  1  0  0  0  0
 22 49  1  0  0  0  0
 22 50  1  0  0  0  0
 23 24  1  0  0  0  0
 24 51  1  0  0  0  0
 24 52  1  0  0  0  0
 25 26  1  0  0  0  0
 25 53  1  0  0  0  0
 25 54  1  0  0  0  0
 26 27  1  0  0  0  0
 26 28  1  0  0  0  0
 26 29  1  0  0  0  0
 27 55  1  0  0  0  0
 27 56  1  0  0  0  0
 27 57  1  0  0  0  0
 28 58  1  0  0  0  0
 28 59  1  0  0  0  0
 28 60  1  0  0  0  0
M  END
> <s_m_source_file>
AV-unprocessed.smi

> <i_m_source_file_index>
91

> <i_lp_mmshare_version>
43012

> <i_f3d_flags>
0

> <s_epik_input>
W0NIM11PW0NIMl1bQ0BASF0oTzEpW0NIMl1OKFtDSDJdQzEoW0NIM10pW0NIM10pYyhuW2NIXW4yKWMoYzIzKW5bY0hdbjNbQ0gyXVtDQEhdKFtDSDJdW09IXSlbQ0BASF00W0NIMl1bQ0gyXU9bQ0gyXTQ=

> <s_epik_cmdline>
J2VwaWtfcHl0aG9uJywgJy1waCcsICc3LjAnLCAnLXRuJywgJzgnLCAnLW1hJywgJzIwMCcsICctbWV0YWxfYmluZGluZycsICctaW1hZScsICc8aW5maWxlLm1hZT4nLCAnLW9tYWUnLCAnPG91dGZpbGUubWFlPic=

> <r_lp_tautomer_probability>
1

> <r_epik_Ionization_Penalty>
8.63591e-05

> <r_epik_Ionization_Penalty_Charging>
0

> <r_epik_Ionization_Penalty_Neutral>
8.63591e-05

> <r_epik_State_Penalty>
-0

> <r_epik_Charging_Adjusted_Penalty>
0

> <i_epik_Tot_Q>
0

> <i_epik_Tot_abs_Q>
0

> <r_epik_Metal_State_Penalty>
-0

> <b_epik_Metal_Only>
0

> <s_lp_Force_Field>
OPLS_2005

> <r_lp_Energy>
49.9364

> <b_lp_Chiralities_Consistent>
1

> <s_lp_Variant>
AV-unprocessed.smi:91-1

> <Gold.Version>
5.8.1

> <Gold.Id.Protein>
6NUR|6NUR_protein|mol2

> <Gold.PLP.Fitness>
48.8288

> <Gold.PLP.PLP>
-43.3978

> <Gold.PLP.part.hbond>
-4.2769

> <Gold.PLP.part.metal>
0.0000

> <Gold.PLP.part.buried>
0.2860

> <Gold.PLP.part.nonpolar>
-39.0873

> <Gold.PLP.part.repulsive>
0.3433

> <Gold.PLP.ligand.clash>
0.0000

> <Gold.PLP.ligand.torsion>
1.4668

> <Gold.PLP.Chemscore.Hbond>
1.6720

> <Gold.PLP.Chemscore.CHOScore>
1.0000

> <Gold.PLP.Chemscore.Metal>
0.0000

> <Gold.Chemscore.Hbonds>
donor molecule, donor type, donor heavy atom, donor atom, acceptor molecule, acceptor atom, score
      L1  H    19    45       P1  7948  0.56
      P1  H  7954  7966       L1    19  1.00
      L1  C    14    39       P1  8028  1.00

> <Gold.PLP.Chemscore.Internal.Correction>
0.3486

> <Gold.Rescore>
     Score         DG    S(hbond)    S(metal)    S(lipo)     H(rot)  DE(clash)    DE(int)     intcor
      8.00     -14.21       1.17        0.00     107.34       3.03       1.85       4.36       ----

> <Gold.Chemscore.Fitness>
8.0029

> <Gold.Chemscore.DG>
-14.2092

> <Gold.Chemscore.ZeroCoef>
-5.4800

> <Gold.Chemscore.Hbond>
1.1747

> <Gold.Chemscore.Metal>
0.0000

> <Gold.Chemscore.Lipo>
107.3374

> <Gold.Chemscore.Internal_Hbond>
0.0000

> <Gold.Chemscore.DEClash>
1.8497

> <Gold.Chemscore.DEInternal>
4.3566

> <Gold.Chemscore.Rot>
3.0284

> <Gold.Chemscore.Internal.Correction>
   9.000000E+99

> <Gold.Chemscore.Hbonds>
donor molecule, donor type, donor heavy atom, donor atom, acceptor molecule, acceptor atom, score
      L1  H    19    45       P1  7948  0.54
      P1  H  7954  7966       L1    19  0.62

> <Gold.Chemscore.Hbond.Weighted>
-3.9236

> <Gold.Chemscore.Metal.Weighted>
-0.0000

> <Gold.Chemscore.Lipo.Weighted>
-12.5585

> <Gold.Chemscore.Internal_Hbond.Weighted>
0.0000

> <Gold.Chemscore.DEClash.Weighted>
1.8497

> <Gold.Chemscore.DEInternal.Weighted>
4.3566

> <Gold.Chemscore.Rot.Weighted>
7.7528

> <Gold.Chemscore.Internal.Correction.Weighted>
   9.000000E+99

> <Gold.Protein.RotatedTorsions>
[ 6907 6896 6895 6894 ] final  148.81 input  -60.11 | X-H torsion
[ 7974 7965 7964 7962 ] final   62.00 input  175.53 | X-H torsion
[ 8008 7997 7996 7995 ] final -170.19 input   59.86 | X-H torsion
[ 10167 10162 10161 10158 ] final  147.64 input  -65.29 | X-H torsion
[ 10718 10713 10712 10709 ] final  145.30 input   66.30 | X-H torsion
[ 10763 10752 10751 10750 ] final -120.45 input  -60.55 | X-H torsion
[ 11005 11000 10999 10996 ] final -156.63 input  -57.11 | X-H torsion

> <Gold.Protein.ActiveResidues>
 VAL166  LYS551  ARG553  GLY616  TRP617  ASP618  TYR619  PRO620  LYS621  CYS622 
 ASP623  PHE694  ASN695  SER759  ASP760  ASP761  ALA762  ILE779  LEU786  VAL792 
 PHE793  MET794  SER795  GLU796  ALA797  LYS798  CYS799  TRP800  GLU811  SER814 

> <Gold.Protein.RotatedAtoms>
  152.1364  133.4438  159.4745 H   0  0  0  0  0  0  0  0  0  0  0  0  # atno 6907 bound_to 6896
  150.6882  134.2358  159.4462 H   0  0  0  0  0  0  0  0  0  0  0  0  # atno 6908 bound_to 6896
  152.0246  134.9803  160.0622 H   0  0  0  0  0  0  0  0  0  0  0  0  # atno 6909 bound_to 6896
  145.8783  139.3425  143.0721 H   0  0  0  0  0  0  0  0  0  0  0  0  # atno 7974 bound_to 7965
  155.9151  140.1064  157.1250 H   0  0  0  0  0  0  0  0  0  0  0  0  # atno 8008 bound_to 7997
  154.4045  140.1267  156.4672 H   0  0  0  0  0  0  0  0  0  0  0  0  # atno 8009 bound_to 7997
  155.7263  140.3469  155.5041 H   0  0  0  0  0  0  0  0  0  0  0  0  # atno 8010 bound_to 7997
  139.4887  144.5740  151.7000 H   0  0  0  0  0  0  0  0  0  0  0  0  # atno 10167 bound_to 10162
  157.3469  131.0944  151.1034 H   0  0  0  0  0  0  0  0  0  0  0  0  # atno 10718 bound_to 10713
  154.8644  135.4202  154.2461 H   0  0  0  0  0  0  0  0  0  0  0  0  # atno 10763 bound_to 10752
  153.3416  135.6994  153.6868 H   0  0  0  0  0  0  0  0  0  0  0  0  # atno 10764 bound_to 10752
  153.5844  135.3567  155.2860 H   0  0  0  0  0  0  0  0  0  0  0  0  # atno 10765 bound_to 10752
  140.6734  134.4222  157.5230 H   0  0  0  0  0  0  0  0  0  0  0  0  # atno 11005 bound_to 11000
  145.9054  140.9215  143.0481 LP  0  0  0  0  0  0  0  0  0  0  0  0  # atno 17320 bound_to 7965
  144.6726  140.1089  143.7456 LP  0  0  0  0  0  0  0  0  0  0  0  0  # atno 17321 bound_to 7965
  140.5333  144.0696  150.6061 LP  0  0  0  0  0  0  0  0  0  0  0  0  # atno 17342 bound_to 10162
  140.3693  143.2863  152.0296 LP  0  0  0  0  0  0  0  0  0  0  0  0  # atno 17343 bound_to 10162
  157.2224  130.6487  149.5816 LP  0  0  0  0  0  0  0  0  0  0  0  0  # atno 17370 bound_to 10713
  155.9715  130.4625  150.6147 LP  0  0  0  0  0  0  0  0  0  0  0  0  # atno 17371 bound_to 10713
  139.8974  134.8637  156.2045 LP  0  0  0  0  0  0  0  0  0  0  0  0  # atno 17394 bound_to 11000
  141.0374  133.6956  156.1537 LP  0  0  0  0  0  0  0  0  0  0  0  0  # atno 17395 bound_to 11000

$$$$
