AV-unprocessed.smi:3157|AV-procd|sdf|12038|dock3
  -GOLD-   2272017453D 1   1.00000     0.00000
 Structure written by MMmdl.
 40 41  0  0  0  0  0  0  0  0  2 V2000
  151.0965  140.8627  158.1307 C   0  0  0  0  0  0  0  0  0  0  0  0
  150.1112  141.5296  157.1473 C   0  0  1  0  0  0  0  0  0  0  0  0
  150.1621  143.0017  157.2996 N   0  3  0  0  0  0  0  0  0  0  0  0
  151.5023  143.6062  157.1483 C   0  0  0  0  0  0  0  0  0  0  0  0
  151.9534  144.2878  158.4499 C   0  0  0  0  0  0  0  0  0  0  0  0
  152.0255  143.3464  159.6586 C   0  0  0  0  0  0  0  0  0  0  0  0
  151.8932  144.2460  160.8954 C   0  0  0  0  0  0  0  0  0  0  0  0
  151.3576  145.5958  160.3961 C   0  0  0  0  0  0  0  0  0  0  0  0
  150.9997  145.3860  158.9234 C   0  0  0  0  0  0  0  0  0  0  0  0
  150.3819  141.1475  155.6684 C   0  0  2  0  0  0  0  0  0  0  0  0
  149.3252  141.7204  154.7056 C   0  0  0  0  0  0  0  0  0  0  0  0
  150.4856  139.7046  155.4862 N   0  0  0  0  0  0  0  0  0  0  0  0
  150.0687  138.6936  156.3297 C   0  0  0  0  0  0  0  0  0  0  0  0
  150.3920  137.5071  155.7366 C   0  0  0  0  0  0  0  0  0  0  0  0
  151.0128  137.8971  154.5175 C   0  0  0  0  0  0  0  0  0  0  0  0
  151.0683  139.2110  154.3716 N   0  0  0  0  0  0  0  0  0  0  0  0
  151.0212  139.7755  158.1052 H   0  0  0  0  0  0  0  0  0  0  0  0
  150.9072  141.1607  159.1614 H   0  0  0  0  0  0  0  0  0  0  0  0
  152.1277  141.1276  157.8943 H   0  0  0  0  0  0  0  0  0  0  0  0
  149.1030  141.1949  157.3975 H   0  0  0  0  0  0  0  0  0  0  0  0
  149.5281  143.4197  156.6336 H   0  0  0  0  0  0  0  0  0  0  0  0
  152.2102  142.8195  156.8841 H   0  0  0  0  0  0  0  0  0  0  0  0
  151.5069  144.3255  156.3296 H   0  0  0  0  0  0  0  0  0  0  0  0
  152.9357  144.7395  158.2996 H   0  0  0  0  0  0  0  0  0  0  0  0
  151.1902  142.6448  159.6354 H   0  0  0  0  0  0  0  0  0  0  0  0
  152.9441  142.7592  159.6725 H   0  0  0  0  0  0  0  0  0  0  0  0
  151.2212  143.7976  161.6281 H   0  0  0  0  0  0  0  0  0  0  0  0
  152.8595  144.3822  161.3821 H   0  0  0  0  0  0  0  0  0  0  0  0
  150.5037  145.9442  160.9780 H   0  0  0  0  0  0  0  0  0  0  0  0
  152.1399  146.3514  160.4798 H   0  0  0  0  0  0  0  0  0  0  0  0
  151.0906  146.3020  158.3387 H   0  0  0  0  0  0  0  0  0  0  0  0
  149.9667  145.0441  158.8448 H   0  0  0  0  0  0  0  0  0  0  0  0
  151.3451  141.5781  155.3854 H   0  0  0  0  0  0  0  0  0  0  0  0
  149.3003  142.8097  154.7390 H   0  0  0  0  0  0  0  0  0  0  0  0
  148.3249  141.3593  154.9472 H   0  0  0  0  0  0  0  0  0  0  0  0
  149.5407  141.4347  153.6754 H   0  0  0  0  0  0  0  0  0  0  0  0
  149.5840  138.8994  157.2726 H   0  0  0  0  0  0  0  0  0  0  0  0
  150.2131  136.5118  156.1157 H   0  0  0  0  0  0  0  0  0  0  0  0
  151.4231  137.2690  153.7404 H   0  0  0  0  0  0  0  0  0  0  0  0
  149.8394  143.2255  158.2302 H   0  0  0  0  0  0  0  0  0  0  0  0
  1  2  1  0  0  0  0
  1 17  1  0  0  0  0
  1 18  1  0  0  0  0
  1 19  1  0  0  0  0
  2  3  1  0  0  0  0
  2 10  1  0  0  0  0
  2 20  1  0  0  0  0
  3  4  1  0  0  0  0
  3 21  1  0  0  0  0
  3 40  1  0  0  0  0
  4  5  1  0  0  0  0
  4 22  1  0  0  0  0
  4 23  1  0  0  0  0
  5  9  1  0  0  0  0
  5  6  1  0  0  0  0
  5 24  1  0  0  0  0
  6  7  1  0  0  0  0
  6 25  1  0  0  0  0
  6 26  1  0  0  0  0
  7  8  1  0  0  0  0
  7 27  1  0  0  0  0
  7 28  1  0  0  0  0
  8  9  1  0  0  0  0
  8 29  1  0  0  0  0
  8 30  1  0  0  0  0
  9 31  1  0  0  0  0
  9 32  1  0  0  0  0
 10 11  1  0  0  0  0
 10 12  1  0  0  0  0
 10 33  1  0  0  0  0
 11 34  1  0  0  0  0
 11 35  1  0  0  0  0
 11 36  1  0  0  0  0
 12 16  1  0  0  0  0
 12 13  1  0  0  0  0
 13 14  2  0  0  0  0
 13 37  1  0  0  0  0
 14 15  1  0  0  0  0
 14 38  1  0  0  0  0
 15 16  2  0  0  0  0
 15 39  1  0  0  0  0
M  CHG  1   3   1
M  END
> <s_m_source_file>
AV-unprocessed.smi

> <i_m_source_file_index>
3157

> <i_lp_mmshare_version>
43012

> <i_f3d_flags>
0

> <s_epik_input>
bjFbY0hdW2NIXVtjSF1uMVtDQEBIXShbQ0gzXSlbQ0BIXShbQ0gzXSlbTkhdW0NIMl1bQ0hdMltDSDJdW0NIMl1bQ0gyXVtDSDJdMg==

> <s_epik_cmdline>
J2VwaWtfcHl0aG9uJywgJy1waCcsICc3LjAnLCAnLXRuJywgJzgnLCAnLW1hJywgJzIwMCcsICctbWV0YWxfYmluZGluZycsICctaW1hZScsICc8aW5maWxlLm1hZT4nLCAnLW9tYWUnLCAnPG91dGZpbGUubWFlPic=

> <r_lp_tautomer_probability>
1

> <r_epik_Ionization_Penalty>
0.00132192

> <r_epik_Ionization_Penalty_Charging>
0.0013111

> <r_epik_Ionization_Penalty_Neutral>
1.08112e-05

> <r_epik_State_Penalty>
-0

> <r_epik_Charging_Adjusted_Penalty>
0.0013111

> <i_epik_Tot_Q>
1

> <i_epik_Tot_abs_Q>
1

> <r_epik_Metal_State_Penalty>
-0

> <b_epik_Metal_Only>
0

> <s_lp_Force_Field>
OPLS_2005

> <r_lp_Energy>
32.0676

> <b_lp_Chiralities_Consistent>
1

> <s_lp_Variant>
AV-unprocessed.smi:3157-2

> <Gold.Version>
5.8.1

> <Gold.Id.Protein>
6NUR|6NUR_protein|mol2

> <Gold.PLP.Fitness>
49.7493

> <Gold.PLP.PLP>
-39.2429

> <Gold.PLP.part.hbond>
-2.0000

> <Gold.PLP.part.metal>
0.0000

> <Gold.PLP.part.buried>
-1.8374

> <Gold.PLP.part.nonpolar>
-35.2904

> <Gold.PLP.part.repulsive>
0.1739

> <Gold.PLP.ligand.clash>
0.0000

> <Gold.PLP.ligand.torsion>
0.8005

> <Gold.PLP.Chemscore.Hbond>
3.0000

> <Gold.PLP.Chemscore.CHOScore>
1.0000

> <Gold.PLP.Chemscore.Metal>
0.0000

> <Gold.Chemscore.Hbonds>
donor molecule, donor type, donor heavy atom, donor atom, acceptor molecule, acceptor atom, score
      L1  H     3    21       P1  8028  2.00
      P1  H  7989  7998       L1    16  1.00
      L1  C    15    39       P1  7949  0.82

> <Gold.PLP.Chemscore.Internal.Correction>
0.1074

> <Gold.Rescore>
     Score         DG    S(hbond)    S(metal)    S(lipo)     H(rot)  DE(clash)    DE(int)     intcor
     18.44     -19.86       1.50        0.00     113.01       1.50       0.48       0.93       ----

> <Gold.Chemscore.Fitness>
18.4414

> <Gold.Chemscore.DG>
-19.8580

> <Gold.Chemscore.ZeroCoef>
-5.4800

> <Gold.Chemscore.Hbond>
1.4993

> <Gold.Chemscore.Metal>
0.0000

> <Gold.Chemscore.Lipo>
113.0100

> <Gold.Chemscore.Internal_Hbond>
0.0000

> <Gold.Chemscore.DEClash>
0.4847

> <Gold.Chemscore.DEInternal>
0.9319

> <Gold.Chemscore.Rot>
1.5047

> <Gold.Chemscore.Internal.Correction>
   9.000000E+99

> <Gold.Chemscore.Hbonds>
donor molecule, donor type, donor heavy atom, donor atom, acceptor molecule, acceptor atom, score
      L1  H     3    21       P1  8028  0.97
      P1  H  7989  7998       L1    16  0.30

> <Gold.Chemscore.Hbond.Weighted>
-5.0078

> <Gold.Chemscore.Metal.Weighted>
-0.0000

> <Gold.Chemscore.Lipo.Weighted>
-13.2222

> <Gold.Chemscore.Internal_Hbond.Weighted>
0.0000

> <Gold.Chemscore.DEClash.Weighted>
0.4847

> <Gold.Chemscore.DEInternal.Weighted>
0.9319

> <Gold.Chemscore.Rot.Weighted>
3.8520

> <Gold.Chemscore.Internal.Correction.Weighted>
   9.000000E+99

> <Gold.Protein.RotatedTorsions>
[ 6907 6896 6895 6894 ] final  -89.73 input  -60.11 | X-H torsion
[ 7974 7965 7964 7962 ] final  -14.94 input  175.53 | X-H torsion
[ 8008 7997 7996 7995 ] final -153.93 input   59.86 | X-H torsion
[ 10167 10162 10161 10158 ] final  -49.38 input  -65.29 | X-H torsion
[ 10718 10713 10712 10709 ] final -120.21 input   66.30 | X-H torsion
[ 10763 10752 10751 10750 ] final  105.38 input  -60.55 | X-H torsion
[ 11005 11000 10999 10996 ] final  147.41 input  -57.11 | X-H torsion

> <Gold.Protein.ActiveResidues>
 VAL166  LYS551  ARG553  GLY616  TRP617  ASP618  TYR619  PRO620  LYS621  CYS622 
 ASP623  PHE694  ASN695  SER759  ASP760  ASP761  ALA762  ILE779  LEU786  VAL792 
 PHE793  MET794  SER795  GLU796  ALA797  LYS798  CYS799  TRP800  GLU811  SER814 

> <Gold.Protein.RotatedAtoms>
  150.6876  134.2542  159.4522 H   0  0  0  0  0  0  0  0  0  0  0  0  # atno 6907 bound_to 6896
  152.0477  134.9670  160.0584 H   0  0  0  0  0  0  0  0  0  0  0  0  # atno 6908 bound_to 6896
  152.1147  133.4285  159.4684 H   0  0  0  0  0  0  0  0  0  0  0  0  # atno 6909 bound_to 6896
  146.2053  140.3421  142.8409 H   0  0  0  0  0  0  0  0  0  0  0  0  # atno 7974 bound_to 7965
  155.6785  140.0741  157.2493 H   0  0  0  0  0  0  0  0  0  0  0  0  # atno 8008 bound_to 7997
  154.4110  140.1686  156.2008 H   0  0  0  0  0  0  0  0  0  0  0  0  # atno 8009 bound_to 7997
  155.9555  140.3374  155.6448 H   0  0  0  0  0  0  0  0  0  0  0  0  # atno 8010 bound_to 7997
  140.6687  143.2700  151.4207 H   0  0  0  0  0  0  0  0  0  0  0  0  # atno 10167 bound_to 10162
  156.1240  130.6345  150.9512 H   0  0  0  0  0  0  0  0  0  0  0  0  # atno 10718 bound_to 10713
  153.3785  135.3912  155.1840 H   0  0  0  0  0  0  0  0  0  0  0  0  # atno 10763 bound_to 10752
  154.8704  135.3720  154.4887 H   0  0  0  0  0  0  0  0  0  0  0  0  # atno 10764 bound_to 10752
  153.5361  135.7085  153.5720 H   0  0  0  0  0  0  0  0  0  0  0  0  # atno 10765 bound_to 10752
  140.0873  134.9062  157.1596 H   0  0  0  0  0  0  0  0  0  0  0  0  # atno 11005 bound_to 11000
  144.8778  140.7360  143.6006 LP  0  0  0  0  0  0  0  0  0  0  0  0  # atno 17320 bound_to 7965
  145.3341  139.1751  143.4521 LP  0  0  0  0  0  0  0  0  0  0  0  0  # atno 17321 bound_to 7965
  139.5947  144.1424  152.2129 LP  0  0  0  0  0  0  0  0  0  0  0  0  # atno 17342 bound_to 10162
  140.0789  144.5717  150.7137 LP  0  0  0  0  0  0  0  0  0  0  0  0  # atno 17343 bound_to 10162
  157.6423  131.0908  150.8226 LP  0  0  0  0  0  0  0  0  0  0  0  0  # atno 17370 bound_to 10713
  156.8319  130.5018  149.5330 LP  0  0  0  0  0  0  0  0  0  0  0  0  # atno 17371 bound_to 10713
  140.3402  134.2713  155.7213 LP  0  0  0  0  0  0  0  0  0  0  0  0  # atno 17394 bound_to 11000
  141.2067  133.7827  157.0163 LP  0  0  0  0  0  0  0  0  0  0  0  0  # atno 17395 bound_to 11000

$$$$
