#       Name:                AV-unprocessed.smi:1158
#       Creating user name   scv26
#       Creation time:       Fri Mar 27 03:48:57 2020


#       File generated by GOLD software.
#

@<TRIPOS>MOLECULE
AV-unprocessed.smi:1158
    48    49     1
SMALL
NO_CHARGES


@<TRIPOS>ATOM
      1 ****        -4.0773  -4.6531   0.0250 C.3            1 S1                 0.0000
      2 ****        -3.4379  -3.3814   0.0077 O.3            1 S1                 0.0000
      3 ****        -4.2245  -2.2463   0.0608 C.ar           1 S1                 0.0000
      4 ****        -5.5718  -2.3983   0.1105 N.ar           1 S1                 0.0000
      5 ****        -6.3419  -1.2927   0.1673 C.ar           1 S1                 0.0000
      6 ****        -5.8160   0.0117   0.1854 C.ar           1 S1                 0.0000
      7 ****        -4.4191   0.1725   0.1352 C.ar           1 S1                 0.0000
      8 ****        -3.5965  -0.9783   0.0590 C.ar           1 S1                 0.0000
      9 ****        -2.1746  -0.9374   0.0162 N.am           1 S1                 0.0000
     10 ****        -1.3660   0.0845  -0.3128 C.2            1 S1                 0.0000
     11 ****        -1.7349   1.2097  -0.6482 O.2            1 S1                 0.0000
     12 ****        -0.0779  -0.2804  -0.2441 N.am           1 S1                 0.0000
     13 ****         1.0601   0.5850  -0.5399 C.3            1 S1                 0.0000
     14 ****         2.2629  -0.2626  -0.9772 C.3            1 S1                 0.0000
     15 ****         3.5145   0.6120  -1.1657 C.3            1 S1                 0.0000
     16 ****         3.8447   1.3131   0.0776 N.3            1 S1                 0.0000
     17 ****         5.0858   2.0615  -0.1206 C.3            1 S1                 0.0000
     18 ****         5.6841   2.5714   1.2018 C.3            1 S1                 0.0000
     19 ****         5.9238   1.5569   2.0326 F              1 S1                 0.0000
     20 ****         6.8286   3.2067   0.9542 F              1 S1                 0.0000
     21 ****         2.7440   2.2124   0.4393 C.3            1 S1                 0.0000
     22 ****         1.4544   1.4121   0.6950 C.3            1 S1                 0.0000
     23 ****        -3.3215  -5.4372  -0.0171 H              1 S1                 0.0000
     24 ****        -4.7348  -4.7816  -0.8360 H              1 S1                 0.0000
     25 ****        -4.6524  -4.7975   0.9407 H              1 S1                 0.0000
     26 ****        -7.4092  -1.4530   0.2052 H              1 S1                 0.0000
     27 ****        -6.4693   0.8699   0.2408 H              1 S1                 0.0000
     28 ****        -4.0132   1.1710   0.1696 H              1 S1                 0.0000
     29 ****        -1.7173  -1.8179   0.2030 H              1 S1                 0.0000
     30 ****         0.1332  -1.2267   0.0369 H              1 S1                 0.0000
     31 ****         0.8023   1.2618  -1.3570 H              1 S1                 0.0000
     32 ****         2.4694  -1.0335  -0.2329 H              1 S1                 0.0000
     33 ****         2.0342  -0.7834  -1.9077 H              1 S1                 0.0000
     34 ****         4.3499  -0.0240  -1.4611 H              1 S1                 0.0000
     35 ****         3.3580   1.3297  -1.9728 H              1 S1                 0.0000
     36 ****         5.8230   1.4086  -0.5903 H              1 S1                 0.0000
     37 ****         4.9195   2.8904  -0.8106 H              1 S1                 0.0000
     38 ****         5.0413   3.2821   1.7194 H              1 S1                 0.0000
     39 ****         2.9888   2.7666   1.3441 H              1 S1                 0.0000
     40 ****         2.5820   2.9472  -0.3511 H              1 S1                 0.0000
     41 ****         0.6474   2.0946   0.9639 H              1 S1                 0.0000
     42 ****         1.6022   0.7547   1.5534 H              1 S1                 0.0000
     43 ****        -2.9038  -3.3311  -0.8363 LP             1 S1                 0.0000
     44 ****        -2.8215  -3.3503   0.7945 LP             1 S1                 0.0000
     45 ****        -5.9843  -3.3093   0.1051 LP             1 S1                 0.0000
     46 ****        -2.7107   1.4234  -0.6926 LP             1 S1                 0.0000
     47 ****        -1.0587   1.9102  -0.8763 LP             1 S1                 0.0000
     48 ****         3.9736   0.6595   0.8235 LP             1 S1                 0.0000
@<TRIPOS>BOND
    1    1    2 1     
    2    1   23 1     
    3    1   24 1     
    4    1   25 1     
    5    2    3 1     
    6    3    8 ar    
    7    3    4 ar    
    8    4    5 ar    
    9    5    6 ar    
   10    5   26 1     
   11    6    7 ar    
   12    6   27 1     
   13    7    8 ar    
   14    7   28 1     
   15    8    9 1     
   16    9   10 am    
   17    9   29 1     
   18   10   11 2     
   19   10   12 am    
   20   12   13 1     
   21   12   30 1     
   22   13   22 1     
   23   13   14 1     
   24   13   31 1     
   25   14   15 1     
   26   14   32 1     
   27   14   33 1     
   28   15   16 1     
   29   15   34 1     
   30   15   35 1     
   31   16   17 1     
   32   16   21 1     
   33   17   18 1     
   34   17   36 1     
   35   17   37 1     
   36   18   19 1     
   37   18   20 1     
   38   18   38 1     
   39   21   22 1     
   40   21   39 1     
   41   21   40 1     
   42   22   41 1     
   43   22   42 1     
   44    2   43 1     
   45    2   44 1     
   46    4   45 1     
   47   11   46 1     
   48   11   47 1     
   49   16   48 1     
@<TRIPOS>SUBSTRUCTURE
      1 S1             1
@<TRIPOS>SET
LONE_PAIRS      STATIC     ATOMS    <user>   **** ""
6 43 44 45 46 47 48
DONOR_HYDROGENS      STATIC     ATOMS    <user>   **** ""
2 29 30
ATOM$BLUE        STATIC     ATOMS    COLORGROUP SYSTEM
6 43 44 45 46 47 48
ATOM$RED        STATIC     ATOMS    COLORGROUP SYSTEM
2 29 30
