#       Name:                AV-unprocessed.smi:1928
#       Creating user name   scv26
#       Creation time:       Fri Mar 27 09:54:11 2020


#       File generated by GOLD software.
#

@<TRIPOS>MOLECULE
AV-unprocessed.smi:1928
    37    38     1
SMALL
NO_CHARGES


@<TRIPOS>ATOM
      1 ****        -4.3819   1.8541  -2.8307 C.3            1 S1                 0.0000
      2 ****        -3.3400   0.7974  -2.6941 C.2            1 S1                 0.0000
      3 ****        -2.0366   1.0144  -2.8883 N.2            1 S1                 0.0000
      4 ****        -1.2634  -0.1359  -2.6966 C.2            1 S1                 0.0000
      5 ****         0.2294  -0.0785  -2.8643 C.3            1 S1                 0.0000
      6 ****         0.9089   0.4390  -1.5927 C.2            1 S1                 0.0000
      7 ****         1.6694   1.4048  -1.6535 O.2            1 S1                 0.0000
      8 ****         0.6419  -0.2199  -0.4532 N.am           1 S1                 0.0000
      9 ****         1.1711   0.1113   0.8653 C.3            1 S1                 0.0000
     10 ****         2.5046  -0.6242   1.1081 C.3            1 S1                 0.0000
     11 ****         3.0380  -0.3703   2.5274 C.3            1 S1                 0.0000
     12 ****         1.9960  -0.7477   3.5921 C.3            1 S1                 0.0000
     13 ****         0.6706  -0.0067   3.3572 C.3            1 S1                 0.0000
     14 ****         0.1332  -0.2625   1.9400 C.3            1 S1                 0.0000
     15 ****        -2.0112  -1.2384  -2.3621 C.2            1 S1                 0.0000
     16 ****        -3.7101  -0.8672  -2.2627 S.3            1 S1                 0.0000
     17 ****        -3.9252   2.8441  -2.8525 H              1 S1                 0.0000
     18 ****        -5.0730   1.8079  -1.9888 H              1 S1                 0.0000
     19 ****        -4.9432   1.7058  -3.7533 H              1 S1                 0.0000
     20 ****         0.6291  -1.0663  -3.0962 H              1 S1                 0.0000
     21 ****         0.4952   0.5656  -3.7038 H              1 S1                 0.0000
     22 ****         0.0097  -1.0056  -0.5019 H              1 S1                 0.0000
     23 ****         1.3465   1.1874   0.9266 H              1 S1                 0.0000
     24 ****         2.3666  -1.6966   0.9617 H              1 S1                 0.0000
     25 ****         3.2479  -0.3061   0.3761 H              1 S1                 0.0000
     26 ****         3.9547  -0.9388   2.6863 H              1 S1                 0.0000
     27 ****         3.3044   0.6821   2.6335 H              1 S1                 0.0000
     28 ****         1.8224  -1.8244   3.5688 H              1 S1                 0.0000
     29 ****         2.3796  -0.5177   4.5864 H              1 S1                 0.0000
     30 ****        -0.0673  -0.3203   4.0962 H              1 S1                 0.0000
     31 ****         0.8192   1.0639   3.5031 H              1 S1                 0.0000
     32 ****        -0.7840   0.3077   1.7871 H              1 S1                 0.0000
     33 ****        -0.1374  -1.3149   1.8422 H              1 S1                 0.0000
     34 ****        -1.6660  -2.2423  -2.1637 H              1 S1                 0.0000
     35 ****        -1.6546   1.9027  -3.1431 LP             1 S1                 0.0000
     36 ****         1.8428   1.8501  -2.5319 LP             1 S1                 0.0000
     37 ****         2.1140   1.7441  -0.8245 LP             1 S1                 0.0000
@<TRIPOS>BOND
    1    1    2 1     
    2    1   17 1     
    3    1   18 1     
    4    1   19 1     
    5    2   16 1     
    6    2    3 2     
    7    3    4 1     
    8    4    5 1     
    9    4   15 2     
   10    5    6 1     
   11    5   20 1     
   12    5   21 1     
   13    6    7 2     
   14    6    8 am    
   15    8    9 1     
   16    8   22 1     
   17    9   14 1     
   18    9   10 1     
   19    9   23 1     
   20   10   11 1     
   21   10   24 1     
   22   10   25 1     
   23   11   12 1     
   24   11   26 1     
   25   11   27 1     
   26   12   13 1     
   27   12   28 1     
   28   12   29 1     
   29   13   14 1     
   30   13   30 1     
   31   13   31 1     
   32   14   32 1     
   33   14   33 1     
   34   15   16 1     
   35   15   34 1     
   36    3   35 1     
   37    7   36 1     
   38    7   37 1     
@<TRIPOS>SUBSTRUCTURE
      1 S1             1
@<TRIPOS>SET
LONE_PAIRS      STATIC     ATOMS    <user>   **** ""
3 35 36 37
DONOR_HYDROGENS      STATIC     ATOMS    <user>   **** ""
1 22
ATOM$BLUE        STATIC     ATOMS    COLORGROUP SYSTEM
3 35 36 37
ATOM$RED        STATIC     ATOMS    COLORGROUP SYSTEM
1 22
