AV-unprocessed.smi:193|AV-procd|sdf|1514|dock9
  -GOLD-   2262019353D 1   1.00000     0.00000
 Structure written by MMmdl.
 61 65  0  0  0  0  0  0  0  0  1 V2000
  147.3545  142.0142  154.1392 C   0  0  0  0  0  0  0  0  0  0  0  0
  148.0317  140.8492  154.8755 C   0  0  2  0  0  0  0  0  0  0  0  0
  147.1196  139.6028  154.8118 C   0  0  0  0  0  0  0  0  0  0  0  0
  147.7620  138.3840  155.3058 N   0  0  0  0  0  0  0  0  0  0  0  0
  147.3330  137.1846  154.8369 C   0  0  0  0  0  0  0  0  0  0  0  0
  147.9998  136.0514  155.1830 N   0  0  0  0  0  0  0  0  0  0  0  0
  147.5943  134.8632  154.7253 C   0  0  0  0  0  0  0  0  0  0  0  0
  146.5645  134.5848  153.9238 N   0  0  0  0  0  0  0  0  0  0  0  0
  145.8871  135.7163  153.5767 C   0  0  0  0  0  0  0  0  0  0  0  0
  146.1968  137.0430  153.9900 C   0  0  0  0  0  0  0  0  0  0  0  0
  145.2687  137.9316  153.4592 N   0  0  0  0  0  0  0  0  0  0  0  0
  144.4661  137.1760  152.7618 C   0  0  0  0  0  0  0  0  0  0  0  0
  144.7720  135.8338  152.7647 N   0  0  0  0  0  0  0  0  0  0  0  0
  144.0501  134.7774  152.0719 C   0  0  0  0  0  0  0  0  0  0  0  0
  144.7125  134.3175  150.7432 C   0  0  0  0  0  0  0  0  0  0  0  0
  144.7430  135.4329  149.8732 O   0  0  0  0  0  0  0  0  0  0  0  0
  146.1690  133.8629  150.9625 C   0  0  0  0  0  0  0  0  0  0  0  0
  146.2362  132.4786  151.6348 C   0  0  0  0  0  0  0  0  0  0  0  0
  145.5033  131.5253  150.8720 O   0  0  0  0  0  0  0  0  0  0  0  0
  144.1209  131.8438  150.7519 C   0  0  0  0  0  0  0  0  0  0  0  0
  143.9583  133.1843  150.0150 C   0  0  0  0  0  0  0  0  0  0  0  0
  148.3728  138.3978  156.6330 C   0  0  0  0  0  0  0  0  0  0  0  0
  149.6834  139.1974  156.6048 C   0  0  0  0  0  0  0  0  0  0  0  0
  149.5083  140.6110  156.9439 N   0  0  0  0  0  0  0  0  0  0  0  0
  150.7260  141.3271  156.5846 C   0  0  1  0  0  0  0  0  0  0  0  0
  151.0323  142.6145  157.3169 C   0  0  0  0  0  0  0  0  0  0  0  0
  151.8688  141.3853  157.5833 C   0  0  1  0  0  0  0  0  0  0  0  0
  151.8172  140.7133  158.9419 C   0  0  0  0  0  0  0  0  0  0  0  0
  148.3370  141.2570  156.3384 C   0  0  0  0  0  0  0  0  0  0  0  0
  146.4090  142.2852  154.6105 H   0  0  0  0  0  0  0  0  0  0  0  0
  147.1463  141.7556  153.1007 H   0  0  0  0  0  0  0  0  0  0  0  0
  147.9910  142.8994  154.1331 H   0  0  0  0  0  0  0  0  0  0  0  0
  148.9606  140.6453  154.3410 H   0  0  0  0  0  0  0  0  0  0  0  0
  146.2017  139.7755  155.3750 H   0  0  0  0  0  0  0  0  0  0  0  0
  146.8240  139.4477  153.7731 H   0  0  0  0  0  0  0  0  0  0  0  0
  148.1790  134.0138  155.0467 H   0  0  0  0  0  0  0  0  0  0  0  0
  143.6267  137.5816  152.2162 H   0  0  0  0  0  0  0  0  0  0  0  0
  143.9471  133.9316  152.7532 H   0  0  0  0  0  0  0  0  0  0  0  0
  143.0372  135.1374  151.8936 H   0  0  0  0  0  0  0  0  0  0  0  0
  145.2227  135.1953  149.0947 H   0  0  0  0  0  0  0  0  0  0  0  0
  146.6828  133.7999  150.0018 H   0  0  0  0  0  0  0  0  0  0  0  0
  146.7173  134.5971  151.5540 H   0  0  0  0  0  0  0  0  0  0  0  0
  147.2729  132.1482  151.6997 H   0  0  0  0  0  0  0  0  0  0  0  0
  145.8565  132.5121  152.6563 H   0  0  0  0  0  0  0  0  0  0  0  0
  143.6280  131.0492  150.1915 H   0  0  0  0  0  0  0  0  0  0  0  0
  143.6536  131.8711  151.7369 H   0  0  0  0  0  0  0  0  0  0  0  0
  142.9033  133.4232  149.8828 H   0  0  0  0  0  0  0  0  0  0  0  0
  144.3616  133.0671  149.0078 H   0  0  0  0  0  0  0  0  0  0  0  0
  147.6739  138.8005  157.3668 H   0  0  0  0  0  0  0  0  0  0  0  0
  148.5861  137.3836  156.9694 H   0  0  0  0  0  0  0  0  0  0  0  0
  150.3729  138.7716  157.3333 H   0  0  0  0  0  0  0  0  0  0  0  0
  150.1663  139.0817  155.6328 H   0  0  0  0  0  0  0  0  0  0  0  0
  151.0316  141.3182  155.5396 H   0  0  0  0  0  0  0  0  0  0  0  0
  151.4912  143.4188  156.7457 H   0  0  0  0  0  0  0  0  0  0  0  0
  150.3404  142.9341  158.0941 H   0  0  0  0  0  0  0  0  0  0  0  0
  152.8647  141.3826  157.1448 H   0  0  0  0  0  0  0  0  0  0  0  0
  150.8199  140.7813  159.3775 H   0  0  0  0  0  0  0  0  0  0  0  0
  152.5217  141.1939  159.6208 H   0  0  0  0  0  0  0  0  0  0  0  0
  152.0881  139.6615  158.8512 H   0  0  0  0  0  0  0  0  0  0  0  0
  148.4687  142.3375  156.4096 H   0  0  0  0  0  0  0  0  0  0  0  0
  147.4658  141.0425  156.9579 H   0  0  0  0  0  0  0  0  0  0  0  0
  1  2  1  0  0  0  0
  1 30  1  0  0  0  0
  1 31  1  0  0  0  0
  1 32  1  0  0  0  0
  2 29  1  0  0  0  0
  2  3  1  0  0  0  0
  2 33  1  0  0  0  0
  3  4  1  0  0  0  0
  3 34  1  0  0  0  0
  3 35  1  0  0  0  0
  4  5  1  0  0  0  0
  4 22  1  0  0  0  0
  5 10  1  0  0  0  0
  5  6  2  0  0  0  0
  6  7  1  0  0  0  0
  7  8  2  0  0  0  0
  7 36  1  0  0  0  0
  8  9  1  0  0  0  0
  9 13  1  0  0  0  0
  9 10  2  0  0  0  0
 10 11  1  0  0  0  0
 11 12  2  0  0  0  0
 12 13  1  0  0  0  0
 12 37  1  0  0  0  0
 13 14  1  0  0  0  0
 14 15  1  0  0  0  0
 14 38  1  0  0  0  0
 14 39  1  0  0  0  0
 15 21  1  0  0  0  0
 15 16  1  0  0  0  0
 15 17  1  0  0  0  0
 16 40  1  0  0  0  0
 17 18  1  0  0  0  0
 17 41  1  0  0  0  0
 17 42  1  0  0  0  0
 18 19  1  0  0  0  0
 18 43  1  0  0  0  0
 18 44  1  0  0  0  0
 19 20  1  0  0  0  0
 20 21  1  0  0  0  0
 20 45  1  0  0  0  0
 20 46  1  0  0  0  0
 21 47  1  0  0  0  0
 21 48  1  0  0  0  0
 22 23  1  0  0  0  0
 22 49  1  0  0  0  0
 22 50  1  0  0  0  0
 23 24  1  0  0  0  0
 23 51  1  0  0  0  0
 23 52  1  0  0  0  0
 24 25  1  0  0  0  0
 24 29  1  0  0  0  0
 25 27  1  0  0  0  0
 25 26  1  0  0  0  0
 25 53  1  0  0  0  0
 26 27  1  0  0  0  0
 26 54  1  0  0  0  0
 26 55  1  0  0  0  0
 27 28  1  0  0  0  0
 27 56  1  0  0  0  0
 28 57  1  0  0  0  0
 28 58  1  0  0  0  0
 28 59  1  0  0  0  0
 29 60  1  0  0  0  0
 29 61  1  0  0  0  0
M  END
> <s_m_source_file>
AV-unprocessed.smi

> <i_m_source_file_index>
193

> <i_lp_mmshare_version>
43012

> <i_f3d_flags>
0

> <s_epik_input>
W0NIM11bQ0BASF0xW0NIMl1bQ0BIXTFOKFtDSDJdMilbQ0gyXVtDSDJdTihbQ0gyXVtDQEhdMltDSDNdKWMobltjSF1uMyljKGMzNCluW2NIXW40W0NIMl1DNShbT0hdKVtDSDJdW0NIMl1PW0NIMl1bQ0gyXTU=

> <s_epik_cmdline>
J2VwaWtfcHl0aG9uJywgJy1waCcsICc3LjAnLCAnLXRuJywgJzgnLCAnLW1hJywgJzIwMCcsICctbWV0YWxfYmluZGluZycsICctaW1hZScsICc8aW5maWxlLm1hZT4nLCAnLW9tYWUnLCAnPG91dGZpbGUubWFlPic=

> <r_lp_tautomer_probability>
1

> <r_epik_Ionization_Penalty>
1.45227

> <r_epik_Ionization_Penalty_Charging>
0

> <r_epik_Ionization_Penalty_Neutral>
1.45227

> <r_epik_State_Penalty>
2.02377

> <r_epik_Charging_Adjusted_Penalty>
2.02377

> <i_epik_Tot_Q>
0

> <i_epik_Tot_abs_Q>
0

> <r_epik_Metal_State_Penalty>
2.01937

> <b_epik_Metal_Only>
0

> <s_lp_Force_Field>
OPLS_2005

> <r_lp_Energy>
54.496

> <b_lp_Chiralities_Consistent>
1

> <s_lp_Variant>
AV-unprocessed.smi:193-19

> <Gold.Version>
5.8.1

> <Gold.Id.Protein>
6NUR|6NUR_protein|mol2

> <Gold.PLP.Fitness>
43.2259

> <Gold.PLP.PLP>
-37.6943

> <Gold.PLP.part.hbond>
-1.1807

> <Gold.PLP.part.metal>
0.0000

> <Gold.PLP.part.buried>
-7.9727

> <Gold.PLP.part.nonpolar>
-30.0525

> <Gold.PLP.part.repulsive>
0.6237

> <Gold.PLP.ligand.clash>
0.0000

> <Gold.PLP.ligand.torsion>
1.0934

> <Gold.PLP.Chemscore.Hbond>
1.0000

> <Gold.PLP.Chemscore.CHOScore>
1.1270

> <Gold.PLP.Chemscore.Metal>
0.0000

> <Gold.Chemscore.Hbonds>
donor molecule, donor type, donor heavy atom, donor atom, acceptor molecule, acceptor atom, score
      L1  H    16    40       P1  7921  1.00
      L1  C    12    37       P1 10171  0.70
      L1  C    12    37       P1 10175  0.11

> <Gold.PLP.Chemscore.Internal.Correction>
1.3375

> <Gold.Rescore>
     Score         DG    S(hbond)    S(metal)    S(lipo)     H(rot)  DE(clash)    DE(int)     intcor
     12.41     -14.87       1.00        0.00      93.42       1.91       0.02       2.45       ----

> <Gold.Chemscore.Fitness>
12.4063

> <Gold.Chemscore.DG>
-14.8691

> <Gold.Chemscore.ZeroCoef>
-5.4800

> <Gold.Chemscore.Hbond>
1.0000

> <Gold.Chemscore.Metal>
0.0000

> <Gold.Chemscore.Lipo>
93.4234

> <Gold.Chemscore.Internal_Hbond>
0.0000

> <Gold.Chemscore.DEClash>
0.0159

> <Gold.Chemscore.DEInternal>
2.4469

> <Gold.Chemscore.Rot>
1.9068

> <Gold.Chemscore.Internal.Correction>
   9.000000E+99

> <Gold.Chemscore.Hbonds>
donor molecule, donor type, donor heavy atom, donor atom, acceptor molecule, acceptor atom, score
      L1  H    16    40       P1  7921  1.00

> <Gold.Chemscore.Hbond.Weighted>
-3.3400

> <Gold.Chemscore.Metal.Weighted>
-0.0000

> <Gold.Chemscore.Lipo.Weighted>
-10.9305

> <Gold.Chemscore.Internal_Hbond.Weighted>
0.0000

> <Gold.Chemscore.DEClash.Weighted>
0.0159

> <Gold.Chemscore.DEInternal.Weighted>
2.4469

> <Gold.Chemscore.Rot.Weighted>
4.8814

> <Gold.Chemscore.Internal.Correction.Weighted>
   9.000000E+99

> <Gold.Protein.RotatedTorsions>
[ 6907 6896 6895 6894 ] final -134.77 input  -60.11 | X-H torsion
[ 7974 7965 7964 7962 ] final  -45.23 input  175.53 | X-H torsion
[ 8008 7997 7996 7995 ] final -142.07 input   59.86 | X-H torsion
[ 10167 10162 10161 10158 ] final   63.03 input  -65.29 | X-H torsion
[ 10718 10713 10712 10709 ] final -116.93 input   66.30 | X-H torsion
[ 10763 10752 10751 10750 ] final  -36.83 input  -60.55 | X-H torsion
[ 11005 11000 10999 10996 ] final  -80.04 input  -57.11 | X-H torsion

> <Gold.Protein.ActiveResidues>
 VAL166  LYS551  ARG553  GLY616  TRP617  ASP618  TYR619  PRO620  LYS621  CYS622 
 ASP623  PHE694  ASN695  SER759  ASP760  ASP761  ALA762  ILE779  LEU786  VAL792 
 PHE793  MET794  SER795  GLU796  ALA797  LYS798  CYS799  TRP800  GLU811  SER814 

> <Gold.Protein.RotatedAtoms>
  150.9898  133.6161  159.2709 H   0  0  0  0  0  0  0  0  0  0  0  0  # atno 6907 bound_to 6896
  151.3385  135.0857  159.9373 H   0  0  0  0  0  0  0  0  0  0  0  0  # atno 6908 bound_to 6896
  152.5242  133.9514  159.7728 H   0  0  0  0  0  0  0  0  0  0  0  0  # atno 6909 bound_to 6896
  145.9841  140.7252  142.9349 H   0  0  0  0  0  0  0  0  0  0  0  0  # atno 7974 bound_to 7965
  155.4881  140.0565  157.2957 H   0  0  0  0  0  0  0  0  0  0  0  0  # atno 8008 bound_to 7997
  154.4634  140.2007  156.0135 H   0  0  0  0  0  0  0  0  0  0  0  0  # atno 8009 bound_to 7997
  156.0931  140.3230  155.7846 H   0  0  0  0  0  0  0  0  0  0  0  0  # atno 8010 bound_to 7997
  140.1375  144.4585  150.6830 H   0  0  0  0  0  0  0  0  0  0  0  0  # atno 10167 bound_to 10162
  156.0998  130.6162  150.9098 H   0  0  0  0  0  0  0  0  0  0  0  0  # atno 10718 bound_to 10713
  153.8863  135.6816  153.4763 H   0  0  0  0  0  0  0  0  0  0  0  0  # atno 10763 bound_to 10752
  153.1206  135.4742  154.9186 H   0  0  0  0  0  0  0  0  0  0  0  0  # atno 10764 bound_to 10752
  154.7644  135.3220  154.8267 H   0  0  0  0  0  0  0  0  0  0  0  0  # atno 10765 bound_to 10752
  141.1668  133.7132  156.8212 H   0  0  0  0  0  0  0  0  0  0  0  0  # atno 11005 bound_to 11000
  144.6870  140.2958  143.7271 LP  0  0  0  0  0  0  0  0  0  0  0  0  # atno 17320 bound_to 7965
  145.7726  139.1863  143.2203 LP  0  0  0  0  0  0  0  0  0  0  0  0  # atno 17321 bound_to 7965
  140.6780  143.2314  151.5456 LP  0  0  0  0  0  0  0  0  0  0  0  0  # atno 17342 bound_to 10162
  139.5489  144.2448  152.1493 LP  0  0  0  0  0  0  0  0  0  0  0  0  # atno 17343 bound_to 10162
  157.6166  131.0933  150.8700 LP  0  0  0  0  0  0  0  0  0  0  0  0  # atno 17370 bound_to 10713
  156.8830  130.5186  149.5290 LP  0  0  0  0  0  0  0  0  0  0  0  0  # atno 17371 bound_to 10713
  140.2117  134.8822  157.3282 LP  0  0  0  0  0  0  0  0  0  0  0  0  # atno 17394 bound_to 11000
  140.2079  134.4174  155.7628 LP  0  0  0  0  0  0  0  0  0  0  0  0  # atno 17395 bound_to 11000

$$$$
