AV-unprocessed.smi:157|AV-procd|sdf|1305|dock4
  -GOLD-   2262018593D 1   1.00000     0.00000
 Structure written by MMmdl.
 35 37  0  0  0  0  0  0  0  0  1 V2000
  151.8936  137.3930  154.2523 O   0  0  0  0  0  0  0  0  0  0  0  0
  150.6846  138.0963  154.0603 C   0  0  0  0  0  0  0  0  0  0  0  0
  150.5219  139.1847  155.1356 C   0  0  1  0  0  0  0  0  0  0  0  0
  151.7523  139.8582  155.3742 O   0  0  0  0  0  0  0  0  0  0  0  0
  151.5086  141.1175  155.9310 C   0  0  2  0  0  0  0  0  0  0  0  0
  151.8787  141.0891  157.3849 N   0  0  0  0  0  0  0  0  0  0  0  0
  152.2779  140.0251  158.0956 C   0  0  0  0  0  0  0  0  0  0  0  0
  152.5362  140.2789  159.3669 N   0  0  0  0  0  0  0  0  0  0  0  0
  152.2928  141.6465  159.4938 C   0  0  0  0  0  0  0  0  0  0  0  0
  151.8641  142.1640  158.2792 C   0  0  0  0  0  0  0  0  0  0  0  0
  151.4572  143.3967  157.8012 N   0  0  0  0  0  0  0  0  0  0  0  0
  151.2389  144.3571  158.6449 C   0  0  0  0  0  0  0  0  0  0  0  0
  151.4329  144.4217  160.0181 N   0  0  0  0  0  0  0  0  0  0  0  0
  152.5822  143.8518  160.6944 C   0  0  0  0  0  0  0  0  0  0  0  0
  152.4778  142.3315  160.8184 C   0  0  2  0  0  0  0  0  0  0  0  0
  153.6802  141.8457  161.3809 O   0  0  0  0  0  0  0  0  0  0  0  0
  150.0076  141.4105  155.7789 C   0  0  0  0  0  0  0  0  0  0  0  0
  149.5428  140.3240  154.8271 C   0  0  1  0  0  0  0  0  0  0  0  0
  149.6348  140.7608  153.4842 O   0  0  0  0  0  0  0  0  0  0  0  0
  150.2248  138.7158  156.0756 H   0  0  0  0  0  0  0  0  0  0  0  0
  152.1610  141.8660  155.4802 H   0  0  0  0  0  0  0  0  0  0  0  0
  151.6557  142.0735  161.4869 H   0  0  0  0  0  0  0  0  0  0  0  0
  148.5106  140.0307  155.0218 H   0  0  0  0  0  0  0  0  0  0  0  0
  152.5234  137.9803  154.6416 H   0  0  0  0  0  0  0  0  0  0  0  0
  150.7081  138.5540  153.0711 H   0  0  0  0  0  0  0  0  0  0  0  0
  149.8475  137.3980  154.0657 H   0  0  0  0  0  0  0  0  0  0  0  0
  152.3796  139.0351  157.6760 H   0  0  0  0  0  0  0  0  0  0  0  0
  150.8478  145.2991  158.2579 H   0  0  0  0  0  0  0  0  0  0  0  0
  151.0439  145.2012  160.5291 H   0  0  0  0  0  0  0  0  0  0  0  0
  153.4830  144.1243  160.1419 H   0  0  0  0  0  0  0  0  0  0  0  0
  152.6697  144.3053  161.6820 H   0  0  0  0  0  0  0  0  0  0  0  0
  153.5181  140.9772  161.7169 H   0  0  0  0  0  0  0  0  0  0  0  0
  149.5083  141.3008  156.7434 H   0  0  0  0  0  0  0  0  0  0  0  0
  149.8384  142.4248  155.4147 H   0  0  0  0  0  0  0  0  0  0  0  0
  149.5046  140.0148  152.9188 H   0  0  0  0  0  0  0  0  0  0  0  0
  1  2  1  0  0  0  0
  1 24  1  0  0  0  0
  2  3  1  0  0  0  0
  2 25  1  0  0  0  0
  2 26  1  0  0  0  0
  3 20  1  0  0  0  0
  3 18  1  0  0  0  0
  3  4  1  0  0  0  0
  4  5  1  0  0  0  0
  5 21  1  0  0  0  0
  5  6  1  0  0  0  0
  5 17  1  0  0  0  0
  6 10  1  0  0  0  0
  6  7  1  0  0  0  0
  7  8  2  0  0  0  0
  7 27  1  0  0  0  0
  8  9  1  0  0  0  0
  9 15  1  0  0  0  0
  9 10  2  0  0  0  0
 10 11  1  0  0  0  0
 11 12  2  0  0  0  0
 12 13  1  0  0  0  0
 12 28  1  0  0  0  0
 13 14  1  0  0  0  0
 13 29  1  0  0  0  0
 14 15  1  0  0  0  0
 14 30  1  0  0  0  0
 14 31  1  0  0  0  0
 15 22  1  0  0  0  0
 15 16  1  0  0  0  0
 16 32  1  0  0  0  0
 17 18  1  0  0  0  0
 17 33  1  0  0  0  0
 17 34  1  0  0  0  0
 18 23  1  0  0  0  0
 18 19  1  0  0  0  0
 19 35  1  0  0  0  0
M  END
> <s_m_source_file>
AV-unprocessed.smi

> <i_m_source_file_index>
157

> <i_lp_mmshare_version>
43012

> <i_f3d_flags>
0

> <s_epik_input>
W09IXVtDSDJdW0NASF0xT1tDQEhdKFtDSDJdW0NAQEhdMVtPSF0pbihbY0hdbjIpYyhjMjMpTj1bQ0hdW05IXVtDSDJdW0NASF0zW09IXQ==

> <s_epik_cmdline>
J2VwaWtfcHl0aG9uJywgJy1waCcsICc3LjAnLCAnLXRuJywgJzgnLCAnLW1hJywgJzIwMCcsICctbWV0YWxfYmluZGluZycsICctaW1hZScsICc8aW5maWxlLm1hZT4nLCAnLW9tYWUnLCAnPG91dGZpbGUubWFlPic=

> <r_lp_tautomer_probability>
1

> <r_epik_Ionization_Penalty>
0.0357149

> <r_epik_Ionization_Penalty_Charging>
0.0355056

> <r_epik_Ionization_Penalty_Neutral>
0.000209255

> <r_epik_State_Penalty>
0.0296046

> <r_epik_Charging_Adjusted_Penalty>
0.0651102

> <i_epik_Tot_Q>
0

> <i_epik_Tot_abs_Q>
0

> <r_epik_Metal_State_Penalty>
3.03559e-05

> <b_epik_Metal_Only>
0

> <s_epik_Chemistry_Notes>
This compound has an imine and may undergo hydrolysis. This compound contains an acetal/aminal-like group ( X-CH(R)-Y where X, Y are N, S, or O) that may be acid/base labile, releasing an aldehyde.

> <s_lp_Force_Field>
OPLS_2005

> <r_lp_Energy>
41.6449

> <b_lp_Chiralities_Consistent>
1

> <s_lp_Variant>
AV-unprocessed.smi:157-15

> <Gold.Version>
5.8.1

> <Gold.Id.Protein>
6NUR|6NUR_protein|mol2

> <Gold.PLP.Fitness>
45.2119

> <Gold.PLP.PLP>
-37.3320

> <Gold.PLP.part.hbond>
-5.1491

> <Gold.PLP.part.metal>
0.0000

> <Gold.PLP.part.buried>
-7.9870

> <Gold.PLP.part.nonpolar>
-23.6091

> <Gold.PLP.part.repulsive>
0.2273

> <Gold.PLP.ligand.clash>
0.0000

> <Gold.PLP.ligand.torsion>
0.2418

> <Gold.PLP.Chemscore.Hbond>
2.7856

> <Gold.PLP.Chemscore.CHOScore>
0.0000

> <Gold.PLP.Chemscore.Metal>
0.0000

> <Gold.Chemscore.Hbonds>
donor molecule, donor type, donor heavy atom, donor atom, acceptor molecule, acceptor atom, score
      L1  H    19    35       P1  7957  0.51
      P1  H  7989  7998       L1    19  0.28
      P1  H  8011  8017       L1    19  1.00
      P1  H 10752 10765       L1     1  0.99

> <Gold.PLP.Chemscore.Internal.Correction>
0.0067

> <Gold.Rescore>
     Score         DG    S(hbond)    S(metal)    S(lipo)     H(rot)  DE(clash)    DE(int)     intcor
      8.83      -9.70       1.88        0.00      61.91       3.64       0.65       0.22       ----

> <Gold.Chemscore.Fitness>
8.8300

> <Gold.Chemscore.DG>
-9.7028

> <Gold.Chemscore.ZeroCoef>
-5.4800

> <Gold.Chemscore.Hbond>
1.8825

> <Gold.Chemscore.Metal>
0.0000

> <Gold.Chemscore.Lipo>
61.9139

> <Gold.Chemscore.Internal_Hbond>
0.0000

> <Gold.Chemscore.DEClash>
0.6530

> <Gold.Chemscore.DEInternal>
0.2198

> <Gold.Chemscore.Rot>
3.6362

> <Gold.Chemscore.Internal.Correction>
   9.000000E+99

> <Gold.Chemscore.Hbonds>
donor molecule, donor type, donor heavy atom, donor atom, acceptor molecule, acceptor atom, score
      L1  H    19    35       P1  7957  0.50
      P1  H  7989  7998       L1    19  0.01
      P1  H  8011  8017       L1    19  0.61
      P1  H 10752 10765       L1     1  0.23

> <Gold.Chemscore.Hbond.Weighted>
-6.2876

> <Gold.Chemscore.Metal.Weighted>
-0.0000

> <Gold.Chemscore.Lipo.Weighted>
-7.2439

> <Gold.Chemscore.Internal_Hbond.Weighted>
0.0000

> <Gold.Chemscore.DEClash.Weighted>
0.6530

> <Gold.Chemscore.DEInternal.Weighted>
0.2198

> <Gold.Chemscore.Rot.Weighted>
9.3087

> <Gold.Chemscore.Internal.Correction.Weighted>
   9.000000E+99

> <Gold.Protein.RotatedTorsions>
[ 6907 6896 6895 6894 ] final -172.37 input  -60.11 | X-H torsion
[ 7974 7965 7964 7962 ] final  -46.36 input  175.53 | X-H torsion
[ 8008 7997 7996 7995 ] final   -4.51 input   59.86 | X-H torsion
[ 10167 10162 10161 10158 ] final   49.80 input  -65.29 | X-H torsion
[ 10718 10713 10712 10709 ] final  160.66 input   66.30 | X-H torsion
[ 10763 10752 10751 10750 ] final  159.01 input  -60.55 | X-H torsion
[ 11005 11000 10999 10996 ] final -167.92 input  -57.11 | X-H torsion

> <Gold.Protein.ActiveResidues>
 VAL166  LYS551  ARG553  GLY616  TRP617  ASP618  TYR619  PRO620  LYS621  CYS622 
 ASP623  PHE694  ASN695  SER759  ASP760  ASP761  ALA762  ILE779  LEU786  VAL792 
 PHE793  MET794  SER795  GLU796  ALA797  LYS798  CYS799  TRP800  GLU811  SER814 

> <Gold.Protein.RotatedAtoms>
  151.5388  133.3436  159.2931 H   0  0  0  0  0  0  0  0  0  0  0  0  # atno 6907 bound_to 6896
  150.8548  134.7886  159.7048 H   0  0  0  0  0  0  0  0  0  0  0  0  # atno 6908 bound_to 6896
  152.4585  134.5247  159.9845 H   0  0  0  0  0  0  0  0  0  0  0  0  # atno 6909 bound_to 6896
  145.9727  140.7366  142.9402 H   0  0  0  0  0  0  0  0  0  0  0  0  # atno 7974 bound_to 7965
  154.6136  140.2482  155.7638 H   0  0  0  0  0  0  0  0  0  0  0  0  # atno 8008 bound_to 7997
  156.2385  140.2941  156.0329 H   0  0  0  0  0  0  0  0  0  0  0  0  # atno 8009 bound_to 7997
  155.2012  140.0394  157.2908 H   0  0  0  0  0  0  0  0  0  0  0  0  # atno 8010 bound_to 7997
  140.2791  144.3177  150.6269 H   0  0  0  0  0  0  0  0  0  0  0  0  # atno 10167 bound_to 10162
  157.1473  131.0555  151.2297 H   0  0  0  0  0  0  0  0  0  0  0  0  # atno 10718 bound_to 10713
  154.2250  135.2780  155.2911 H   0  0  0  0  0  0  0  0  0  0  0  0  # atno 10763 bound_to 10752
  154.5671  135.5630  153.7064 H   0  0  0  0  0  0  0  0  0  0  0  0  # atno 10764 bound_to 10752
  153.0033  135.6312  154.2391 H   0  0  0  0  0  0  0  0  0  0  0  0  # atno 10765 bound_to 10752
  140.5478  134.5458  157.5115 H   0  0  0  0  0  0  0  0  0  0  0  0  # atno 11005 bound_to 11000
  144.6841  140.2775  143.7297 LP  0  0  0  0  0  0  0  0  0  0  0  0  # atno 17320 bound_to 7965
  145.7883  139.1917  143.2117 LP  0  0  0  0  0  0  0  0  0  0  0  0  # atno 17321 bound_to 7965
  140.5827  143.2172  151.7399 LP  0  0  0  0  0  0  0  0  0  0  0  0  # atno 17342 bound_to 10162
  139.4967  144.4057  152.0134 LP  0  0  0  0  0  0  0  0  0  0  0  0  # atno 17343 bound_to 10162
  157.4253  130.7460  149.6946 LP  0  0  0  0  0  0  0  0  0  0  0  0  # atno 17370 bound_to 10713
  155.9777  130.4060  150.3695 LP  0  0  0  0  0  0  0  0  0  0  0  0  # atno 17371 bound_to 10713
  139.9471  134.7683  156.0537 LP  0  0  0  0  0  0  0  0  0  0  0  0  # atno 17394 bound_to 11000
  141.1189  133.6619  156.3165 LP  0  0  0  0  0  0  0  0  0  0  0  0  # atno 17395 bound_to 11000

$$$$
