AV-unprocessed.smi:781|AV-procd|sdf|3711|dock1
  -GOLD-   22720 1133D 1   1.00000     0.00000
 Structure written by MMmdl.
 38 40  0  0  0  0  0  0  0  0  1 V2000
  152.1894  136.3368  157.3792 C   0  0  0  0  0  0  0  0  0  0  0  0
  151.0744  135.6796  156.6403 C   0  0  0  0  0  0  0  0  0  0  0  0
  150.4779  135.9357  155.4378 C   0  0  0  0  0  0  0  0  0  0  0  0
  149.4867  134.9223  155.3500 C   0  0  0  0  0  0  0  0  0  0  0  0
  148.6299  134.8386  154.2231 N   0  0  0  0  0  0  0  0  0  0  0  0
  147.5535  134.0491  154.0689 C   0  0  0  0  0  0  0  0  0  0  0  0
  147.1388  133.2434  154.9026 O   0  0  0  0  0  0  0  0  0  0  0  0
  146.9679  134.2531  152.8799 N   0  0  0  0  0  0  0  0  0  0  0  0
  145.7763  133.5571  152.3918 C   0  0  2  0  0  0  0  0  0  0  0  0
  146.1746  132.2295  151.7108 C   0  0  1  0  0  0  0  0  0  0  0  0
  144.9237  131.3442  151.5651 C   0  0  0  0  0  0  0  0  0  0  0  0
  144.1304  132.0676  150.4601 C   0  0  0  0  0  0  0  0  0  0  0  0
  145.0360  133.2670  150.1151 C   0  0  2  0  0  0  0  0  0  0  0  0
  146.4218  132.6535  150.2681 C   0  0  0  0  0  0  0  0  0  0  0  0
  144.9869  134.2984  151.2696 C   0  0  2  0  0  0  0  0  0  0  0  0
  145.5197  135.6927  150.8664 C   0  0  0  0  0  0  0  0  0  0  0  0
  144.9983  136.0781  149.6123 O   0  0  0  0  0  0  0  0  0  0  0  0
  149.4776  134.1210  156.4043 N   0  0  0  0  0  0  0  0  0  0  0  0
  150.4952  134.6023  157.2366 O   0  0  0  0  0  0  0  0  0  0  0  0
  152.7911  136.9511  156.7092 H   0  0  0  0  0  0  0  0  0  0  0  0
  152.8447  135.5946  157.8353 H   0  0  0  0  0  0  0  0  0  0  0  0
  151.8020  136.9788  158.1704 H   0  0  0  0  0  0  0  0  0  0  0  0
  150.7149  136.7221  154.7366 H   0  0  0  0  0  0  0  0  0  0  0  0
  148.8572  135.4514  153.4543 H   0  0  0  0  0  0  0  0  0  0  0  0
  147.3766  134.9371  152.2599 H   0  0  0  0  0  0  0  0  0  0  0  0
  145.1204  133.3474  153.2393 H   0  0  0  0  0  0  0  0  0  0  0  0
  147.0089  131.7160  152.1907 H   0  0  0  0  0  0  0  0  0  0  0  0
  145.1959  130.3377  151.2442 H   0  0  0  0  0  0  0  0  0  0  0  0
  144.3618  131.2571  152.4956 H   0  0  0  0  0  0  0  0  0  0  0  0
  144.0024  131.4170  149.5941 H   0  0  0  0  0  0  0  0  0  0  0  0
  143.1389  132.3765  150.7930 H   0  0  0  0  0  0  0  0  0  0  0  0
  144.8284  133.6869  149.1304 H   0  0  0  0  0  0  0  0  0  0  0  0
  147.2352  133.3720  150.1585 H   0  0  0  0  0  0  0  0  0  0  0  0
  146.5989  131.8127  149.5948 H   0  0  0  0  0  0  0  0  0  0  0  0
  143.9543  134.4305  151.5971 H   0  0  0  0  0  0  0  0  0  0  0  0
  145.2119  136.4445  151.5932 H   0  0  0  0  0  0  0  0  0  0  0  0
  146.6086  135.7098  150.8202 H   0  0  0  0  0  0  0  0  0  0  0  0
  144.8851  137.0162  149.6094 H   0  0  0  0  0  0  0  0  0  0  0  0
  1  2  1  0  0  0  0
  1 20  1  0  0  0  0
  1 21  1  0  0  0  0
  1 22  1  0  0  0  0
  2 19  1  0  0  0  0
  2  3  2  0  0  0  0
  3  4  1  0  0  0  0
  3 23  1  0  0  0  0
  4  5  1  0  0  0  0
  4 18  2  0  0  0  0
  5  6  1  0  0  0  0
  5 24  1  0  0  0  0
  6  7  2  0  0  0  0
  6  8  1  0  0  0  0
  8  9  1  0  0  0  0
  8 25  1  0  0  0  0
  9 15  1  0  0  0  0
  9 10  1  0  0  0  0
  9 26  1  0  0  0  0
 10 14  1  0  0  0  0
 10 11  1  0  0  0  0
 10 27  1  0  0  0  0
 11 12  1  0  0  0  0
 11 28  1  0  0  0  0
 11 29  1  0  0  0  0
 12 13  1  0  0  0  0
 12 30  1  0  0  0  0
 12 31  1  0  0  0  0
 13 14  1  0  0  0  0
 13 15  1  0  0  0  0
 13 32  1  0  0  0  0
 14 33  1  0  0  0  0
 14 34  1  0  0  0  0
 15 16  1  0  0  0  0
 15 35  1  0  0  0  0
 16 17  1  0  0  0  0
 16 36  1  0  0  0  0
 16 37  1  0  0  0  0
 17 38  1  0  0  0  0
 18 19  1  0  0  0  0
M  END
> <s_m_source_file>
AV-unprocessed.smi

> <i_m_source_file_index>
781

> <i_lp_mmshare_version>
43012

> <i_f3d_flags>
0

> <s_epik_input>
W0NIM11jMVtjSF1jKG5vMSlbTkhdQyg9TylbTkhdW0NASF0oW0NAQEhdMjMpW0NASF0oW0NIMl1bT0hdKVtDQEBIXShbQ0gyXTMpW0NIMl1bQ0gyXTI=

> <s_epik_cmdline>
J2VwaWtfcHl0aG9uJywgJy1waCcsICc3LjAnLCAnLXRuJywgJzgnLCAnLW1hJywgJzIwMCcsICctbWV0YWxfYmluZGluZycsICctaW1hZScsICc8aW5maWxlLm1hZT4nLCAnLW9tYWUnLCAnPG91dGZpbGUubWFlPic=

> <r_lp_tautomer_probability>
1

> <r_epik_Ionization_Penalty>
2.32222e-05

> <r_epik_Ionization_Penalty_Charging>
0

> <r_epik_Ionization_Penalty_Neutral>
2.32222e-05

> <r_epik_State_Penalty>
-0

> <r_epik_Charging_Adjusted_Penalty>
0

> <i_epik_Tot_Q>
0

> <i_epik_Tot_abs_Q>
0

> <r_epik_Metal_State_Penalty>
-0

> <b_epik_Metal_Only>
0

> <s_lp_Force_Field>
OPLS_2005

> <r_lp_Energy>
47.5532

> <b_lp_Chiralities_Consistent>
1

> <s_lp_Variant>
AV-unprocessed.smi:781-5

> <Gold.Version>
5.8.1

> <Gold.Id.Protein>
6NUR|6NUR_protein|mol2

> <Gold.PLP.Fitness>
41.2358

> <Gold.PLP.PLP>
-32.5326

> <Gold.PLP.part.hbond>
-5.0000

> <Gold.PLP.part.metal>
0.0000

> <Gold.PLP.part.buried>
-4.2910

> <Gold.PLP.part.nonpolar>
-23.3256

> <Gold.PLP.part.repulsive>
0.0268

> <Gold.PLP.ligand.clash>
0.0000

> <Gold.PLP.ligand.torsion>
0.4800

> <Gold.PLP.Chemscore.Hbond>
3.2173

> <Gold.PLP.Chemscore.CHOScore>
0.0000

> <Gold.PLP.Chemscore.Metal>
0.0000

> <Gold.Chemscore.Hbonds>
donor molecule, donor type, donor heavy atom, donor atom, acceptor molecule, acceptor atom, score
      L1  H     5    24       P1  7948  1.00
      L1  H     8    25       P1  7948  0.94
      L1  H    17    38       P1 10171  1.00
      P1  H  6896  6908       L1    19  0.28

> <Gold.PLP.Chemscore.Internal.Correction>
0.0112

> <Gold.Rescore>
     Score         DG    S(hbond)    S(metal)    S(lipo)     H(rot)  DE(clash)    DE(int)     intcor
     17.80     -19.73       3.24        0.00      70.01       1.86       0.13       1.79       ----

> <Gold.Chemscore.Fitness>
17.8042

> <Gold.Chemscore.DG>
-19.7258

> <Gold.Chemscore.ZeroCoef>
-5.4800

> <Gold.Chemscore.Hbond>
3.2375

> <Gold.Chemscore.Metal>
0.0000

> <Gold.Chemscore.Lipo>
70.0078

> <Gold.Chemscore.Internal_Hbond>
0.0000

> <Gold.Chemscore.DEClash>
0.1314

> <Gold.Chemscore.DEInternal>
1.7902

> <Gold.Chemscore.Rot>
1.8587

> <Gold.Chemscore.Internal.Correction>
   9.000000E+99

> <Gold.Chemscore.Hbonds>
donor molecule, donor type, donor heavy atom, donor atom, acceptor molecule, acceptor atom, score
      L1  H     5    24       P1  7948  0.82
      L1  H     8    25       P1  7948  0.81
      L1  H    17    38       P1 10171  0.97
      P1  H  6896  6908       L1    19  0.29

> <Gold.Chemscore.Hbond.Weighted>
-10.8132

> <Gold.Chemscore.Metal.Weighted>
-0.0000

> <Gold.Chemscore.Lipo.Weighted>
-8.1909

> <Gold.Chemscore.Internal_Hbond.Weighted>
0.0000

> <Gold.Chemscore.DEClash.Weighted>
0.1314

> <Gold.Chemscore.DEInternal.Weighted>
1.7902

> <Gold.Chemscore.Rot.Weighted>
4.7583

> <Gold.Chemscore.Internal.Correction.Weighted>
   9.000000E+99

> <Gold.Protein.RotatedTorsions>
[ 6907 6896 6895 6894 ] final  113.57 input  -60.11 | X-H torsion
[ 7974 7965 7964 7962 ] final -179.22 input  175.53 | X-H torsion
[ 8008 7997 7996 7995 ] final   27.77 input   59.86 | X-H torsion
[ 10167 10162 10161 10158 ] final  -51.02 input  -65.29 | X-H torsion
[ 10718 10713 10712 10709 ] final  -43.16 input   66.30 | X-H torsion
[ 10763 10752 10751 10750 ] final  -33.66 input  -60.55 | X-H torsion
[ 11005 11000 10999 10996 ] final  -50.66 input  -57.11 | X-H torsion

> <Gold.Protein.ActiveResidues>
 VAL166  LYS551  ARG553  GLY616  TRP617  ASP618  TYR619  PRO620  LYS621  CYS622 
 ASP623  PHE694  ASN695  SER759  ASP760  ASP761  ALA762  ILE779  LEU786  VAL792 
 PHE793  MET794  SER795  GLU796  ALA797  LYS798  CYS799  TRP800  GLU811  SER814 

> <Gold.Protein.RotatedAtoms>
  152.4853  133.8357  159.7125 H   0  0  0  0  0  0  0  0  0  0  0  0  # atno 6907 bound_to 6896
  150.8934  133.7203  159.2905 H   0  0  0  0  0  0  0  0  0  0  0  0  # atno 6908 bound_to 6896
  151.4668  135.1046  159.9792 H   0  0  0  0  0  0  0  0  0  0  0  0  # atno 6909 bound_to 6896
  144.7135  140.0750  143.6428 H   0  0  0  0  0  0  0  0  0  0  0  0  # atno 7974 bound_to 7965
  155.0481  140.3177  155.4701 H   0  0  0  0  0  0  0  0  0  0  0  0  # atno 8008 bound_to 7997
  156.2840  140.2151  156.5550 H   0  0  0  0  0  0  0  0  0  0  0  0  # atno 8009 bound_to 7997
  154.7233  140.0487  157.0648 H   0  0  0  0  0  0  0  0  0  0  0  0  # atno 8010 bound_to 7997
  140.6609  143.2635  151.4443 H   0  0  0  0  0  0  0  0  0  0  0  0  # atno 10167 bound_to 10162
  156.2519  130.4189  149.8640 H   0  0  0  0  0  0  0  0  0  0  0  0  # atno 10718 bound_to 10713
  153.8338  135.6863  153.4811 H   0  0  0  0  0  0  0  0  0  0  0  0  # atno 10763 bound_to 10752
  153.1494  135.4624  154.9613 H   0  0  0  0  0  0  0  0  0  0  0  0  # atno 10764 bound_to 10752
  154.7875  135.3290  154.7799 H   0  0  0  0  0  0  0  0  0  0  0  0  # atno 10765 bound_to 10752
  141.0828  133.6649  156.3763 H   0  0  0  0  0  0  0  0  0  0  0  0  # atno 11005 bound_to 11000
  145.9751  139.2898  143.1076 LP  0  0  0  0  0  0  0  0  0  0  0  0  # atno 17320 bound_to 7965
  145.9074  140.9203  143.0472 LP  0  0  0  0  0  0  0  0  0  0  0  0  # atno 17321 bound_to 7965
  139.5843  144.1640  152.2008 LP  0  0  0  0  0  0  0  0  0  0  0  0  # atno 17342 bound_to 10162
  140.0975  144.5568  150.7012 LP  0  0  0  0  0  0  0  0  0  0  0  0  # atno 17343 bound_to 10162
  156.6185  130.8616  151.3470 LP  0  0  0  0  0  0  0  0  0  0  0  0  # atno 17370 bound_to 10713
  157.7218  130.9568  150.1468 LP  0  0  0  0  0  0  0  0  0  0  0  0  # atno 17371 bound_to 10713
  140.5430  134.6101  157.5385 LP  0  0  0  0  0  0  0  0  0  0  0  0  # atno 17394 bound_to 11000
  139.9643  134.7399  156.0171 LP  0  0  0  0  0  0  0  0  0  0  0  0  # atno 17395 bound_to 11000

$$$$
