AV-unprocessed.smi:265|AV-procd|sdf|2026|dock2
  -GOLD-   2262021233D 1   1.00000     0.00000
 Structure written by MMmdl.
 52 56  0  0  0  0  0  0  0  0  1 V2000
  150.9879  141.1663  157.0684 C   0  0  0  0  0  0  0  0  0  0  0  0
  151.5842  140.2868  155.9592 C   0  0  1  0  0  0  0  0  0  0  0  0
  152.6124  139.4473  156.4783 O   0  0  0  0  0  0  0  0  0  0  0  0
  152.6255  138.2011  155.7875 C   0  0  0  0  0  0  0  0  0  0  0  0
  151.6136  138.3450  154.6545 C   0  0  0  0  0  0  0  0  0  0  0  0
  150.6131  139.3423  155.2255 C   0  0  2  0  0  0  0  0  0  0  0  0
  149.9831  140.0191  154.1545 O   0  0  0  0  0  0  0  0  0  0  0  0
  149.5387  138.7007  156.1465 C   0  0  0  0  0  0  0  0  0  0  0  0
  148.8109  137.6013  155.5331 N   0  0  0  0  0  0  0  0  0  0  0  0
  149.0642  136.2570  155.6872 C   0  0  0  0  0  0  0  0  0  0  0  0
  148.2663  135.4611  155.0292 N   0  0  0  0  0  0  0  0  0  0  0  0
  147.3825  136.3207  154.3871 C   0  0  0  0  0  0  0  0  0  0  0  0
  146.2710  136.1314  153.5178 C   0  0  0  0  0  0  0  0  0  0  0  0
  145.8341  134.9016  153.1445 N   0  0  0  0  0  0  0  0  0  0  0  0
  146.7647  133.7805  153.2739 C   0  0  0  0  0  0  0  0  0  0  0  0
  146.0154  132.4410  153.2039 C   0  0  0  0  0  0  0  0  0  0  0  0
  145.1386  132.3405  151.9452 C   0  0  2  0  0  0  0  0  0  0  0  0
  145.9530  132.2601  150.7826 O   0  0  0  0  0  0  0  0  0  0  0  0
  145.2237  131.9832  149.5858 C   0  0  0  0  0  0  0  0  0  0  0  0
  143.9984  132.9015  149.4199 C   0  0  0  0  0  0  0  0  0  0  0  0
  143.4433  132.9915  148.3275 O   0  0  0  0  0  0  0  0  0  0  0  0
  143.5445  133.5525  150.5029 N   0  0  0  0  0  0  0  0  0  0  0  0
  144.2278  133.5781  151.7919 C   0  0  2  0  0  0  0  0  0  0  0  0
  145.0278  134.8899  151.9254 C   0  0  0  0  0  0  0  0  0  0  0  0
  145.6378  137.2457  153.0617 N   0  0  0  0  0  0  0  0  0  0  0  0
  146.0523  138.4594  153.4364 C   0  0  0  0  0  0  0  0  0  0  0  0
  147.0641  138.7831  154.2436 N   0  0  0  0  0  0  0  0  0  0  0  0
  147.7118  137.6712  154.6947 C   0  0  0  0  0  0  0  0  0  0  0  0
  144.5350  131.4334  152.0147 H   0  0  0  0  0  0  0  0  0  0  0  0
  143.4681  133.5536  152.5741 H   0  0  0  0  0  0  0  0  0  0  0  0
  150.1762  141.7847  156.6846 H   0  0  0  0  0  0  0  0  0  0  0  0
  151.7460  141.8330  157.4794 H   0  0  0  0  0  0  0  0  0  0  0  0
  150.5992  140.5693  157.8933 H   0  0  0  0  0  0  0  0  0  0  0  0
  152.0656  140.9357  155.2246 H   0  0  0  0  0  0  0  0  0  0  0  0
  153.6238  137.9598  155.4222 H   0  0  0  0  0  0  0  0  0  0  0  0
  152.3192  137.4153  156.4786 H   0  0  0  0  0  0  0  0  0  0  0  0
  152.1184  138.7736  153.7867 H   0  0  0  0  0  0  0  0  0  0  0  0
  151.1846  137.3955  154.3376 H   0  0  0  0  0  0  0  0  0  0  0  0
  149.5895  139.3773  153.5832 H   0  0  0  0  0  0  0  0  0  0  0  0
  149.9978  138.3289  157.0632 H   0  0  0  0  0  0  0  0  0  0  0  0
  148.8086  139.4489  156.4567 H   0  0  0  0  0  0  0  0  0  0  0  0
  149.8715  135.8829  156.3000 H   0  0  0  0  0  0  0  0  0  0  0  0
  147.5075  133.8344  152.4767 H   0  0  0  0  0  0  0  0  0  0  0  0
  147.3025  133.8435  154.2209 H   0  0  0  0  0  0  0  0  0  0  0  0
  146.7231  131.6122  153.2369 H   0  0  0  0  0  0  0  0  0  0  0  0
  145.3837  132.3415  154.0874 H   0  0  0  0  0  0  0  0  0  0  0  0
  145.8888  132.0986  148.7298 H   0  0  0  0  0  0  0  0  0  0  0  0
  144.8886  130.9454  149.5973 H   0  0  0  0  0  0  0  0  0  0  0  0
  142.7191  134.1257  150.4051 H   0  0  0  0  0  0  0  0  0  0  0  0
  144.3412  135.7352  151.8924 H   0  0  0  0  0  0  0  0  0  0  0  0
  145.6995  135.0063  151.0735 H   0  0  0  0  0  0  0  0  0  0  0  0
  145.4933  139.2901  153.0314 H   0  0  0  0  0  0  0  0  0  0  0  0
  1  2  1  0  0  0  0
  1 31  1  0  0  0  0
  1 32  1  0  0  0  0
  1 33  1  0  0  0  0
  2  6  1  0  0  0  0
  2  3  1  0  0  0  0
  2 34  1  0  0  0  0
  3  4  1  0  0  0  0
  4  5  1  0  0  0  0
  4 35  1  0  0  0  0
  4 36  1  0  0  0  0
  5  6  1  0  0  0  0
  5 37  1  0  0  0  0
  5 38  1  0  0  0  0
  6  7  1  0  0  0  0
  6  8  1  0  0  0  0
  7 39  1  0  0  0  0
  8  9  1  0  0  0  0
  8 40  1  0  0  0  0
  8 41  1  0  0  0  0
  9 28  1  0  0  0  0
  9 10  1  0  0  0  0
 10 11  2  0  0  0  0
 10 42  1  0  0  0  0
 11 12  1  0  0  0  0
 12 28  2  0  0  0  0
 12 13  1  0  0  0  0
 13 14  1  0  0  0  0
 13 25  2  0  0  0  0
 14 24  1  0  0  0  0
 14 15  1  0  0  0  0
 15 16  1  0  0  0  0
 15 43  1  0  0  0  0
 15 44  1  0  0  0  0
 16 17  1  0  0  0  0
 16 45  1  0  0  0  0
 16 46  1  0  0  0  0
 17 29  1  0  0  0  0
 17 23  1  0  0  0  0
 17 18  1  0  0  0  0
 18 19  1  0  0  0  0
 19 20  1  0  0  0  0
 19 47  1  0  0  0  0
 19 48  1  0  0  0  0
 20 21  2  0  0  0  0
 20 22  1  0  0  0  0
 22 23  1  0  0  0  0
 22 49  1  0  0  0  0
 23 30  1  0  0  0  0
 23 24  1  0  0  0  0
 24 50  1  0  0  0  0
 24 51  1  0  0  0  0
 25 26  1  0  0  0  0
 26 27  2  0  0  0  0
 26 52  1  0  0  0  0
 27 28  1  0  0  0  0
M  END
> <s_m_source_file>
AV-unprocessed.smi

> <i_m_source_file_index>
265

> <i_lp_mmshare_version>
43012

> <i_f3d_flags>
0

> <s_epik_input>
W0NIMl0xW0NIMl1PW0NAQEhdKFtDSDNdKVtDQEBdMShbT0hdKVtDSDJdbihbY0hdbjIpYyhjMjMpbltjSF1uYzNOKFtDSDJdW0NIMl00KVtDSDJdW0NAQEhdKFtDQEhdNDUpW05IXUMoPU8pW0NIMl1PNQ==

> <s_epik_cmdline>
J2VwaWtfcHl0aG9uJywgJy1waCcsICc3LjAnLCAnLXRuJywgJzgnLCAnLW1hJywgJzIwMCcsICctbWV0YWxfYmluZGluZycsICctaW1hZScsICc8aW5maWxlLm1hZT4nLCAnLW9tYWUnLCAnPG91dGZpbGUubWFlPic=

> <r_lp_tautomer_probability>
1

> <r_epik_Ionization_Penalty>
0.00221504

> <r_epik_Ionization_Penalty_Charging>
0

> <r_epik_Ionization_Penalty_Neutral>
0.00221504

> <r_epik_State_Penalty>
-0

> <r_epik_Charging_Adjusted_Penalty>
0

> <i_epik_Tot_Q>
0

> <i_epik_Tot_abs_Q>
0

> <r_epik_Metal_State_Penalty>
-0

> <b_epik_Metal_Only>
0

> <s_lp_Force_Field>
OPLS_2005

> <r_lp_Energy>
44.4274

> <b_lp_Chiralities_Consistent>
1

> <s_lp_Variant>
AV-unprocessed.smi:265-12

> <Gold.Version>
5.8.1

> <Gold.Id.Protein>
6NUR|6NUR_protein|mol2

> <Gold.PLP.Fitness>
44.5717

> <Gold.PLP.PLP>
-34.3036

> <Gold.PLP.part.hbond>
-4.0943

> <Gold.PLP.part.metal>
0.0000

> <Gold.PLP.part.buried>
-4.6525

> <Gold.PLP.part.nonpolar>
-27.8640

> <Gold.PLP.part.repulsive>
1.0461

> <Gold.PLP.ligand.clash>
0.0000

> <Gold.PLP.ligand.torsion>
0.9644

> <Gold.PLP.Chemscore.Hbond>
2.9424

> <Gold.PLP.Chemscore.CHOScore>
1.0000

> <Gold.PLP.Chemscore.Metal>
0.0000

> <Gold.Chemscore.Hbonds>
donor molecule, donor type, donor heavy atom, donor atom, acceptor molecule, acceptor atom, score
      L1  H    22    49       P1 10186  0.98
      P1  H  7989  7998       L1     7  0.77
      P1  H  7997  8010       L1     3  1.00
      L1  C    26    52       P1 10175  1.00

> <Gold.PLP.Chemscore.Internal.Correction>
0.3697

> <Gold.Rescore>
     Score         DG    S(hbond)    S(metal)    S(lipo)     H(rot)  DE(clash)    DE(int)     intcor
     11.07     -14.19       1.91        0.00      69.19       2.25       0.98       2.14       ----

> <Gold.Chemscore.Fitness>
11.0728

> <Gold.Chemscore.DG>
-14.1912

> <Gold.Chemscore.ZeroCoef>
-5.4800

> <Gold.Chemscore.Hbond>
1.9054

> <Gold.Chemscore.Metal>
0.0000

> <Gold.Chemscore.Lipo>
69.1887

> <Gold.Chemscore.Internal_Hbond>
0.0000

> <Gold.Chemscore.DEClash>
0.9780

> <Gold.Chemscore.DEInternal>
2.1405

> <Gold.Chemscore.Rot>
2.2453

> <Gold.Chemscore.Internal.Correction>
   9.000000E+99

> <Gold.Chemscore.Hbonds>
donor molecule, donor type, donor heavy atom, donor atom, acceptor molecule, acceptor atom, score
      L1  H    22    49       P1 10186  0.79
      P1  H  7989  7998       L1     7  0.10
      P1  H  7997  8010       L1     3  0.44

> <Gold.Chemscore.Hbond.Weighted>
-6.3641

> <Gold.Chemscore.Metal.Weighted>
-0.0000

> <Gold.Chemscore.Lipo.Weighted>
-8.0951

> <Gold.Chemscore.Internal_Hbond.Weighted>
0.0000

> <Gold.Chemscore.DEClash.Weighted>
0.9780

> <Gold.Chemscore.DEInternal.Weighted>
2.1405

> <Gold.Chemscore.Rot.Weighted>
5.7479

> <Gold.Chemscore.Internal.Correction.Weighted>
   9.000000E+99

> <Gold.Protein.RotatedTorsions>
[ 6907 6896 6895 6894 ] final -101.03 input  -60.11 | X-H torsion
[ 7974 7965 7964 7962 ] final  -31.02 input  175.53 | X-H torsion
[ 8008 7997 7996 7995 ] final   82.37 input   59.86 | X-H torsion
[ 10167 10162 10161 10158 ] final   40.01 input  -65.29 | X-H torsion
[ 10718 10713 10712 10709 ] final  -89.69 input   66.30 | X-H torsion
[ 10763 10752 10751 10750 ] final  -81.99 input  -60.55 | X-H torsion
[ 11005 11000 10999 10996 ] final   27.39 input  -57.11 | X-H torsion

> <Gold.Protein.ActiveResidues>
 VAL166  LYS551  ARG553  GLY616  TRP617  ASP618  TYR619  PRO620  LYS621  CYS622 
 ASP623  PHE694  ASN695  SER759  ASP760  ASP761  ALA762  ILE779  LEU786  VAL792 
 PHE793  MET794  SER795  GLU796  ALA797  LYS798  CYS799  TRP800  GLU811  SER814 

> <Gold.Protein.RotatedAtoms>
  150.7138  134.0797  159.3893 H   0  0  0  0  0  0  0  0  0  0  0  0  # atno 6907 bound_to 6896
  151.8780  135.0462  160.0495 H   0  0  0  0  0  0  0  0  0  0  0  0  # atno 6908 bound_to 6896
  152.2590  133.5245  159.5407 H   0  0  0  0  0  0  0  0  0  0  0  0  # atno 6909 bound_to 6896
  146.1099  140.5615  142.8783 H   0  0  0  0  0  0  0  0  0  0  0  0  # atno 7974 bound_to 7965
  155.9096  140.3428  155.6089 H   0  0  0  0  0  0  0  0  0  0  0  0  # atno 8008 bound_to 7997
  155.7403  140.0807  157.2267 H   0  0  0  0  0  0  0  0  0  0  0  0  # atno 8009 bound_to 7997
  154.4054  140.1572  156.2596 H   0  0  0  0  0  0  0  0  0  0  0  0  # atno 8010 bound_to 7997
  140.3783  144.2013  150.6131 H   0  0  0  0  0  0  0  0  0  0  0  0  # atno 10167 bound_to 10162
  155.9985  130.4881  150.5209 H   0  0  0  0  0  0  0  0  0  0  0  0  # atno 10718 bound_to 10713
  154.5703  135.5607  153.7089 H   0  0  0  0  0  0  0  0  0  0  0  0  # atno 10763 bound_to 10752
  153.0046  135.6295  154.2123 H   0  0  0  0  0  0  0  0  0  0  0  0  # atno 10764 bound_to 10752
  154.2062  135.2875  155.2954 H   0  0  0  0  0  0  0  0  0  0  0  0  # atno 10765 bound_to 10752
  140.3268  134.2482  155.7708 H   0  0  0  0  0  0  0  0  0  0  0  0  # atno 11005 bound_to 11000
  144.7502  140.5172  143.6807 LP  0  0  0  0  0  0  0  0  0  0  0  0  # atno 17320 bound_to 7965
  145.5685  139.1482  143.3301 LP  0  0  0  0  0  0  0  0  0  0  0  0  # atno 17321 bound_to 7965
  140.4963  143.2331  151.8744 LP  0  0  0  0  0  0  0  0  0  0  0  0  # atno 17342 bound_to 10162
  139.4797  144.5110  151.8933 LP  0  0  0  0  0  0  0  0  0  0  0  0  # atno 17343 bound_to 10162
  157.3170  131.0674  151.1959 LP  0  0  0  0  0  0  0  0  0  0  0  0  # atno 17370 bound_to 10713
  157.2886  130.6785  149.6102 LP  0  0  0  0  0  0  0  0  0  0  0  0  # atno 17371 bound_to 10713
  141.2073  133.7809  157.0125 LP  0  0  0  0  0  0  0  0  0  0  0  0  # atno 17394 bound_to 11000
  140.0895  134.9601  157.1753 LP  0  0  0  0  0  0  0  0  0  0  0  0  # atno 17395 bound_to 11000

$$$$
