AV-unprocessed.smi:3252|AV-procd|sdf|12444|dock1
  -GOLD-   2272018333D 1   1.00000     0.00000
 Structure written by MMmdl.
 36 37  0  0  0  0  0  0  0  0  1 V2000
  151.7113  145.9688  160.3067 C   0  0  0  0  0  0  0  0  0  0  0  0
  152.0596  145.2744  158.9824 C   0  0  0  0  0  0  0  0  0  0  0  0
  151.5511  143.9106  158.8488 N   0  0  0  0  0  0  0  0  0  0  0  0
  152.3684  142.9346  159.5653 C   0  0  0  0  0  0  0  0  0  0  0  0
  151.8419  141.5007  159.3821 C   0  0  0  0  0  0  0  0  0  0  0  0
  151.7616  141.1933  157.9939 O   0  0  0  0  0  0  0  0  0  0  0  0
  150.9199  142.0904  157.2728 C   0  0  2  0  0  0  0  0  0  0  0  0
  150.9016  141.6662  155.7983 C   0  0  0  0  0  0  0  0  0  0  0  0
  149.6160  141.9462  155.1745 N   0  0  0  0  0  0  0  0  0  0  0  0
  148.9249  140.9484  154.4742 C   0  0  0  0  0  0  0  0  0  0  0  0
  149.4227  139.6287  154.5116 C   0  0  0  0  0  0  0  0  0  0  0  0
  148.7294  138.6207  153.8131 C   0  0  0  0  0  0  0  0  0  0  0  0
  147.5641  138.9675  153.1011 C   0  0  0  0  0  0  0  0  0  0  0  0
  146.8135  137.9638  152.3660 C   0  0  0  0  0  0  0  0  0  0  0  0
  146.2157  137.1647  151.7805 N   0  0  0  0  0  0  0  0  0  0  0  0
  147.1449  140.3133  153.1206 C   0  0  0  0  0  0  0  0  0  0  0  0
  147.8049  141.2835  153.7894 N   0  0  0  0  0  0  0  0  0  0  0  0
  151.4705  143.5192  157.4458 C   0  0  0  0  0  0  0  0  0  0  0  0
  152.0334  147.0100  160.2876 H   0  0  0  0  0  0  0  0  0  0  0  0
  152.1998  145.4947  161.1578 H   0  0  0  0  0  0  0  0  0  0  0  0
  150.6357  145.9593  160.4846 H   0  0  0  0  0  0  0  0  0  0  0  0
  151.6461  145.8834  158.1773 H   0  0  0  0  0  0  0  0  0  0  0  0
  153.1410  145.2835  158.8390 H   0  0  0  0  0  0  0  0  0  0  0  0
  153.3999  142.9872  159.2137 H   0  0  0  0  0  0  0  0  0  0  0  0
  152.3878  143.1656  160.6298 H   0  0  0  0  0  0  0  0  0  0  0  0
  152.5081  140.7872  159.8671 H   0  0  0  0  0  0  0  0  0  0  0  0
  150.8597  141.3872  159.8436 H   0  0  0  0  0  0  0  0  0  0  0  0
  149.9063  142.0448  157.6760 H   0  0  0  0  0  0  0  0  0  0  0  0
  151.6737  142.2132  155.2558 H   0  0  0  0  0  0  0  0  0  0  0  0
  151.1335  140.6044  155.7067 H   0  0  0  0  0  0  0  0  0  0  0  0
  149.2385  142.8812  155.2313 H   0  0  0  0  0  0  0  0  0  0  0  0
  150.3181  139.3888  155.0663 H   0  0  0  0  0  0  0  0  0  0  0  0
  149.0896  137.6020  153.8285 H   0  0  0  0  0  0  0  0  0  0  0  0
  146.2573  140.6253  152.5890 H   0  0  0  0  0  0  0  0  0  0  0  0
  150.8298  144.2181  156.9066 H   0  0  0  0  0  0  0  0  0  0  0  0
  152.4581  143.5860  156.9864 H   0  0  0  0  0  0  0  0  0  0  0  0
  1  2  1  0  0  0  0
  1 19  1  0  0  0  0
  1 20  1  0  0  0  0
  1 21  1  0  0  0  0
  2  3  1  0  0  0  0
  2 22  1  0  0  0  0
  2 23  1  0  0  0  0
  3 18  1  0  0  0  0
  3  4  1  0  0  0  0
  4  5  1  0  0  0  0
  4 24  1  0  0  0  0
  4 25  1  0  0  0  0
  5  6  1  0  0  0  0
  5 26  1  0  0  0  0
  5 27  1  0  0  0  0
  6  7  1  0  0  0  0
  7  8  1  0  0  0  0
  7 18  1  0  0  0  0
  7 28  1  0  0  0  0
  8  9  1  0  0  0  0
  8 29  1  0  0  0  0
  8 30  1  0  0  0  0
  9 10  1  0  0  0  0
  9 31  1  0  0  0  0
 10 17  1  0  0  0  0
 10 11  2  0  0  0  0
 11 12  1  0  0  0  0
 11 32  1  0  0  0  0
 12 13  2  0  0  0  0
 12 33  1  0  0  0  0
 13 14  1  0  0  0  0
 13 16  1  0  0  0  0
 14 15  3  0  0  0  0
 16 17  2  0  0  0  0
 16 34  1  0  0  0  0
 18 35  1  0  0  0  0
 18 36  1  0  0  0  0
M  END
> <s_m_source_file>
AV-unprocessed.smi

> <i_m_source_file_index>
3252

> <i_lp_mmshare_version>
43012

> <i_f3d_flags>
0

> <s_epik_input>
W0NIM11bQ0gyXU4xW0NIMl1bQ0gyXU9bQ0BIXShbQ0gyXTEpW0NIMl1bTkhdYzJbY0hdW2NIXWMoQyNOKVtjSF1uMg==

> <s_epik_cmdline>
J2VwaWtfcHl0aG9uJywgJy1waCcsICc3LjAnLCAnLXRuJywgJzgnLCAnLW1hJywgJzIwMCcsICctbWV0YWxfYmluZGluZycsICctaW1hZScsICc8aW5maWxlLm1hZT4nLCAnLW9tYWUnLCAnPG91dGZpbGUubWFlPic=

> <r_epik_Ionization_Penalty>
0.797836

> <r_epik_Ionization_Penalty_Charging>
0

> <r_epik_Ionization_Penalty_Neutral>
0.797836

> <r_epik_State_Penalty>
0.828842

> <r_epik_Charging_Adjusted_Penalty>
0.828842

> <i_epik_Tot_Q>
0

> <i_epik_Tot_abs_Q>
0

> <r_epik_Metal_State_Penalty>
0.828842

> <b_epik_Metal_Only>
0

> <s_lp_Force_Field>
OPLS_2005

> <r_lp_Energy>
23.1529

> <b_lp_Chiralities_Consistent>
1

> <s_lp_Variant>
AV-unprocessed.smi:3252-6

> <Gold.Version>
5.8.1

> <Gold.Id.Protein>
6NUR|6NUR_protein|mol2

> <Gold.PLP.Fitness>
41.3457

> <Gold.PLP.PLP>
-36.6836

> <Gold.PLP.part.hbond>
-1.0000

> <Gold.PLP.part.metal>
0.0000

> <Gold.PLP.part.buried>
-4.4844

> <Gold.PLP.part.nonpolar>
-33.1689

> <Gold.PLP.part.repulsive>
0.9267

> <Gold.PLP.ligand.clash>
0.0000

> <Gold.PLP.ligand.torsion>
0.6723

> <Gold.PLP.Chemscore.Hbond>
1.0000

> <Gold.PLP.Chemscore.CHOScore>
1.0000

> <Gold.PLP.Chemscore.Metal>
0.0000

> <Gold.Chemscore.Hbonds>
donor molecule, donor type, donor heavy atom, donor atom, acceptor molecule, acceptor atom, score
      L1  H     9    31       P1  8028  1.00
      L1  C    16    34       P1 10175  0.90

> <Gold.PLP.Chemscore.Internal.Correction>
0.0067

> <Gold.Rescore>
     Score         DG    S(hbond)    S(metal)    S(lipo)     H(rot)  DE(clash)    DE(int)     intcor
     14.83     -16.57       0.99        0.00      97.85       1.43       0.62       1.12       ----

> <Gold.Chemscore.Fitness>
14.8333

> <Gold.Chemscore.DG>
-16.5725

> <Gold.Chemscore.ZeroCoef>
-5.4800

> <Gold.Chemscore.Hbond>
0.9918

> <Gold.Chemscore.Metal>
0.0000

> <Gold.Chemscore.Lipo>
97.8535

> <Gold.Chemscore.Internal_Hbond>
0.0000

> <Gold.Chemscore.DEClash>
0.6150

> <Gold.Chemscore.DEInternal>
1.1243

> <Gold.Chemscore.Rot>
1.4331

> <Gold.Chemscore.Internal.Correction>
   9.000000E+99

> <Gold.Chemscore.Hbonds>
donor molecule, donor type, donor heavy atom, donor atom, acceptor molecule, acceptor atom, score
      L1  H     9    31       P1  8028  1.00

> <Gold.Chemscore.Hbond.Weighted>
-3.3125

> <Gold.Chemscore.Metal.Weighted>
-0.0000

> <Gold.Chemscore.Lipo.Weighted>
-11.4489

> <Gold.Chemscore.Internal_Hbond.Weighted>
0.0000

> <Gold.Chemscore.DEClash.Weighted>
0.6150

> <Gold.Chemscore.DEInternal.Weighted>
1.1243

> <Gold.Chemscore.Rot.Weighted>
3.6688

> <Gold.Chemscore.Internal.Correction.Weighted>
   9.000000E+99

> <Gold.Protein.RotatedTorsions>
[ 6907 6896 6895 6894 ] final   -8.24 input  -60.11 | X-H torsion
[ 7974 7965 7964 7962 ] final -143.98 input  175.53 | X-H torsion
[ 8008 7997 7996 7995 ] final  -88.57 input   59.86 | X-H torsion
[ 10167 10162 10161 10158 ] final  132.43 input  -65.29 | X-H torsion
[ 10718 10713 10712 10709 ] final  -90.36 input   66.30 | X-H torsion
[ 10763 10752 10751 10750 ] final -129.17 input  -60.55 | X-H torsion
[ 11005 11000 10999 10996 ] final  176.44 input  -57.11 | X-H torsion

> <Gold.Protein.ActiveResidues>
 VAL166  LYS551  ARG553  GLY616  TRP617  ASP618  TYR619  PRO620  LYS621  CYS622 
 ASP623  PHE694  ASN695  SER759  ASP760  ASP761  ALA762  ILE779  LEU786  VAL792 
 PHE793  MET794  SER795  GLU796  ALA797  LYS798  CYS799  TRP800  GLU811  SER814 

> <Gold.Protein.RotatedAtoms>
  151.4367  135.1016  159.9657 H   0  0  0  0  0  0  0  0  0  0  0  0  # atno 6907 bound_to 6896
  152.4937  133.8566  159.7239 H   0  0  0  0  0  0  0  0  0  0  0  0  # atno 6908 bound_to 6896
  150.9117  133.6931  159.2881 H   0  0  0  0  0  0  0  0  0  0  0  0  # atno 6909 bound_to 6896
  144.8330  140.5767  143.5502 H   0  0  0  0  0  0  0  0  0  0  0  0  # atno 7974 bound_to 7965
  154.6764  140.0552  157.0220 H   0  0  0  0  0  0  0  0  0  0  0  0  # atno 8008 bound_to 7997
  155.1015  140.3229  155.4527 H   0  0  0  0  0  0  0  0  0  0  0  0  # atno 8009 bound_to 7997
  156.2677  140.2030  156.6141 H   0  0  0  0  0  0  0  0  0  0  0  0  # atno 8010 bound_to 7997
  139.5340  144.6662  151.4850 H   0  0  0  0  0  0  0  0  0  0  0  0  # atno 10167 bound_to 10162
  155.9987  130.4907  150.5311 H   0  0  0  0  0  0  0  0  0  0  0  0  # atno 10718 bound_to 10713
  154.8757  135.3904  154.3876 H   0  0  0  0  0  0  0  0  0  0  0  0  # atno 10763 bound_to 10752
  153.4616  135.7029  153.6052 H   0  0  0  0  0  0  0  0  0  0  0  0  # atno 10764 bound_to 10752
  153.4548  135.3825  155.2273 H   0  0  0  0  0  0  0  0  0  0  0  0  # atno 10765 bound_to 10752
  140.3731  134.7012  157.4405 H   0  0  0  0  0  0  0  0  0  0  0  0  # atno 11005 bound_to 11000
  145.4855  139.1492  143.3738 LP  0  0  0  0  0  0  0  0  0  0  0  0  # atno 17320 bound_to 7965
  146.2631  140.4992  142.8845 LP  0  0  0  0  0  0  0  0  0  0  0  0  # atno 17321 bound_to 7965
  140.6536  143.8646  150.6811 LP  0  0  0  0  0  0  0  0  0  0  0  0  # atno 17342 bound_to 10162
  140.2019  143.3952  152.1785 LP  0  0  0  0  0  0  0  0  0  0  0  0  # atno 17343 bound_to 10162
  157.3260  131.0691  151.1896 LP  0  0  0  0  0  0  0  0  0  0  0  0  # atno 17370 bound_to 10713
  157.2793  130.6742  149.6058 LP  0  0  0  0  0  0  0  0  0  0  0  0  # atno 17371 bound_to 10713
  140.0536  134.6095  155.8832 LP  0  0  0  0  0  0  0  0  0  0  0  0  # atno 17394 bound_to 11000
  141.1948  133.6584  156.5612 LP  0  0  0  0  0  0  0  0  0  0  0  0  # atno 17395 bound_to 11000

$$$$
