#       Name:                AV-unprocessed.smi:1767
#       Creating user name   scv26
#       Creation time:       Fri Mar 27 08:38:05 2020


#       File generated by GOLD software.
#

@<TRIPOS>MOLECULE
AV-unprocessed.smi:1767
    35    37     1
SMALL
NO_CHARGES


@<TRIPOS>ATOM
      1 ****        -1.6146   3.0470   1.3186 O.3            1 S1                 0.0000
      2 ****        -1.1797   1.7055   1.2364 C.3            1 S1                 0.0000
      3 ****         0.3456   1.6798   1.4634 C.3            1 S1                 0.0000
      4 ****         0.8694   0.3141   1.6108 N.pl3          1 S1                 0.0000
      5 ****         0.8888  -0.4916   2.7072 C.2            1 S1                 0.0000
      6 ****         1.4600  -1.6722   2.3411 N.pl3          1 S1                 1.0000
      7 ****         1.8131  -1.6207   0.9912 C.ar           1 S1                 0.0000
      8 ****         2.4126  -2.5715   0.1709 C.ar           1 S1                 0.0000
      9 ****         2.6338  -2.2004  -1.1717 C.ar           1 S1                 0.0000
     10 ****         2.2655  -0.9269  -1.6517 C.ar           1 S1                 0.0000
     11 ****         1.6610   0.0297  -0.8103 C.ar           1 S1                 0.0000
     12 ****         1.4420  -0.3450   0.5155 C.ar           1 S1                 0.0000
     13 ****        -1.5858   1.0444  -0.0742 C.ar           1 S1                 0.0000
     14 ****        -2.0692  -0.2819  -0.0711 C.ar           1 S1                 0.0000
     15 ****        -2.4164  -0.9148  -1.2802 C.ar           1 S1                 0.0000
     16 ****        -2.2847  -0.2244  -2.5001 C.ar           1 S1                 0.0000
     17 ****        -2.6140  -0.8349  -3.6627 F              1 S1                 0.0000
     18 ****        -1.8075   1.1002  -2.5101 C.ar           1 S1                 0.0000
     19 ****        -1.4585   1.7332  -1.3012 C.ar           1 S1                 0.0000
     20 ****        -2.5591   3.0594   1.2823 H              1 S1                 0.0000
     21 ****        -1.6668   1.1758   2.0565 H              1 S1                 0.0000
     22 ****         0.8807   2.1970   0.6667 H              1 S1                 0.0000
     23 ****         0.5907   2.2074   2.3865 H              1 S1                 0.0000
     24 ****         0.5124  -0.2418   3.6889 H              1 S1                 0.0000
     25 ****         2.6951  -3.5481   0.5359 H              1 S1                 0.0000
     26 ****         3.0948  -2.9068  -1.8468 H              1 S1                 0.0000
     27 ****         2.4492  -0.6785  -2.6871 H              1 S1                 0.0000
     28 ****         1.3806   0.9997  -1.1926 H              1 S1                 0.0000
     29 ****        -2.1647  -0.8230   0.8589 H              1 S1                 0.0000
     30 ****        -2.7814  -1.9314  -1.2719 H              1 S1                 0.0000
     31 ****        -1.7056   1.6302  -3.4457 H              1 S1                 0.0000
     32 ****        -1.0829   2.7457  -1.3209 H              1 S1                 0.0000
     33 ****         1.5961  -2.4547   2.9685 H              1 S1                 0.0000
     34 ****        -1.2408   3.5702   0.5527 LP             1 S1                 0.0000
     35 ****        -1.3050   3.4497   2.1799 LP             1 S1                 0.0000
@<TRIPOS>BOND
    1    1    2 1     
    2    1   20 1     
    3    2    3 1     
    4    2   13 1     
    5    2   21 1     
    6    3    4 1     
    7    3   22 1     
    8    3   23 1     
    9    4   12 1     
   10    4    5 1     
   11    5    6 2     
   12    5   24 1     
   13    6    7 1     
   14    6   33 1     
   15    7   12 ar    
   16    7    8 ar    
   17    8    9 ar    
   18    8   25 1     
   19    9   10 ar    
   20    9   26 1     
   21   10   11 ar    
   22   10   27 1     
   23   11   12 ar    
   24   11   28 1     
   25   13   19 ar    
   26   13   14 ar    
   27   14   15 ar    
   28   14   29 1     
   29   15   16 ar    
   30   15   30 1     
   31   16   17 1     
   32   16   18 ar    
   33   18   19 ar    
   34   18   31 1     
   35   19   32 1     
   36    1   34 1     
   37    1   35 1     
@<TRIPOS>SUBSTRUCTURE
      1 S1             1
@<TRIPOS>SET
LONE_PAIRS      STATIC     ATOMS    <user>   **** ""
2 34 35
DONOR_HYDROGENS      STATIC     ATOMS    <user>   **** ""
2 20 33
ATOM$BLUE        STATIC     ATOMS    COLORGROUP SYSTEM
2 34 35
ATOM$RED        STATIC     ATOMS    COLORGROUP SYSTEM
2 20 33
