AV-unprocessed.smi:3181|AV-procd|sdf|12148|dock6
  -GOLD-   2272017583D 1   1.00000     0.00000
 Structure written by MMmdl.
 42 43  0  0  0  0  0  0  0  0  2 V2000
  152.4804  137.7374  159.9258 C   0  0  0  0  0  0  0  0  0  0  0  0
  152.2611  138.3453  158.5307 C   0  0  1  0  0  0  0  0  0  0  0  0
  151.5393  137.3716  157.5735 C   0  0  0  0  0  0  0  0  0  0  0  0
  151.4679  137.8683  156.2121 N   0  0  0  0  0  0  0  0  0  0  0  0
  151.0386  139.0374  155.7334 C   0  0  0  0  0  0  0  0  0  0  0  0
  151.1313  139.1416  154.4152 N   0  0  0  0  0  0  0  0  0  0  0  0
  151.6712  137.9199  154.1261 C   0  0  0  0  0  0  0  0  0  0  0  0
  151.8961  137.1198  155.1687 N   0  0  0  0  0  0  0  0  0  0  0  0
  151.4911  139.6040  158.6559 N   0  3  0  0  0  0  0  0  0  0  0  0
  152.2849  140.8430  158.8290 C   0  0  2  0  0  0  0  0  0  0  0  0
  153.1353  140.7357  160.1073 C   0  0  0  0  0  0  0  0  0  0  0  0
  153.9583  142.0118  160.3503 C   0  0  0  0  0  0  0  0  0  0  0  0
  153.0751  143.2746  160.4091 C   0  0  2  0  0  0  0  0  0  0  0  0
  152.2586  143.3388  161.7156 C   0  0  0  0  0  0  0  0  0  0  0  0
  152.2202  143.3818  159.1208 C   0  0  2  0  0  0  0  0  0  0  0  0
  151.3454  144.6456  159.0750 C   0  0  0  0  0  0  0  0  0  0  0  0
  151.3935  142.1032  158.8733 C   0  0  0  0  0  0  0  0  0  0  0  0
  153.1071  136.8464  159.8806 H   0  0  0  0  0  0  0  0  0  0  0  0
  151.5346  137.4553  160.3898 H   0  0  0  0  0  0  0  0  0  0  0  0
  152.9774  138.4469  160.5882 H   0  0  0  0  0  0  0  0  0  0  0  0
  153.2470  138.5735  158.1225 H   0  0  0  0  0  0  0  0  0  0  0  0
  152.0517  136.4086  157.5603 H   0  0  0  0  0  0  0  0  0  0  0  0
  150.5218  137.1741  157.9113 H   0  0  0  0  0  0  0  0  0  0  0  0
  150.6469  139.8258  156.3595 H   0  0  0  0  0  0  0  0  0  0  0  0
  151.9055  137.6111  153.1180 H   0  0  0  0  0  0  0  0  0  0  0  0
  150.8834  139.7039  157.8554 H   0  0  0  0  0  0  0  0  0  0  0  0
  152.9679  140.9241  157.9816 H   0  0  0  0  0  0  0  0  0  0  0  0
  152.4931  140.5427  160.9675 H   0  0  0  0  0  0  0  0  0  0  0  0
  153.8086  139.8807  160.0339 H   0  0  0  0  0  0  0  0  0  0  0  0
  154.5373  141.9124  161.2691 H   0  0  0  0  0  0  0  0  0  0  0  0
  154.6878  142.1218  159.5467 H   0  0  0  0  0  0  0  0  0  0  0  0
  153.7492  144.1322  160.4273 H   0  0  0  0  0  0  0  0  0  0  0  0
  151.5020  142.5568  161.7689 H   0  0  0  0  0  0  0  0  0  0  0  0
  151.7514  144.2974  161.8224 H   0  0  0  0  0  0  0  0  0  0  0  0
  152.9071  143.2267  162.5847 H   0  0  0  0  0  0  0  0  0  0  0  0
  152.9206  143.4699  158.2885 H   0  0  0  0  0  0  0  0  0  0  0  0
  150.5467  144.6122  159.8162 H   0  0  0  0  0  0  0  0  0  0  0  0
  150.8773  144.7597  158.0970 H   0  0  0  0  0  0  0  0  0  0  0  0
  151.9387  145.5413  159.2604 H   0  0  0  0  0  0  0  0  0  0  0  0
  150.8591  142.2124  157.9294 H   0  0  0  0  0  0  0  0  0  0  0  0
  150.6306  141.9944  159.6451 H   0  0  0  0  0  0  0  0  0  0  0  0
  150.9132  139.5132  159.4792 H   0  0  0  0  0  0  0  0  0  0  0  0
  1  2  1  0  0  0  0
  1 18  1  0  0  0  0
  1 19  1  0  0  0  0
  1 20  1  0  0  0  0
  2  3  1  0  0  0  0
  2  9  1  0  0  0  0
  2 21  1  0  0  0  0
  3  4  1  0  0  0  0
  3 22  1  0  0  0  0
  3 23  1  0  0  0  0
  4  8  1  0  0  0  0
  4  5  1  0  0  0  0
  5  6  2  0  0  0  0
  5 24  1  0  0  0  0
  6  7  1  0  0  0  0
  7  8  2  0  0  0  0
  7 25  1  0  0  0  0
  9 10  1  0  0  0  0
  9 26  1  0  0  0  0
  9 42  1  0  0  0  0
 10 17  1  0  0  0  0
 10 11  1  0  0  0  0
 10 27  1  0  0  0  0
 11 12  1  0  0  0  0
 11 28  1  0  0  0  0
 11 29  1  0  0  0  0
 12 13  1  0  0  0  0
 12 30  1  0  0  0  0
 12 31  1  0  0  0  0
 13 14  1  0  0  0  0
 13 15  1  0  0  0  0
 13 32  1  0  0  0  0
 14 33  1  0  0  0  0
 14 34  1  0  0  0  0
 14 35  1  0  0  0  0
 15 16  1  0  0  0  0
 15 17  1  0  0  0  0
 15 36  1  0  0  0  0
 16 37  1  0  0  0  0
 16 38  1  0  0  0  0
 16 39  1  0  0  0  0
 17 40  1  0  0  0  0
 17 41  1  0  0  0  0
M  CHG  1   9   1
M  END
> <s_m_source_file>
AV-unprocessed.smi

> <i_m_source_file_index>
3181

> <i_lp_mmshare_version>
43012

> <i_f3d_flags>
0

> <s_epik_input>
bjFbY0hdbltjSF1uMVtDSDJdW0NAQEhdKFtDSDNdKVtOSF1bQ0BASF0yW0NIMl1bQ0gyXVtDQEBIXShbQ0gzXSlbQ0BASF0oW0NIM10pW0NIMl0y

> <s_epik_cmdline>
J2VwaWtfcHl0aG9uJywgJy1waCcsICc3LjAnLCAnLXRuJywgJzgnLCAnLW1hJywgJzIwMCcsICctbWV0YWxfYmluZGluZycsICctaW1hZScsICc8aW5maWxlLm1hZT4nLCAnLW9tYWUnLCAnPG91dGZpbGUubWFlPic=

> <r_lp_tautomer_probability>
1

> <r_epik_Ionization_Penalty>
0.000617007

> <r_epik_Ionization_Penalty_Charging>
0.000616215

> <r_epik_Ionization_Penalty_Neutral>
7.92544e-07

> <r_epik_State_Penalty>
0.000388807

> <r_epik_Charging_Adjusted_Penalty>
0.00100502

> <i_epik_Tot_Q>
1

> <i_epik_Tot_abs_Q>
1

> <r_epik_Metal_State_Penalty>
-0

> <b_epik_Metal_Only>
0

> <s_lp_Force_Field>
OPLS_2005

> <r_lp_Energy>
20.8152

> <b_lp_Chiralities_Consistent>
1

> <s_lp_Variant>
AV-unprocessed.smi:3181-14

> <Gold.Version>
5.8.1

> <Gold.Id.Protein>
6NUR|6NUR_protein|mol2

> <Gold.PLP.Fitness>
43.7351

> <Gold.PLP.PLP>
-35.7013

> <Gold.PLP.part.hbond>
-2.0000

> <Gold.PLP.part.metal>
0.0000

> <Gold.PLP.part.buried>
-5.6052

> <Gold.PLP.part.nonpolar>
-27.9235

> <Gold.PLP.part.repulsive>
0.3656

> <Gold.PLP.ligand.clash>
0.0000

> <Gold.PLP.ligand.torsion>
0.4948

> <Gold.PLP.Chemscore.Hbond>
2.0000

> <Gold.PLP.Chemscore.CHOScore>
1.0000

> <Gold.PLP.Chemscore.Metal>
0.0000

> <Gold.Chemscore.Hbonds>
donor molecule, donor type, donor heavy atom, donor atom, acceptor molecule, acceptor atom, score
      P1  H  7989  7998       L1     6  1.00
      P1  H 10752 10765       L1     8  0.99
      L1  C     7    25       P1  7949  1.00

> <Gold.PLP.Chemscore.Internal.Correction>
0.0234

> <Gold.Rescore>
     Score         DG    S(hbond)    S(metal)    S(lipo)     H(rot)  DE(clash)    DE(int)     intcor
     16.09     -17.10       1.74        0.00      95.93       2.11       0.48       0.53       ----

> <Gold.Chemscore.Fitness>
16.0903

> <Gold.Chemscore.DG>
-17.1022

> <Gold.Chemscore.ZeroCoef>
-5.4800

> <Gold.Chemscore.Hbond>
1.7362

> <Gold.Chemscore.Metal>
0.0000

> <Gold.Chemscore.Lipo>
95.9276

> <Gold.Chemscore.Internal_Hbond>
0.0000

> <Gold.Chemscore.DEClash>
0.4836

> <Gold.Chemscore.DEInternal>
0.5283

> <Gold.Chemscore.Rot>
2.1095

> <Gold.Chemscore.Internal.Correction>
   9.000000E+99

> <Gold.Chemscore.Hbonds>
donor molecule, donor type, donor heavy atom, donor atom, acceptor molecule, acceptor atom, score
      P1  H  7989  7998       L1     6  0.94
      P1  H 10752 10765       L1     8  0.61

> <Gold.Chemscore.Hbond.Weighted>
-5.7990

> <Gold.Chemscore.Metal.Weighted>
-0.0000

> <Gold.Chemscore.Lipo.Weighted>
-11.2235

> <Gold.Chemscore.Internal_Hbond.Weighted>
0.0000

> <Gold.Chemscore.DEClash.Weighted>
0.4836

> <Gold.Chemscore.DEInternal.Weighted>
0.5283

> <Gold.Chemscore.Rot.Weighted>
5.4003

> <Gold.Chemscore.Internal.Correction.Weighted>
   9.000000E+99

> <Gold.Protein.RotatedTorsions>
[ 6907 6896 6895 6894 ] final -100.98 input  -60.11 | X-H torsion
[ 7974 7965 7964 7962 ] final -158.47 input  175.53 | X-H torsion
[ 8008 7997 7996 7995 ] final -104.59 input   59.86 | X-H torsion
[ 10167 10162 10161 10158 ] final  -15.17 input  -65.29 | X-H torsion
[ 10718 10713 10712 10709 ] final  -81.61 input   66.30 | X-H torsion
[ 10763 10752 10751 10750 ] final  177.96 input  -60.55 | X-H torsion
[ 11005 11000 10999 10996 ] final  -29.50 input  -57.11 | X-H torsion

> <Gold.Protein.ActiveResidues>
 VAL166  LYS551  ARG553  GLY616  TRP617  ASP618  TYR619  PRO620  LYS621  CYS622 
 ASP623  PHE694  ASN695  SER759  ASP760  ASP761  ALA762  ILE779  LEU786  VAL792 
 PHE793  MET794  SER795  GLU796  ALA797  LYS798  CYS799  TRP800  GLU811  SER814 

> <Gold.Protein.RotatedAtoms>
  150.7137  134.0804  159.3895 H   0  0  0  0  0  0  0  0  0  0  0  0  # atno 6907 bound_to 6896
  151.8788  135.0459  160.0496 H   0  0  0  0  0  0  0  0  0  0  0  0  # atno 6908 bound_to 6896
  152.2584  133.5240  159.5404 H   0  0  0  0  0  0  0  0  0  0  0  0  # atno 6909 bound_to 6896
  144.7504  140.3823  143.6052 H   0  0  0  0  0  0  0  0  0  0  0  0  # atno 7974 bound_to 7965
  154.8875  140.0417  157.1819 H   0  0  0  0  0  0  0  0  0  0  0  0  # atno 8008 bound_to 7997
  154.8575  140.2939  155.5539 H   0  0  0  0  0  0  0  0  0  0  0  0  # atno 8009 bound_to 7997
  156.2997  140.2453  156.3544 H   0  0  0  0  0  0  0  0  0  0  0  0  # atno 8010 bound_to 7997
  140.7214  143.5246  150.9593 H   0  0  0  0  0  0  0  0  0  0  0  0  # atno 10167 bound_to 10162
  156.0047  130.4609  150.3979 H   0  0  0  0  0  0  0  0  0  0  0  0  # atno 10718 bound_to 10713
  154.5014  135.2784  155.1417 H   0  0  0  0  0  0  0  0  0  0  0  0  # atno 10763 bound_to 10752
  154.3049  135.6240  153.5444 H   0  0  0  0  0  0  0  0  0  0  0  0  # atno 10764 bound_to 10752
  152.9903  135.5706  154.5458 H   0  0  0  0  0  0  0  0  0  0  0  0  # atno 10765 bound_to 10752
  140.9302  133.7343  156.0925 H   0  0  0  0  0  0  0  0  0  0  0  0  # atno 11005 bound_to 11000
  145.6964  139.1651  143.2617 LP  0  0  0  0  0  0  0  0  0  0  0  0  # atno 17320 bound_to 7965
  146.1446  140.7010  142.9350 LP  0  0  0  0  0  0  0  0  0  0  0  0  # atno 17321 bound_to 7965
  139.8964  143.6890  152.3138 LP  0  0  0  0  0  0  0  0  0  0  0  0  # atno 17342 bound_to 10162
  139.7224  144.7600  151.0934 LP  0  0  0  0  0  0  0  0  0  0  0  0  # atno 17343 bound_to 10162
  157.2049  131.0447  151.2630 LP  0  0  0  0  0  0  0  0  0  0  0  0  # atno 17370 bound_to 10713
  157.3941  130.7298  149.6719 LP  0  0  0  0  0  0  0  0  0  0  0  0  # atno 17371 bound_to 10713
  140.7873  134.3657  157.5473 LP  0  0  0  0  0  0  0  0  0  0  0  0  # atno 17394 bound_to 11000
  139.8794  134.9118  156.3046 LP  0  0  0  0  0  0  0  0  0  0  0  0  # atno 17395 bound_to 11000

$$$$
