AV-unprocessed.smi:729|AV-procd|sdf|3519|dock7
  -GOLD-   22720 0513D 1   1.00000     0.00000
 Structure written by MMmdl.
 20 20  0  0  0  0  0  0  0  0  3 V2000
  152.2783  139.3902  159.2151 C   0  0  0  0  0  0  0  0  0  0  0  0
  151.7947  140.3744  158.1546 C   0  0  0  0  0  0  0  0  0  0  0  0
  151.7555  141.6976  158.4283 C   0  0  0  0  0  0  0  0  0  0  0  0
  151.3463  142.6284  157.4838 C   0  0  0  0  0  0  0  0  0  0  0  0
  151.3049  143.8536  157.7338 O   0  5  0  0  0  0  0  0  0  0  0  0
  150.9946  142.1165  156.2430 C   0  0  0  0  0  0  0  0  0  0  0  0
  151.0232  140.7034  155.8837 C   0  0  0  0  0  0  0  0  0  0  0  0
  150.7130  140.3194  154.7546 O   0  0  0  0  0  0  0  0  0  0  0  0
  151.4039  139.8596  156.8856 N   0  0  0  0  0  0  0  0  0  0  0  0
  151.4784  138.4052  156.6022 C   0  0  0  0  0  0  0  0  0  0  0  0
  152.2825  138.0691  155.3399 C   0  0  0  0  0  0  0  0  0  0  0  0
  151.7476  137.3004  154.5105 O   0  0  0  0  0  0  0  0  0  0  0  0
  153.4255  138.5662  155.2339 O   0  5  0  0  0  0  0  0  0  0  0  0
  152.6993  139.9229  160.0682 H   0  0  0  0  0  0  0  0  0  0  0  0
  153.0641  138.7340  158.8438 H   0  0  0  0  0  0  0  0  0  0  0  0
  151.4530  138.7877  159.5930 H   0  0  0  0  0  0  0  0  0  0  0  0
  152.0546  142.0393  159.4090 H   0  0  0  0  0  0  0  0  0  0  0  0
  150.6736  142.8065  155.4759 H   0  0  0  0  0  0  0  0  0  0  0  0
  151.9203  137.8317  157.4175 H   0  0  0  0  0  0  0  0  0  0  0  0
  150.4745  137.9905  156.5228 H   0  0  0  0  0  0  0  0  0  0  0  0
  1  2  1  0  0  0  0
  1 14  1  0  0  0  0
  1 15  1  0  0  0  0
  1 16  1  0  0  0  0
  2  9  1  0  0  0  0
  2  3  2  0  0  0  0
  3  4  1  0  0  0  0
  3 17  1  0  0  0  0
  4  5  1  0  0  0  0
  4  6  2  0  0  0  0
  6  7  1  0  0  0  0
  6 18  1  0  0  0  0
  7  8  2  0  0  0  0
  7  9  1  0  0  0  0
  9 10  1  0  0  0  0
 10 11  1  0  0  0  0
 10 19  1  0  0  0  0
 10 20  1  0  0  0  0
 11 12  2  0  0  0  0
 11 13  1  0  0  0  0
M  CHG  1   5  -1
M  CHG  1  13  -1
M  END
> <s_m_source_file>
AV-unprocessed.smi

> <i_m_source_file_index>
729

> <i_lp_mmshare_version>
43012

> <i_f3d_flags>
0

> <s_epik_input>
W0NIM11jMVtjSF1jKFtPSF0pW2NIXWMoPU8pbjFbQ0gyXUMoPU8pW09IXQ==

> <s_epik_cmdline>
J2VwaWtfcHl0aG9uJywgJy1waCcsICc3LjAnLCAnLXRuJywgJzgnLCAnLW1hJywgJzIwMCcsICctbWV0YWxfYmluZGluZycsICctaW1hZScsICc8aW5maWxlLm1hZT4nLCAnLW9tYWUnLCAnPG91dGZpbGUubWFlPic=

> <r_lp_tautomer_probability>
1

> <r_epik_Ionization_Penalty>
0.494568

> <r_epik_Ionization_Penalty_Charging>
0.494568

> <r_epik_Ionization_Penalty_Neutral>
1.61422e-13

> <r_epik_State_Penalty>
0.445538

> <r_epik_Charging_Adjusted_Penalty>
0.940106

> <i_epik_Tot_Q>
-2

> <i_epik_Tot_abs_Q>
2

> <r_epik_Metal_State_Penalty>
0.445538

> <b_epik_Metal_Only>
0

> <s_lp_Force_Field>
OPLS_2005

> <r_lp_Energy>
22.4438

> <b_lp_Chiralities_Consistent>
1

> <s_lp_Variant>
AV-unprocessed.smi:729-1

> <Gold.Version>
5.8.1

> <Gold.Id.Protein>
6NUR|6NUR_protein|mol2

> <Gold.PLP.Fitness>
38.5024

> <Gold.PLP.PLP>
-24.4188

> <Gold.PLP.part.hbond>
-3.0000

> <Gold.PLP.part.metal>
0.0000

> <Gold.PLP.part.buried>
-5.3172

> <Gold.PLP.part.nonpolar>
-17.8268

> <Gold.PLP.part.repulsive>
0.4213

> <Gold.PLP.ligand.clash>
0.0000

> <Gold.PLP.ligand.torsion>
0.1498

> <Gold.PLP.Chemscore.Hbond>
4.7920

> <Gold.PLP.Chemscore.CHOScore>
0.0000

> <Gold.PLP.Chemscore.Metal>
0.0000

> <Gold.Chemscore.Hbonds>
donor molecule, donor type, donor heavy atom, donor atom, acceptor molecule, acceptor atom, score
      P1  H  7989  7998       L1     8  1.00
      P1  H  7997  8008       L1    13  1.74
      P1  H 10752 10765       L1    12  1.52

> <Gold.PLP.Chemscore.Internal.Correction>
0.0071

> <Gold.Rescore>
     Score         DG    S(hbond)    S(metal)    S(lipo)     H(rot)  DE(clash)    DE(int)     intcor
     13.66     -15.20       2.68        0.00      39.57       1.51       0.00       1.54       ----

> <Gold.Chemscore.Fitness>
13.6598

> <Gold.Chemscore.DG>
-15.1988

> <Gold.Chemscore.ZeroCoef>
-5.4800

> <Gold.Chemscore.Hbond>
2.6776

> <Gold.Chemscore.Metal>
0.0000

> <Gold.Chemscore.Lipo>
39.5650

> <Gold.Chemscore.Internal_Hbond>
0.0000

> <Gold.Chemscore.DEClash>
0.0000

> <Gold.Chemscore.DEInternal>
1.5390

> <Gold.Chemscore.Rot>
1.5053

> <Gold.Chemscore.Internal.Correction>
   9.000000E+99

> <Gold.Chemscore.Hbonds>
donor molecule, donor type, donor heavy atom, donor atom, acceptor molecule, acceptor atom, score
      P1  H  7989  7998       L1     8  0.94
      P1  H  7997  8008       L1    13  0.80
      P1  H 10752 10765       L1    12  0.54

> <Gold.Chemscore.Hbond.Weighted>
-8.9432

> <Gold.Chemscore.Metal.Weighted>
-0.0000

> <Gold.Chemscore.Lipo.Weighted>
-4.6291

> <Gold.Chemscore.Internal_Hbond.Weighted>
0.0000

> <Gold.Chemscore.DEClash.Weighted>
0.0000

> <Gold.Chemscore.DEInternal.Weighted>
1.5390

> <Gold.Chemscore.Rot.Weighted>
3.8534

> <Gold.Chemscore.Internal.Correction.Weighted>
   9.000000E+99

> <Gold.Protein.RotatedTorsions>
[ 6907 6896 6895 6894 ] final    8.09 input  -60.11 | X-H torsion
[ 7974 7965 7964 7962 ] final   99.48 input  175.53 | X-H torsion
[ 8008 7997 7996 7995 ] final   -9.92 input   59.86 | X-H torsion
[ 10167 10162 10161 10158 ] final   64.34 input  -65.29 | X-H torsion
[ 10718 10713 10712 10709 ] final  -98.25 input   66.30 | X-H torsion
[ 10763 10752 10751 10750 ] final  146.52 input  -60.55 | X-H torsion
[ 11005 11000 10999 10996 ] final  145.35 input  -57.11 | X-H torsion

> <Gold.Protein.ActiveResidues>
 VAL166  LYS551  ARG553  GLY616  TRP617  ASP618  TYR619  PRO620  LYS621  CYS622 
 ASP623  PHE694  ASN695  SER759  ASP760  ASP761  ALA762  ILE779  LEU786  VAL792 
 PHE793  MET794  SER795  GLU796  ALA797  LYS798  CYS799  TRP800  GLU811  SER814 

> <Gold.Protein.RotatedAtoms>
  151.7004  135.0931  160.0249 H   0  0  0  0  0  0  0  0  0  0  0  0  # atno 6907 bound_to 6896
  152.3724  133.6432  159.6106 H   0  0  0  0  0  0  0  0  0  0  0  0  # atno 6908 bound_to 6896
  150.7683  133.9165  159.3426 H   0  0  0  0  0  0  0  0  0  0  0  0  # atno 6909 bound_to 6896
  145.3984  139.2351  143.3314 H   0  0  0  0  0  0  0  0  0  0  0  0  # atno 7974 bound_to 7965
  154.5602  140.2342  155.8347 H   0  0  0  0  0  0  0  0  0  0  0  0  # atno 8008 bound_to 7997
  156.2023  140.3049  155.9512 H   0  0  0  0  0  0  0  0  0  0  0  0  # atno 8009 bound_to 7997
  155.2903  140.0426  157.3013 H   0  0  0  0  0  0  0  0  0  0  0  0  # atno 8010 bound_to 7997
  140.1233  144.4711  150.6907 H   0  0  0  0  0  0  0  0  0  0  0  0  # atno 10167 bound_to 10162
  156.0103  130.5230  150.6496 H   0  0  0  0  0  0  0  0  0  0  0  0  # atno 10718 bound_to 10713
  154.0232  135.2904  155.3378 H   0  0  0  0  0  0  0  0  0  0  0  0  # atno 10763 bound_to 10752
  154.7033  135.5179  153.8562 H   0  0  0  0  0  0  0  0  0  0  0  0  # atno 10764 bound_to 10752
  153.0672  135.6635  154.0452 H   0  0  0  0  0  0  0  0  0  0  0  0  # atno 10765 bound_to 10752
  140.0705  134.9154  157.1336 H   0  0  0  0  0  0  0  0  0  0  0  0  # atno 11005 bound_to 11000
  146.2764  140.4677  142.8794 LP  0  0  0  0  0  0  0  0  0  0  0  0  # atno 17320 bound_to 7965
  144.8391  140.6829  143.6241 LP  0  0  0  0  0  0  0  0  0  0  0  0  # atno 17321 bound_to 7965
  140.6859  143.2350  151.5260 LP  0  0  0  0  0  0  0  0  0  0  0  0  # atno 17342 bound_to 10162
  139.5557  144.2281  152.1608 LP  0  0  0  0  0  0  0  0  0  0  0  0  # atno 17343 bound_to 10162
  157.4260  131.0843  151.1085 LP  0  0  0  0  0  0  0  0  0  0  0  0  # atno 17370 bound_to 10713
  157.1673  130.6252  149.5629 LP  0  0  0  0  0  0  0  0  0  0  0  0  # atno 17371 bound_to 10713
  140.3635  134.2468  155.7184 LP  0  0  0  0  0  0  0  0  0  0  0  0  # atno 17394 bound_to 11000
  141.2010  133.7974  157.0463 LP  0  0  0  0  0  0  0  0  0  0  0  0  # atno 17395 bound_to 11000

$$$$
