AV-unprocessed.smi:438|AV-procd|sdf|2574|dock3
  -GOLD-   2262022553D 1   1.00000     0.00000
 Structure written by MMmdl.
 47 48  0  0  0  0  0  0  0  0  2 V2000
  144.4862  144.9956  153.2808 C   0  0  0  0  0  0  0  0  0  0  0  0
  145.0691  143.9639  154.2300 C   0  0  0  0  0  0  0  0  0  0  0  0
  146.1975  143.2702  153.7615 N   0  0  0  0  0  0  0  0  0  0  0  0
  146.7408  142.3786  154.4997 C   0  0  0  0  0  0  0  0  0  0  0  0
  148.1822  141.4800  153.8993 S   0  0  0  0  0  0  0  0  0  0  0  0
  148.7477  140.5468  155.3538 C   0  0  0  0  0  0  0  0  0  0  0  0
  150.1424  140.9591  155.8221 C   0  0  0  0  0  0  0  0  0  0  0  0
  151.1436  140.5466  155.2356 O   0  0  0  0  0  0  0  0  0  0  0  0
  150.1948  141.7751  156.8863 N   0  0  0  0  0  0  0  0  0  0  0  0
  151.4165  142.2999  157.4927 C   0  0  1  0  0  0  0  0  0  0  0  0
  151.3167  143.8352  157.6076 C   0  0  0  0  0  0  0  0  0  0  0  0
  152.5525  144.4340  158.2943 C   0  0  0  0  0  0  0  0  0  0  0  0
  152.7781  143.7967  159.6720 C   0  0  0  0  0  0  0  0  0  0  0  0
  152.8944  142.2691  159.5608 C   0  0  0  0  0  0  0  0  0  0  0  0
  151.6605  141.6462  158.8761 C   0  0  2  0  0  0  0  0  0  0  0  0
  151.8083  140.1165  158.7872 C   0  0  0  0  0  0  0  0  0  0  0  0
  146.2901  142.0434  155.7553 N   0  5  0  0  0  0  0  0  0  0  0  0
  145.2013  142.6729  156.2821 C   0  0  0  0  0  0  0  0  0  0  0  0
  144.7657  142.4014  157.4005 O   0  0  0  0  0  0  0  0  0  0  0  0
  144.5421  143.7029  155.4601 C   0  0  0  0  0  0  0  0  0  0  0  0
  143.3245  144.4291  156.0269 C   0  0  0  0  0  0  0  0  0  0  0  0
  142.1369  144.4103  155.0540 C   0  0  0  0  0  0  0  0  0  0  0  0
  141.7375  143.0792  154.8083 O   0  0  0  0  0  0  0  0  0  0  0  0
  143.4183  144.8281  153.1400 H   0  0  0  0  0  0  0  0  0  0  0  0
  144.9640  144.9461  152.3015 H   0  0  0  0  0  0  0  0  0  0  0  0
  144.6327  146.0008  153.6766 H   0  0  0  0  0  0  0  0  0  0  0  0
  148.7611  139.4835  155.1130 H   0  0  0  0  0  0  0  0  0  0  0  0
  148.0296  140.6879  156.1631 H   0  0  0  0  0  0  0  0  0  0  0  0
  149.3212  142.0606  157.3045 H   0  0  0  0  0  0  0  0  0  0  0  0
  152.2673  142.0561  156.8532 H   0  0  0  0  0  0  0  0  0  0  0  0
  151.2009  144.2792  156.6181 H   0  0  0  0  0  0  0  0  0  0  0  0
  150.4236  144.1060  158.1729 H   0  0  0  0  0  0  0  0  0  0  0  0
  153.4315  144.2766  157.6681 H   0  0  0  0  0  0  0  0  0  0  0  0
  152.4347  145.5129  158.3978 H   0  0  0  0  0  0  0  0  0  0  0  0
  153.6804  144.2058  160.1273 H   0  0  0  0  0  0  0  0  0  0  0  0
  151.9518  144.0544  160.3356 H   0  0  0  0  0  0  0  0  0  0  0  0
  153.7944  142.0147  158.9994 H   0  0  0  0  0  0  0  0  0  0  0  0
  153.0234  141.8426  160.5562 H   0  0  0  0  0  0  0  0  0  0  0  0
  150.7943  141.8548  159.5064 H   0  0  0  0  0  0  0  0  0  0  0  0
  152.6378  139.8376  158.1366 H   0  0  0  0  0  0  0  0  0  0  0  0
  150.9063  139.6453  158.3969 H   0  0  0  0  0  0  0  0  0  0  0  0
  151.9987  139.6839  159.7697 H   0  0  0  0  0  0  0  0  0  0  0  0
  143.5819  145.4599  156.2691 H   0  0  0  0  0  0  0  0  0  0  0  0
  143.0398  143.9756  156.9776 H   0  0  0  0  0  0  0  0  0  0  0  0
  141.2926  144.9640  155.4661 H   0  0  0  0  0  0  0  0  0  0  0  0
  142.4039  144.8797  154.1066 H   0  0  0  0  0  0  0  0  0  0  0  0
  141.8766  142.8897  153.8930 H   0  0  0  0  0  0  0  0  0  0  0  0
  1 24  1  0  0  0  0
  1 25  1  0  0  0  0
  1 26  1  0  0  0  0
  1  2  1  0  0  0  0
  2 20  2  0  0  0  0
  2  3  1  0  0  0  0
  3  4  2  0  0  0  0
  4  5  1  0  0  0  0
  4 17  1  0  0  0  0
  5  6  1  0  0  0  0
  6  7  1  0  0  0  0
  6 27  1  0  0  0  0
  6 28  1  0  0  0  0
  7  8  2  0  0  0  0
  7  9  1  0  0  0  0
  9 10  1  0  0  0  0
  9 29  1  0  0  0  0
 10 15  1  0  0  0  0
 10 11  1  0  0  0  0
 10 30  1  0  0  0  0
 11 12  1  0  0  0  0
 11 31  1  0  0  0  0
 11 32  1  0  0  0  0
 12 13  1  0  0  0  0
 12 33  1  0  0  0  0
 12 34  1  0  0  0  0
 13 14  1  0  0  0  0
 13 35  1  0  0  0  0
 13 36  1  0  0  0  0
 14 15  1  0  0  0  0
 14 37  1  0  0  0  0
 14 38  1  0  0  0  0
 15 16  1  0  0  0  0
 15 39  1  0  0  0  0
 16 40  1  0  0  0  0
 16 41  1  0  0  0  0
 16 42  1  0  0  0  0
 17 18  1  0  0  0  0
 18 19  2  0  0  0  0
 18 20  1  0  0  0  0
 20 21  1  0  0  0  0
 21 22  1  0  0  0  0
 21 43  1  0  0  0  0
 21 44  1  0  0  0  0
 22 23  1  0  0  0  0
 22 45  1  0  0  0  0
 22 46  1  0  0  0  0
 23 47  1  0  0  0  0
M  CHG  1  17  -1
M  END
> <s_m_source_file>
AV-unprocessed.smi

> <i_m_source_file_index>
438

> <i_lp_mmshare_version>
43012

> <i_f3d_flags>
0

> <s_epik_input>
W09IXVtDSDJdW0NIMl1jMWMoW09IXSluYyhuYzFbQ0gzXSlTW0NIMl1DKD1PKVtOSF1bQ0BASF0yW0NIMl1bQ0gyXVtDSDJdW0NIMl1bQ0BIXTJbQ0gzXQ==

> <s_epik_cmdline>
J2VwaWtfcHl0aG9uJywgJy1waCcsICc3LjAnLCAnLXRuJywgJzgnLCAnLW1hJywgJzIwMCcsICctbWV0YWxfYmluZGluZycsICctaW1hZScsICc8aW5maWxlLm1hZT4nLCAnLW9tYWUnLCAnPG91dGZpbGUubWFlPic=

> <r_lp_tautomer_probability>
1

> <r_epik_Ionization_Penalty>
3.69231

> <r_epik_Ionization_Penalty_Charging>
0.00434774

> <r_epik_Ionization_Penalty_Neutral>
3.68796

> <r_epik_State_Penalty>
2.13826

> <r_epik_Charging_Adjusted_Penalty>
2.14261

> <i_epik_Tot_Q>
-1

> <i_epik_Tot_abs_Q>
1

> <r_epik_Metal_State_Penalty>
0.260979

> <b_epik_Metal_Only>
0

> <s_lp_Force_Field>
OPLS_2005

> <r_lp_Energy>
18.4405

> <b_lp_Chiralities_Consistent>
1

> <s_lp_Variant>
AV-unprocessed.smi:438-12

> <Gold.Version>
5.8.1

> <Gold.Id.Protein>
6NUR|6NUR_protein|mol2

> <Gold.PLP.Fitness>
50.6457

> <Gold.PLP.PLP>
-46.4030

> <Gold.PLP.part.hbond>
-2.9823

> <Gold.PLP.part.metal>
0.0000

> <Gold.PLP.part.buried>
-4.1616

> <Gold.PLP.part.nonpolar>
-40.3594

> <Gold.PLP.part.repulsive>
0.4487

> <Gold.PLP.ligand.clash>
0.0000

> <Gold.PLP.ligand.torsion>
0.8563

> <Gold.PLP.Chemscore.Hbond>
1.9440

> <Gold.PLP.Chemscore.CHOScore>
0.0000

> <Gold.PLP.Chemscore.Metal>
0.0000

> <Gold.Chemscore.Hbonds>
donor molecule, donor type, donor heavy atom, donor atom, acceptor molecule, acceptor atom, score
      L1  H    23    47       P1 10174  1.00
      P1  H  7989  7998       L1     8  0.93

> <Gold.PLP.Chemscore.Internal.Correction>
0.1232

> <Gold.Rescore>
     Score         DG    S(hbond)    S(metal)    S(lipo)     H(rot)  DE(clash)    DE(int)     intcor
     16.98     -18.15       1.84        0.00     116.77       2.79       0.24       0.93       ----

> <Gold.Chemscore.Fitness>
16.9811

> <Gold.Chemscore.DG>
-18.1509

> <Gold.Chemscore.ZeroCoef>
-5.4800

> <Gold.Chemscore.Hbond>
1.8439

> <Gold.Chemscore.Metal>
0.0000

> <Gold.Chemscore.Lipo>
116.7661

> <Gold.Chemscore.Internal_Hbond>
0.0000

> <Gold.Chemscore.DEClash>
0.2381

> <Gold.Chemscore.DEInternal>
0.9317

> <Gold.Chemscore.Rot>
2.7927

> <Gold.Chemscore.Internal.Correction>
   9.000000E+99

> <Gold.Chemscore.Hbonds>
donor molecule, donor type, donor heavy atom, donor atom, acceptor molecule, acceptor atom, score
      L1  H    23    47       P1 10174  0.99
      P1  H  7989  7998       L1     8  0.90

> <Gold.Chemscore.Hbond.Weighted>
-6.1585

> <Gold.Chemscore.Metal.Weighted>
-0.0000

> <Gold.Chemscore.Lipo.Weighted>
-13.6616

> <Gold.Chemscore.Internal_Hbond.Weighted>
0.0000

> <Gold.Chemscore.DEClash.Weighted>
0.2381

> <Gold.Chemscore.DEInternal.Weighted>
0.9317

> <Gold.Chemscore.Rot.Weighted>
7.1492

> <Gold.Chemscore.Internal.Correction.Weighted>
   9.000000E+99

> <Gold.Protein.RotatedTorsions>
[ 6907 6896 6895 6894 ] final  -27.98 input  -60.11 | X-H torsion
[ 7974 7965 7964 7962 ] final  129.43 input  175.53 | X-H torsion
[ 8008 7997 7996 7995 ] final   37.11 input   59.86 | X-H torsion
[ 10167 10162 10161 10158 ] final  -42.93 input  -65.29 | X-H torsion
[ 10718 10713 10712 10709 ] final  -11.88 input   66.30 | X-H torsion
[ 10763 10752 10751 10750 ] final  103.52 input  -60.55 | X-H torsion
[ 11005 11000 10999 10996 ] final -104.13 input  -57.11 | X-H torsion

> <Gold.Protein.ActiveResidues>
 VAL166  LYS551  ARG553  GLY616  TRP617  ASP618  TYR619  PRO620  LYS621  CYS622 
 ASP623  PHE694  ASN695  SER759  ASP760  ASP761  ALA762  ILE779  LEU786  VAL792 
 PHE793  MET794  SER795  GLU796  ALA797  LYS798  CYS799  TRP800  GLU811  SER814 

> <Gold.Protein.RotatedAtoms>
  151.1394  135.0171  159.8618 H   0  0  0  0  0  0  0  0  0  0  0  0  # atno 6907 bound_to 6896
  152.5452  134.1517  159.8531 H   0  0  0  0  0  0  0  0  0  0  0  0  # atno 6908 bound_to 6896
  151.1591  133.4811  159.2627 H   0  0  0  0  0  0  0  0  0  0  0  0  # atno 6909 bound_to 6896
  145.0287  139.4065  143.5160 H   0  0  0  0  0  0  0  0  0  0  0  0  # atno 7974 bound_to 7965
  155.1983  140.3313  155.4347 H   0  0  0  0  0  0  0  0  0  0  0  0  # atno 8008 bound_to 7997
  156.2416  140.1898  156.7022 H   0  0  0  0  0  0  0  0  0  0  0  0  # atno 8009 bound_to 7997
  154.6158  140.0602  156.9538 H   0  0  0  0  0  0  0  0  0  0  0  0  # atno 8010 bound_to 7997
  140.6952  143.3011  151.3279 H   0  0  0  0  0  0  0  0  0  0  0  0  # atno 10167 bound_to 10162
  156.6527  130.4959  149.6056 H   0  0  0  0  0  0  0  0  0  0  0  0  # atno 10718 bound_to 10713
  153.3537  135.3974  155.1666 H   0  0  0  0  0  0  0  0  0  0  0  0  # atno 10763 bound_to 10752
  154.8667  135.3663  154.5188 H   0  0  0  0  0  0  0  0  0  0  0  0  # atno 10764 bound_to 10752
  153.5642  135.7080  153.5593 H   0  0  0  0  0  0  0  0  0  0  0  0  # atno 10765 bound_to 10752
  141.1114  133.8697  157.1572 H   0  0  0  0  0  0  0  0  0  0  0  0  # atno 11005 bound_to 11000
  146.3495  139.9825  142.8694 LP  0  0  0  0  0  0  0  0  0  0  0  0  # atno 17320 bound_to 7965
  145.1799  140.9762  143.4272 LP  0  0  0  0  0  0  0  0  0  0  0  0  # atno 17321 bound_to 7965
  139.6399  144.0559  152.2546 LP  0  0  0  0  0  0  0  0  0  0  0  0  # atno 17342 bound_to 10162
  140.0061  144.6258  150.7687 LP  0  0  0  0  0  0  0  0  0  0  0  0  # atno 17343 bound_to 10162
  156.2072  130.6656  151.1231 LP  0  0  0  0  0  0  0  0  0  0  0  0  # atno 17370 bound_to 10713
  157.7136  131.0722  150.6412 LP  0  0  0  0  0  0  0  0  0  0  0  0  # atno 17371 bound_to 10713
  140.0011  135.0027  157.0191 LP  0  0  0  0  0  0  0  0  0  0  0  0  # atno 17394 bound_to 11000
  140.4763  134.1334  155.7210 LP  0  0  0  0  0  0  0  0  0  0  0  0  # atno 17395 bound_to 11000

$$$$
