AV-unprocessed.smi:2560|AV-procd|sdf|10038|dock10
  -GOLD-   2272014 83D 1   1.00000     0.00000
 Structure written by MMmdl.
 31 32  0  0  0  0  0  0  0  0  1 V2000
  157.1128  145.4897  168.9208 C   0  0  0  0  0  0  0  0  0  0  0  0
  155.7306  144.3167  168.8563 S   0  0  0  0  0  0  0  0  0  0  0  0
  156.0954  143.2118  167.5311 C   0  0  0  0  0  0  0  0  0  0  0  0
  157.1071  142.3306  167.6312 N   0  0  0  0  0  0  0  0  0  0  0  0
  157.1826  141.4331  166.2001 S   0  0  0  0  0  0  0  0  0  0  0  0
  155.8310  142.3088  165.5434 C   0  0  0  0  0  0  0  0  0  0  0  0
  155.3059  142.0469  164.2445 N   0  0  0  0  0  0  0  0  0  0  0  0
  154.2035  142.5157  163.6209 C   0  0  0  0  0  0  0  0  0  0  0  0
  153.4493  143.3120  164.1770 O   0  0  0  0  0  0  0  0  0  0  0  0
  153.9907  142.0610  162.3749 N   0  0  0  0  0  0  0  0  0  0  0  0
  152.8801  142.4273  161.5047 C   0  0  2  0  0  0  0  0  0  0  0  0
  153.2381  142.0679  160.0709 C   0  0  0  0  0  0  0  0  0  0  0  0
  153.0297  142.8796  159.0202 C   0  0  0  0  0  0  0  0  0  0  0  0
  152.3927  144.2513  159.1367 C   0  0  0  0  0  0  0  0  0  0  0  0
  151.6834  144.4449  160.4881 C   0  0  0  0  0  0  0  0  0  0  0  0
  152.5370  143.9282  161.6561 C   0  0  0  0  0  0  0  0  0  0  0  0
  155.3742  143.2255  166.3965 N   0  0  0  0  0  0  0  0  0  0  0  0
  156.9580  146.2096  169.7241 H   0  0  0  0  0  0  0  0  0  0  0  0
  157.1953  146.0339  167.9798 H   0  0  0  0  0  0  0  0  0  0  0  0
  158.0510  144.9650  169.1027 H   0  0  0  0  0  0  0  0  0  0  0  0
  155.8531  141.3995  163.6958 H   0  0  0  0  0  0  0  0  0  0  0  0
  154.6632  141.4085  161.9975 H   0  0  0  0  0  0  0  0  0  0  0  0
  152.0079  141.8259  161.7664 H   0  0  0  0  0  0  0  0  0  0  0  0
  153.6902  141.0998  159.9106 H   0  0  0  0  0  0  0  0  0  0  0  0
  153.3324  142.5661  158.0320 H   0  0  0  0  0  0  0  0  0  0  0  0
  153.1750  145.0001  159.0090 H   0  0  0  0  0  0  0  0  0  0  0  0
  151.6825  144.3893  158.3212 H   0  0  0  0  0  0  0  0  0  0  0  0
  151.4404  145.4978  160.6328 H   0  0  0  0  0  0  0  0  0  0  0  0
  150.7336  143.9083  160.4785 H   0  0  0  0  0  0  0  0  0  0  0  0
  152.0212  144.1013  162.6012 H   0  0  0  0  0  0  0  0  0  0  0  0
  153.4566  144.5142  161.6981 H   0  0  0  0  0  0  0  0  0  0  0  0
  1  2  1  0  0  0  0
  1 18  1  0  0  0  0
  1 19  1  0  0  0  0
  1 20  1  0  0  0  0
  2  3  1  0  0  0  0
  3 17  1  0  0  0  0
  3  4  2  0  0  0  0
  4  5  1  0  0  0  0
  5  6  1  0  0  0  0
  6  7  1  0  0  0  0
  6 17  2  0  0  0  0
  7  8  1  0  0  0  0
  7 21  1  0  0  0  0
  8  9  2  0  0  0  0
  8 10  1  0  0  0  0
 10 11  1  0  0  0  0
 10 22  1  0  0  0  0
 11 16  1  0  0  0  0
 11 12  1  0  0  0  0
 11 23  1  0  0  0  0
 12 13  2  0  0  0  0
 12 24  1  0  0  0  0
 13 14  1  0  0  0  0
 13 25  1  0  0  0  0
 14 15  1  0  0  0  0
 14 26  1  0  0  0  0
 14 27  1  0  0  0  0
 15 16  1  0  0  0  0
 15 28  1  0  0  0  0
 15 29  1  0  0  0  0
 16 30  1  0  0  0  0
 16 31  1  0  0  0  0
M  END
> <s_m_source_file>
AV-unprocessed.smi

> <i_m_source_file_index>
2560

> <i_lp_mmshare_version>
43012

> <i_f3d_flags>
0

> <s_epik_input>
W0NIM11TYzFuc2MobjEpW05IXUMoPU8pW05IXVtDQEBIXTJbQ0hdPVtDSF1bQ0gyXVtDSDJdW0NIMl0y

> <s_epik_cmdline>
J2VwaWtfcHl0aG9uJywgJy1waCcsICc3LjAnLCAnLXRuJywgJzgnLCAnLW1hJywgJzIwMCcsICctbWV0YWxfYmluZGluZycsICctaW1hZScsICc8aW5maWxlLm1hZT4nLCAnLW9tYWUnLCAnPG91dGZpbGUubWFlPic=

> <r_lp_tautomer_probability>
1

> <r_epik_Ionization_Penalty>
2.65559e-05

> <r_epik_Ionization_Penalty_Charging>
0

> <r_epik_Ionization_Penalty_Neutral>
2.65559e-05

> <r_epik_State_Penalty>
-0

> <r_epik_Charging_Adjusted_Penalty>
0

> <i_epik_Tot_Q>
0

> <i_epik_Tot_abs_Q>
0

> <r_epik_Metal_State_Penalty>
-0

> <b_epik_Metal_Only>
0

> <s_lp_Force_Field>
OPLS_2005

> <r_lp_Energy>
8.21818

> <b_lp_Chiralities_Consistent>
1

> <s_lp_Variant>
AV-unprocessed.smi:2560-1

> <Gold.Version>
5.8.1

> <Gold.Id.Protein>
6NUR|6NUR_protein|mol2

> <Gold.PLP.Fitness>
40.7658

> <Gold.PLP.PLP>
-41.5131

> <Gold.PLP.part.hbond>
-3.0000

> <Gold.PLP.part.metal>
0.0000

> <Gold.PLP.part.buried>
-5.1258

> <Gold.PLP.part.nonpolar>
-32.6785

> <Gold.PLP.part.repulsive>
0.1854

> <Gold.PLP.ligand.clash>
0.0000

> <Gold.PLP.ligand.torsion>
0.3769

> <Gold.PLP.Chemscore.Hbond>
0.0000

> <Gold.PLP.Chemscore.CHOScore>
0.0000

> <Gold.PLP.Chemscore.Metal>
0.0000

> <Gold.PLP.Chemscore.Internal.Correction>
0.0065

> <Gold.Rescore>
     Score         DG    S(hbond)    S(metal)    S(lipo)     H(rot)  DE(clash)    DE(int)     intcor
      8.55     -12.28       0.00        0.00      85.56       1.25       0.98       2.75       ----

> <Gold.Chemscore.Fitness>
8.5479

> <Gold.Chemscore.DG>
-12.2844

> <Gold.Chemscore.ZeroCoef>
-5.4800

> <Gold.Chemscore.Hbond>
0.0000

> <Gold.Chemscore.Metal>
0.0000

> <Gold.Chemscore.Lipo>
85.5605

> <Gold.Chemscore.Internal_Hbond>
0.0000

> <Gold.Chemscore.DEClash>
0.9830

> <Gold.Chemscore.DEInternal>
2.7536

> <Gold.Chemscore.Rot>
1.2524

> <Gold.Chemscore.Internal.Correction>
   9.000000E+99

> <Gold.Chemscore.Hbond.Weighted>
-0.0000

> <Gold.Chemscore.Metal.Weighted>
-0.0000

> <Gold.Chemscore.Lipo.Weighted>
-10.0106

> <Gold.Chemscore.Internal_Hbond.Weighted>
0.0000

> <Gold.Chemscore.DEClash.Weighted>
0.9830

> <Gold.Chemscore.DEInternal.Weighted>
2.7536

> <Gold.Chemscore.Rot.Weighted>
3.2062

> <Gold.Chemscore.Internal.Correction.Weighted>
   9.000000E+99

> <Gold.Protein.RotatedTorsions>
[ 6907 6896 6895 6894 ] final   90.41 input  -60.11 | X-H torsion
[ 7974 7965 7964 7962 ] final  -48.88 input  175.53 | X-H torsion
[ 8008 7997 7996 7995 ] final  128.73 input   59.86 | X-H torsion
[ 10167 10162 10161 10158 ] final -151.82 input  -65.29 | X-H torsion
[ 10718 10713 10712 10709 ] final  116.78 input   66.30 | X-H torsion
[ 10763 10752 10751 10750 ] final  -67.27 input  -60.55 | X-H torsion
[ 11005 11000 10999 10996 ] final -167.22 input  -57.11 | X-H torsion

> <Gold.Protein.ActiveResidues>
 VAL166  LYS551  ARG553  GLY616  TRP617  ASP618  TYR619  PRO620  LYS621  CYS622 
 ASP623  PHE694  ASN695  SER759  ASP760  ASP761  ALA762  ILE779  LEU786  VAL792 
 PHE793  MET794  SER795  GLU796  ALA797  LYS798  CYS799  TRP800  GLU811  SER814 

> <Gold.Protein.RotatedAtoms>
  152.5444  134.1816  159.8637 H   0  0  0  0  0  0  0  0  0  0  0  0  # atno 6907 bound_to 6896
  151.1818  133.4713  159.2601 H   0  0  0  0  0  0  0  0  0  0  0  0  # atno 6908 bound_to 6896
  151.1171  135.0070  159.8576 H   0  0  0  0  0  0  0  0  0  0  0  0  # atno 6909 bound_to 6896
  145.9465  140.7613  142.9526 H   0  0  0  0  0  0  0  0  0  0  0  0  # atno 7974 bound_to 7965
  156.2921  140.2637  156.2483 H   0  0  0  0  0  0  0  0  0  0  0  0  # atno 8008 bound_to 7997
  154.9908  140.0388  157.2337 H   0  0  0  0  0  0  0  0  0  0  0  0  # atno 8009 bound_to 7997
  154.7688  140.2774  155.6159 H   0  0  0  0  0  0  0  0  0  0  0  0  # atno 8010 bound_to 7997
  139.7234  143.8921  152.2511 H   0  0  0  0  0  0  0  0  0  0  0  0  # atno 10167 bound_to 10162
  157.6138  131.1029  150.7522 H   0  0  0  0  0  0  0  0  0  0  0  0  # atno 10718 bound_to 10713
  154.3721  135.6093  153.5745 H   0  0  0  0  0  0  0  0  0  0  0  0  # atno 10763 bound_to 10752
  152.9790  135.5840  154.4510 H   0  0  0  0  0  0  0  0  0  0  0  0  # atno 10764 bound_to 10752
  154.4265  135.2847  155.1918 H   0  0  0  0  0  0  0  0  0  0  0  0  # atno 10765 bound_to 10752
  140.5557  134.5383  157.5132 H   0  0  0  0  0  0  0  0  0  0  0  0  # atno 11005 bound_to 11000
  144.6788  140.2364  143.7349 LP  0  0  0  0  0  0  0  0  0  0  0  0  # atno 17320 bound_to 7965
  145.8230  139.2052  143.1927 LP  0  0  0  0  0  0  0  0  0  0  0  0  # atno 17321 bound_to 7965
  139.8823  144.7011  150.8863 LP  0  0  0  0  0  0  0  0  0  0  0  0  # atno 17342 bound_to 10162
  140.7758  143.3651  151.1754 LP  0  0  0  0  0  0  0  0  0  0  0  0  # atno 17343 bound_to 10162
  156.7893  130.4885  149.5387 LP  0  0  0  0  0  0  0  0  0  0  0  0  # atno 17370 bound_to 10713
  156.1252  130.6138  151.0253 LP  0  0  0  0  0  0  0  0  0  0  0  0  # atno 17371 bound_to 10713
  139.9432  134.7748  156.0625 LP  0  0  0  0  0  0  0  0  0  0  0  0  # atno 17394 bound_to 11000
  141.1145  133.6632  156.3059 LP  0  0  0  0  0  0  0  0  0  0  0  0  # atno 17395 bound_to 11000

$$$$
