AV-unprocessed.smi:183|AV-procd|sdf|1457|dock3
  -GOLD-   2262019263D 1   1.00000     0.00000
 Structure written by MMmdl.
 55 57  0  0  0  0  0  0  0  0  1 V2000
  145.2673  135.4647  150.5138 C   0  0  0  0  0  0  0  0  0  0  0  0
  145.0771  136.3965  151.7056 C   0  0  0  0  0  0  0  0  0  0  0  0
  143.9440  136.6960  152.0812 O   0  0  0  0  0  0  0  0  0  0  0  0
  146.1968  136.8460  152.2920 N   0  0  0  0  0  0  0  0  0  0  0  0
  146.2347  137.7462  153.4370 C   0  0  0  0  0  0  0  0  0  0  0  0
  147.6819  137.9876  153.9099 C   0  0  0  0  0  0  0  0  0  0  0  0
  148.1320  139.3717  153.7359 N   0  0  0  0  0  0  0  0  0  0  0  0
  149.2263  139.6362  154.4913 C   0  0  0  0  0  0  0  0  0  0  0  0
  150.3924  139.0529  154.1160 N   0  0  0  0  0  0  0  0  0  0  0  0
  151.5065  139.2658  154.8224 C   0  0  0  0  0  0  0  0  0  0  0  0
  151.6708  140.0083  155.9190 N   0  0  0  0  0  0  0  0  0  0  0  0
  150.4986  140.5887  156.3055 C   0  0  0  0  0  0  0  0  0  0  0  0
  149.2382  140.4551  155.6575 C   0  0  0  0  0  0  0  0  0  0  0  0
  148.2731  141.1775  156.3498 N   0  0  0  0  0  0  0  0  0  0  0  0
  148.9261  141.7113  157.3449 C   0  0  0  0  0  0  0  0  0  0  0  0
  150.2703  141.4182  157.3896 N   0  0  0  0  0  0  0  0  0  0  0  0
  151.2307  141.8779  158.3809 C   0  0  0  0  0  0  0  0  0  0  0  0
  151.2915  143.4225  158.5127 C   0  0  1  0  0  0  0  0  0  0  0  0
  151.3853  143.9724  157.2092 O   0  0  0  0  0  0  0  0  0  0  0  0
  150.0605  144.0268  159.1839 C   0  0  0  0  0  0  0  0  0  0  0  0
  150.6097  145.2829  159.8430 C   0  0  0  0  0  0  0  0  0  0  0  0
  151.8667  144.8464  160.3274 O   0  0  0  0  0  0  0  0  0  0  0  0
  152.4674  143.9967  159.3531 C   0  0  1  0  0  0  0  0  0  0  0  0
  153.3469  142.9814  160.1000 C   0  0  0  0  0  0  0  0  0  0  0  0
  147.1483  140.4528  153.5502 C   0  0  0  0  0  0  0  0  0  0  0  0
  147.8296  141.8237  153.3782 C   0  0  0  0  0  0  0  0  0  0  0  0
  146.1433  140.5440  154.7199 C   0  0  0  0  0  0  0  0  0  0  0  0
  145.6884  134.5133  150.8398 H   0  0  0  0  0  0  0  0  0  0  0  0
  145.9426  135.9101  149.7827 H   0  0  0  0  0  0  0  0  0  0  0  0
  144.3150  135.2667  150.0209 H   0  0  0  0  0  0  0  0  0  0  0  0
  147.0846  136.5446  151.9172 H   0  0  0  0  0  0  0  0  0  0  0  0
  145.7698  138.6857  153.1390 H   0  0  0  0  0  0  0  0  0  0  0  0
  145.6224  137.3381  154.2420 H   0  0  0  0  0  0  0  0  0  0  0  0
  147.7719  137.7076  154.9608 H   0  0  0  0  0  0  0  0  0  0  0  0
  148.3627  137.3208  153.3812 H   0  0  0  0  0  0  0  0  0  0  0  0
  152.3934  138.7692  154.4570 H   0  0  0  0  0  0  0  0  0  0  0  0
  148.4415  142.3405  158.0771 H   0  0  0  0  0  0  0  0  0  0  0  0
  150.9589  141.4239  159.3340 H   0  0  0  0  0  0  0  0  0  0  0  0
  152.2109  141.4789  158.1166 H   0  0  0  0  0  0  0  0  0  0  0  0
  150.5111  144.1280  156.8856 H   0  0  0  0  0  0  0  0  0  0  0  0
  149.2354  144.2261  158.4985 H   0  0  0  0  0  0  0  0  0  0  0  0
  149.6913  143.3579  159.9623 H   0  0  0  0  0  0  0  0  0  0  0  0
  150.7503  146.0828  159.1143 H   0  0  0  0  0  0  0  0  0  0  0  0
  149.9731  145.6520  160.6471 H   0  0  0  0  0  0  0  0  0  0  0  0
  153.1138  144.6166  158.7288 H   0  0  0  0  0  0  0  0  0  0  0  0
  153.8496  142.3048  159.4088 H   0  0  0  0  0  0  0  0  0  0  0  0
  152.7630  142.3843  160.8007 H   0  0  0  0  0  0  0  0  0  0  0  0
  154.1197  143.4926  160.6741 H   0  0  0  0  0  0  0  0  0  0  0  0
  146.5872  140.2520  152.6379 H   0  0  0  0  0  0  0  0  0  0  0  0
  147.0904  142.6212  153.2977 H   0  0  0  0  0  0  0  0  0  0  0  0
  148.4340  141.8667  152.4724 H   0  0  0  0  0  0  0  0  0  0  0  0
  148.4746  142.0554  154.2265 H   0  0  0  0  0  0  0  0  0  0  0  0
  145.4517  141.3743  154.5755 H   0  0  0  0  0  0  0  0  0  0  0  0
  146.6569  140.7042  155.6684 H   0  0  0  0  0  0  0  0  0  0  0  0
  145.5336  139.6466  154.8199 H   0  0  0  0  0  0  0  0  0  0  0  0
  1  2  1  0  0  0  0
  1 28  1  0  0  0  0
  1 29  1  0  0  0  0
  1 30  1  0  0  0  0
  2  3  2  0  0  0  0
  2  4  1  0  0  0  0
  4  5  1  0  0  0  0
  4 31  1  0  0  0  0
  5  6  1  0  0  0  0
  5 32  1  0  0  0  0
  5 33  1  0  0  0  0
  6  7  1  0  0  0  0
  6 34  1  0  0  0  0
  6 35  1  0  0  0  0
  7  8  1  0  0  0  0
  7 25  1  0  0  0  0
  8 13  1  0  0  0  0
  8  9  2  0  0  0  0
  9 10  1  0  0  0  0
 10 11  2  0  0  0  0
 10 36  1  0  0  0  0
 11 12  1  0  0  0  0
 12 16  1  0  0  0  0
 12 13  2  0  0  0  0
 13 14  1  0  0  0  0
 14 15  2  0  0  0  0
 15 16  1  0  0  0  0
 15 37  1  0  0  0  0
 16 17  1  0  0  0  0
 17 18  1  0  0  0  0
 17 38  1  0  0  0  0
 17 39  1  0  0  0  0
 18 23  1  0  0  0  0
 18 19  1  0  0  0  0
 18 20  1  0  0  0  0
 19 40  1  0  0  0  0
 20 21  1  0  0  0  0
 20 41  1  0  0  0  0
 20 42  1  0  0  0  0
 21 22  1  0  0  0  0
 21 43  1  0  0  0  0
 21 44  1  0  0  0  0
 22 23  1  0  0  0  0
 23 24  1  0  0  0  0
 23 45  1  0  0  0  0
 24 46  1  0  0  0  0
 24 47  1  0  0  0  0
 24 48  1  0  0  0  0
 25 26  1  0  0  0  0
 25 27  1  0  0  0  0
 25 49  1  0  0  0  0
 26 50  1  0  0  0  0
 26 51  1  0  0  0  0
 26 52  1  0  0  0  0
 27 53  1  0  0  0  0
 27 54  1  0  0  0  0
 27 55  1  0  0  0  0
M  END
> <s_m_source_file>
AV-unprocessed.smi

> <i_m_source_file_index>
183

> <i_lp_mmshare_version>
43012

> <i_f3d_flags>
0

> <s_epik_input>
W0NIM11DKD1PKVtOSF1bQ0gyXVtDSDJdTihbQ0hdKFtDSDNdKVtDSDNdKWMobltjSF1uMSljKGMxMiluW2NIXW4yW0NIMl1bQ0BAXTMoW09IXSlbQ0gyXVtDSDJdT1tDQEhdM1tDSDNd

> <s_epik_cmdline>
J2VwaWtfcHl0aG9uJywgJy1waCcsICc3LjAnLCAnLXRuJywgJzgnLCAnLW1hJywgJzIwMCcsICctbWV0YWxfYmluZGluZycsICctaW1hZScsICc8aW5maWxlLm1hZT4nLCAnLW9tYWUnLCAnPG91dGZpbGUubWFlPic=

> <r_lp_tautomer_probability>
1

> <r_epik_Ionization_Penalty>
0.00156158

> <r_epik_Ionization_Penalty_Charging>
0

> <r_epik_Ionization_Penalty_Neutral>
0.00156158

> <r_epik_State_Penalty>
0.000865808

> <r_epik_Charging_Adjusted_Penalty>
0.000865808

> <i_epik_Tot_Q>
0

> <i_epik_Tot_abs_Q>
0

> <r_epik_Metal_State_Penalty>
-0

> <b_epik_Metal_Only>
0

> <s_lp_Force_Field>
OPLS_2005

> <r_lp_Energy>
29.4164

> <b_lp_Chiralities_Consistent>
1

> <s_lp_Variant>
AV-unprocessed.smi:183-1

> <Gold.Version>
5.8.1

> <Gold.Id.Protein>
6NUR|6NUR_protein|mol2

> <Gold.PLP.Fitness>
46.2578

> <Gold.PLP.PLP>
-42.2314

> <Gold.PLP.part.hbond>
-2.1138

> <Gold.PLP.part.metal>
0.0000

> <Gold.PLP.part.buried>
-7.6515

> <Gold.PLP.part.nonpolar>
-33.6506

> <Gold.PLP.part.repulsive>
0.7461

> <Gold.PLP.ligand.clash>
0.0000

> <Gold.PLP.ligand.torsion>
1.5474

> <Gold.PLP.Chemscore.Hbond>
2.0000

> <Gold.PLP.Chemscore.CHOScore>
0.0000

> <Gold.PLP.Chemscore.Metal>
0.0000

> <Gold.Chemscore.Hbonds>
donor molecule, donor type, donor heavy atom, donor atom, acceptor molecule, acceptor atom, score
      L1  H     4    31       P1  7948  1.00
      L1  H    19    40       P1  8028  0.83

> <Gold.PLP.Chemscore.Internal.Correction>
1.1212

> <Gold.Rescore>
     Score         DG    S(hbond)    S(metal)    S(lipo)     H(rot)  DE(clash)    DE(int)     intcor
     10.33     -14.25       1.96        0.00      94.43       3.45       0.87       3.05       ----

> <Gold.Chemscore.Fitness>
10.3347

> <Gold.Chemscore.DG>
-14.2498

> <Gold.Chemscore.ZeroCoef>
-5.4800

> <Gold.Chemscore.Hbond>
1.9584

> <Gold.Chemscore.Metal>
0.0000

> <Gold.Chemscore.Lipo>
94.4287

> <Gold.Chemscore.Internal_Hbond>
0.0000

> <Gold.Chemscore.DEClash>
0.8683

> <Gold.Chemscore.DEInternal>
3.0468

> <Gold.Chemscore.Rot>
3.4451

> <Gold.Chemscore.Internal.Correction>
   9.000000E+99

> <Gold.Chemscore.Hbonds>
donor molecule, donor type, donor heavy atom, donor atom, acceptor molecule, acceptor atom, score
      L1  H     4    31       P1  7948  0.99
      L1  H    19    40       P1  8028  0.81

> <Gold.Chemscore.Hbond.Weighted>
-6.5411

> <Gold.Chemscore.Metal.Weighted>
-0.0000

> <Gold.Chemscore.Lipo.Weighted>
-11.0482

> <Gold.Chemscore.Internal_Hbond.Weighted>
0.0000

> <Gold.Chemscore.DEClash.Weighted>
0.8683

> <Gold.Chemscore.DEInternal.Weighted>
3.0468

> <Gold.Chemscore.Rot.Weighted>
8.8194

> <Gold.Chemscore.Internal.Correction.Weighted>
   9.000000E+99

> <Gold.Protein.RotatedTorsions>
[ 6907 6896 6895 6894 ] final  176.50 input  -60.11 | X-H torsion
[ 7974 7965 7964 7962 ] final  -32.29 input  175.53 | X-H torsion
[ 8008 7997 7996 7995 ] final -148.61 input   59.86 | X-H torsion
[ 10167 10162 10161 10158 ] final -144.08 input  -65.29 | X-H torsion
[ 10718 10713 10712 10709 ] final  -63.63 input   66.30 | X-H torsion
[ 10763 10752 10751 10750 ] final -146.66 input  -60.55 | X-H torsion
[ 11005 11000 10999 10996 ] final -121.86 input  -57.11 | X-H torsion

> <Gold.Protein.ActiveResidues>
 VAL166  LYS551  ARG553  GLY616  TRP617  ASP618  TYR619  PRO620  LYS621  CYS622 
 ASP623  PHE694  ASN695  SER759  ASP760  ASP761  ALA762  ILE779  LEU786  VAL792 
 PHE793  MET794  SER795  GLU796  ALA797  LYS798  CYS799  TRP800  GLU811  SER814 

> <Gold.Protein.RotatedAtoms>
  151.7191  133.3314  159.3310 H   0  0  0  0  0  0  0  0  0  0  0  0  # atno 6907 bound_to 6896
  150.7660  134.6464  159.6274 H   0  0  0  0  0  0  0  0  0  0  0  0  # atno 6908 bound_to 6896
  152.3663  134.6802  160.0242 H   0  0  0  0  0  0  0  0  0  0  0  0  # atno 6909 bound_to 6896
  146.1001  140.5774  142.8825 H   0  0  0  0  0  0  0  0  0  0  0  0  # atno 7974 bound_to 7965
  155.5944  140.0656  157.2750 H   0  0  0  0  0  0  0  0  0  0  0  0  # atno 8008 bound_to 7997
  154.4296  140.1829  156.1154 H   0  0  0  0  0  0  0  0  0  0  0  0  # atno 8009 bound_to 7997
  156.0208  140.3317  155.7040 H   0  0  0  0  0  0  0  0  0  0  0  0  # atno 8010 bound_to 7997
  139.7932  143.7936  152.2652 H   0  0  0  0  0  0  0  0  0  0  0  0  # atno 10167 bound_to 10162
  156.0779  130.4223  150.1305 H   0  0  0  0  0  0  0  0  0  0  0  0  # atno 10718 bound_to 10713
  154.8325  135.3381  154.6696 H   0  0  0  0  0  0  0  0  0  0  0  0  # atno 10763 bound_to 10752
  153.7314  135.6952  153.4993 H   0  0  0  0  0  0  0  0  0  0  0  0  # atno 10764 bound_to 10752
  153.2309  135.4416  155.0546 H   0  0  0  0  0  0  0  0  0  0  0  0  # atno 10765 bound_to 10752
  141.0038  134.0364  157.3503 H   0  0  0  0  0  0  0  0  0  0  0  0  # atno 11005 bound_to 11000
  144.7426  140.4983  143.6858 LP  0  0  0  0  0  0  0  0  0  0  0  0  # atno 17320 bound_to 7965
  145.5871  139.1493  143.3203 LP  0  0  0  0  0  0  0  0  0  0  0  0  # atno 17321 bound_to 7965
  139.8034  144.7365  150.9794 LP  0  0  0  0  0  0  0  0  0  0  0  0  # atno 17342 bound_to 10162
  140.7820  143.4322  151.0677 LP  0  0  0  0  0  0  0  0  0  0  0  0  # atno 17343 bound_to 10162
  156.9342  130.9723  151.3527 LP  0  0  0  0  0  0  0  0  0  0  0  0  # atno 17370 bound_to 10713
  157.5883  130.8425  149.8621 LP  0  0  0  0  0  0  0  0  0  0  0  0  # atno 17371 bound_to 10713
  139.9053  135.0177  156.7456 LP  0  0  0  0  0  0  0  0  0  0  0  0  # atno 17394 bound_to 11000
  140.6845  133.9444  155.7930 LP  0  0  0  0  0  0  0  0  0  0  0  0  # atno 17395 bound_to 11000

$$$$
