AV-unprocessed.smi:2276|AV-procd|sdf|9175|dock3
  -GOLD-   2272012393D 1   1.00000     0.00000
 Structure written by MMmdl.
 53 54  0  0  0  0  0  0  0  0  2 V2000
  151.1752  145.2195  158.7545 C   0  0  0  0  0  0  0  0  0  0  0  0
  151.6992  143.7991  158.7896 C   0  0  0  0  0  0  0  0  0  0  0  0
  152.6715  143.4100  159.7307 C   0  0  0  0  0  0  0  0  0  0  0  0
  153.1190  142.0745  159.7110 C   0  0  0  0  0  0  0  0  0  0  0  0
  154.1600  141.5861  160.6963 C   0  0  0  0  0  0  0  0  0  0  0  0
  152.6606  141.1569  158.8329 N   0  0  0  0  0  0  0  0  0  0  0  0
  151.7238  141.5202  157.9223 C   0  0  0  0  0  0  0  0  0  0  0  0
  151.1770  140.6327  156.9578 N   0  0  0  0  0  0  0  0  0  0  0  0
  151.8063  139.6642  156.2692 C   0  0  0  0  0  0  0  0  0  0  0  0
  152.9995  139.3774  156.3696 O   0  0  0  0  0  0  0  0  0  0  0  0
  150.9657  139.0373  155.4332 N   0  0  0  0  0  0  0  0  0  0  0  0
  151.3307  137.9412  154.5397 C   0  0  0  0  0  0  0  0  0  0  0  0
  150.7428  136.5801  154.9772 C   0  0  1  0  0  0  0  0  0  0  0  0
  151.3251  136.1706  156.3406 C   0  0  0  0  0  0  0  0  0  0  0  0
  149.1964  136.6000  155.0123 C   0  0  0  0  0  0  0  0  0  0  0  0
  148.5886  135.4524  154.2922 N   0  3  0  0  0  0  0  0  0  0  0  0
  147.1109  135.3863  154.4213 C   0  0  0  0  0  0  0  0  0  0  0  0
  146.5454  134.2209  153.5825 C   0  0  0  0  0  0  0  0  0  0  0  0
  147.1389  132.9343  153.9507 N   0  0  0  0  0  0  0  0  0  0  0  0
  146.6885  132.4461  155.2495 C   0  0  0  0  0  0  0  0  0  0  0  0
  148.5966  133.0061  153.8375 C   0  0  0  0  0  0  0  0  0  0  0  0
  149.1902  134.1543  154.6807 C   0  0  0  0  0  0  0  0  0  0  0  0
  151.2216  142.8399  157.8739 C   0  0  0  0  0  0  0  0  0  0  0  0
  151.4853  145.7779  159.6383 H   0  0  0  0  0  0  0  0  0  0  0  0
  150.0856  145.2215  158.7166 H   0  0  0  0  0  0  0  0  0  0  0  0
  151.5514  145.7378  157.8724 H   0  0  0  0  0  0  0  0  0  0  0  0
  153.0630  144.1158  160.4488 H   0  0  0  0  0  0  0  0  0  0  0  0
  154.4983  142.3926  161.3472 H   0  0  0  0  0  0  0  0  0  0  0  0
  155.0270  141.1896  160.1672 H   0  0  0  0  0  0  0  0  0  0  0  0
  153.7469  140.7943  161.3218 H   0  0  0  0  0  0  0  0  0  0  0  0
  150.1925  140.7514  156.7705 H   0  0  0  0  0  0  0  0  0  0  0  0
  150.0001  139.3319  155.4208 H   0  0  0  0  0  0  0  0  0  0  0  0
  151.0066  138.1864  153.5268 H   0  0  0  0  0  0  0  0  0  0  0  0
  152.4192  137.8833  154.5064 H   0  0  0  0  0  0  0  0  0  0  0  0
  151.0737  135.8375  154.2521 H   0  0  0  0  0  0  0  0  0  0  0  0
  151.0272  136.8667  157.1254 H   0  0  0  0  0  0  0  0  0  0  0  0
  152.4151  136.1515  156.3112 H   0  0  0  0  0  0  0  0  0  0  0  0
  150.9933  135.1749  156.6352 H   0  0  0  0  0  0  0  0  0  0  0  0
  148.8799  136.5880  156.0563 H   0  0  0  0  0  0  0  0  0  0  0  0
  148.7987  137.5233  154.5894 H   0  0  0  0  0  0  0  0  0  0  0  0
  146.8295  135.2855  155.4701 H   0  0  0  0  0  0  0  0  0  0  0  0
  146.6624  136.3153  154.0717 H   0  0  0  0  0  0  0  0  0  0  0  0
  145.4610  134.1676  153.6871 H   0  0  0  0  0  0  0  0  0  0  0  0
  146.7441  134.4043  152.5256 H   0  0  0  0  0  0  0  0  0  0  0  0
  147.1038  131.4568  155.4443 H   0  0  0  0  0  0  0  0  0  0  0  0
  145.6020  132.3555  155.2621 H   0  0  0  0  0  0  0  0  0  0  0  0
  146.9810  133.1015  156.0690 H   0  0  0  0  0  0  0  0  0  0  0  0
  149.0345  132.0514  154.1315 H   0  0  0  0  0  0  0  0  0  0  0  0
  148.8560  133.1539  152.7881 H   0  0  0  0  0  0  0  0  0  0  0  0
  150.2677  134.1913  154.5157 H   0  0  0  0  0  0  0  0  0  0  0  0
  149.0451  133.9782  155.7473 H   0  0  0  0  0  0  0  0  0  0  0  0
  150.4755  143.1178  157.1431 H   0  0  0  0  0  0  0  0  0  0  0  0
  148.7978  135.5787  153.3121 H   0  0  0  0  0  0  0  0  0  0  0  0
  1  2  1  0  0  0  0
  1 24  1  0  0  0  0
  1 25  1  0  0  0  0
  1 26  1  0  0  0  0
  2 23  1  0  0  0  0
  2  3  2  0  0  0  0
  3  4  1  0  0  0  0
  3 27  1  0  0  0  0
  4  5  1  0  0  0  0
  4  6  2  0  0  0  0
  5 28  1  0  0  0  0
  5 29  1  0  0  0  0
  5 30  1  0  0  0  0
  6  7  1  0  0  0  0
  7  8  1  0  0  0  0
  7 23  2  0  0  0  0
  8  9  1  0  0  0  0
  8 31  1  0  0  0  0
  9 10  2  0  0  0  0
  9 11  1  0  0  0  0
 11 12  1  0  0  0  0
 11 32  1  0  0  0  0
 12 13  1  0  0  0  0
 12 33  1  0  0  0  0
 12 34  1  0  0  0  0
 13 14  1  0  0  0  0
 13 15  1  0  0  0  0
 13 35  1  0  0  0  0
 14 36  1  0  0  0  0
 14 37  1  0  0  0  0
 14 38  1  0  0  0  0
 15 16  1  0  0  0  0
 15 39  1  0  0  0  0
 15 40  1  0  0  0  0
 16 22  1  0  0  0  0
 16 17  1  0  0  0  0
 16 53  1  0  0  0  0
 17 18  1  0  0  0  0
 17 41  1  0  0  0  0
 17 42  1  0  0  0  0
 18 19  1  0  0  0  0
 18 43  1  0  0  0  0
 18 44  1  0  0  0  0
 19 20  1  0  0  0  0
 19 21  1  0  0  0  0
 20 45  1  0  0  0  0
 20 46  1  0  0  0  0
 20 47  1  0  0  0  0
 21 22  1  0  0  0  0
 21 48  1  0  0  0  0
 21 49  1  0  0  0  0
 22 50  1  0  0  0  0
 22 51  1  0  0  0  0
 23 52  1  0  0  0  0
M  CHG  1  16   1
M  END
> <s_m_source_file>
AV-unprocessed.smi

> <i_m_source_file_index>
2276

> <i_lp_mmshare_version>
43012

> <i_f3d_flags>
0

> <s_epik_input>
W0NIM11jMVtjSF1jKFtDSDNdKW5jKFtjSF0xKVtOSF1DKD1PKVtOSF1bQ0gyXVtDQEhdKFtDSDNdKVtDSDJdTjJbQ0gyXVtDSDJdTihbQ0gzXSlbQ0gyXVtDSDJdMg==

> <s_epik_cmdline>
J2VwaWtfcHl0aG9uJywgJy1waCcsICc3LjAnLCAnLXRuJywgJzgnLCAnLW1hJywgJzIwMCcsICctbWV0YWxfYmluZGluZycsICctaW1hZScsICc8aW5maWxlLm1hZT4nLCAnLW9tYWUnLCAnPG91dGZpbGUubWFlPic=

> <r_epik_Ionization_Penalty>
0.0485334

> <r_epik_Ionization_Penalty_Charging>
0.0462531

> <r_epik_Ionization_Penalty_Neutral>
0.00228028

> <r_epik_State_Penalty>
0.692588

> <r_epik_Charging_Adjusted_Penalty>
0.738841

> <i_epik_Tot_Q>
1

> <i_epik_Tot_abs_Q>
1

> <r_epik_Metal_State_Penalty>
0.692605

> <b_epik_Metal_Only>
0

> <s_lp_Force_Field>
OPLS_2005

> <r_lp_Energy>
21.6891

> <b_lp_Chiralities_Consistent>
1

> <s_lp_Variant>
AV-unprocessed.smi:2276-4

> <Gold.Version>
5.8.1

> <Gold.Id.Protein>
6NUR|6NUR_protein|mol2

> <Gold.PLP.Fitness>
48.7160

> <Gold.PLP.PLP>
-41.7035

> <Gold.PLP.part.hbond>
-1.9944

> <Gold.PLP.part.metal>
0.0000

> <Gold.PLP.part.buried>
-5.1161

> <Gold.PLP.part.nonpolar>
-35.3220

> <Gold.PLP.part.repulsive>
0.2397

> <Gold.PLP.ligand.clash>
0.0000

> <Gold.PLP.ligand.torsion>
1.0580

> <Gold.PLP.Chemscore.Hbond>
3.0000

> <Gold.PLP.Chemscore.CHOScore>
0.0000

> <Gold.PLP.Chemscore.Metal>
0.0000

> <Gold.Chemscore.Hbonds>
donor molecule, donor type, donor heavy atom, donor atom, acceptor molecule, acceptor atom, score
      L1  H    16    53       P1  7948  2.00
      P1  H  7997  8010       L1    10  0.99

> <Gold.PLP.Chemscore.Internal.Correction>
0.1285

> <Gold.Rescore>
     Score         DG    S(hbond)    S(metal)    S(lipo)     H(rot)  DE(clash)    DE(int)     intcor
     18.26     -20.02       1.96        0.00     103.87       1.63       0.04       1.72       ----

> <Gold.Chemscore.Fitness>
18.2550

> <Gold.Chemscore.DG>
-20.0173

> <Gold.Chemscore.ZeroCoef>
-5.4800

> <Gold.Chemscore.Hbond>
1.9617

> <Gold.Chemscore.Metal>
0.0000

> <Gold.Chemscore.Lipo>
103.8748

> <Gold.Chemscore.Internal_Hbond>
0.0000

> <Gold.Chemscore.DEClash>
0.0402

> <Gold.Chemscore.DEInternal>
1.7221

> <Gold.Chemscore.Rot>
1.6282

> <Gold.Chemscore.Internal.Correction>
   9.000000E+99

> <Gold.Chemscore.Hbonds>
donor molecule, donor type, donor heavy atom, donor atom, acceptor molecule, acceptor atom, score
      L1  H    16    53       P1  7948  0.88
      P1  H  7997  8010       L1    10  0.92

> <Gold.Chemscore.Hbond.Weighted>
-6.5522

> <Gold.Chemscore.Metal.Weighted>
-0.0000

> <Gold.Chemscore.Lipo.Weighted>
-12.1534

> <Gold.Chemscore.Internal_Hbond.Weighted>
0.0000

> <Gold.Chemscore.DEClash.Weighted>
0.0402

> <Gold.Chemscore.DEInternal.Weighted>
1.7221

> <Gold.Chemscore.Rot.Weighted>
4.1682

> <Gold.Chemscore.Internal.Correction.Weighted>
   9.000000E+99

> <Gold.Protein.RotatedTorsions>
[ 6907 6896 6895 6894 ] final -145.71 input  -60.11 | X-H torsion
[ 7974 7965 7964 7962 ] final -148.14 input  175.53 | X-H torsion
[ 8008 7997 7996 7995 ] final   75.83 input   59.86 | X-H torsion
[ 10167 10162 10161 10158 ] final  -61.77 input  -65.29 | X-H torsion
[ 10718 10713 10712 10709 ] final  -28.58 input   66.30 | X-H torsion
[ 10763 10752 10751 10750 ] final -107.92 input  -60.55 | X-H torsion
[ 11005 11000 10999 10996 ] final -136.57 input  -57.11 | X-H torsion

> <Gold.Protein.ActiveResidues>
 VAL166  LYS551  ARG553  GLY616  TRP617  ASP618  TYR619  PRO620  LYS621  CYS622 
 ASP623  PHE694  ASN695  SER759  ASP760  ASP761  ALA762  ILE779  LEU786  VAL792 
 PHE793  MET794  SER795  GLU796  ALA797  LYS798  CYS799  TRP800  GLU811  SER814 

> <Gold.Protein.RotatedAtoms>
  151.1316  133.5033  159.2598 H   0  0  0  0  0  0  0  0  0  0  0  0  # atno 6907 bound_to 6896
  151.1752  135.0335  159.8778 H   0  0  0  0  0  0  0  0  0  0  0  0  # atno 6908 bound_to 6896
  152.5460  134.1174  159.8438 H   0  0  0  0  0  0  0  0  0  0  0  0  # atno 6909 bound_to 6896
  144.8048  140.5236  143.5682 H   0  0  0  0  0  0  0  0  0  0  0  0  # atno 7974 bound_to 7965
  155.8186  140.3470  155.5500 H   0  0  0  0  0  0  0  0  0  0  0  0  # atno 8008 bound_to 7997
  155.8366  140.0935  157.1780 H   0  0  0  0  0  0  0  0  0  0  0  0  # atno 8009 bound_to 7997
  154.4004  140.1402  156.3665 H   0  0  0  0  0  0  0  0  0  0  0  0  # atno 8010 bound_to 7997
  140.5984  143.2356  151.5985 H   0  0  0  0  0  0  0  0  0  0  0  0  # atno 10167 bound_to 10162
  156.4235  130.4431  149.7167 H   0  0  0  0  0  0  0  0  0  0  0  0  # atno 10718 bound_to 10713
  154.8105  135.4657  154.0503 H   0  0  0  0  0  0  0  0  0  0  0  0  # atno 10763 bound_to 10752
  153.1938  135.6859  153.8325 H   0  0  0  0  0  0  0  0  0  0  0  0  # atno 10764 bound_to 10752
  153.7834  135.3253  155.3346 H   0  0  0  0  0  0  0  0  0  0  0  0  # atno 10765 bound_to 10752
  140.8793  134.1952  157.4601 H   0  0  0  0  0  0  0  0  0  0  0  0  # atno 11005 bound_to 11000
  145.5464  139.1476  143.3418 LP  0  0  0  0  0  0  0  0  0  0  0  0  # atno 17320 bound_to 7965
  146.2337  140.5603  142.8964 LP  0  0  0  0  0  0  0  0  0  0  0  0  # atno 17321 bound_to 7965
  139.5274  144.3019  152.1066 LP  0  0  0  0  0  0  0  0  0  0  0  0  # atno 17342 bound_to 10162
  140.2195  144.4481  150.6348 LP  0  0  0  0  0  0  0  0  0  0  0  0  # atno 17343 bound_to 10162
  156.4099  130.7716  151.2729 LP  0  0  0  0  0  0  0  0  0  0  0  0  # atno 17370 bound_to 10713
  157.7508  131.0214  150.3751 LP  0  0  0  0  0  0  0  0  0  0  0  0  # atno 17371 bound_to 10713
  139.8718  134.9810  156.5098 LP  0  0  0  0  0  0  0  0  0  0  0  0  # atno 17394 bound_to 11000
  140.8480  133.8153  155.9141 LP  0  0  0  0  0  0  0  0  0  0  0  0  # atno 17395 bound_to 11000

$$$$
