AV-unprocessed.smi:1672|AV-procd|sdf|6704|dock9
  -GOLD-   22720 7443D 1   1.00000     0.00000
 Structure written by MMmdl.
 48 50  0  0  0  0  0  0  0  0  2 V2000
  143.8020  134.1870  151.9153 C   0  0  0  0  0  0  0  0  0  0  0  0
  145.3399  134.1703  151.9679 C   0  0  2  0  0  0  0  0  0  0  0  0
  145.8993  134.8229  153.2449 C   0  0  0  0  0  0  0  0  0  0  0  0
  145.7779  136.3569  153.2159 C   0  0  0  0  0  0  0  0  0  0  0  0
  146.4401  136.9240  152.0112 N   0  3  2  0  0  0  0  0  0  0  0  0
  146.4693  138.4096  151.9980 C   0  0  0  0  0  0  0  0  0  0  0  0
  147.3353  138.9990  153.1291 C   0  0  1  0  0  0  0  0  0  0  0  0
  148.6702  138.5667  152.9514 O   0  0  0  0  0  0  0  0  0  0  0  0
  147.2907  140.5399  153.1345 C   0  0  0  0  0  0  0  0  0  0  0  0
  147.4985  141.1005  154.4635 N   0  0  0  0  0  0  0  0  0  0  0  0
  146.6345  141.8172  155.2273 C   0  0  0  0  0  0  0  0  0  0  0  0
  145.2455  142.1479  154.7737 C   0  0  0  0  0  0  0  0  0  0  0  0
  144.4197  141.0074  154.6808 O   0  0  0  0  0  0  0  0  0  0  0  0
  147.0982  142.2081  156.4146 N   0  0  0  0  0  0  0  0  0  0  0  0
  148.3790  141.6916  156.4276 C   0  0  0  0  0  0  0  0  0  0  0  0
  149.3877  141.7595  157.4149 C   0  0  0  0  0  0  0  0  0  0  0  0
  150.6384  141.1436  157.2011 C   0  0  0  0  0  0  0  0  0  0  0  0
  150.8979  140.4526  155.9999 C   0  0  0  0  0  0  0  0  0  0  0  0
  149.9068  140.3733  155.0025 C   0  0  0  0  0  0  0  0  0  0  0  0
  148.6604  140.9905  155.2211 C   0  0  0  0  0  0  0  0  0  0  0  0
  145.8709  136.3610  150.7596 C   0  0  0  0  0  0  0  0  0  0  0  0
  145.9856  134.8260  150.7337 C   0  0  0  0  0  0  0  0  0  0  0  0
  143.4011  135.1999  151.8934 H   0  0  0  0  0  0  0  0  0  0  0  0
  143.3769  133.6833  152.7839 H   0  0  0  0  0  0  0  0  0  0  0  0
  143.4369  133.6695  151.0277 H   0  0  0  0  0  0  0  0  0  0  0  0
  145.6365  133.1204  151.9768 H   0  0  0  0  0  0  0  0  0  0  0  0
  145.3956  134.4229  154.1256 H   0  0  0  0  0  0  0  0  0  0  0  0
  146.9514  134.5546  153.3518 H   0  0  0  0  0  0  0  0  0  0  0  0
  144.7294  136.6569  153.2343 H   0  0  0  0  0  0  0  0  0  0  0  0
  146.2297  136.7577  154.1221 H   0  0  0  0  0  0  0  0  0  0  0  0
  146.8670  138.7612  151.0444 H   0  0  0  0  0  0  0  0  0  0  0  0
  145.4482  138.7891  152.0586 H   0  0  0  0  0  0  0  0  0  0  0  0
  146.9916  138.6400  154.0984 H   0  0  0  0  0  0  0  0  0  0  0  0
  149.1703  139.2799  152.5827 H   0  0  0  0  0  0  0  0  0  0  0  0
  148.0261  140.9488  152.4419 H   0  0  0  0  0  0  0  0  0  0  0  0
  146.3193  140.8831  152.7762 H   0  0  0  0  0  0  0  0  0  0  0  0
  144.7938  142.8466  155.4786 H   0  0  0  0  0  0  0  0  0  0  0  0
  145.2780  142.6553  153.8098 H   0  0  0  0  0  0  0  0  0  0  0  0
  144.1533  140.9012  153.7806 H   0  0  0  0  0  0  0  0  0  0  0  0
  149.1987  142.2854  158.3391 H   0  0  0  0  0  0  0  0  0  0  0  0
  151.4015  141.2009  157.9634 H   0  0  0  0  0  0  0  0  0  0  0  0
  151.8582  139.9827  155.8454 H   0  0  0  0  0  0  0  0  0  0  0  0
  150.1026  139.8435  154.0823 H   0  0  0  0  0  0  0  0  0  0  0  0
  144.8303  136.6715  150.6569 H   0  0  0  0  0  0  0  0  0  0  0  0
  146.4049  136.7671  149.8996 H   0  0  0  0  0  0  0  0  0  0  0  0
  147.0408  134.5520  150.6956 H   0  0  0  0  0  0  0  0  0  0  0  0
  145.5392  134.4323  149.8198 H   0  0  0  0  0  0  0  0  0  0  0  0
  147.4055  136.6270  152.0370 H   0  0  0  0  0  0  0  0  0  0  0  0
  1  2  1  0  0  0  0
  1 23  1  0  0  0  0
  1 24  1  0  0  0  0
  1 25  1  0  0  0  0
  2 22  1  0  0  0  0
  2  3  1  0  0  0  0
  2 26  1  0  0  0  0
  3  4  1  0  0  0  0
  3 27  1  0  0  0  0
  3 28  1  0  0  0  0
  4  5  1  0  0  0  0
  4 29  1  0  0  0  0
  4 30  1  0  0  0  0
  5  6  1  0  0  0  0
  5 21  1  0  0  0  0
  5 48  1  0  0  0  0
  6  7  1  0  0  0  0
  6 31  1  0  0  0  0
  6 32  1  0  0  0  0
  7  8  1  0  0  0  0
  7  9  1  0  0  0  0
  7 33  1  0  0  0  0
  8 34  1  0  0  0  0
  9 10  1  0  0  0  0
  9 35  1  0  0  0  0
  9 36  1  0  0  0  0
 10 20  1  0  0  0  0
 10 11  1  0  0  0  0
 11 12  1  0  0  0  0
 11 14  2  0  0  0  0
 12 13  1  0  0  0  0
 12 37  1  0  0  0  0
 12 38  1  0  0  0  0
 13 39  1  0  0  0  0
 14 15  1  0  0  0  0
 15 20  2  0  0  0  0
 15 16  1  0  0  0  0
 16 17  2  0  0  0  0
 16 40  1  0  0  0  0
 17 18  1  0  0  0  0
 17 41  1  0  0  0  0
 18 19  2  0  0  0  0
 18 42  1  0  0  0  0
 19 20  1  0  0  0  0
 19 43  1  0  0  0  0
 21 22  1  0  0  0  0
 21 44  1  0  0  0  0
 21 45  1  0  0  0  0
 22 46  1  0  0  0  0
 22 47  1  0  0  0  0
M  CHG  1   5   1
M  END
> <s_m_source_file>
AV-unprocessed.smi

> <i_m_source_file_index>
1672

> <i_lp_mmshare_version>
43012

> <i_f3d_flags>
0

> <s_epik_input>
W0NIM11bQ0hdMVtDSDJdW0NIMl1OKFtDSDJdW0NIMl0xKVtDSDJdW0NASF0oW09IXSlbQ0gyXW4oYyhuMilbQ0gyXVtPSF0pYyhjMjMpW2NIXVtjSF1bY0hdW2NIXTM=

> <s_epik_cmdline>
J2VwaWtfcHl0aG9uJywgJy1waCcsICc3LjAnLCAnLXRuJywgJzgnLCAnLW1hJywgJzIwMCcsICctbWV0YWxfYmluZGluZycsICctaW1hZScsICc8aW5maWxlLm1hZT4nLCAnLW9tYWUnLCAnPG91dGZpbGUubWFlPic=

> <r_epik_Ionization_Penalty>
0.0498263

> <r_epik_Ionization_Penalty_Charging>
0.00181365

> <r_epik_Ionization_Penalty_Neutral>
0.0480127

> <r_epik_State_Penalty>
0.0408546

> <r_epik_Charging_Adjusted_Penalty>
0.0426682

> <i_epik_Tot_Q>
1

> <i_epik_Tot_abs_Q>
1

> <r_epik_Metal_State_Penalty>
4.22946e-05

> <b_epik_Metal_Only>
0

> <s_lp_Force_Field>
OPLS_2005

> <r_lp_Energy>
24.4653

> <b_lp_Chiralities_Consistent>
1

> <s_lp_Variant>
AV-unprocessed.smi:1672-4

> <Gold.Version>
5.8.1

> <Gold.Id.Protein>
6NUR|6NUR_protein|mol2

> <Gold.PLP.Fitness>
48.4804

> <Gold.PLP.PLP>
-37.3731

> <Gold.PLP.part.hbond>
-3.7913

> <Gold.PLP.part.metal>
0.0000

> <Gold.PLP.part.buried>
-0.9026

> <Gold.PLP.part.nonpolar>
-33.6324

> <Gold.PLP.part.repulsive>
0.8166

> <Gold.PLP.ligand.clash>
0.0000

> <Gold.PLP.ligand.torsion>
0.4712

> <Gold.PLP.Chemscore.Hbond>
3.9920

> <Gold.PLP.Chemscore.CHOScore>
0.0000

> <Gold.PLP.Chemscore.Metal>
0.0000

> <Gold.Chemscore.Hbonds>
donor molecule, donor type, donor heavy atom, donor atom, acceptor molecule, acceptor atom, score
      L1  H     5    48       P1  7948  2.00
      L1  H     8    34       P1  7957  0.86
      L1  H    13    39       P1 10175  0.73

> <Gold.PLP.Chemscore.Internal.Correction>
0.0738

> <Gold.Rescore>
     Score         DG    S(hbond)    S(metal)    S(lipo)     H(rot)  DE(clash)    DE(int)     intcor
     17.39     -18.23       2.97        0.00      87.22       2.88       0.09       0.75       ----

> <Gold.Chemscore.Fitness>
17.3931

> <Gold.Chemscore.DG>
-18.2321

> <Gold.Chemscore.ZeroCoef>
-5.4800

> <Gold.Chemscore.Hbond>
2.9683

> <Gold.Chemscore.Metal>
0.0000

> <Gold.Chemscore.Lipo>
87.2216

> <Gold.Chemscore.Internal_Hbond>
0.0000

> <Gold.Chemscore.DEClash>
0.0913

> <Gold.Chemscore.DEInternal>
0.7477

> <Gold.Chemscore.Rot>
2.8778

> <Gold.Chemscore.Internal.Correction>
   9.000000E+99

> <Gold.Chemscore.Hbonds>
donor molecule, donor type, donor heavy atom, donor atom, acceptor molecule, acceptor atom, score
      L1  H     5    48       P1  7948  0.98
      L1  H     8    34       P1  7957  0.86
      L1  H    13    39       P1 10175  0.62

> <Gold.Chemscore.Hbond.Weighted>
-9.9142

> <Gold.Chemscore.Metal.Weighted>
-0.0000

> <Gold.Chemscore.Lipo.Weighted>
-10.2049

> <Gold.Chemscore.Internal_Hbond.Weighted>
0.0000

> <Gold.Chemscore.DEClash.Weighted>
0.0913

> <Gold.Chemscore.DEInternal.Weighted>
0.7477

> <Gold.Chemscore.Rot.Weighted>
7.3671

> <Gold.Chemscore.Internal.Correction.Weighted>
   9.000000E+99

> <Gold.Protein.RotatedTorsions>
[ 6907 6896 6895 6894 ] final -178.79 input  -60.11 | X-H torsion
[ 7974 7965 7964 7962 ] final  166.76 input  175.53 | X-H torsion
[ 8008 7997 7996 7995 ] final  173.44 input   59.86 | X-H torsion
[ 10167 10162 10161 10158 ] final -138.03 input  -65.29 | X-H torsion
[ 10718 10713 10712 10709 ] final  117.57 input   66.30 | X-H torsion
[ 10763 10752 10751 10750 ] final  -62.53 input  -60.55 | X-H torsion
[ 11005 11000 10999 10996 ] final   48.91 input  -57.11 | X-H torsion

> <Gold.Protein.ActiveResidues>
 VAL166  LYS551  ARG553  GLY616  TRP617  ASP618  TYR619  PRO620  LYS621  CYS622 
 ASP623  PHE694  ASN695  SER759  ASP760  ASP761  ALA762  ILE779  LEU786  VAL792 
 PHE793  MET794  SER795  GLU796  ALA797  LYS798  CYS799  TRP800  GLU811  SER814 

> <Gold.Protein.RotatedAtoms>
  151.6430  133.3325  159.3134 H   0  0  0  0  0  0  0  0  0  0  0  0  # atno 6907 bound_to 6896
  150.7998  134.7088  159.6601 H   0  0  0  0  0  0  0  0  0  0  0  0  # atno 6908 bound_to 6896
  152.4089  134.6162  160.0090 H   0  0  0  0  0  0  0  0  0  0  0  0  # atno 6909 bound_to 6896
  144.7450  139.8662  143.6385 H   0  0  0  0  0  0  0  0  0  0  0  0  # atno 7974 bound_to 7965
  156.1075  140.1460  156.9384 H   0  0  0  0  0  0  0  0  0  0  0  0  # atno 8008 bound_to 7997
  154.4744  140.0899  156.7269 H   0  0  0  0  0  0  0  0  0  0  0  0  # atno 8009 bound_to 7997
  155.4654  140.3440  155.4320 H   0  0  0  0  0  0  0  0  0  0  0  0  # atno 8010 bound_to 7997
  139.8519  143.7188  152.2657 H   0  0  0  0  0  0  0  0  0  0  0  0  # atno 10167 bound_to 10162
  157.6088  131.1038  150.7633 H   0  0  0  0  0  0  0  0  0  0  0  0  # atno 10718 bound_to 10713
  154.3012  135.6234  153.5425 H   0  0  0  0  0  0  0  0  0  0  0  0  # atno 10763 bound_to 10752
  152.9840  135.5679  154.5281 H   0  0  0  0  0  0  0  0  0  0  0  0  # atno 10764 bound_to 10752
  154.4912  135.2867  155.1471 H   0  0  0  0  0  0  0  0  0  0  0  0  # atno 10765 bound_to 10752
  140.1149  134.4906  155.8646 H   0  0  0  0  0  0  0  0  0  0  0  0  # atno 11005 bound_to 11000
  146.1313  139.4349  143.0167 LP  0  0  0  0  0  0  0  0  0  0  0  0  # atno 17320 bound_to 7965
  145.7159  141.0091  143.1428 LP  0  0  0  0  0  0  0  0  0  0  0  0  # atno 17321 bound_to 7965
  139.7457  144.7548  151.0583 LP  0  0  0  0  0  0  0  0  0  0  0  0  # atno 17342 bound_to 10162
  140.7786  143.4919  150.9882 LP  0  0  0  0  0  0  0  0  0  0  0  0  # atno 17343 bound_to 10162
  156.8015  130.4922  149.5369 LP  0  0  0  0  0  0  0  0  0  0  0  0  # atno 17370 bound_to 10713
  156.1183  130.6091  151.0155 LP  0  0  0  0  0  0  0  0  0  0  0  0  # atno 17371 bound_to 10713
  141.2139  133.6740  156.6776 LP  0  0  0  0  0  0  0  0  0  0  0  0  # atno 17394 bound_to 11000
  140.3042  134.8139  157.4123 LP  0  0  0  0  0  0  0  0  0  0  0  0  # atno 17395 bound_to 11000

$$$$
