AV-unprocessed.smi:1754|AV-procd|sdf|7067|dock8
  -GOLD-   22720 8283D 1   1.00000     0.00000
 Structure written by MMmdl.
 44 45  0  0  0  0  0  0  0  0  1 V2000
  152.8504  144.5926  158.1984 C   0  0  0  0  0  0  0  0  0  0  0  0
  152.3706  144.1067  159.5737 C   0  0  0  0  0  0  0  0  0  0  0  0
  152.6105  142.6772  159.7792 N   0  0  0  0  0  0  0  0  0  0  0  0
  153.0456  142.2584  161.1126 C   0  0  0  0  0  0  0  0  0  0  0  0
  152.7173  143.2897  162.2038 C   0  0  0  0  0  0  0  0  0  0  0  0
  151.8594  141.7902  158.9705 C   0  0  0  0  0  0  0  0  0  0  0  0
  150.9964  142.2476  157.9431 C   0  0  0  0  0  0  0  0  0  0  0  0
  150.2784  141.3112  157.1745 C   0  0  0  0  0  0  0  0  0  0  0  0
  150.4439  139.9333  157.4430 C   0  0  0  0  0  0  0  0  0  0  0  0
  149.7635  138.8900  156.7607 N   0  0  0  0  0  0  0  0  0  0  0  0
  149.7736  137.5654  157.0066 C   0  0  0  0  0  0  0  0  0  0  0  0
  150.3336  137.0339  157.9626 O   0  0  0  0  0  0  0  0  0  0  0  0
  149.0715  136.8371  156.1191 N   0  0  0  0  0  0  0  0  0  0  0  0
  148.8785  135.3858  156.0935 C   0  0  1  0  0  0  0  0  0  0  0  0
  150.2157  134.6174  156.0254 C   0  0  0  0  0  0  0  0  0  0  0  0
  149.9604  133.1462  156.3752 C   0  0  0  0  0  0  0  0  0  0  0  0
  148.5218  133.1324  157.5115 S   0  0  0  0  0  0  0  0  0  0  0  0
  147.4416  132.3450  156.8981 O   0  0  0  0  0  0  0  0  0  0  0  0
  148.9757  132.8570  158.8829 O   0  0  0  0  0  0  0  0  0  0  0  0
  148.1381  134.9162  157.3521 C   0  0  0  0  0  0  0  0  0  0  0  0
  151.3160  139.5739  158.4882 C   0  0  0  0  0  0  0  0  0  0  0  0
  152.0053  140.4677  159.2261 N   0  0  0  0  0  0  0  0  0  0  0  0
  152.6403  145.6544  158.0710 H   0  0  0  0  0  0  0  0  0  0  0  0
  152.3512  144.0569  157.3906 H   0  0  0  0  0  0  0  0  0  0  0  0
  153.9254  144.4522  158.0809 H   0  0  0  0  0  0  0  0  0  0  0  0
  152.8348  144.6995  160.3619 H   0  0  0  0  0  0  0  0  0  0  0  0
  151.3008  144.2951  159.6672 H   0  0  0  0  0  0  0  0  0  0  0  0
  152.5491  141.3214  161.3673 H   0  0  0  0  0  0  0  0  0  0  0  0
  154.1114  142.0308  161.1044 H   0  0  0  0  0  0  0  0  0  0  0  0
  153.0143  142.9168  163.1841 H   0  0  0  0  0  0  0  0  0  0  0  0
  151.6466  143.4926  162.2393 H   0  0  0  0  0  0  0  0  0  0  0  0
  153.2299  144.2382  162.0472 H   0  0  0  0  0  0  0  0  0  0  0  0
  150.8702  143.2966  157.7254 H   0  0  0  0  0  0  0  0  0  0  0  0
  149.6101  141.6720  156.4084 H   0  0  0  0  0  0  0  0  0  0  0  0
  149.1771  139.1899  155.9958 H   0  0  0  0  0  0  0  0  0  0  0  0
  148.5890  137.3562  155.3995 H   0  0  0  0  0  0  0  0  0  0  0  0
  148.2683  135.1066  155.2324 H   0  0  0  0  0  0  0  0  0  0  0  0
  150.6965  134.7135  155.0515 H   0  0  0  0  0  0  0  0  0  0  0  0
  150.9052  135.0355  156.7602 H   0  0  0  0  0  0  0  0  0  0  0  0
  149.6912  132.5771  155.4852 H   0  0  0  0  0  0  0  0  0  0  0  0
  150.8190  132.6685  156.8475 H   0  0  0  0  0  0  0  0  0  0  0  0
  148.5161  135.4167  158.2443 H   0  0  0  0  0  0  0  0  0  0  0  0
  147.0596  135.0664  157.2982 H   0  0  0  0  0  0  0  0  0  0  0  0
  151.4693  138.5351  158.7419 H   0  0  0  0  0  0  0  0  0  0  0  0
  1  2  1  0  0  0  0
  1 23  1  0  0  0  0
  1 24  1  0  0  0  0
  1 25  1  0  0  0  0
  2  3  1  0  0  0  0
  2 26  1  0  0  0  0
  2 27  1  0  0  0  0
  3  4  1  0  0  0  0
  3  6  1  0  0  0  0
  4  5  1  0  0  0  0
  4 28  1  0  0  0  0
  4 29  1  0  0  0  0
  5 30  1  0  0  0  0
  5 31  1  0  0  0  0
  5 32  1  0  0  0  0
  6 22  1  0  0  0  0
  6  7  2  0  0  0  0
  7  8  1  0  0  0  0
  7 33  1  0  0  0  0
  8  9  2  0  0  0  0
  8 34  1  0  0  0  0
  9 10  1  0  0  0  0
  9 21  1  0  0  0  0
 10 11  1  0  0  0  0
 10 35  1  0  0  0  0
 11 12  2  0  0  0  0
 11 13  1  0  0  0  0
 13 14  1  0  0  0  0
 13 36  1  0  0  0  0
 14 20  1  0  0  0  0
 14 15  1  0  0  0  0
 14 37  1  0  0  0  0
 15 16  1  0  0  0  0
 15 38  1  0  0  0  0
 15 39  1  0  0  0  0
 16 17  1  0  0  0  0
 16 40  1  0  0  0  0
 16 41  1  0  0  0  0
 17 18  2  0  0  0  0
 17 19  2  0  0  0  0
 17 20  1  0  0  0  0
 20 42  1  0  0  0  0
 20 43  1  0  0  0  0
 21 22  2  0  0  0  0
 21 44  1  0  0  0  0
M  END
> <s_m_source_file>
AV-unprocessed.smi

> <i_m_source_file_index>
1754

> <i_lp_mmshare_version>
43012

> <i_f3d_flags>
0

> <s_epik_input>
W0NIM11bQ0gyXU4oW0NIMl1bQ0gzXSljMVtjSF1bY0hdYyhbY0hdbjEpW05IXUMoPU8pW05IXVtDQEBIXShbQ0gyXTIpW0NIMl1bQ0gyXVMyKD1PKT1P

> <s_epik_cmdline>
J2VwaWtfcHl0aG9uJywgJy1waCcsICc3LjAnLCAnLXRuJywgJzgnLCAnLW1hJywgJzIwMCcsICctbWV0YWxfYmluZGluZycsICctaW1hZScsICc8aW5maWxlLm1hZT4nLCAnLW9tYWUnLCAnPG91dGZpbGUubWFlPic=

> <r_lp_tautomer_probability>
1

> <r_epik_Ionization_Penalty>
0.615754

> <r_epik_Ionization_Penalty_Charging>
0

> <r_epik_Ionization_Penalty_Neutral>
0.615754

> <r_epik_State_Penalty>
2.08676

> <r_epik_Charging_Adjusted_Penalty>
2.08676

> <i_epik_Tot_Q>
0

> <i_epik_Tot_abs_Q>
0

> <r_epik_Metal_State_Penalty>
1.53042

> <b_epik_Metal_Only>
0

> <s_lp_Force_Field>
OPLS_2005

> <r_lp_Energy>
21.6605

> <b_lp_Chiralities_Consistent>
1

> <s_lp_Variant>
AV-unprocessed.smi:1754-4

> <Gold.Version>
5.8.1

> <Gold.Id.Protein>
6NUR|6NUR_protein|mol2

> <Gold.PLP.Fitness>
40.7921

> <Gold.PLP.PLP>
-37.9124

> <Gold.PLP.part.hbond>
-1.0000

> <Gold.PLP.part.metal>
0.0000

> <Gold.PLP.part.buried>
-5.4224

> <Gold.PLP.part.nonpolar>
-31.8071

> <Gold.PLP.part.repulsive>
0.0000

> <Gold.PLP.ligand.clash>
0.0000

> <Gold.PLP.ligand.torsion>
0.5118

> <Gold.PLP.Chemscore.Hbond>
1.0000

> <Gold.PLP.Chemscore.CHOScore>
0.0000

> <Gold.PLP.Chemscore.Metal>
0.0000

> <Gold.Chemscore.Hbonds>
donor molecule, donor type, donor heavy atom, donor atom, acceptor molecule, acceptor atom, score
      P1  H  6896  6909       L1    19  0.49

> <Gold.PLP.Chemscore.Internal.Correction>
0.9033

> <Gold.Rescore>
     Score         DG    S(hbond)    S(metal)    S(lipo)     H(rot)  DE(clash)    DE(int)     intcor
     12.66     -15.77       1.00        0.00      89.84       1.39       0.01       3.10       ----

> <Gold.Chemscore.Fitness>
12.6608

> <Gold.Chemscore.DG>
-15.7740

> <Gold.Chemscore.ZeroCoef>
-5.4800

> <Gold.Chemscore.Hbond>
0.9984

> <Gold.Chemscore.Metal>
0.0000

> <Gold.Chemscore.Lipo>
89.8430

> <Gold.Chemscore.Internal_Hbond>
0.0000

> <Gold.Chemscore.DEClash>
0.0089

> <Gold.Chemscore.DEInternal>
3.1044

> <Gold.Chemscore.Rot>
1.3876

> <Gold.Chemscore.Internal.Correction>
   9.000000E+99

> <Gold.Chemscore.Hbonds>
donor molecule, donor type, donor heavy atom, donor atom, acceptor molecule, acceptor atom, score
      P1  H  6896  6909       L1    19  0.42

> <Gold.Chemscore.Hbond.Weighted>
-3.3348

> <Gold.Chemscore.Metal.Weighted>
-0.0000

> <Gold.Chemscore.Lipo.Weighted>
-10.5116

> <Gold.Chemscore.Internal_Hbond.Weighted>
0.0000

> <Gold.Chemscore.DEClash.Weighted>
0.0089

> <Gold.Chemscore.DEInternal.Weighted>
3.1044

> <Gold.Chemscore.Rot.Weighted>
3.5524

> <Gold.Chemscore.Internal.Correction.Weighted>
   9.000000E+99

> <Gold.Protein.RotatedTorsions>
[ 6907 6896 6895 6894 ] final  -20.94 input  -60.11 | X-H torsion
[ 7974 7965 7964 7962 ] final  -21.93 input  175.53 | X-H torsion
[ 8008 7997 7996 7995 ] final  141.76 input   59.86 | X-H torsion
[ 10167 10162 10161 10158 ] final   64.41 input  -65.29 | X-H torsion
[ 10718 10713 10712 10709 ] final -160.91 input   66.30 | X-H torsion
[ 10763 10752 10751 10750 ] final  -96.85 input  -60.55 | X-H torsion
[ 11005 11000 10999 10996 ] final  111.21 input  -57.11 | X-H torsion

> <Gold.Protein.ActiveResidues>
 VAL166  LYS551  ARG553  GLY616  TRP617  ASP618  TYR619  PRO620  LYS621  CYS622 
 ASP623  PHE694  ASN695  SER759  ASP760  ASP761  ALA762  ILE779  LEU786  VAL792 
 PHE793  MET794  SER795  GLU796  ALA797  LYS798  CYS799  TRP800  GLU811  SER814 

> <Gold.Protein.RotatedAtoms>
  151.2407  135.0587  159.9023 H   0  0  0  0  0  0  0  0  0  0  0  0  # atno 6907 bound_to 6896
  152.5393  134.0438  159.8089 H   0  0  0  0  0  0  0  0  0  0  0  0  # atno 6908 bound_to 6896
  151.0631  133.5479  159.2664 H   0  0  0  0  0  0  0  0  0  0  0  0  # atno 6909 bound_to 6896
  146.1705  140.4409  142.8534 H   0  0  0  0  0  0  0  0  0  0  0  0  # atno 7974 bound_to 7965
  156.2960  140.2306  156.4618 H   0  0  0  0  0  0  0  0  0  0  0  0  # atno 8008 bound_to 7997
  154.8012  140.0448  157.1295 H   0  0  0  0  0  0  0  0  0  0  0  0  # atno 8009 bound_to 7997
  154.9532  140.3044  155.5069 H   0  0  0  0  0  0  0  0  0  0  0  0  # atno 8010 bound_to 7997
  140.1225  144.4718  150.6912 H   0  0  0  0  0  0  0  0  0  0  0  0  # atno 10167 bound_to 10162
  156.5888  130.8761  151.2884 H   0  0  0  0  0  0  0  0  0  0  0  0  # atno 10718 bound_to 10713
  154.7276  135.5068  153.8911 H   0  0  0  0  0  0  0  0  0  0  0  0  # atno 10763 bound_to 10752
  153.0919  135.6661  153.9845 H   0  0  0  0  0  0  0  0  0  0  0  0  # atno 10764 bound_to 10752
  153.9654  135.3043  155.3410 H   0  0  0  0  0  0  0  0  0  0  0  0  # atno 10765 bound_to 10752
  139.8898  134.9502  156.6397 H   0  0  0  0  0  0  0  0  0  0  0  0  # atno 11005 bound_to 11000
  144.8156  140.6461  143.6387 LP  0  0  0  0  0  0  0  0  0  0  0  0  # atno 17320 bound_to 7965
  145.4353  139.1543  143.4000 LP  0  0  0  0  0  0  0  0  0  0  0  0  # atno 17321 bound_to 7965
  140.6864  143.2352  151.5250 LP  0  0  0  0  0  0  0  0  0  0  0  0  # atno 17342 bound_to 10162
  139.5561  144.2272  152.1614 LP  0  0  0  0  0  0  0  0  0  0  0  0  # atno 17343 bound_to 10162
  157.7308  130.9691  150.1852 LP  0  0  0  0  0  0  0  0  0  0  0  0  # atno 17370 bound_to 10713
  156.2567  130.3706  149.8174 LP  0  0  0  0  0  0  0  0  0  0  0  0  # atno 17371 bound_to 10713
  140.7603  133.8823  155.8413 LP  0  0  0  0  0  0  0  0  0  0  0  0  # atno 17394 bound_to 11000
  140.9927  134.1256  157.4393 LP  0  0  0  0  0  0  0  0  0  0  0  0  # atno 17395 bound_to 11000

$$$$
