AV-unprocessed.smi:2595|AV-procd|sdf|10168|dock1
  -GOLD-   2272014183D 1   1.00000     0.00000
 Structure written by MMmdl.
 31 32  0  0  0  0  0  0  0  0  1 V2000
  145.7402  130.8456  152.3815 C   0  0  0  0  0  0  0  0  0  0  0  0
  146.9610  131.4031  152.9810 C   0  0  0  0  0  0  0  0  0  0  0  0
  147.9769  131.8746  153.4674 C   0  0  0  0  0  0  0  0  0  0  0  0
  149.2076  132.4530  154.0333 C   0  0  0  0  0  0  0  0  0  0  0  0
  149.3133  133.8904  153.8065 N   0  0  0  0  0  0  0  0  0  0  0  0
  149.8345  134.7751  154.6695 C   0  0  0  0  0  0  0  0  0  0  0  0
  150.2871  134.4638  155.7707 O   0  0  0  0  0  0  0  0  0  0  0  0
  149.7793  136.0239  154.1765 N   0  0  0  0  0  0  0  0  0  0  0  0
  150.2328  137.2288  154.7766 C   0  0  0  0  0  0  0  0  0  0  0  0
  150.6330  137.3661  156.1288 C   0  0  0  0  0  0  0  0  0  0  0  0
  151.0712  138.5445  156.6223 N   0  0  0  0  0  0  0  0  0  0  0  0
  151.1051  139.5803  155.7794 C   0  0  0  0  0  0  0  0  0  0  0  0
  151.6266  140.8734  156.3248 C   0  0  0  0  0  0  0  0  0  0  0  0
  151.0795  141.4474  157.6158 C   0  0  0  0  0  0  0  0  0  0  0  0
  150.7716  142.1239  156.3090 C   0  0  0  0  0  0  0  0  0  0  0  0
  150.7760  139.5640  154.4848 N   0  0  0  0  0  0  0  0  0  0  0  0
  150.3393  138.3895  153.9821 C   0  0  0  0  0  0  0  0  0  0  0  0
  144.9047  131.5261  152.5459 H   0  0  0  0  0  0  0  0  0  0  0  0
  145.5122  129.8822  152.8373 H   0  0  0  0  0  0  0  0  0  0  0  0
  145.8848  130.7094  151.3096 H   0  0  0  0  0  0  0  0  0  0  0  0
  149.2047  132.2650  155.1069 H   0  0  0  0  0  0  0  0  0  0  0  0
  150.0662  131.9241  153.6168 H   0  0  0  0  0  0  0  0  0  0  0  0
  148.9629  134.2367  152.9254 H   0  0  0  0  0  0  0  0  0  0  0  0
  149.3148  136.1309  153.2866 H   0  0  0  0  0  0  0  0  0  0  0  0
  150.6318  136.5429  156.8259 H   0  0  0  0  0  0  0  0  0  0  0  0
  152.6916  140.9838  156.1299 H   0  0  0  0  0  0  0  0  0  0  0  0
  150.2675  140.9133  158.1058 H   0  0  0  0  0  0  0  0  0  0  0  0
  151.7850  141.9375  158.2834 H   0  0  0  0  0  0  0  0  0  0  0  0
  151.2699  143.0685  156.1011 H   0  0  0  0  0  0  0  0  0  0  0  0
  149.7549  142.0402  155.9302 H   0  0  0  0  0  0  0  0  0  0  0  0
  150.0714  138.3786  152.9357 H   0  0  0  0  0  0  0  0  0  0  0  0
  1  2  1  0  0  0  0
  1 18  1  0  0  0  0
  1 19  1  0  0  0  0
  1 20  1  0  0  0  0
  2  3  3  0  0  0  0
  3  4  1  0  0  0  0
  4  5  1  0  0  0  0
  4 21  1  0  0  0  0
  4 22  1  0  0  0  0
  5  6  1  0  0  0  0
  5 23  1  0  0  0  0
  6  7  2  0  0  0  0
  6  8  1  0  0  0  0
  8  9  1  0  0  0  0
  8 24  1  0  0  0  0
  9 17  1  0  0  0  0
  9 10  2  0  0  0  0
 10 11  1  0  0  0  0
 10 25  1  0  0  0  0
 11 12  2  0  0  0  0
 12 13  1  0  0  0  0
 12 16  1  0  0  0  0
 13 15  1  0  0  0  0
 13 14  1  0  0  0  0
 13 26  1  0  0  0  0
 14 15  1  0  0  0  0
 14 27  1  0  0  0  0
 14 28  1  0  0  0  0
 15 29  1  0  0  0  0
 15 30  1  0  0  0  0
 16 17  2  0  0  0  0
 17 31  1  0  0  0  0
M  END
> <s_m_source_file>
AV-unprocessed.smi

> <i_m_source_file_index>
2595

> <i_lp_mmshare_version>
43012

> <i_f3d_flags>
0

> <s_epik_input>
W0NIM11DI0NbQ0gyXVtOSF1DKD1PKVtOSF1jMVtjSF1uYyhuW2NIXTEpW0NIXTJbQ0gyXVtDSDJdMg==

> <s_epik_cmdline>
J2VwaWtfcHl0aG9uJywgJy1waCcsICc3LjAnLCAnLXRuJywgJzgnLCAnLW1hJywgJzIwMCcsICctbWV0YWxfYmluZGluZycsICctaW1hZScsICc8aW5maWxlLm1hZT4nLCAnLW9tYWUnLCAnPG91dGZpbGUubWFlPic=

> <r_lp_tautomer_probability>
1

> <r_epik_Ionization_Penalty>
2.31413e-05

> <r_epik_Ionization_Penalty_Charging>
0

> <r_epik_Ionization_Penalty_Neutral>
2.31413e-05

> <r_epik_State_Penalty>
-0

> <r_epik_Charging_Adjusted_Penalty>
0

> <i_epik_Tot_Q>
0

> <i_epik_Tot_abs_Q>
0

> <r_epik_Metal_State_Penalty>
-0

> <b_epik_Metal_Only>
0

> <s_lp_Force_Field>
OPLS_2005

> <r_lp_Energy>
1.44064

> <b_lp_Chiralities_Consistent>
1

> <s_lp_Variant>
AV-unprocessed.smi:2595-1

> <Gold.Version>
5.8.1

> <Gold.Id.Protein>
6NUR|6NUR_protein|mol2

> <Gold.PLP.Fitness>
38.4263

> <Gold.PLP.PLP>
-27.2067

> <Gold.PLP.part.hbond>
-3.5373

> <Gold.PLP.part.metal>
0.0000

> <Gold.PLP.part.buried>
-2.7888

> <Gold.PLP.part.nonpolar>
-22.1523

> <Gold.PLP.part.repulsive>
0.2300

> <Gold.PLP.ligand.clash>
0.0000

> <Gold.PLP.ligand.torsion>
0.3054

> <Gold.PLP.Chemscore.Hbond>
2.0287

> <Gold.PLP.Chemscore.CHOScore>
1.8721

> <Gold.PLP.Chemscore.Metal>
0.0000

> <Gold.Chemscore.Hbonds>
donor molecule, donor type, donor heavy atom, donor atom, acceptor molecule, acceptor atom, score
      L1  H     5    23       P1  7948  0.14
      L1  H     8    24       P1  7948  0.78
      P1  H  7989  7998       L1    16  1.00
      L1  C    17    31       P1  7948  0.69
      L1  C    17    31       P1  7957  1.00

> <Gold.PLP.Chemscore.Internal.Correction>
0.1279

> <Gold.Rescore>
     Score         DG    S(hbond)    S(metal)    S(lipo)     H(rot)  DE(clash)    DE(int)     intcor
     13.43     -15.18       1.77        0.00      58.57       1.20       0.30       1.45       ----

> <Gold.Chemscore.Fitness>
13.4272

> <Gold.Chemscore.DG>
-15.1762

> <Gold.Chemscore.ZeroCoef>
-5.4800

> <Gold.Chemscore.Hbond>
1.7712

> <Gold.Chemscore.Metal>
0.0000

> <Gold.Chemscore.Lipo>
58.5685

> <Gold.Chemscore.Internal_Hbond>
0.0000

> <Gold.Chemscore.DEClash>
0.2982

> <Gold.Chemscore.DEInternal>
1.4508

> <Gold.Chemscore.Rot>
1.2001

> <Gold.Chemscore.Internal.Correction>
   9.000000E+99

> <Gold.Chemscore.Hbonds>
donor molecule, donor type, donor heavy atom, donor atom, acceptor molecule, acceptor atom, score
      L1  H     8    24       P1  7948  0.54
      P1  H  7989  7998       L1    16  0.88

> <Gold.Chemscore.Hbond.Weighted>
-5.9159

> <Gold.Chemscore.Metal.Weighted>
-0.0000

> <Gold.Chemscore.Lipo.Weighted>
-6.8525

> <Gold.Chemscore.Internal_Hbond.Weighted>
0.0000

> <Gold.Chemscore.DEClash.Weighted>
0.2982

> <Gold.Chemscore.DEInternal.Weighted>
1.4508

> <Gold.Chemscore.Rot.Weighted>
3.0723

> <Gold.Chemscore.Internal.Correction.Weighted>
   9.000000E+99

> <Gold.Protein.RotatedTorsions>
[ 6907 6896 6895 6894 ] final  173.42 input  -60.11 | X-H torsion
[ 7974 7965 7964 7962 ] final  -96.30 input  175.53 | X-H torsion
[ 8008 7997 7996 7995 ] final  150.19 input   59.86 | X-H torsion
[ 10167 10162 10161 10158 ] final -100.21 input  -65.29 | X-H torsion
[ 10718 10713 10712 10709 ] final  164.74 input   66.30 | X-H torsion
[ 10763 10752 10751 10750 ] final   67.56 input  -60.55 | X-H torsion
[ 11005 11000 10999 10996 ] final  -75.64 input  -57.11 | X-H torsion

> <Gold.Protein.ActiveResidues>
 VAL166  LYS551  ARG553  GLY616  TRP617  ASP618  TYR619  PRO620  LYS621  CYS622 
 ASP623  PHE694  ASN695  SER759  ASP760  ASP761  ALA762  ILE779  LEU786  VAL792 
 PHE793  MET794  SER795  GLU796  ALA797  LYS798  CYS799  TRP800  GLU811  SER814 

> <Gold.Protein.RotatedAtoms>
  151.7686  133.3339  159.3437 H   0  0  0  0  0  0  0  0  0  0  0  0  # atno 6907 bound_to 6896
  150.7470  134.6039  159.6060 H   0  0  0  0  0  0  0  0  0  0  0  0  # atno 6908 bound_to 6896
  152.3356  134.7204  160.0329 H   0  0  0  0  0  0  0  0  0  0  0  0  # atno 6909 bound_to 6896
  145.3486  140.9472  143.2567 H   0  0  0  0  0  0  0  0  0  0  0  0  # atno 7974 bound_to 7965
  156.2726  140.2081  156.5977 H   0  0  0  0  0  0  0  0  0  0  0  0  # atno 8008 bound_to 7997
  154.6931  140.0528  157.0407 H   0  0  0  0  0  0  0  0  0  0  0  0  # atno 8009 bound_to 7997
  155.0838  140.3189  155.4596 H   0  0  0  0  0  0  0  0  0  0  0  0  # atno 8010 bound_to 7997
  140.2543  143.3450  152.0685 H   0  0  0  0  0  0  0  0  0  0  0  0  # atno 10167 bound_to 10162
  157.0900  131.0415  151.2541 H   0  0  0  0  0  0  0  0  0  0  0  0  # atno 10718 bound_to 10713
  153.0192  135.5279  154.6999 H   0  0  0  0  0  0  0  0  0  0  0  0  # atno 10763 bound_to 10752
  154.6111  135.2878  155.0434 H   0  0  0  0  0  0  0  0  0  0  0  0  # atno 10764 bound_to 10752
  154.1455  135.6571  153.5004 H   0  0  0  0  0  0  0  0  0  0  0  0  # atno 10765 bound_to 10752
  141.1647  133.6954  156.7548 H   0  0  0  0  0  0  0  0  0  0  0  0  # atno 11005 bound_to 11000
  144.8735  139.5005  143.6756 LP  0  0  0  0  0  0  0  0  0  0  0  0  # atno 17320 bound_to 7965
  146.2977  139.7330  142.9114 LP  0  0  0  0  0  0  0  0  0  0  0  0  # atno 17321 bound_to 7965
  139.5036  144.6759  151.6130 LP  0  0  0  0  0  0  0  0  0  0  0  0  # atno 17342 bound_to 10162
  140.6016  143.9600  150.6390 LP  0  0  0  0  0  0  0  0  0  0  0  0  # atno 17343 bound_to 10162
  157.4729  130.7719  149.7340 LP  0  0  0  0  0  0  0  0  0  0  0  0  # atno 17370 bound_to 10713
  155.9900  130.3947  150.3046 LP  0  0  0  0  0  0  0  0  0  0  0  0  # atno 17371 bound_to 10713
  140.2577  134.8491  157.3729 LP  0  0  0  0  0  0  0  0  0  0  0  0  # atno 17394 bound_to 11000
  140.1641  134.4691  155.7875 LP  0  0  0  0  0  0  0  0  0  0  0  0  # atno 17395 bound_to 11000

$$$$
