AV-unprocessed.smi:932|AV-procd|sdf|4199|dock10
  -GOLD-   22720 2103D 1   1.00000     0.00000
 Structure written by MMmdl.
 44 45  0  0  0  0  0  0  0  0  2 V2000
  150.9821  140.4754  155.3423 O   0  0  0  0  0  0  0  0  0  0  0  0
  150.0738  141.2768  155.5542 C   0  0  0  0  0  0  0  0  0  0  0  0
  148.8700  141.2028  154.9608 N   0  0  0  0  0  0  0  0  0  0  0  0
  148.4701  140.1982  153.9803 C   0  0  0  0  0  0  0  0  0  0  0  0
  147.0260  139.7114  154.2055 C   0  0  0  0  0  0  0  0  0  0  0  0
  146.5770  138.7601  153.1846 N   0  0  0  0  0  0  0  0  0  0  0  0
  145.9137  137.5763  153.3843 C   0  0  0  0  0  0  0  0  0  0  0  0
  145.6927  137.0386  152.1427 C   0  0  0  0  0  0  0  0  0  0  0  0
  146.2350  137.9129  151.2391 N   0  3  0  0  0  0  0  0  0  0  0  0
  146.7756  138.9573  151.8749 C   0  0  0  0  0  0  0  0  0  0  0  0
  150.2211  142.3043  156.4099 N   0  0  0  0  0  0  0  0  0  0  0  0
  151.3918  142.6706  157.2133 C   0  0  0  0  0  0  0  0  0  0  0  0
  151.6386  141.5255  158.2241 C   0  0  0  0  0  0  0  0  0  0  0  0
  152.9704  141.6041  158.9976 C   0  0  0  0  0  0  0  0  0  0  0  0
  152.8677  142.1095  160.4498 C   0  0  0  0  0  0  0  0  0  0  0  0
  151.9517  143.3202  160.7038 C   0  0  0  0  0  0  0  0  0  0  0  0
  152.3773  144.6501  160.0568 C   0  0  0  0  0  0  0  0  0  0  0  0
  152.3870  144.7040  158.5168 C   0  0  0  0  0  0  0  0  0  0  0  0
  151.1608  144.0770  157.8227 C   0  0  0  0  0  0  0  0  0  0  0  0
  148.1803  141.8983  155.2068 H   0  0  0  0  0  0  0  0  0  0  0  0
  148.6020  140.5686  152.9621 H   0  0  0  0  0  0  0  0  0  0  0  0
  149.1516  139.3535  154.0836 H   0  0  0  0  0  0  0  0  0  0  0  0
  146.9419  139.2178  155.1745 H   0  0  0  0  0  0  0  0  0  0  0  0
  146.3317  140.5528  154.2177 H   0  0  0  0  0  0  0  0  0  0  0  0
  145.6485  137.2184  154.3685 H   0  0  0  0  0  0  0  0  0  0  0  0
  145.2025  136.1239  151.8425 H   0  0  0  0  0  0  0  0  0  0  0  0
  147.2662  139.7991  151.4197 H   0  0  0  0  0  0  0  0  0  0  0  0
  149.4081  142.8883  156.5444 H   0  0  0  0  0  0  0  0  0  0  0  0
  152.2672  142.7125  156.5632 H   0  0  0  0  0  0  0  0  0  0  0  0
  150.7948  141.4140  158.9052 H   0  0  0  0  0  0  0  0  0  0  0  0
  151.6607  140.5938  157.6561 H   0  0  0  0  0  0  0  0  0  0  0  0
  153.3968  140.6012  159.0418 H   0  0  0  0  0  0  0  0  0  0  0  0
  153.7071  142.1778  158.4382 H   0  0  0  0  0  0  0  0  0  0  0  0
  152.4970  141.2874  161.0636 H   0  0  0  0  0  0  0  0  0  0  0  0
  153.8692  142.3240  160.8244 H   0  0  0  0  0  0  0  0  0  0  0  0
  150.9231  143.0810  160.4384 H   0  0  0  0  0  0  0  0  0  0  0  0
  151.9209  143.4811  161.7820 H   0  0  0  0  0  0  0  0  0  0  0  0
  151.6921  145.4198  160.4142 H   0  0  0  0  0  0  0  0  0  0  0  0
  153.3607  144.9385  160.4300 H   0  0  0  0  0  0  0  0  0  0  0  0
  152.4323  145.7576  158.2384 H   0  0  0  0  0  0  0  0  0  0  0  0
  153.3100  144.2866  158.1189 H   0  0  0  0  0  0  0  0  0  0  0  0
  150.8866  144.7489  157.0082 H   0  0  0  0  0  0  0  0  0  0  0  0
  150.2936  144.0785  158.4834 H   0  0  0  0  0  0  0  0  0  0  0  0
  146.2266  137.7906  150.2342 H   0  0  0  0  0  0  0  0  0  0  0  0
  1  2  2  0  0  0  0
  2  3  1  0  0  0  0
  2 11  1  0  0  0  0
  3  4  1  0  0  0  0
  3 20  1  0  0  0  0
  4  5  1  0  0  0  0
  4 21  1  0  0  0  0
  4 22  1  0  0  0  0
  5  6  1  0  0  0  0
  5 23  1  0  0  0  0
  5 24  1  0  0  0  0
  6 10  1  0  0  0  0
  6  7  1  0  0  0  0
  7  8  2  0  0  0  0
  7 25  1  0  0  0  0
  8  9  1  0  0  0  0
  8 26  1  0  0  0  0
  9 10  2  0  0  0  0
  9 44  1  0  0  0  0
 10 27  1  0  0  0  0
 11 12  1  0  0  0  0
 11 28  1  0  0  0  0
 12 19  1  0  0  0  0
 12 13  1  0  0  0  0
 12 29  1  0  0  0  0
 13 14  1  0  0  0  0
 13 30  1  0  0  0  0
 13 31  1  0  0  0  0
 14 15  1  0  0  0  0
 14 32  1  0  0  0  0
 14 33  1  0  0  0  0
 15 16  1  0  0  0  0
 15 34  1  0  0  0  0
 15 35  1  0  0  0  0
 16 17  1  0  0  0  0
 16 36  1  0  0  0  0
 16 37  1  0  0  0  0
 17 18  1  0  0  0  0
 17 38  1  0  0  0  0
 17 39  1  0  0  0  0
 18 19  1  0  0  0  0
 18 40  1  0  0  0  0
 18 41  1  0  0  0  0
 19 42  1  0  0  0  0
 19 43  1  0  0  0  0
M  CHG  1   9   1
M  END
> <s_m_source_file>
AV-unprocessed.smi

> <i_m_source_file_index>
932

> <i_lp_mmshare_version>
43012

> <i_f3d_flags>
0

> <s_epik_input>
W2NIXTFuW2NIXVtjSF1uMVtDSDJdW0NIMl1bTkhdQyg9TylbTkhdW0NIXTJbQ0gyXVtDSDJdW0NIMl1bQ0gyXVtDSDJdW0NIMl1bQ0gyXTI=

> <s_epik_cmdline>
J2VwaWtfcHl0aG9uJywgJy1waCcsICc3LjAnLCAnLXRuJywgJzgnLCAnLW1hJywgJzIwMCcsICctbWV0YWxfYmluZGluZycsICctaW1hZScsICc8aW5maWxlLm1hZT4nLCAnLW9tYWUnLCAnPG91dGZpbGUubWFlPic=

> <r_lp_tautomer_probability>
1

> <r_epik_Ionization_Penalty>
0.254654

> <r_epik_Ionization_Penalty_Charging>
0

> <r_epik_Ionization_Penalty_Neutral>
0.254654

> <r_epik_State_Penalty>
0.246077

> <r_epik_Charging_Adjusted_Penalty>
0.246077

> <i_epik_Tot_Q>
1

> <i_epik_Tot_abs_Q>
1

> <r_epik_Metal_State_Penalty>
0.536041

> <b_epik_Metal_Only>
0

> <s_lp_Force_Field>
OPLS_2005

> <r_lp_Energy>
30.2565

> <b_lp_Chiralities_Consistent>
1

> <s_lp_Variant>
AV-unprocessed.smi:932-1

> <Gold.Version>
5.8.1

> <Gold.Id.Protein>
6NUR|6NUR_protein|mol2

> <Gold.PLP.Fitness>
50.7371

> <Gold.PLP.PLP>
-43.1690

> <Gold.PLP.part.hbond>
-3.4149

> <Gold.PLP.part.metal>
0.0000

> <Gold.PLP.part.buried>
-2.3497

> <Gold.PLP.part.nonpolar>
-37.9846

> <Gold.PLP.part.repulsive>
0.3742

> <Gold.PLP.ligand.clash>
0.0000

> <Gold.PLP.ligand.torsion>
0.3741

> <Gold.PLP.Chemscore.Hbond>
1.7760

> <Gold.PLP.Chemscore.CHOScore>
0.9848

> <Gold.PLP.Chemscore.Metal>
0.0000

> <Gold.Chemscore.Hbonds>
donor molecule, donor type, donor heavy atom, donor atom, acceptor molecule, acceptor atom, score
      L1  H    11    28       P1  8028  0.50
      P1  H  7989  7998       L1     1  0.98
      L1  C    10    27       P1  7957  0.92

> <Gold.PLP.Chemscore.Internal.Correction>
0.0340

> <Gold.Rescore>
     Score         DG    S(hbond)    S(metal)    S(lipo)     H(rot)  DE(clash)    DE(int)     intcor
     17.80     -18.39       1.52        0.00     108.54       1.90       0.33       0.26       ----

> <Gold.Chemscore.Fitness>
17.7981

> <Gold.Chemscore.DG>
-18.3887

> <Gold.Chemscore.ZeroCoef>
-5.4800

> <Gold.Chemscore.Hbond>
1.5175

> <Gold.Chemscore.Metal>
0.0000

> <Gold.Chemscore.Lipo>
108.5427

> <Gold.Chemscore.Internal_Hbond>
0.0000

> <Gold.Chemscore.DEClash>
0.3343

> <Gold.Chemscore.DEInternal>
0.2563

> <Gold.Chemscore.Rot>
1.8982

> <Gold.Chemscore.Internal.Correction>
   9.000000E+99

> <Gold.Chemscore.Hbonds>
donor molecule, donor type, donor heavy atom, donor atom, acceptor molecule, acceptor atom, score
      L1  H    11    28       P1  8028  0.51
      P1  H  7989  7998       L1     1  0.50

> <Gold.Chemscore.Hbond.Weighted>
-5.0686

> <Gold.Chemscore.Metal.Weighted>
-0.0000

> <Gold.Chemscore.Lipo.Weighted>
-12.6995

> <Gold.Chemscore.Internal_Hbond.Weighted>
0.0000

> <Gold.Chemscore.DEClash.Weighted>
0.3343

> <Gold.Chemscore.DEInternal.Weighted>
0.2563

> <Gold.Chemscore.Rot.Weighted>
4.8594

> <Gold.Chemscore.Internal.Correction.Weighted>
   9.000000E+99

> <Gold.Protein.RotatedTorsions>
[ 6907 6896 6895 6894 ] final  -78.81 input  -60.11 | X-H torsion
[ 7974 7965 7964 7962 ] final -177.29 input  175.53 | X-H torsion
[ 8008 7997 7996 7995 ] final  120.25 input   59.86 | X-H torsion
[ 10167 10162 10161 10158 ] final  -31.73 input  -65.29 | X-H torsion
[ 10718 10713 10712 10709 ] final   90.13 input   66.30 | X-H torsion
[ 10763 10752 10751 10750 ] final  127.35 input  -60.55 | X-H torsion
[ 11005 11000 10999 10996 ] final   79.70 input  -57.11 | X-H torsion

> <Gold.Protein.ActiveResidues>
 VAL166  LYS551  ARG553  GLY616  TRP617  ASP618  TYR619  PRO620  LYS621  CYS622 
 ASP623  PHE694  ASN695  SER759  ASP760  ASP761  ALA762  ILE779  LEU786  VAL792 
 PHE793  MET794  SER795  GLU796  ALA797  LYS798  CYS799  TRP800  GLU811  SER814 

> <Gold.Protein.RotatedAtoms>
  150.6964  134.4216  159.5207 H   0  0  0  0  0  0  0  0  0  0  0  0  # atno 6907 bound_to 6896
  152.1958  134.8629  160.0522 H   0  0  0  0  0  0  0  0  0  0  0  0  # atno 6908 bound_to 6896
  151.9568  133.3648  159.4057 H   0  0  0  0  0  0  0  0  0  0  0  0  # atno 6909 bound_to 6896
  144.7127  140.1041  143.6415 H   0  0  0  0  0  0  0  0  0  0  0  0  # atno 7974 bound_to 7965
  156.2634  140.2835  156.1120 H   0  0  0  0  0  0  0  0  0  0  0  0  # atno 8008 bound_to 7997
  155.1247  140.0393  157.2777 H   0  0  0  0  0  0  0  0  0  0  0  0  # atno 8009 bound_to 7997
  154.6644  140.2574  155.7080 H   0  0  0  0  0  0  0  0  0  0  0  0  # atno 8010 bound_to 7997
  140.7232  143.3748  151.1709 H   0  0  0  0  0  0  0  0  0  0  0  0  # atno 10167 bound_to 10162
  157.6958  131.0359  150.3531 H   0  0  0  0  0  0  0  0  0  0  0  0  # atno 10718 bound_to 10713
  153.7080  135.3273  155.3240 H   0  0  0  0  0  0  0  0  0  0  0  0  # atno 10763 bound_to 10752
  154.8393  135.4470  154.1343 H   0  0  0  0  0  0  0  0  0  0  0  0  # atno 10764 bound_to 10752
  153.2429  135.6973  153.7842 H   0  0  0  0  0  0  0  0  0  0  0  0  # atno 10765 bound_to 10752
  139.9162  134.7863  156.1813 H   0  0  0  0  0  0  0  0  0  0  0  0  # atno 11005 bound_to 11000
  145.9512  139.2735  143.1211 LP  0  0  0  0  0  0  0  0  0  0  0  0  # atno 17320 bound_to 7965
  145.9321  140.9041  143.0351 LP  0  0  0  0  0  0  0  0  0  0  0  0  # atno 17321 bound_to 7965
  139.7326  143.9048  152.3024 LP  0  0  0  0  0  0  0  0  0  0  0  0  # atno 17342 bound_to 10162
  139.8842  144.7001  150.8843 LP  0  0  0  0  0  0  0  0  0  0  0  0  # atno 17343 bound_to 10162
  156.3976  130.3910  149.6983 LP  0  0  0  0  0  0  0  0  0  0  0  0  # atno 17370 bound_to 10713
  156.4311  130.7815  151.2835 LP  0  0  0  0  0  0  0  0  0  0  0  0  # atno 17371 bound_to 10713
  141.0640  133.6828  156.2009 LP  0  0  0  0  0  0  0  0  0  0  0  0  # atno 17394 bound_to 11000
  140.6614  134.4963  157.5583 LP  0  0  0  0  0  0  0  0  0  0  0  0  # atno 17395 bound_to 11000

$$$$
