AV-unprocessed.smi:181|AV-procd|sdf|1453|dock8
  -GOLD-   2262019253D 1   1.00000     0.00000
 Structure written by MMmdl.
 50 53  0  0  0  0  0  0  0  0  1 V2000
  147.1309  141.8703  154.1383 C   0  0  0  0  0  0  0  0  0  0  0  0
  148.3334  141.0183  153.7151 C   0  0  0  0  0  0  0  0  0  0  0  0
  148.5997  139.9436  154.6703 N   0  0  0  0  0  0  0  0  0  0  0  0
  147.6433  138.9879  154.7173 C   0  0  0  0  0  0  0  0  0  0  0  0
  147.2479  138.4810  155.9130 N   0  0  0  0  0  0  0  0  0  0  0  0
  146.2990  137.5408  155.9566 C   0  0  0  0  0  0  0  0  0  0  0  0
  145.6269  136.9849  154.9455 N   0  0  0  0  0  0  0  0  0  0  0  0
  146.0167  137.5042  153.7456 C   0  0  0  0  0  0  0  0  0  0  0  0
  147.0087  138.5030  153.5445 C   0  0  0  0  0  0  0  0  0  0  0  0
  147.1385  138.7846  152.1908 N   0  0  0  0  0  0  0  0  0  0  0  0
  146.2678  137.9957  151.6214 C   0  0  0  0  0  0  0  0  0  0  0  0
  145.5483  137.1953  152.4809 N   0  0  0  0  0  0  0  0  0  0  0  0
  144.5215  136.2305  152.1198 C   0  0  0  0  0  0  0  0  0  0  0  0
  145.0253  135.0939  151.1965 C   0  0  0  0  0  0  0  0  0  0  0  0
  145.3617  135.6734  149.9474 O   0  0  0  0  0  0  0  0  0  0  0  0
  146.2921  134.4438  151.7878 C   0  0  0  0  0  0  0  0  0  0  0  0
  146.7310  133.2003  150.9945 C   0  0  0  0  0  0  0  0  0  0  0  0
  145.6594  132.2680  150.9197 O   0  0  0  0  0  0  0  0  0  0  0  0
  144.5328  132.7806  150.2187 C   0  0  0  0  0  0  0  0  0  0  0  0
  143.9586  134.0023  150.9576 C   0  0  0  0  0  0  0  0  0  0  0  0
  149.4217  140.2088  155.8627 C   0  0  2  0  0  0  0  0  0  0  0  0
  149.0656  141.5191  156.5953 C   0  0  0  0  0  0  0  0  0  0  0  0
  150.3921  141.9898  157.2095 C   0  0  0  0  0  0  0  0  0  0  0  0
  151.4100  141.3300  156.4129 N   0  0  0  0  0  0  0  0  0  0  0  0
  150.9255  140.3593  155.6387 C   0  0  0  0  0  0  0  0  0  0  0  0
  151.5834  139.6622  154.8692 O   0  0  0  0  0  0  0  0  0  0  0  0
  146.9581  142.6755  153.4241 H   0  0  0  0  0  0  0  0  0  0  0  0
  147.2983  142.3234  155.1160 H   0  0  0  0  0  0  0  0  0  0  0  0
  146.2173  141.2787  154.1951 H   0  0  0  0  0  0  0  0  0  0  0  0
  148.1481  140.5912  152.7296 H   0  0  0  0  0  0  0  0  0  0  0  0
  149.2036  141.6684  153.6026 H   0  0  0  0  0  0  0  0  0  0  0  0
  146.0406  137.1845  156.9427 H   0  0  0  0  0  0  0  0  0  0  0  0
  146.1211  137.9784  150.5510 H   0  0  0  0  0  0  0  0  0  0  0  0
  144.1032  135.8168  153.0387 H   0  0  0  0  0  0  0  0  0  0  0  0
  143.7075  136.7711  151.6351 H   0  0  0  0  0  0  0  0  0  0  0  0
  145.4958  134.9788  149.3210 H   0  0  0  0  0  0  0  0  0  0  0  0
  147.1082  135.1661  151.8336 H   0  0  0  0  0  0  0  0  0  0  0  0
  146.0951  134.1418  152.8174 H   0  0  0  0  0  0  0  0  0  0  0  0
  147.0652  133.4696  149.9913 H   0  0  0  0  0  0  0  0  0  0  0  0
  147.5763  132.7227  151.4899 H   0  0  0  0  0  0  0  0  0  0  0  0
  144.8119  133.0351  149.1951 H   0  0  0  0  0  0  0  0  0  0  0  0
  143.7768  131.9980  150.1527 H   0  0  0  0  0  0  0  0  0  0  0  0
  143.5633  133.6705  151.9185 H   0  0  0  0  0  0  0  0  0  0  0  0
  143.1112  134.4013  150.3988 H   0  0  0  0  0  0  0  0  0  0  0  0
  149.2985  139.3795  156.5599 H   0  0  0  0  0  0  0  0  0  0  0  0
  148.7084  142.2916  155.9142 H   0  0  0  0  0  0  0  0  0  0  0  0
  148.2919  141.3717  157.3495 H   0  0  0  0  0  0  0  0  0  0  0  0
  150.5000  143.0742  157.1747 H   0  0  0  0  0  0  0  0  0  0  0  0
  150.4836  141.6658  158.2469 H   0  0  0  0  0  0  0  0  0  0  0  0
  152.3818  141.6028  156.4367 H   0  0  0  0  0  0  0  0  0  0  0  0
  1  2  1  0  0  0  0
  1 27  1  0  0  0  0
  1 28  1  0  0  0  0
  1 29  1  0  0  0  0
  2  3  1  0  0  0  0
  2 30  1  0  0  0  0
  2 31  1  0  0  0  0
  3  4  1  0  0  0  0
  3 21  1  0  0  0  0
  4  9  1  0  0  0  0
  4  5  2  0  0  0  0
  5  6  1  0  0  0  0
  6  7  2  0  0  0  0
  6 32  1  0  0  0  0
  7  8  1  0  0  0  0
  8 12  1  0  0  0  0
  8  9  2  0  0  0  0
  9 10  1  0  0  0  0
 10 11  2  0  0  0  0
 11 12  1  0  0  0  0
 11 33  1  0  0  0  0
 12 13  1  0  0  0  0
 13 14  1  0  0  0  0
 13 34  1  0  0  0  0
 13 35  1  0  0  0  0
 14 20  1  0  0  0  0
 14 15  1  0  0  0  0
 14 16  1  0  0  0  0
 15 36  1  0  0  0  0
 16 17  1  0  0  0  0
 16 37  1  0  0  0  0
 16 38  1  0  0  0  0
 17 18  1  0  0  0  0
 17 39  1  0  0  0  0
 17 40  1  0  0  0  0
 18 19  1  0  0  0  0
 19 20  1  0  0  0  0
 19 41  1  0  0  0  0
 19 42  1  0  0  0  0
 20 43  1  0  0  0  0
 20 44  1  0  0  0  0
 21 25  1  0  0  0  0
 21 22  1  0  0  0  0
 21 45  1  0  0  0  0
 22 23  1  0  0  0  0
 22 46  1  0  0  0  0
 22 47  1  0  0  0  0
 23 24  1  0  0  0  0
 23 48  1  0  0  0  0
 23 49  1  0  0  0  0
 24 25  1  0  0  0  0
 24 50  1  0  0  0  0
 25 26  2  0  0  0  0
M  END
> <s_m_source_file>
AV-unprocessed.smi

> <i_m_source_file_index>
181

> <i_lp_mmshare_version>
43012

> <i_f3d_flags>
0

> <s_epik_input>
Tz1DMVtOSF1bQ0gyXVtDSDJdW0NASF0xTihbQ0gyXVtDSDNdKWMobltjSF1uMiljKGMyMyluW2NIXW4zW0NIMl1DNChbT0hdKVtDSDJdW0NIMl1PW0NIMl1bQ0gyXTQ=

> <s_epik_cmdline>
J2VwaWtfcHl0aG9uJywgJy1waCcsICc3LjAnLCAnLXRuJywgJzgnLCAnLW1hJywgJzIwMCcsICctbWV0YWxfYmluZGluZycsICctaW1hZScsICc8aW5maWxlLm1hZT4nLCAnLW9tYWUnLCAnPG91dGZpbGUubWFlPic=

> <r_lp_tautomer_probability>
1

> <r_epik_Ionization_Penalty>
0.000985257

> <r_epik_Ionization_Penalty_Charging>
0

> <r_epik_Ionization_Penalty_Neutral>
0.000985257

> <r_epik_State_Penalty>
0.000517047

> <r_epik_Charging_Adjusted_Penalty>
0.000517047

> <i_epik_Tot_Q>
0

> <i_epik_Tot_abs_Q>
0

> <r_epik_Metal_State_Penalty>
-0

> <b_epik_Metal_Only>
0

> <s_lp_Force_Field>
OPLS_2005

> <r_lp_Energy>
35.7055

> <b_lp_Chiralities_Consistent>
1

> <s_lp_Variant>
AV-unprocessed.smi:181-1

> <Gold.Version>
5.8.1

> <Gold.Id.Protein>
6NUR|6NUR_protein|mol2

> <Gold.PLP.Fitness>
45.4455

> <Gold.PLP.PLP>
-38.1400

> <Gold.PLP.part.hbond>
-2.8023

> <Gold.PLP.part.metal>
0.0000

> <Gold.PLP.part.buried>
-3.8970

> <Gold.PLP.part.nonpolar>
-32.8318

> <Gold.PLP.part.repulsive>
1.6619

> <Gold.PLP.ligand.clash>
0.0000

> <Gold.PLP.ligand.torsion>
0.9646

> <Gold.PLP.Chemscore.Hbond>
1.8960

> <Gold.PLP.Chemscore.CHOScore>
0.7624

> <Gold.PLP.Chemscore.Metal>
0.0000

> <Gold.Chemscore.Hbonds>
donor molecule, donor type, donor heavy atom, donor atom, acceptor molecule, acceptor atom, score
      L1  H    15    36       P1  7921  0.74
      P1  H  7989  7998       L1    26  0.85
      L1  C    11    33       P1 10171  0.71

> <Gold.PLP.Chemscore.Internal.Correction>
1.2595

> <Gold.Rescore>
     Score         DG    S(hbond)    S(metal)    S(lipo)     H(rot)  DE(clash)    DE(int)     intcor
      9.81     -13.35       1.95        0.00      65.95       2.49       0.41       3.12       ----

> <Gold.Chemscore.Fitness>
9.8118

> <Gold.Chemscore.DG>
-13.3468

> <Gold.Chemscore.ZeroCoef>
-5.4800

> <Gold.Chemscore.Hbond>
1.9532

> <Gold.Chemscore.Metal>
0.0000

> <Gold.Chemscore.Lipo>
65.9533

> <Gold.Chemscore.Internal_Hbond>
0.0000

> <Gold.Chemscore.DEClash>
0.4120

> <Gold.Chemscore.DEInternal>
3.1230

> <Gold.Chemscore.Rot>
2.4897

> <Gold.Chemscore.Internal.Correction>
   9.000000E+99

> <Gold.Chemscore.Hbonds>
donor molecule, donor type, donor heavy atom, donor atom, acceptor molecule, acceptor atom, score
      L1  H    15    36       P1  7921  0.74
      P1  H  7989  7998       L1    26  0.15

> <Gold.Chemscore.Hbond.Weighted>
-6.5238

> <Gold.Chemscore.Metal.Weighted>
-0.0000

> <Gold.Chemscore.Lipo.Weighted>
-7.7165

> <Gold.Chemscore.Internal_Hbond.Weighted>
0.0000

> <Gold.Chemscore.DEClash.Weighted>
0.4120

> <Gold.Chemscore.DEInternal.Weighted>
3.1230

> <Gold.Chemscore.Rot.Weighted>
6.3735

> <Gold.Chemscore.Internal.Correction.Weighted>
   9.000000E+99

> <Gold.Protein.RotatedTorsions>
[ 6907 6896 6895 6894 ] final  146.92 input  -60.11 | X-H torsion
[ 7974 7965 7964 7962 ] final -143.65 input  175.53 | X-H torsion
[ 8008 7997 7996 7995 ] final  131.71 input   59.86 | X-H torsion
[ 10167 10162 10161 10158 ] final  177.57 input  -65.29 | X-H torsion
[ 10718 10713 10712 10709 ] final  172.86 input   66.30 | X-H torsion
[ 10763 10752 10751 10750 ] final  -28.59 input  -60.55 | X-H torsion
[ 11005 11000 10999 10996 ] final -118.46 input  -57.11 | X-H torsion

> <Gold.Protein.ActiveResidues>
 VAL166  LYS551  ARG553  GLY616  TRP617  ASP618  TYR619  PRO620  LYS621  CYS622 
 ASP623  PHE694  ASN695  SER759  ASP760  ASP761  ALA762  ILE779  LEU786  VAL792 
 PHE793  MET794  SER795  GLU796  ALA797  LYS798  CYS799  TRP800  GLU811  SER814 

> <Gold.Protein.RotatedAtoms>
  152.1615  133.4585  159.4863 H   0  0  0  0  0  0  0  0  0  0  0  0  # atno 6907 bound_to 6896
  150.6907  134.2065  159.4351 H   0  0  0  0  0  0  0  0  0  0  0  0  # atno 6908 bound_to 6896
  151.9968  134.9949  160.0614 H   0  0  0  0  0  0  0  0  0  0  0  0  # atno 6909 bound_to 6896
  144.8354  140.5808  143.5487 H   0  0  0  0  0  0  0  0  0  0  0  0  # atno 7974 bound_to 7965
  156.2973  140.2564  156.2971 H   0  0  0  0  0  0  0  0  0  0  0  0  # atno 8008 bound_to 7997
  154.9454  140.0395  157.2136 H   0  0  0  0  0  0  0  0  0  0  0  0  # atno 8009 bound_to 7997
  154.8087  140.2840  155.5873 H   0  0  0  0  0  0  0  0  0  0  0  0  # atno 8010 bound_to 7997
  139.5259  144.2782  152.0569 H   0  0  0  0  0  0  0  0  0  0  0  0  # atno 10167 bound_to 10162
  156.9727  131.0095  151.2901 H   0  0  0  0  0  0  0  0  0  0  0  0  # atno 10718 bound_to 10713
  153.7508  135.6926  153.4946 H   0  0  0  0  0  0  0  0  0  0  0  0  # atno 10763 bound_to 10752
  153.2005  135.4438  155.0259 H   0  0  0  0  0  0  0  0  0  0  0  0  # atno 10764 bound_to 10752
  154.8188  135.3412  154.7029 H   0  0  0  0  0  0  0  0  0  0  0  0  # atno 10765 bound_to 10752
  141.0284  134.0018  157.3179 H   0  0  0  0  0  0  0  0  0  0  0  0  # atno 11005 bound_to 11000
  145.4807  139.1495  143.3764 LP  0  0  0  0  0  0  0  0  0  0  0  0  # atno 17320 bound_to 7965
  146.2653  140.4943  142.8836 LP  0  0  0  0  0  0  0  0  0  0  0  0  # atno 17321 bound_to 7965
  140.2239  144.4438  150.6330 LP  0  0  0  0  0  0  0  0  0  0  0  0  # atno 17342 bound_to 10162
  140.6400  143.2202  151.6310 LP  0  0  0  0  0  0  0  0  0  0  0  0  # atno 17343 bound_to 10162
  157.5581  130.8227  149.8231 LP  0  0  0  0  0  0  0  0  0  0  0  0  # atno 17370 bound_to 10713
  156.0276  130.3774  150.1778 LP  0  0  0  0  0  0  0  0  0  0  0  0  # atno 17371 bound_to 10713
  139.9191  135.0199  156.7997 LP  0  0  0  0  0  0  0  0  0  0  0  0  # atno 17394 bound_to 11000
  140.6450  133.9784  155.7726 LP  0  0  0  0  0  0  0  0  0  0  0  0  # atno 17395 bound_to 11000

$$$$
