#       Name:                AV-unprocessed.smi:1830
#       Creating user name   scv26
#       Creation time:       Fri Mar 27 09:12:03 2020


#       File generated by GOLD software.
#

@<TRIPOS>MOLECULE
AV-unprocessed.smi:1830
    59    62     1
SMALL
NO_CHARGES


@<TRIPOS>ATOM
      1 ****         0.3993   1.9382   1.7825 O.2            1 S1                 0.0000
      2 ****        -0.1169   0.8209   1.7698 C.2            1 S1                 0.0000
      3 ****         0.5869  -0.3197   1.7683 N.am           1 S1                 0.0000
      4 ****         2.0433  -0.4073   1.7628 C.3            1 S1                 0.0000
      5 ****         2.6059  -0.4155   0.3304 C.3            1 S1                 0.0000
      6 ****         4.1226  -0.6887   0.3132 C.3            1 S1                 0.0000
      7 ****         4.6931  -0.5684  -1.0492 N.4            1 S1                 1.0000
      8 ****         4.5195  -1.7351  -1.9425 C.3            1 S1                 0.0000
      9 ****         4.4474  -1.1770  -3.3729 C.3            1 S1                 0.0000
     10 ****         4.6577   0.3344  -3.2336 C.3            1 S1                 0.0000
     11 ****         4.2634   0.6371  -1.7873 C.3            1 S1                 0.0000
     12 ****         2.7456   0.8805  -1.6333 C.3            1 S1                 0.0000
     13 ****         2.3844   0.8600  -0.2605 O.3            1 S1                 0.0000
     14 ****        -1.4368   0.5752   1.7299 N.am           1 S1                 0.0000
     15 ****        -2.5084   1.5115   1.6760 C.ar           1 S1                 0.0000
     16 ****        -2.4117   2.7907   2.2767 C.ar           1 S1                 0.0000
     17 ****        -3.4938   3.6824   2.1799 C.ar           1 S1                 0.0000
     18 ****        -4.6406   3.2625   1.4862 C.ar           1 S1                 0.0000
     19 ****        -4.7559   2.0423   0.9252 N.ar           1 S1                 0.0000
     20 ****        -3.7264   1.1654   1.0233 C.ar           1 S1                 0.0000
     21 ****        -3.9125  -0.1067   0.4351 N.3            1 S1                 0.0000
     22 ****        -4.9953  -0.3286  -0.5174 C.3            1 S1                 0.0000
     23 ****        -5.1231  -1.8452  -0.6226 C.3            1 S1                 0.0000
     24 ****        -4.8190  -2.2958   0.8029 C.3            1 S1                 0.0000
     25 ****        -3.7791  -1.2814   1.2918 C.3            1 S1                 0.0000
     26 ****         0.0777  -1.1914   1.7584 H              1 S1                 0.0000
     27 ****         2.4846   0.4011   2.3486 H              1 S1                 0.0000
     28 ****         2.3139  -1.3350   2.2677 H              1 S1                 0.0000
     29 ****         2.0837  -1.1832  -0.2436 H              1 S1                 0.0000
     30 ****         4.6269   0.0401   0.9492 H              1 S1                 0.0000
     31 ****         4.3501  -1.6728   0.7249 H              1 S1                 0.0000
     32 ****         5.3555  -2.4236  -1.8164 H              1 S1                 0.0000
     33 ****         3.6040  -2.2795  -1.7080 H              1 S1                 0.0000
     34 ****         5.1907  -1.6293  -4.0303 H              1 S1                 0.0000
     35 ****         3.4648  -1.3813  -3.8002 H              1 S1                 0.0000
     36 ****         5.7134   0.5678  -3.3785 H              1 S1                 0.0000
     37 ****         4.0901   0.9116  -3.9645 H              1 S1                 0.0000
     38 ****         4.8044   1.5045  -1.4067 H              1 S1                 0.0000
     39 ****         2.4788   1.8508  -2.0527 H              1 S1                 0.0000
     40 ****         2.1614   0.1355  -2.1762 H              1 S1                 0.0000
     41 ****        -1.7056  -0.3917   1.6223 H              1 S1                 0.0000
     42 ****        -1.5302   3.0999   2.8171 H              1 S1                 0.0000
     43 ****        -3.4445   4.6648   2.6256 H              1 S1                 0.0000
     44 ****        -5.4917   3.9197   1.3859 H              1 S1                 0.0000
     45 ****        -5.9322   0.0882  -0.1455 H              1 S1                 0.0000
     46 ****        -4.7751   0.1278  -1.4827 H              1 S1                 0.0000
     47 ****        -6.1040  -2.1662  -0.9741 H              1 S1                 0.0000
     48 ****        -4.3697  -2.2379  -1.3071 H              1 S1                 0.0000
     49 ****        -5.7216  -2.2173   1.4108 H              1 S1                 0.0000
     50 ****        -4.4655  -3.3256   0.8580 H              1 S1                 0.0000
     51 ****        -2.7763  -1.6923   1.1721 H              1 S1                 0.0000
     52 ****        -3.9244  -1.0398   2.3459 H              1 S1                 0.0000
     53 ****         5.6928  -0.4773  -0.9360 H              1 S1                 0.0000
     54 ****         1.3951   2.0288   1.7924 LP             1 S1                 0.0000
     55 ****        -0.1772   2.7553   1.7829 LP             1 S1                 0.0000
     56 ****         2.9307   1.5410   0.2272 LP             1 S1                 0.0000
     57 ****         1.4146   1.0898  -0.1784 LP             1 S1                 0.0000
     58 ****        -5.5927   1.7863   0.4413 LP             1 S1                 0.0000
     59 ****        -3.0868  -0.0162  -0.1216 LP             1 S1                 0.0000
@<TRIPOS>BOND
    1    1    2 2     
    2    2    3 am    
    3    2   14 am    
    4    3    4 1     
    5    3   26 1     
    6    4    5 1     
    7    4   27 1     
    8    4   28 1     
    9    5   13 1     
   10    5    6 1     
   11    5   29 1     
   12    6    7 1     
   13    6   30 1     
   14    6   31 1     
   15    7   11 1     
   16    7    8 1     
   17    7   53 1     
   18    8    9 1     
   19    8   32 1     
   20    8   33 1     
   21    9   10 1     
   22    9   34 1     
   23    9   35 1     
   24   10   11 1     
   25   10   36 1     
   26   10   37 1     
   27   11   12 1     
   28   11   38 1     
   29   12   13 1     
   30   12   39 1     
   31   12   40 1     
   32   14   15 1     
   33   14   41 1     
   34   15   20 ar    
   35   15   16 ar    
   36   16   17 ar    
   37   16   42 1     
   38   17   18 ar    
   39   17   43 1     
   40   18   19 ar    
   41   18   44 1     
   42   19   20 ar    
   43   20   21 1     
   44   21   25 1     
   45   21   22 1     
   46   22   23 1     
   47   22   45 1     
   48   22   46 1     
   49   23   24 1     
   50   23   47 1     
   51   23   48 1     
   52   24   25 1     
   53   24   49 1     
   54   24   50 1     
   55   25   51 1     
   56   25   52 1     
   57    1   54 1     
   58    1   55 1     
   59   13   56 1     
   60   13   57 1     
   61   19   58 1     
   62   21   59 1     
@<TRIPOS>SUBSTRUCTURE
      1 S1             1
@<TRIPOS>SET
LONE_PAIRS      STATIC     ATOMS    <user>   **** ""
6 54 55 56 57 58 59
DONOR_HYDROGENS      STATIC     ATOMS    <user>   **** ""
3 26 53 41
ATOM$BLUE        STATIC     ATOMS    COLORGROUP SYSTEM
6 54 55 56 57 58 59
ATOM$RED        STATIC     ATOMS    COLORGROUP SYSTEM
3 26 53 41
