AV-unprocessed.smi:2492|AV-procd|sdf|9812|dock3
  -GOLD-   2272013443D 1   1.00000     0.00000
 Structure written by MMmdl.
 33 34  0  0  0  0  0  0  0  0  1 V2000
  144.3406  132.7143  149.2547 C   0  0  0  0  0  0  0  0  0  0  0  0
  144.4543  132.7806  151.0624 S   0  0  0  0  0  0  0  0  0  0  0  0
  144.1330  134.5463  151.3384 C   0  0  1  0  0  0  0  0  0  0  0  0
  144.0073  134.8938  152.8194 C   0  0  0  0  0  0  0  0  0  0  0  0
  144.2365  136.4045  152.8690 C   0  0  0  0  0  0  0  0  0  0  0  0
  145.1936  136.7273  151.7037 C   0  0  1  0  0  0  0  0  0  0  0  0
  146.5191  137.1062  152.1870 N   0  0  0  0  0  0  0  0  0  0  0  0
  146.7753  138.1512  152.9870 C   0  0  0  0  0  0  0  0  0  0  0  0
  145.9045  138.9140  153.4071 O   0  0  0  0  0  0  0  0  0  0  0  0
  148.0869  138.2449  153.2636 N   0  0  0  0  0  0  0  0  0  0  0  0
  148.7343  139.2166  154.0682 C   0  0  0  0  0  0  0  0  0  0  0  0
  149.9818  139.1576  154.5345 N   0  0  0  0  0  0  0  0  0  0  0  0
  150.0537  140.3290  155.2237 C   0  0  0  0  0  0  0  0  0  0  0  0
  151.2802  140.7556  155.9560 C   0  0  0  0  0  0  0  0  0  0  0  0
  148.9589  141.0812  155.2081 N   0  0  0  0  0  0  0  0  0  0  0  0
  148.0621  140.3346  154.4296 O   0  0  0  0  0  0  0  0  0  0  0  0
  145.2661  135.4513  150.8442 C   0  0  0  0  0  0  0  0  0  0  0  0
  144.4761  131.6897  148.9082 H   0  0  0  0  0  0  0  0  0  0  0  0
  145.1107  133.3360  148.7981 H   0  0  0  0  0  0  0  0  0  0  0  0
  143.3643  133.0659  148.9206 H   0  0  0  0  0  0  0  0  0  0  0  0
  143.2047  134.8199  150.8346 H   0  0  0  0  0  0  0  0  0  0  0  0
  143.0444  134.6029  153.2404 H   0  0  0  0  0  0  0  0  0  0  0  0
  144.7878  134.3889  153.3906 H   0  0  0  0  0  0  0  0  0  0  0  0
  143.2881  136.9181  152.7059 H   0  0  0  0  0  0  0  0  0  0  0  0
  144.6097  136.7259  153.8423 H   0  0  0  0  0  0  0  0  0  0  0  0
  144.7756  137.5399  151.1062 H   0  0  0  0  0  0  0  0  0  0  0  0
  147.2935  136.5306  151.8898 H   0  0  0  0  0  0  0  0  0  0  0  0
  148.6895  137.5454  152.8559 H   0  0  0  0  0  0  0  0  0  0  0  0
  151.1199  141.7051  156.4679 H   0  0  0  0  0  0  0  0  0  0  0  0
  152.1109  140.8746  155.2601 H   0  0  0  0  0  0  0  0  0  0  0  0
  151.5546  140.0060  156.6987 H   0  0  0  0  0  0  0  0  0  0  0  0
  146.2233  134.9473  150.9905 H   0  0  0  0  0  0  0  0  0  0  0  0
  145.1782  135.6710  149.7797 H   0  0  0  0  0  0  0  0  0  0  0  0
  1  2  1  0  0  0  0
  1 18  1  0  0  0  0
  1 19  1  0  0  0  0
  1 20  1  0  0  0  0
  2  3  1  0  0  0  0
  3 17  1  0  0  0  0
  3  4  1  0  0  0  0
  3 21  1  0  0  0  0
  4  5  1  0  0  0  0
  4 22  1  0  0  0  0
  4 23  1  0  0  0  0
  5  6  1  0  0  0  0
  5 24  1  0  0  0  0
  5 25  1  0  0  0  0
  6  7  1  0  0  0  0
  6 17  1  0  0  0  0
  6 26  1  0  0  0  0
  7  8  1  0  0  0  0
  7 27  1  0  0  0  0
  8  9  2  0  0  0  0
  8 10  1  0  0  0  0
 10 11  1  0  0  0  0
 10 28  1  0  0  0  0
 11 16  1  0  0  0  0
 11 12  2  0  0  0  0
 12 13  1  0  0  0  0
 13 14  1  0  0  0  0
 13 15  2  0  0  0  0
 14 29  1  0  0  0  0
 14 30  1  0  0  0  0
 14 31  1  0  0  0  0
 15 16  1  0  0  0  0
 17 32  1  0  0  0  0
 17 33  1  0  0  0  0
M  END
> <s_m_source_file>
AV-unprocessed.smi

> <i_m_source_file_index>
2492

> <i_lp_mmshare_version>
43012

> <i_f3d_flags>
0

> <s_epik_input>
W0NIM11TW0NAQEhdMVtDSDJdW0NIMl1bQ0BIXShbQ0gyXTEpW05IXUMoPU8pW05IXWMybmMoW0NIM10pbm8y

> <s_epik_cmdline>
J2VwaWtfcHl0aG9uJywgJy1waCcsICc3LjAnLCAnLXRuJywgJzgnLCAnLW1hJywgJzIwMCcsICctbWV0YWxfYmluZGluZycsICctaW1hZScsICc8aW5maWxlLm1hZT4nLCAnLW9tYWUnLCAnPG91dGZpbGUubWFlPic=

> <r_lp_tautomer_probability>
1

> <r_epik_Ionization_Penalty>
3.56659e-05

> <r_epik_Ionization_Penalty_Charging>
0

> <r_epik_Ionization_Penalty_Neutral>
3.56659e-05

> <r_epik_State_Penalty>
-0

> <r_epik_Charging_Adjusted_Penalty>
0

> <i_epik_Tot_Q>
0

> <i_epik_Tot_abs_Q>
0

> <r_epik_Metal_State_Penalty>
0.0146047

> <b_epik_Metal_Only>
0

> <s_lp_Force_Field>
OPLS_2005

> <r_lp_Energy>
14.0642

> <b_lp_Chiralities_Consistent>
1

> <s_lp_Variant>
AV-unprocessed.smi:2492-2

> <Gold.Version>
5.8.1

> <Gold.Id.Protein>
6NUR|6NUR_protein|mol2

> <Gold.PLP.Fitness>
31.7818

> <Gold.PLP.PLP>
-25.9219

> <Gold.PLP.part.hbond>
-2.6852

> <Gold.PLP.part.metal>
0.0000

> <Gold.PLP.part.buried>
-1.3224

> <Gold.PLP.part.nonpolar>
-23.2429

> <Gold.PLP.part.repulsive>
2.3547

> <Gold.PLP.ligand.clash>
0.0000

> <Gold.PLP.ligand.torsion>
0.0735

> <Gold.PLP.Chemscore.Hbond>
2.0000

> <Gold.PLP.Chemscore.CHOScore>
0.0000

> <Gold.PLP.Chemscore.Metal>
0.0000

> <Gold.Chemscore.Hbonds>
donor molecule, donor type, donor heavy atom, donor atom, acceptor molecule, acceptor atom, score
      L1  H     7    27       P1  7948  1.00
      L1  H    10    28       P1  7948  1.00

> <Gold.PLP.Chemscore.Internal.Correction>
0.0070

> <Gold.Rescore>
     Score         DG    S(hbond)    S(metal)    S(lipo)     H(rot)  DE(clash)    DE(int)     intcor
     12.46     -14.09       1.94        0.00      46.36       1.28       0.15       1.47       ----

> <Gold.Chemscore.Fitness>
12.4625

> <Gold.Chemscore.DG>
-14.0899

> <Gold.Chemscore.ZeroCoef>
-5.4800

> <Gold.Chemscore.Hbond>
1.9360

> <Gold.Chemscore.Metal>
0.0000

> <Gold.Chemscore.Lipo>
46.3638

> <Gold.Chemscore.Internal_Hbond>
0.0000

> <Gold.Chemscore.DEClash>
0.1550

> <Gold.Chemscore.DEInternal>
1.4724

> <Gold.Chemscore.Rot>
1.2815

> <Gold.Chemscore.Internal.Correction>
   9.000000E+99

> <Gold.Chemscore.Hbonds>
donor molecule, donor type, donor heavy atom, donor atom, acceptor molecule, acceptor atom, score
      L1  H     7    27       P1  7948  0.95
      L1  H    10    28       P1  7948  0.97

> <Gold.Chemscore.Hbond.Weighted>
-6.4661

> <Gold.Chemscore.Metal.Weighted>
-0.0000

> <Gold.Chemscore.Lipo.Weighted>
-5.4246

> <Gold.Chemscore.Internal_Hbond.Weighted>
0.0000

> <Gold.Chemscore.DEClash.Weighted>
0.1550

> <Gold.Chemscore.DEInternal.Weighted>
1.4724

> <Gold.Chemscore.Rot.Weighted>
3.2808

> <Gold.Chemscore.Internal.Correction.Weighted>
   9.000000E+99

> <Gold.Protein.RotatedTorsions>
[ 6907 6896 6895 6894 ] final  -95.25 input  -60.11 | X-H torsion
[ 7974 7965 7964 7962 ] final  -89.83 input  175.53 | X-H torsion
[ 8008 7997 7996 7995 ] final  125.45 input   59.86 | X-H torsion
[ 10167 10162 10161 10158 ] final  161.69 input  -65.29 | X-H torsion
[ 10718 10713 10712 10709 ] final  137.18 input   66.30 | X-H torsion
[ 10763 10752 10751 10750 ] final   44.83 input  -60.55 | X-H torsion
[ 11005 11000 10999 10996 ] final   86.27 input  -57.11 | X-H torsion

> <Gold.Protein.ActiveResidues>
 VAL166  LYS551  ARG553  GLY616  TRP617  ASP618  TYR619  PRO620  LYS621  CYS622 
 ASP623  PHE694  ASN695  SER759  ASP760  ASP761  ALA762  ILE779  LEU786  VAL792 
 PHE793  MET794  SER795  GLU796  ALA797  LYS798  CYS799  TRP800  GLU811  SER814 

> <Gold.Protein.RotatedAtoms>
  150.6959  134.1687  159.4203 H   0  0  0  0  0  0  0  0  0  0  0  0  # atno 6907 bound_to 6896
  151.9665  135.0095  160.0560 H   0  0  0  0  0  0  0  0  0  0  0  0  # atno 6908 bound_to 6896
  152.1880  133.4718  159.5029 H   0  0  0  0  0  0  0  0  0  0  0  0  # atno 6909 bound_to 6896
  145.4345  140.9557  143.2109 H   0  0  0  0  0  0  0  0  0  0  0  0  # atno 7974 bound_to 7965
  156.2834  140.2716  156.1952 H   0  0  0  0  0  0  0  0  0  0  0  0  # atno 8008 bound_to 7997
  155.0417  140.0386  157.2530 H   0  0  0  0  0  0  0  0  0  0  0  0  # atno 8009 bound_to 7997
  154.7268  140.2699  155.6497 H   0  0  0  0  0  0  0  0  0  0  0  0  # atno 8010 bound_to 7997
  139.4852  144.4512  151.8828 H   0  0  0  0  0  0  0  0  0  0  0  0  # atno 10167 bound_to 10162
  157.4388  131.1055  151.0167 H   0  0  0  0  0  0  0  0  0  0  0  0  # atno 10718 bound_to 10713
  152.9834  135.6058  154.3337 H   0  0  0  0  0  0  0  0  0  0  0  0  # atno 10763 bound_to 10752
  154.3039  135.2772  155.2600 H   0  0  0  0  0  0  0  0  0  0  0  0  # atno 10764 bound_to 10752
  154.4840  135.5910  153.6466 H   0  0  0  0  0  0  0  0  0  0  0  0  # atno 10765 bound_to 10752
  139.8949  134.8344  156.2697 H   0  0  0  0  0  0  0  0  0  0  0  0  # atno 11005 bound_to 11000
  144.8161  139.5874  143.7008 LP  0  0  0  0  0  0  0  0  0  0  0  0  # atno 17320 bound_to 7965
  146.2589  139.6365  142.9375 LP  0  0  0  0  0  0  0  0  0  0  0  0  # atno 17321 bound_to 7965
  140.3968  144.2544  150.5895 LP  0  0  0  0  0  0  0  0  0  0  0  0  # atno 17342 bound_to 10162
  140.5094  143.2295  151.8558 LP  0  0  0  0  0  0  0  0  0  0  0  0  # atno 17343 bound_to 10162
  157.1038  130.5993  149.5466 LP  0  0  0  0  0  0  0  0  0  0  0  0  # atno 17370 bound_to 10713
  155.9940  130.5003  150.7405 LP  0  0  0  0  0  0  0  0  0  0  0  0  # atno 17371 bound_to 10713
  141.0109  133.7096  156.1109 LP  0  0  0  0  0  0  0  0  0  0  0  0  # atno 17394 bound_to 11000
  140.7369  134.4193  157.5559 LP  0  0  0  0  0  0  0  0  0  0  0  0  # atno 17395 bound_to 11000

$$$$
