AV-unprocessed.smi:2671|AV-procd|sdf|10349|dock6
  -GOLD-   2272014373D 1   1.00000     0.00000
 Structure written by MMmdl.
 29 30  0  0  0  0  0  0  0  0  1 V2000
  148.6872  141.6107  153.8136 O   0  0  0  0  0  0  0  0  0  0  0  0
  149.4907  141.3330  154.7009 C   0  0  0  0  0  0  0  0  0  0  0  0
  150.3133  140.1243  154.7128 C   0  0  0  0  0  0  0  0  0  0  0  0
  151.1769  139.8900  155.7308 C   0  0  0  0  0  0  0  0  0  0  0  0
  152.0405  138.6391  155.7596 C   0  0  0  0  0  0  0  0  0  0  0  0
  151.2814  137.5526  155.6212 F   0  0  0  0  0  0  0  0  0  0  0  0
  152.9188  138.6617  154.7573 F   0  0  0  0  0  0  0  0  0  0  0  0
  152.7162  138.5337  156.9050 F   0  0  0  0  0  0  0  0  0  0  0  0
  151.2987  140.8029  156.7893 N   0  0  0  0  0  0  0  0  0  0  0  0
  150.5795  141.8817  156.8013 C   0  0  0  0  0  0  0  0  0  0  0  0
  150.5333  143.2162  158.0315 S   0  0  0  0  0  0  0  0  0  0  0  0
  152.2794  143.7120  158.0832 C   0  0  0  0  0  0  0  0  0  0  0  0
  152.8146  143.7720  159.5204 C   0  0  1  0  0  0  0  0  0  0  0  0
  151.9667  144.6051  160.4840 C   0  0  0  0  0  0  0  0  0  0  0  0
  152.2102  143.9573  161.8399 C   0  0  0  0  0  0  0  0  0  0  0  0
  152.9623  142.6655  161.5107 C   0  0  0  0  0  0  0  0  0  0  0  0
  152.7782  142.4848  160.1145 O   0  0  0  0  0  0  0  0  0  0  0  0
  149.6792  142.1482  155.7639 N   0  0  0  0  0  0  0  0  0  0  0  0
  149.1353  142.9979  155.8045 H   0  0  0  0  0  0  0  0  0  0  0  0
  150.2290  139.4149  153.9023 H   0  0  0  0  0  0  0  0  0  0  0  0
  152.3736  144.6928  157.6162 H   0  0  0  0  0  0  0  0  0  0  0  0
  152.8712  143.0165  157.4868 H   0  0  0  0  0  0  0  0  0  0  0  0
  153.8474  144.1259  159.5254 H   0  0  0  0  0  0  0  0  0  0  0  0
  152.2353  145.6616  160.4660 H   0  0  0  0  0  0  0  0  0  0  0  0
  150.9093  144.5249  160.2280 H   0  0  0  0  0  0  0  0  0  0  0  0
  152.8009  144.5962  162.4972 H   0  0  0  0  0  0  0  0  0  0  0  0
  151.2629  143.7480  162.3380 H   0  0  0  0  0  0  0  0  0  0  0  0
  154.0273  142.7779  161.7195 H   0  0  0  0  0  0  0  0  0  0  0  0
  152.5937  141.8079  162.0739 H   0  0  0  0  0  0  0  0  0  0  0  0
  1  2  2  0  0  0  0
  2 18  1  0  0  0  0
  2  3  1  0  0  0  0
  3 20  1  0  0  0  0
  3  4  2  0  0  0  0
  4  5  1  0  0  0  0
  4  9  1  0  0  0  0
  5  6  1  0  0  0  0
  5  7  1  0  0  0  0
  5  8  1  0  0  0  0
  9 10  2  0  0  0  0
 10 11  1  0  0  0  0
 10 18  1  0  0  0  0
 11 12  1  0  0  0  0
 12 13  1  0  0  0  0
 12 21  1  0  0  0  0
 12 22  1  0  0  0  0
 13 17  1  0  0  0  0
 13 14  1  0  0  0  0
 13 23  1  0  0  0  0
 14 15  1  0  0  0  0
 14 24  1  0  0  0  0
 14 25  1  0  0  0  0
 15 16  1  0  0  0  0
 15 26  1  0  0  0  0
 15 27  1  0  0  0  0
 16 17  1  0  0  0  0
 16 28  1  0  0  0  0
 16 29  1  0  0  0  0
 18 19  1  0  0  0  0
M  END
> <s_m_source_file>
AV-unprocessed.smi

> <i_m_source_file_index>
2671

> <i_lp_mmshare_version>
43012

> <i_f3d_flags>
0

> <s_epik_input>
W09IXWMxW2NIXWMoQyhGKShGKUYpbmMobjEpU1tDSDJdW0NAQEhdMltDSDJdW0NIMl1bQ0gyXU8y

> <s_epik_cmdline>
J2VwaWtfcHl0aG9uJywgJy1waCcsICc3LjAnLCAnLXRuJywgJzgnLCAnLW1hJywgJzIwMCcsICctbWV0YWxfYmluZGluZycsICctaW1hZScsICc8aW5maWxlLm1hZT4nLCAnLW9tYWUnLCAnPG91dGZpbGUubWFlPic=

> <r_lp_tautomer_probability>
0.660323

> <r_epik_Ionization_Penalty>
0.14469

> <r_epik_Ionization_Penalty_Charging>
0.14469

> <r_epik_Ionization_Penalty_Neutral>
3.1007e-10

> <r_epik_State_Penalty>
0.804349

> <r_epik_Charging_Adjusted_Penalty>
0.949039

> <i_epik_Tot_Q>
0

> <i_epik_Tot_abs_Q>
0

> <r_epik_Metal_State_Penalty>
1.52783

> <b_epik_Metal_Only>
0

> <s_lp_Force_Field>
OPLS_2005

> <r_lp_Energy>
21.2292

> <b_lp_Chiralities_Consistent>
1

> <s_lp_Variant>
AV-unprocessed.smi:2671-4

> <Gold.Version>
5.8.1

> <Gold.Id.Protein>
6NUR|6NUR_protein|mol2

> <Gold.PLP.Fitness>
47.1226

> <Gold.PLP.PLP>
-43.1523

> <Gold.PLP.part.hbond>
-2.0000

> <Gold.PLP.part.metal>
0.0000

> <Gold.PLP.part.buried>
-2.5903

> <Gold.PLP.part.nonpolar>
-38.9549

> <Gold.PLP.part.repulsive>
0.3323

> <Gold.PLP.ligand.clash>
0.0000

> <Gold.PLP.ligand.torsion>
0.5073

> <Gold.PLP.Chemscore.Hbond>
1.6560

> <Gold.PLP.Chemscore.CHOScore>
0.0000

> <Gold.PLP.Chemscore.Metal>
0.0000

> <Gold.Chemscore.Hbonds>
donor molecule, donor type, donor heavy atom, donor atom, acceptor molecule, acceptor atom, score
      L1  H    18    19       P1  8028  1.00
      P1  H  8011  8017       L1     1  0.64

> <Gold.PLP.Chemscore.Internal.Correction>
0.0168

> <Gold.Rescore>
     Score         DG    S(hbond)    S(metal)    S(lipo)     H(rot)  DE(clash)    DE(int)     intcor
     15.40     -15.96       1.26        0.00      90.71       1.69       0.19       0.37       ----

> <Gold.Chemscore.Fitness>
15.3956

> <Gold.Chemscore.DG>
-15.9574

> <Gold.Chemscore.ZeroCoef>
-5.4800

> <Gold.Chemscore.Hbond>
1.2567

> <Gold.Chemscore.Metal>
0.0000

> <Gold.Chemscore.Lipo>
90.7057

> <Gold.Chemscore.Internal_Hbond>
0.0000

> <Gold.Chemscore.DEClash>
0.1907

> <Gold.Chemscore.DEInternal>
0.3711

> <Gold.Chemscore.Rot>
1.6924

> <Gold.Chemscore.Internal.Correction>
   9.000000E+99

> <Gold.Chemscore.Hbonds>
donor molecule, donor type, donor heavy atom, donor atom, acceptor molecule, acceptor atom, score
      L1  H    18    19       P1  8028  0.98
      P1  H  8011  8017       L1     1  0.34

> <Gold.Chemscore.Hbond.Weighted>
-4.1972

> <Gold.Chemscore.Metal.Weighted>
-0.0000

> <Gold.Chemscore.Lipo.Weighted>
-10.6126

> <Gold.Chemscore.Internal_Hbond.Weighted>
0.0000

> <Gold.Chemscore.DEClash.Weighted>
0.1907

> <Gold.Chemscore.DEInternal.Weighted>
0.3711

> <Gold.Chemscore.Rot.Weighted>
4.3324

> <Gold.Chemscore.Internal.Correction.Weighted>
   9.000000E+99

> <Gold.Protein.RotatedTorsions>
[ 6907 6896 6895 6894 ] final  -87.84 input  -60.11 | X-H torsion
[ 7974 7965 7964 7962 ] final  -91.56 input  175.53 | X-H torsion
[ 8008 7997 7996 7995 ] final  153.51 input   59.86 | X-H torsion
[ 10167 10162 10161 10158 ] final   12.04 input  -65.29 | X-H torsion
[ 10718 10713 10712 10709 ] final   39.41 input   66.30 | X-H torsion
[ 10763 10752 10751 10750 ] final -175.55 input  -60.55 | X-H torsion
[ 11005 11000 10999 10996 ] final  -23.53 input  -57.11 | X-H torsion

> <Gold.Protein.ActiveResidues>
 VAL166  LYS551  ARG553  GLY616  TRP617  ASP618  TYR619  PRO620  LYS621  CYS622 
 ASP623  PHE694  ASN695  SER759  ASP760  ASP761  ALA762  ILE779  LEU786  VAL792 
 PHE793  MET794  SER795  GLU796  ALA797  LYS798  CYS799  TRP800  GLU811  SER814 

> <Gold.Protein.RotatedAtoms>
  150.6867  134.2833  159.4636 H   0  0  0  0  0  0  0  0  0  0  0  0  # atno 6907 bound_to 6896
  152.0745  134.9509  160.0583 H   0  0  0  0  0  0  0  0  0  0  0  0  # atno 6908 bound_to 6896
  152.0886  133.4154  159.4570 H   0  0  0  0  0  0  0  0  0  0  0  0  # atno 6909 bound_to 6896
  145.4115  140.9545  143.2231 H   0  0  0  0  0  0  0  0  0  0  0  0  # atno 7974 bound_to 7965
  156.2578  140.1991  156.6502 H   0  0  0  0  0  0  0  0  0  0  0  0  # atno 8008 bound_to 7997
  154.6542  140.0568  157.0015 H   0  0  0  0  0  0  0  0  0  0  0  0  # atno 8009 bound_to 7997
  155.1372  140.3239  155.4463 H   0  0  0  0  0  0  0  0  0  0  0  0  # atno 8010 bound_to 7997
  140.6093  143.8441  150.7048 H   0  0  0  0  0  0  0  0  0  0  0  0  # atno 10167 bound_to 10162
  157.3703  130.7697  149.7114 H   0  0  0  0  0  0  0  0  0  0  0  0  # atno 10718 bound_to 10713
  154.5831  135.2838  155.0713 H   0  0  0  0  0  0  0  0  0  0  0  0  # atno 10763 bound_to 10752
  154.2042  135.6419  153.5099 H   0  0  0  0  0  0  0  0  0  0  0  0  # atno 10764 bound_to 10752
  153.0095  135.5476  154.6491 H   0  0  0  0  0  0  0  0  0  0  0  0  # atno 10765 bound_to 10752
  140.8760  133.7687  156.0244 H   0  0  0  0  0  0  0  0  0  0  0  0  # atno 11005 bound_to 11000
  144.8306  139.5636  143.6945 LP  0  0  0  0  0  0  0  0  0  0  0  0  # atno 17320 bound_to 7965
  146.2702  139.6617  142.9301 LP  0  0  0  0  0  0  0  0  0  0  0  0  # atno 17321 bound_to 7965
  140.2005  143.3963  152.1795 LP  0  0  0  0  0  0  0  0  0  0  0  0  # atno 17342 bound_to 10162
  139.5349  144.7199  151.4927 LP  0  0  0  0  0  0  0  0  0  0  0  0  # atno 17343 bound_to 10162
  155.9754  130.4089  150.3851 LP  0  0  0  0  0  0  0  0  0  0  0  0  # atno 17370 bound_to 10713
  157.1941  131.0422  151.2685 LP  0  0  0  0  0  0  0  0  0  0  0  0  # atno 17371 bound_to 10713
  140.8518  134.2945  157.5272 LP  0  0  0  0  0  0  0  0  0  0  0  0  # atno 17394 bound_to 11000
  139.8715  134.9471  156.3959 LP  0  0  0  0  0  0  0  0  0  0  0  0  # atno 17395 bound_to 11000

$$$$
