#       Name:                AV-unprocessed.smi:2154
#       Creating user name   scv26
#       Creation time:       Fri Mar 27 11:55:15 2020


#       File generated by GOLD software.
#

@<TRIPOS>MOLECULE
AV-unprocessed.smi:2154
    38    39     1
SMALL
NO_CHARGES


@<TRIPOS>ATOM
      1 ****        -4.4950   1.8468  -0.9234 C.3            1 S1                 0.0000
      2 ****        -3.5391   1.9452   0.2489 C.3            1 S1                 0.0000
      3 ****        -2.8535   0.7126   0.7891 C.3            1 S1                 0.0000
      4 ****        -2.0403   1.7788   0.0908 C.3            1 S1                 0.0000
      5 ****        -1.3984   1.5148  -1.2608 C.3            1 S1                 0.0000
      6 ****         0.0253   1.2107  -1.2129 N.am           1 S1                 0.0000
      7 ****         0.5477   0.0403  -0.8168 C.2            1 S1                 0.0000
      8 ****        -0.1397  -0.9216  -0.4707 O.2            1 S1                 0.0000
      9 ****         2.0799  -0.0573  -0.8384 C.3            1 S1                 0.0000
     10 ****         2.6036  -1.0863   0.0718 N.am           1 S1                 0.0000
     11 ****         2.9588  -2.3368  -0.4141 C.2            1 S1                 0.0000
     12 ****         3.4402  -3.3318   0.3682 C.2            1 S1                 0.0000
     13 ****         3.6112  -3.1265   1.8025 C.2            1 S1                 0.0000
     14 ****         4.0410  -3.9639   2.5927 O.2            1 S1                 0.0000
     15 ****         3.2397  -1.8571   2.2538 N.am           1 S1                 0.0000
     16 ****         2.7416  -0.8279   1.4531 C.2            1 S1                 0.0000
     17 ****         2.4408   0.2549   1.9544 O.2            1 S1                 0.0000
     18 ****         3.3380  -1.6695   3.2410 H              1 S1                 0.0000
     19 ****        -4.2286   1.0220  -1.5841 H              1 S1                 0.0000
     20 ****        -4.4805   2.7737  -1.4969 H              1 S1                 0.0000
     21 ****        -5.5095   1.6786  -0.5617 H              1 S1                 0.0000
     22 ****        -3.8461   2.6823   0.9885 H              1 S1                 0.0000
     23 ****        -2.7461   0.6283   1.8684 H              1 S1                 0.0000
     24 ****        -3.0102  -0.2277   0.2641 H              1 S1                 0.0000
     25 ****        -1.4425   2.4254   0.7307 H              1 S1                 0.0000
     26 ****        -1.9255   0.7103  -1.7756 H              1 S1                 0.0000
     27 ****        -1.5228   2.4066  -1.8752 H              1 S1                 0.0000
     28 ****         0.6597   1.9465  -1.4881 H              1 S1                 0.0000
     29 ****         2.3907  -0.2647  -1.8633 H              1 S1                 0.0000
     30 ****         2.5168   0.9139  -0.5962 H              1 S1                 0.0000
     31 ****         2.8447  -2.5357  -1.4703 H              1 S1                 0.0000
     32 ****         3.6993  -4.2852  -0.0691 H              1 S1                 0.0000
     33 ****        -1.1373  -0.8513  -0.4767 LP             1 S1                 0.0000
     34 ****         0.2998  -1.7728  -0.1837 LP             1 S1                 0.0000
     35 ****         4.3056  -4.8709   2.2652 LP             1 S1                 0.0000
     36 ****         4.1260  -3.7382   3.5632 LP             1 S1                 0.0000
     37 ****         2.0839   0.9905   1.3786 LP             1 S1                 0.0000
     38 ****         2.5531   0.3992   2.9375 LP             1 S1                 0.0000
@<TRIPOS>BOND
    1    1    2 1     
    2    1   19 1     
    3    1   20 1     
    4    1   21 1     
    5    2    4 1     
    6    2    3 1     
    7    2   22 1     
    8    3    4 1     
    9    3   23 1     
   10    3   24 1     
   11    4    5 1     
   12    4   25 1     
   13    5    6 1     
   14    5   26 1     
   15    5   27 1     
   16    6    7 am    
   17    6   28 1     
   18    7    8 2     
   19    7    9 1     
   20    9   10 1     
   21    9   29 1     
   22    9   30 1     
   23   10   16 1     
   24   10   11 1     
   25   11   12 2     
   26   11   31 1     
   27   12   13 1     
   28   12   32 1     
   29   13   14 2     
   30   13   15 1     
   31   15   18 1     
   32   15   16 1     
   33   16   17 2     
   34    8   33 1     
   35    8   34 1     
   36   14   35 1     
   37   14   36 1     
   38   17   37 1     
   39   17   38 1     
@<TRIPOS>SUBSTRUCTURE
      1 S1             1
@<TRIPOS>SET
LONE_PAIRS      STATIC     ATOMS    <user>   **** ""
6 33 34 35 36 37 38
DONOR_HYDROGENS      STATIC     ATOMS    <user>   **** ""
2 28 18
ATOM$BLUE        STATIC     ATOMS    COLORGROUP SYSTEM
6 33 34 35 36 37 38
ATOM$RED        STATIC     ATOMS    COLORGROUP SYSTEM
2 28 18
