AV-unprocessed.smi:3185|AV-procd|sdf|12168|dock6
  -GOLD-   2272018 03D 1   1.00000     0.00000
 Structure written by MMmdl.
 38 39  0  0  0  0  0  0  0  0  2 V2000
  146.8126  138.5406  151.0538 N   0  0  0  0  0  0  0  0  0  0  0  0
  146.8535  139.0486  152.0920 C   0  0  0  0  0  0  0  0  0  0  0  0
  146.9103  139.6951  153.4127 C   0  0  0  0  0  0  0  0  0  0  0  0
  147.5086  141.1080  153.3670 C   0  0  0  0  0  0  0  0  0  0  0  0
  147.5658  141.7782  154.7468 C   0  0  0  0  0  0  0  0  0  0  0  0
  148.9599  142.0779  155.1353 N   0  3  0  0  0  0  0  0  0  0  0  0
  149.7005  140.9615  155.7697 C   0  0  1  0  0  0  0  0  0  0  0  0
  149.8631  139.8281  154.7369 C   0  0  0  0  0  0  0  0  0  0  0  0
  150.6682  138.6470  155.2977 C   0  0  0  0  0  0  0  0  0  0  0  0
  152.0458  139.1082  155.7908 C   0  0  0  0  0  0  0  0  0  0  0  0
  151.9052  140.2221  156.8375 C   0  0  0  0  0  0  0  0  0  0  0  0
  151.0911  141.4180  156.2951 C   0  0  2  0  0  0  0  0  0  0  0  0
  150.9917  142.4673  157.3024 N   0  0  0  0  0  0  0  0  0  0  0  0
  152.0152  143.1719  157.9026 C   0  0  0  0  0  0  0  0  0  0  0  0
  151.4466  144.0664  158.7630 C   0  0  0  0  0  0  0  0  0  0  0  0
  150.0509  143.8305  158.6234 C   0  0  0  0  0  0  0  0  0  0  0  0
  149.7816  142.8753  157.7486 N   0  0  0  0  0  0  0  0  0  0  0  0
  145.8972  139.7236  153.8144 H   0  0  0  0  0  0  0  0  0  0  0  0
  147.4996  139.0564  154.0711 H   0  0  0  0  0  0  0  0  0  0  0  0
  148.5109  141.0612  152.9395 H   0  0  0  0  0  0  0  0  0  0  0  0
  146.9128  141.7210  152.6895 H   0  0  0  0  0  0  0  0  0  0  0  0
  146.9827  142.6963  154.7304 H   0  0  0  0  0  0  0  0  0  0  0  0
  147.1141  141.1269  155.4960 H   0  0  0  0  0  0  0  0  0  0  0  0
  149.4539  142.3312  154.2916 H   0  0  0  0  0  0  0  0  0  0  0  0
  149.1100  140.5667  156.5987 H   0  0  0  0  0  0  0  0  0  0  0  0
  148.8825  139.4763  154.4136 H   0  0  0  0  0  0  0  0  0  0  0  0
  150.3619  140.2092  153.8444 H   0  0  0  0  0  0  0  0  0  0  0  0
  150.1195  138.1839  156.1190 H   0  0  0  0  0  0  0  0  0  0  0  0
  150.7858  137.8796  154.5320 H   0  0  0  0  0  0  0  0  0  0  0  0
  152.5905  138.2647  156.2164 H   0  0  0  0  0  0  0  0  0  0  0  0
  152.6386  139.4667  154.9482 H   0  0  0  0  0  0  0  0  0  0  0  0
  151.4252  139.8111  157.7269 H   0  0  0  0  0  0  0  0  0  0  0  0
  152.8953  140.5563  157.1499 H   0  0  0  0  0  0  0  0  0  0  0  0
  151.6469  141.8370  155.4543 H   0  0  0  0  0  0  0  0  0  0  0  0
  153.0527  142.9835  157.6685 H   0  0  0  0  0  0  0  0  0  0  0  0
  151.9504  144.7807  159.3973 H   0  0  0  0  0  0  0  0  0  0  0  0
  149.2314  144.3234  159.1255 H   0  0  0  0  0  0  0  0  0  0  0  0
  148.9717  142.8705  155.7610 H   0  0  0  0  0  0  0  0  0  0  0  0
  1  2  3  0  0  0  0
  2  3  1  0  0  0  0
  3  4  1  0  0  0  0
  3 18  1  0  0  0  0
  3 19  1  0  0  0  0
  4  5  1  0  0  0  0
  4 20  1  0  0  0  0
  4 21  1  0  0  0  0
  5  6  1  0  0  0  0
  5 22  1  0  0  0  0
  5 23  1  0  0  0  0
  6  7  1  0  0  0  0
  6 24  1  0  0  0  0
  6 38  1  0  0  0  0
  7 12  1  0  0  0  0
  7  8  1  0  0  0  0
  7 25  1  0  0  0  0
  8  9  1  0  0  0  0
  8 26  1  0  0  0  0
  8 27  1  0  0  0  0
  9 10  1  0  0  0  0
  9 28  1  0  0  0  0
  9 29  1  0  0  0  0
 10 11  1  0  0  0  0
 10 30  1  0  0  0  0
 10 31  1  0  0  0  0
 11 12  1  0  0  0  0
 11 32  1  0  0  0  0
 11 33  1  0  0  0  0
 12 13  1  0  0  0  0
 12 34  1  0  0  0  0
 13 17  1  0  0  0  0
 13 14  1  0  0  0  0
 14 15  2  0  0  0  0
 14 35  1  0  0  0  0
 15 16  1  0  0  0  0
 15 36  1  0  0  0  0
 16 17  2  0  0  0  0
 16 37  1  0  0  0  0
M  CHG  1   6   1
M  END
> <s_m_source_file>
AV-unprocessed.smi

> <i_m_source_file_index>
3185

> <i_lp_mmshare_version>
43012

> <i_f3d_flags>
0

> <s_epik_input>
TiNDW0NIMl1bQ0gyXVtDSDJdW05IXVtDQEBIXTFbQ0gyXVtDSDJdW0NIMl1bQ0gyXVtDQEhdMW4yW2NIXVtjSF1bY0hdbjI=

> <s_epik_cmdline>
J2VwaWtfcHl0aG9uJywgJy1waCcsICc3LjAnLCAnLXRuJywgJzgnLCAnLW1hJywgJzIwMCcsICctbWV0YWxfYmluZGluZycsICctaW1hZScsICc8aW5maWxlLm1hZT4nLCAnLW9tYWUnLCAnPG91dGZpbGUubWFlPic=

> <r_lp_tautomer_probability>
1

> <r_epik_Ionization_Penalty>
0.0143465

> <r_epik_Ionization_Penalty_Charging>
0.0143338

> <r_epik_Ionization_Penalty_Neutral>
1.27047e-05

> <r_epik_State_Penalty>
0.0112058

> <r_epik_Charging_Adjusted_Penalty>
0.0255397

> <i_epik_Tot_Q>
1

> <i_epik_Tot_abs_Q>
1

> <r_epik_Metal_State_Penalty>
0.0112253

> <b_epik_Metal_Only>
0

> <s_lp_Force_Field>
OPLS_2005

> <r_lp_Energy>
15.0666

> <b_lp_Chiralities_Consistent>
1

> <s_lp_Variant>
AV-unprocessed.smi:3185-4

> <Gold.Version>
5.8.1

> <Gold.Id.Protein>
6NUR|6NUR_protein|mol2

> <Gold.PLP.Fitness>
42.2746

> <Gold.PLP.PLP>
-34.8503

> <Gold.PLP.part.hbond>
-2.0000

> <Gold.PLP.part.metal>
0.0000

> <Gold.PLP.part.buried>
-4.7197

> <Gold.PLP.part.nonpolar>
-30.6991

> <Gold.PLP.part.repulsive>
2.1797

> <Gold.PLP.ligand.clash>
0.0000

> <Gold.PLP.ligand.torsion>
0.5510

> <Gold.PLP.Chemscore.Hbond>
2.5680

> <Gold.PLP.Chemscore.CHOScore>
0.2320

> <Gold.PLP.Chemscore.Metal>
0.0000

> <Gold.Chemscore.Hbonds>
donor molecule, donor type, donor heavy atom, donor atom, acceptor molecule, acceptor atom, score
      L1  H     6    38       P1  8028  1.54
      P1  H  7954  7966       L1     1  1.00
      L1  C    16    37       P1  8029  0.19

> <Gold.PLP.Chemscore.Internal.Correction>
0.1262

> <Gold.Rescore>
     Score         DG    S(hbond)    S(metal)    S(lipo)     H(rot)  DE(clash)    DE(int)     intcor
     12.94     -16.71       1.74        0.00      87.40       1.88       1.01       2.76       ----

> <Gold.Chemscore.Fitness>
12.9423

> <Gold.Chemscore.DG>
-16.7097

> <Gold.Chemscore.ZeroCoef>
-5.4800

> <Gold.Chemscore.Hbond>
1.7391

> <Gold.Chemscore.Metal>
0.0000

> <Gold.Chemscore.Lipo>
87.4014

> <Gold.Chemscore.Internal_Hbond>
0.0000

> <Gold.Chemscore.DEClash>
1.0114

> <Gold.Chemscore.DEInternal>
2.7560

> <Gold.Chemscore.Rot>
1.8769

> <Gold.Chemscore.Internal.Correction>
   9.000000E+99

> <Gold.Chemscore.Hbonds>
donor molecule, donor type, donor heavy atom, donor atom, acceptor molecule, acceptor atom, score
      L1  H     6    38       P1  8028  0.76
      P1  H  7954  7966       L1     1  0.96

> <Gold.Chemscore.Hbond.Weighted>
-5.8087

> <Gold.Chemscore.Metal.Weighted>
-0.0000

> <Gold.Chemscore.Lipo.Weighted>
-10.2260

> <Gold.Chemscore.Internal_Hbond.Weighted>
0.0000

> <Gold.Chemscore.DEClash.Weighted>
1.0114

> <Gold.Chemscore.DEInternal.Weighted>
2.7560

> <Gold.Chemscore.Rot.Weighted>
4.8049

> <Gold.Chemscore.Internal.Correction.Weighted>
   9.000000E+99

> <Gold.Protein.RotatedTorsions>
[ 6907 6896 6895 6894 ] final   62.51 input  -60.11 | X-H torsion
[ 7974 7965 7964 7962 ] final  -26.00 input  175.53 | X-H torsion
[ 8008 7997 7996 7995 ] final   48.81 input   59.86 | X-H torsion
[ 10167 10162 10161 10158 ] final -147.78 input  -65.29 | X-H torsion
[ 10718 10713 10712 10709 ] final  -72.29 input   66.30 | X-H torsion
[ 10763 10752 10751 10750 ] final  -66.66 input  -60.55 | X-H torsion
[ 11005 11000 10999 10996 ] final  167.39 input  -57.11 | X-H torsion

> <Gold.Protein.ActiveResidues>
 VAL166  LYS551  ARG553  GLY616  TRP617  ASP618  TYR619  PRO620  LYS621  CYS622 
 ASP623  PHE694  ASN695  SER759  ASP760  ASP761  ALA762  ILE779  LEU786  VAL792 
 PHE793  MET794  SER795  GLU796  ALA797  LYS798  CYS799  TRP800  GLU811  SER814 

> <Gold.Protein.RotatedAtoms>
  152.4178  134.6010  159.9999 H   0  0  0  0  0  0  0  0  0  0  0  0  # atno 6907 bound_to 6896
  151.6168  133.3337  159.3087 H   0  0  0  0  0  0  0  0  0  0  0  0  # atno 6908 bound_to 6896
  150.8066  134.7234  159.6716 H   0  0  0  0  0  0  0  0  0  0  0  0  # atno 6909 bound_to 6896
  146.1454  140.4962  142.8634 H   0  0  0  0  0  0  0  0  0  0  0  0  # atno 7974 bound_to 7965
  155.3919  140.3433  155.4252 H   0  0  0  0  0  0  0  0  0  0  0  0  # atno 8008 bound_to 7997
  156.1553  140.1583  156.8736 H   0  0  0  0  0  0  0  0  0  0  0  0  # atno 8009 bound_to 7997
  154.5089  140.0795  156.7931 H   0  0  0  0  0  0  0  0  0  0  0  0  # atno 8010 bound_to 7997
  139.7590  143.8404  152.2603 H   0  0  0  0  0  0  0  0  0  0  0  0  # atno 10167 bound_to 10162
  156.0326  130.4369  150.2570 H   0  0  0  0  0  0  0  0  0  0  0  0  # atno 10718 bound_to 10713
  154.3631  135.6111  153.5701 H   0  0  0  0  0  0  0  0  0  0  0  0  # atno 10763 bound_to 10752
  152.9793  135.5820  154.4610 H   0  0  0  0  0  0  0  0  0  0  0  0  # atno 10764 bound_to 10752
  154.4351  135.2849  155.1863 H   0  0  0  0  0  0  0  0  0  0  0  0  # atno 10765 bound_to 10752
  140.2763  134.7786  157.3719 H   0  0  0  0  0  0  0  0  0  0  0  0  # atno 11005 bound_to 11000
  144.7840  140.5899  143.6586 LP  0  0  0  0  0  0  0  0  0  0  0  0  # atno 17320 bound_to 7965
  145.4949  139.1486  143.3689 LP  0  0  0  0  0  0  0  0  0  0  0  0  # atno 17321 bound_to 7965
  139.8405  144.7212  150.9337 LP  0  0  0  0  0  0  0  0  0  0  0  0  # atno 17342 bound_to 10162
  140.7805  143.3988  151.1185 LP  0  0  0  0  0  0  0  0  0  0  0  0  # atno 17343 bound_to 10162
  157.0672  131.0106  151.3202 LP  0  0  0  0  0  0  0  0  0  0  0  0  # atno 17370 bound_to 10713
  157.5027  130.7889  149.7621 LP  0  0  0  0  0  0  0  0  0  0  0  0  # atno 17371 bound_to 10713
  140.1325  134.5076  155.8094 LP  0  0  0  0  0  0  0  0  0  0  0  0  # atno 17394 bound_to 11000
  141.2170  133.6795  156.7065 LP  0  0  0  0  0  0  0  0  0  0  0  0  # atno 17395 bound_to 11000

$$$$
