AV-unprocessed.smi:1827|AV-procd|sdf|7420|dock2
  -GOLD-   22720 9103D 1   1.00000     0.00000
 Structure written by MMmdl.
 44 45  0  0  0  0  0  0  0  0  2 V2000
  149.4448  138.9751  154.4071 C   0  0  0  0  0  0  0  0  0  0  0  0
  148.6736  140.2632  154.3239 C   0  0  0  0  0  0  0  0  0  0  0  0
  149.1556  141.3340  154.9415 N   0  0  0  0  0  0  0  0  0  0  0  0
  148.2928  142.3260  154.6341 N   0  0  0  0  0  0  0  0  0  0  0  0
  147.2554  141.9201  153.8255 C   0  0  0  0  0  0  0  0  0  0  0  0
  146.1944  142.8561  153.3507 C   0  0  0  0  0  0  0  0  0  0  0  0
  147.4625  140.5848  153.6340 C   0  0  0  0  0  0  0  0  0  0  0  0
  146.6395  139.7580  152.8288 N   0  0  0  0  0  0  0  0  0  0  0  0
  146.5096  138.4251  152.9073 C   0  0  0  0  0  0  0  0  0  0  0  0
  147.0847  137.7059  153.7235 O   0  0  0  0  0  0  0  0  0  0  0  0
  145.6491  137.9630  151.9888 N   0  0  0  0  0  0  0  0  0  0  0  0
  145.2805  136.5611  151.8150 C   0  0  2  0  0  0  0  0  0  0  0  0
  146.5329  135.6746  151.6842 C   0  0  0  0  0  0  0  0  0  0  0  0
  146.1522  134.2127  151.3987 C   0  0  0  0  0  0  0  0  0  0  0  0
  145.3094  134.1054  150.1807 N   0  3  1  0  0  0  0  0  0  0  0  0
  145.0413  132.6941  149.8007 C   0  0  0  0  0  0  0  0  0  0  0  0
  143.9283  132.5553  148.7570 C   0  0  0  0  0  0  0  0  0  0  0  0
  144.0345  133.3076  147.6595 N   0  0  0  0  0  0  0  0  0  0  0  0
  142.9794  131.7950  148.9413 O   0  0  0  0  0  0  0  0  0  0  0  0
  144.0723  134.9233  150.2999 C   0  0  0  0  0  0  0  0  0  0  0  0
  144.4068  136.4016  150.5603 C   0  0  0  0  0  0  0  0  0  0  0  0
  148.4280  143.2673  154.9745 H   0  0  0  0  0  0  0  0  0  0  0  0
  149.3547  138.3994  153.4860 H   0  0  0  0  0  0  0  0  0  0  0  0
  149.0845  138.3564  155.2287 H   0  0  0  0  0  0  0  0  0  0  0  0
  150.5075  139.1556  154.5729 H   0  0  0  0  0  0  0  0  0  0  0  0
  145.6076  142.4109  152.5470 H   0  0  0  0  0  0  0  0  0  0  0  0
  146.6321  143.7803  152.9731 H   0  0  0  0  0  0  0  0  0  0  0  0
  145.5133  143.1102  154.1630 H   0  0  0  0  0  0  0  0  0  0  0  0
  146.0172  140.2388  152.1961 H   0  0  0  0  0  0  0  0  0  0  0  0
  145.2172  138.6299  151.3659 H   0  0  0  0  0  0  0  0  0  0  0  0
  144.7006  136.2366  152.6815 H   0  0  0  0  0  0  0  0  0  0  0  0
  147.1692  136.0470  150.8799 H   0  0  0  0  0  0  0  0  0  0  0  0
  147.1291  135.7238  152.5963 H   0  0  0  0  0  0  0  0  0  0  0  0
  147.0627  133.6265  151.2699 H   0  0  0  0  0  0  0  0  0  0  0  0
  145.6189  133.7885  152.2511 H   0  0  0  0  0  0  0  0  0  0  0  0
  145.9376  132.2575  149.3582 H   0  0  0  0  0  0  0  0  0  0  0  0
  144.8115  132.1040  150.6895 H   0  0  0  0  0  0  0  0  0  0  0  0
  143.3324  133.2536  146.9355 H   0  0  0  0  0  0  0  0  0  0  0  0
  144.8241  133.9288  147.5533 H   0  0  0  0  0  0  0  0  0  0  0  0
  143.4816  134.8481  149.3866 H   0  0  0  0  0  0  0  0  0  0  0  0
  143.4521  134.5316  151.1077 H   0  0  0  0  0  0  0  0  0  0  0  0
  143.4843  136.9731  150.6712 H   0  0  0  0  0  0  0  0  0  0  0  0
  144.9233  136.8132  149.6916 H   0  0  0  0  0  0  0  0  0  0  0  0
  145.8515  134.4992  149.4244 H   0  0  0  0  0  0  0  0  0  0  0  0
  1  2  1  0  0  0  0
  1 23  1  0  0  0  0
  1 24  1  0  0  0  0
  1 25  1  0  0  0  0
  2  7  1  0  0  0  0
  2  3  2  0  0  0  0
  3  4  1  0  0  0  0
  4 22  1  0  0  0  0
  4  5  1  0  0  0  0
  5  6  1  0  0  0  0
  5  7  2  0  0  0  0
  6 26  1  0  0  0  0
  6 27  1  0  0  0  0
  6 28  1  0  0  0  0
  7  8  1  0  0  0  0
  8  9  1  0  0  0  0
  8 29  1  0  0  0  0
  9 10  2  0  0  0  0
  9 11  1  0  0  0  0
 11 12  1  0  0  0  0
 11 30  1  0  0  0  0
 12 21  1  0  0  0  0
 12 13  1  0  0  0  0
 12 31  1  0  0  0  0
 13 14  1  0  0  0  0
 13 32  1  0  0  0  0
 13 33  1  0  0  0  0
 14 15  1  0  0  0  0
 14 34  1  0  0  0  0
 14 35  1  0  0  0  0
 15 16  1  0  0  0  0
 15 20  1  0  0  0  0
 15 44  1  0  0  0  0
 16 17  1  0  0  0  0
 16 36  1  0  0  0  0
 16 37  1  0  0  0  0
 17 18  1  0  0  0  0
 17 19  2  0  0  0  0
 18 38  1  0  0  0  0
 18 39  1  0  0  0  0
 20 21  1  0  0  0  0
 20 40  1  0  0  0  0
 20 41  1  0  0  0  0
 21 42  1  0  0  0  0
 21 43  1  0  0  0  0
M  CHG  1  15   1
M  END
> <s_m_source_file>
AV-unprocessed.smi

> <i_m_source_file_index>
1827

> <i_lp_mmshare_version>
43012

> <i_f3d_flags>
0

> <s_epik_input>
W0NIM11jMW5bbkhdYyhbQ0gzXSljMVtOSF1DKD1PKVtOSF1bQ0hdMltDSDJdW0NIMl1OKFtDSDJdW0NIMl0yKVtDSDJdQyg9TylbTkgyXQ==

> <s_epik_cmdline>
J2VwaWtfcHl0aG9uJywgJy1waCcsICc3LjAnLCAnLXRuJywgJzgnLCAnLW1hJywgJzIwMCcsICctbWV0YWxfYmluZGluZycsICctaW1hZScsICc8aW5maWxlLm1hZT4nLCAnLW9tYWUnLCAnPG91dGZpbGUubWFlPic=

> <r_lp_tautomer_probability>
0.5

> <r_epik_Ionization_Penalty>
0.839233

> <r_epik_Ionization_Penalty_Charging>
0.838844

> <r_epik_Ionization_Penalty_Neutral>
0.000388936

> <r_epik_State_Penalty>
0.8734

> <r_epik_Charging_Adjusted_Penalty>
1.71224

> <i_epik_Tot_Q>
1

> <i_epik_Tot_abs_Q>
1

> <r_epik_Metal_State_Penalty>
0.890753

> <b_epik_Metal_Only>
0

> <s_lp_Force_Field>
OPLS_2005

> <r_lp_Energy>
15.4281

> <b_lp_Chiralities_Consistent>
1

> <s_lp_Variant>
AV-unprocessed.smi:1827-2

> <Gold.Version>
5.8.1

> <Gold.Id.Protein>
6NUR|6NUR_protein|mol2

> <Gold.PLP.Fitness>
48.2350

> <Gold.PLP.PLP>
-30.1341

> <Gold.PLP.part.hbond>
-7.9294

> <Gold.PLP.part.metal>
0.0000

> <Gold.PLP.part.buried>
2.1164

> <Gold.PLP.part.nonpolar>
-30.6332

> <Gold.PLP.part.repulsive>
4.8634

> <Gold.PLP.ligand.clash>
0.0000

> <Gold.PLP.ligand.torsion>
0.3956

> <Gold.PLP.Chemscore.Hbond>
6.1840

> <Gold.PLP.Chemscore.CHOScore>
0.0000

> <Gold.PLP.Chemscore.Metal>
0.0000

> <Gold.Chemscore.Hbonds>
donor molecule, donor type, donor heavy atom, donor atom, acceptor molecule, acceptor atom, score
      L1  H     4    22       P1  8028  1.00
      L1  H     8    29       P1 10175  0.10
      L1  H    11    30       P1 10171  0.74
      L1  H    15    44       P1  7921  1.00
      L1  H    18    38       P1 10195  0.89
      L1  H    18    39       P1  7921  1.00
      P1  H 10785 10796       L1    19  1.00

> <Gold.PLP.Chemscore.Internal.Correction>
0.3400

> <Gold.Rescore>
     Score         DG    S(hbond)    S(metal)    S(lipo)     H(rot)  DE(clash)    DE(int)     intcor
     19.40     -28.92       6.04        0.00      71.51       1.98       5.63       3.90       ----

> <Gold.Chemscore.Fitness>
19.4020

> <Gold.Chemscore.DG>
-28.9229

> <Gold.Chemscore.ZeroCoef>
-5.4800

> <Gold.Chemscore.Hbond>
6.0351

> <Gold.Chemscore.Metal>
0.0000

> <Gold.Chemscore.Lipo>
71.5108

> <Gold.Chemscore.Internal_Hbond>
0.0000

> <Gold.Chemscore.DEClash>
5.6254

> <Gold.Chemscore.DEInternal>
3.8955

> <Gold.Chemscore.Rot>
1.9848

> <Gold.Chemscore.Internal.Correction>
   9.000000E+99

> <Gold.Chemscore.Hbonds>
donor molecule, donor type, donor heavy atom, donor atom, acceptor molecule, acceptor atom, score
      L1  H     4    22       P1  8028  0.99
      L1  H     8    29       P1 10175  0.06
      L1  H    11    30       P1 10171  0.69
      L1  H    15    44       P1  7921  0.67
      L1  H    18    38       P1 10195  0.86
      L1  H    18    39       P1  7921  0.91
      P1  H 10785 10796       L1    19  0.95

> <Gold.Chemscore.Hbond.Weighted>
-20.1571

> <Gold.Chemscore.Metal.Weighted>
-0.0000

> <Gold.Chemscore.Lipo.Weighted>
-8.3668

> <Gold.Chemscore.Internal_Hbond.Weighted>
0.0000

> <Gold.Chemscore.DEClash.Weighted>
5.6254

> <Gold.Chemscore.DEInternal.Weighted>
3.8955

> <Gold.Chemscore.Rot.Weighted>
5.0810

> <Gold.Chemscore.Internal.Correction.Weighted>
   9.000000E+99

> <Gold.Protein.RotatedTorsions>
[ 6907 6896 6895 6894 ] final -115.65 input  -60.11 | X-H torsion
[ 7974 7965 7964 7962 ] final  -26.89 input  175.53 | X-H torsion
[ 8008 7997 7996 7995 ] final  152.88 input   59.86 | X-H torsion
[ 10167 10162 10161 10158 ] final  -42.25 input  -65.29 | X-H torsion
[ 10718 10713 10712 10709 ] final  -45.31 input   66.30 | X-H torsion
[ 10763 10752 10751 10750 ] final  -55.42 input  -60.55 | X-H torsion
[ 11005 11000 10999 10996 ] final   36.37 input  -57.11 | X-H torsion

> <Gold.Protein.ActiveResidues>
 VAL166  LYS551  ARG553  GLY616  TRP617  ASP618  TYR619  PRO620  LYS621  CYS622 
 ASP623  PHE694  ASN695  SER759  ASP760  ASP761  ALA762  ILE779  LEU786  VAL792 
 PHE793  MET794  SER795  GLU796  ALA797  LYS798  CYS799  TRP800  GLU811  SER814 

> <Gold.Protein.RotatedAtoms>
  150.7994  133.8628  159.3236 H   0  0  0  0  0  0  0  0  0  0  0  0  # atno 6907 bound_to 6896
  151.6444  135.1007  160.0157 H   0  0  0  0  0  0  0  0  0  0  0  0  # atno 6908 bound_to 6896
  152.4080  133.6879  159.6408 H   0  0  0  0  0  0  0  0  0  0  0  0  # atno 6909 bound_to 6896
  146.1395  140.5080  142.8658 H   0  0  0  0  0  0  0  0  0  0  0  0  # atno 7974 bound_to 7965
  156.2608  140.2008  156.6403 H   0  0  0  0  0  0  0  0  0  0  0  0  # atno 8008 bound_to 7997
  154.6614  140.0560  157.0091 H   0  0  0  0  0  0  0  0  0  0  0  0  # atno 8009 bound_to 7997
  155.1270  140.3230  155.4486 H   0  0  0  0  0  0  0  0  0  0  0  0  # atno 8010 bound_to 7997
  140.6975  143.3048  151.3182 H   0  0  0  0  0  0  0  0  0  0  0  0  # atno 10167 bound_to 10162
  156.2296  130.4171  149.8891 H   0  0  0  0  0  0  0  0  0  0  0  0  # atno 10718 bound_to 10713
  154.1906  135.6428  153.5059 H   0  0  0  0  0  0  0  0  0  0  0  0  # atno 10763 bound_to 10752
  153.0036  135.5427  154.6419 H   0  0  0  0  0  0  0  0  0  0  0  0  # atno 10764 bound_to 10752
  154.5807  135.2925  155.0708 H   0  0  0  0  0  0  0  0  0  0  0  0  # atno 10765 bound_to 10752
  140.2332  134.3502  155.7955 H   0  0  0  0  0  0  0  0  0  0  0  0  # atno 11005 bound_to 11000
  144.7776  140.5773  143.6627 LP  0  0  0  0  0  0  0  0  0  0  0  0  # atno 17320 bound_to 7965
  145.5080  139.1480  143.3620 LP  0  0  0  0  0  0  0  0  0  0  0  0  # atno 17321 bound_to 7965
  139.6450  144.0468  152.2584 LP  0  0  0  0  0  0  0  0  0  0  0  0  # atno 17342 bound_to 10162
  139.9986  144.6310  150.7750 LP  0  0  0  0  0  0  0  0  0  0  0  0  # atno 17343 bound_to 10162
  156.6510  130.8743  151.3531 LP  0  0  0  0  0  0  0  0  0  0  0  0  # atno 17370 bound_to 10713
  157.7127  130.9459  150.1144 LP  0  0  0  0  0  0  0  0  0  0  0  0  # atno 17371 bound_to 10713
  141.2216  133.7257  156.8766 LP  0  0  0  0  0  0  0  0  0  0  0  0  # atno 17394 bound_to 11000
  140.1728  134.9088  157.2855 LP  0  0  0  0  0  0  0  0  0  0  0  0  # atno 17395 bound_to 11000

$$$$
