AV-unprocessed.smi:1324|AV-procd|sdf|5470|dock9
  -GOLD-   22720 5 43D 1   1.00000     0.00000
 Structure written by MMmdl.
 43 44  0  0  0  0  0  0  0  0  1 V2000
  146.2017  137.9329  152.2917 C   0  0  0  0  0  0  0  0  0  0  0  0
  147.0607  138.9761  152.9731 C   0  0  0  0  0  0  0  0  0  0  0  0
  146.3977  140.1664  153.2224 N   0  0  0  0  0  0  0  0  0  0  0  0
  147.0999  141.1787  153.8522 C   0  0  0  0  0  0  0  0  0  0  0  0
  146.2994  142.4465  154.0930 C   0  0  0  0  0  0  0  0  0  0  0  0
  148.3997  141.0164  154.2077 C   0  0  0  0  0  0  0  0  0  0  0  0
  149.2122  142.1087  154.9032 C   0  0  0  0  0  0  0  0  0  0  0  0
  149.7970  141.7543  156.2733 C   0  0  0  0  0  0  0  0  0  0  0  0
  149.5082  140.6921  156.8254 O   0  0  0  0  0  0  0  0  0  0  0  0
  150.6229  142.6651  156.8112 N   0  0  0  0  0  0  0  0  0  0  0  0
  151.2956  142.5459  158.1033 C   0  0  0  0  0  0  0  0  0  0  0  0
  152.0259  143.8725  158.4169 C   0  0  0  0  0  0  0  0  0  0  0  0
  153.1055  143.8398  159.5135 C   0  0  0  0  0  0  0  0  0  0  0  0
  152.8191  142.9154  160.7068 C   0  0  0  0  0  0  0  0  0  0  0  0
  153.2752  141.4688  160.4550 C   0  0  0  0  0  0  0  0  0  0  0  0
  152.3850  140.6736  159.4894 C   0  0  0  0  0  0  0  0  0  0  0  0
  152.2039  141.2992  158.0941 C   0  0  0  0  0  0  0  0  0  0  0  0
  149.0601  139.7260  153.8994 C   0  0  0  0  0  0  0  0  0  0  0  0
  150.2421  139.5256  154.1757 O   0  0  0  0  0  0  0  0  0  0  0  0
  148.2994  138.7262  153.2713 N   0  0  0  0  0  0  0  0  0  0  0  0
  145.4327  140.3299  152.9736 H   0  0  0  0  0  0  0  0  0  0  0  0
  146.7014  136.9634  152.2805 H   0  0  0  0  0  0  0  0  0  0  0  0
  145.9991  138.2249  151.2608 H   0  0  0  0  0  0  0  0  0  0  0  0
  145.2513  137.8184  152.8143 H   0  0  0  0  0  0  0  0  0  0  0  0
  146.2146  142.6461  155.1614 H   0  0  0  0  0  0  0  0  0  0  0  0
  145.2903  142.3686  153.6863 H   0  0  0  0  0  0  0  0  0  0  0  0
  146.7857  143.2993  153.6188 H   0  0  0  0  0  0  0  0  0  0  0  0
  148.6165  143.0170  155.0018 H   0  0  0  0  0  0  0  0  0  0  0  0
  150.0414  142.3908  154.2543 H   0  0  0  0  0  0  0  0  0  0  0  0
  150.7995  143.5089  156.2858 H   0  0  0  0  0  0  0  0  0  0  0  0
  150.5263  142.3864  158.8612 H   0  0  0  0  0  0  0  0  0  0  0  0
  152.4896  144.2612  157.5091 H   0  0  0  0  0  0  0  0  0  0  0  0
  151.2741  144.6120  158.6959 H   0  0  0  0  0  0  0  0  0  0  0  0
  154.0644  143.5689  159.0698 H   0  0  0  0  0  0  0  0  0  0  0  0
  153.2398  144.8584  159.8791 H   0  0  0  0  0  0  0  0  0  0  0  0
  153.3781  143.2917  161.5641 H   0  0  0  0  0  0  0  0  0  0  0  0
  151.7679  142.9564  160.9949 H   0  0  0  0  0  0  0  0  0  0  0  0
  154.3047  141.4631  160.0953 H   0  0  0  0  0  0  0  0  0  0  0  0
  153.2956  140.9405  161.4087 H   0  0  0  0  0  0  0  0  0  0  0  0
  152.8203  139.6810  159.3698 H   0  0  0  0  0  0  0  0  0  0  0  0
  151.4081  140.5091  159.9457 H   0  0  0  0  0  0  0  0  0  0  0  0
  151.7480  140.5344  157.4635 H   0  0  0  0  0  0  0  0  0  0  0  0
  153.1686  141.5224  157.6370 H   0  0  0  0  0  0  0  0  0  0  0  0
  1 22  1  0  0  0  0
  1 23  1  0  0  0  0
  1 24  1  0  0  0  0
  1  2  1  0  0  0  0
  2  3  1  0  0  0  0
  2 20  2  0  0  0  0
  3  4  1  0  0  0  0
  3 21  1  0  0  0  0
  4  6  2  0  0  0  0
  4  5  1  0  0  0  0
  5 25  1  0  0  0  0
  5 26  1  0  0  0  0
  5 27  1  0  0  0  0
  6 18  1  0  0  0  0
  6  7  1  0  0  0  0
  7  8  1  0  0  0  0
  7 28  1  0  0  0  0
  7 29  1  0  0  0  0
  8  9  2  0  0  0  0
  8 10  1  0  0  0  0
 10 11  1  0  0  0  0
 10 30  1  0  0  0  0
 11 17  1  0  0  0  0
 11 12  1  0  0  0  0
 11 31  1  0  0  0  0
 12 13  1  0  0  0  0
 12 32  1  0  0  0  0
 12 33  1  0  0  0  0
 13 14  1  0  0  0  0
 13 34  1  0  0  0  0
 13 35  1  0  0  0  0
 14 15  1  0  0  0  0
 14 36  1  0  0  0  0
 14 37  1  0  0  0  0
 15 16  1  0  0  0  0
 15 38  1  0  0  0  0
 15 39  1  0  0  0  0
 16 17  1  0  0  0  0
 16 40  1  0  0  0  0
 16 41  1  0  0  0  0
 17 42  1  0  0  0  0
 17 43  1  0  0  0  0
 18 19  2  0  0  0  0
 18 20  1  0  0  0  0
M  END
> <s_m_source_file>
AV-unprocessed.smi

> <i_m_source_file_index>
1324

> <i_lp_mmshare_version>
43012

> <i_f3d_flags>
0

> <s_epik_input>
W0NIM11jMW5jKFtDSDNdKWMoYyg9TylbbkhdMSlbQ0gyXUMoPU8pW05IXVtDSF0yW0NIMl1bQ0gyXVtDSDJdW0NIMl1bQ0gyXVtDSDJdMg==

> <s_epik_cmdline>
J2VwaWtfcHl0aG9uJywgJy1waCcsICc3LjAnLCAnLXRuJywgJzgnLCAnLW1hJywgJzIwMCcsICctbWV0YWxfYmluZGluZycsICctaW1hZScsICc8aW5maWxlLm1hZT4nLCAnLW9tYWUnLCAnPG91dGZpbGUubWFlPic=

> <r_lp_tautomer_probability>
0.156392

> <r_epik_Ionization_Penalty>
0.0140222

> <r_epik_Ionization_Penalty_Charging>
0.0138986

> <r_epik_Ionization_Penalty_Neutral>
0.000123575

> <r_epik_State_Penalty>
1.53084

> <r_epik_Charging_Adjusted_Penalty>
1.54474

> <i_epik_Tot_Q>
0

> <i_epik_Tot_abs_Q>
0

> <r_epik_Metal_State_Penalty>
1.70646

> <b_epik_Metal_Only>
0

> <s_lp_Force_Field>
OPLS_2005

> <r_lp_Energy>
20.3035

> <b_lp_Chiralities_Consistent>
1

> <s_lp_Variant>
AV-unprocessed.smi:1324-2

> <Gold.Version>
5.8.1

> <Gold.Id.Protein>
6NUR|6NUR_protein|mol2

> <Gold.PLP.Fitness>
45.7075

> <Gold.PLP.PLP>
-39.6650

> <Gold.PLP.part.hbond>
-3.0000

> <Gold.PLP.part.metal>
0.0000

> <Gold.PLP.part.buried>
1.2304

> <Gold.PLP.part.nonpolar>
-40.5839

> <Gold.PLP.part.repulsive>
4.2379

> <Gold.PLP.ligand.clash>
0.0000

> <Gold.PLP.ligand.torsion>
0.0641

> <Gold.PLP.Chemscore.Hbond>
2.0505

> <Gold.PLP.Chemscore.CHOScore>
0.0000

> <Gold.PLP.Chemscore.Metal>
0.0000

> <Gold.Chemscore.Hbonds>
donor molecule, donor type, donor heavy atom, donor atom, acceptor molecule, acceptor atom, score
      L1  H     3    21       P1 10175  1.00
      L1  H    10    30       P1  8028  0.07
      P1  H  7989  7998       L1    19  0.98

> <Gold.PLP.Chemscore.Internal.Correction>
0.0191

> <Gold.Rescore>
     Score         DG    S(hbond)    S(metal)    S(lipo)     H(rot)  DE(clash)    DE(int)     intcor
     17.69     -20.35       1.88        0.00     105.95       1.48       2.04       0.63       ----

> <Gold.Chemscore.Fitness>
17.6883

> <Gold.Chemscore.DG>
-20.3544

> <Gold.Chemscore.ZeroCoef>
-5.4800

> <Gold.Chemscore.Hbond>
1.8765

> <Gold.Chemscore.Metal>
0.0000

> <Gold.Chemscore.Lipo>
105.9481

> <Gold.Chemscore.Internal_Hbond>
0.0000

> <Gold.Chemscore.DEClash>
2.0393

> <Gold.Chemscore.DEInternal>
0.6268

> <Gold.Chemscore.Rot>
1.4801

> <Gold.Chemscore.Internal.Correction>
   9.000000E+99

> <Gold.Chemscore.Hbonds>
donor molecule, donor type, donor heavy atom, donor atom, acceptor molecule, acceptor atom, score
      L1  H     3    21       P1 10175  0.96
      L1  H    10    30       P1  8028  0.08
      P1  H  7989  7998       L1    19  0.86

> <Gold.Chemscore.Hbond.Weighted>
-6.2676

> <Gold.Chemscore.Metal.Weighted>
-0.0000

> <Gold.Chemscore.Lipo.Weighted>
-12.3959

> <Gold.Chemscore.Internal_Hbond.Weighted>
0.0000

> <Gold.Chemscore.DEClash.Weighted>
2.0393

> <Gold.Chemscore.DEInternal.Weighted>
0.6268

> <Gold.Chemscore.Rot.Weighted>
3.7891

> <Gold.Chemscore.Internal.Correction.Weighted>
   9.000000E+99

> <Gold.Protein.RotatedTorsions>
[ 6907 6896 6895 6894 ] final  -55.95 input  -60.11 | X-H torsion
[ 7974 7965 7964 7962 ] final  -66.93 input  175.53 | X-H torsion
[ 8008 7997 7996 7995 ] final -128.43 input   59.86 | X-H torsion
[ 10167 10162 10161 10158 ] final -109.79 input  -65.29 | X-H torsion
[ 10718 10713 10712 10709 ] final -156.74 input   66.30 | X-H torsion
[ 10763 10752 10751 10750 ] final   41.59 input  -60.55 | X-H torsion
[ 11005 11000 10999 10996 ] final  -33.72 input  -57.11 | X-H torsion

> <Gold.Protein.ActiveResidues>
 VAL166  LYS551  ARG553  GLY616  TRP617  ASP618  TYR619  PRO620  LYS621  CYS622 
 ASP623  PHE694  ASN695  SER759  ASP760  ASP761  ALA762  ILE779  LEU786  VAL792 
 PHE793  MET794  SER795  GLU796  ALA797  LYS798  CYS799  TRP800  GLU811  SER814 

> <Gold.Protein.RotatedAtoms>
  150.8208  134.7414  159.6770 H   0  0  0  0  0  0  0  0  0  0  0  0  # atno 6907 bound_to 6896
  152.4324  134.5749  159.9941 H   0  0  0  0  0  0  0  0  0  0  0  0  # atno 6908 bound_to 6896
  151.5934  133.3326  159.3068 H   0  0  0  0  0  0  0  0  0  0  0  0  # atno 6909 bound_to 6896
  145.7355  140.8977  143.0557 H   0  0  0  0  0  0  0  0  0  0  0  0  # atno 7974 bound_to 7965
  155.2626  140.0436  157.2999 H   0  0  0  0  0  0  0  0  0  0  0  0  # atno 8008 bound_to 7997
  154.5702  140.2371  155.8173 H   0  0  0  0  0  0  0  0  0  0  0  0  # atno 8009 bound_to 7997
  156.2116  140.2997  155.9753 H   0  0  0  0  0  0  0  0  0  0  0  0  # atno 8010 bound_to 7997
  140.1515  143.4195  152.1491 H   0  0  0  0  0  0  0  0  0  0  0  0  # atno 10167 bound_to 10162
  156.5307  130.8520  151.2715 H   0  0  0  0  0  0  0  0  0  0  0  0  # atno 10718 bound_to 10713
  152.9904  135.6157  154.2812 H   0  0  0  0  0  0  0  0  0  0  0  0  # atno 10763 bound_to 10752
  154.2542  135.2784  155.2806 H   0  0  0  0  0  0  0  0  0  0  0  0  # atno 10764 bound_to 10752
  154.5262  135.5801  153.6778 H   0  0  0  0  0  0  0  0  0  0  0  0  # atno 10765 bound_to 10752
  140.9658  133.7138  156.1442 H   0  0  0  0  0  0  0  0  0  0  0  0  # atno 11005 bound_to 11000
  144.6882  139.9390  143.7474 LP  0  0  0  0  0  0  0  0  0  0  0  0  # atno 17320 bound_to 7965
  146.0497  139.3499  143.0647 LP  0  0  0  0  0  0  0  0  0  0  0  0  # atno 17321 bound_to 7965
  139.5424  144.7268  151.4692 LP  0  0  0  0  0  0  0  0  0  0  0  0  # atno 17342 bound_to 10162
  140.6699  143.8315  150.6987 LP  0  0  0  0  0  0  0  0  0  0  0  0  # atno 17343 bound_to 10162
  157.7422  130.9885  150.2500 LP  0  0  0  0  0  0  0  0  0  0  0  0  # atno 17370 bound_to 10713
  156.3062  130.3765  149.7704 LP  0  0  0  0  0  0  0  0  0  0  0  0  # atno 17371 bound_to 10713
  140.7402  134.4159  157.5555 LP  0  0  0  0  0  0  0  0  0  0  0  0  # atno 17394 bound_to 11000
  139.8894  134.8831  156.2424 LP  0  0  0  0  0  0  0  0  0  0  0  0  # atno 17395 bound_to 11000

$$$$
