AV-unprocessed.smi:2117|AV-procd|sdf|8626|dock2
  -GOLD-   2272011373D 1   1.00000     0.00000
 Structure written by MMmdl.
 26 27  0  0  0  0  0  0  0  0  1 V2000
  150.3542  142.8103  156.3425 N   0  0  0  0  0  0  0  0  0  0  0  0
  151.2474  143.0526  157.3886 C   0  0  0  0  0  0  0  0  0  0  0  0
  151.6027  144.3787  157.7102 C   0  0  0  0  0  0  0  0  0  0  0  0
  152.5042  144.6064  158.7664 C   0  0  0  0  0  0  0  0  0  0  0  0
  153.0149  143.4933  159.4603 C   0  0  0  0  0  0  0  0  0  0  0  0
  152.6829  142.2196  159.1630 N   0  0  0  0  0  0  0  0  0  0  0  0
  151.8147  141.9970  158.1461 C   0  0  0  0  0  0  0  0  0  0  0  0
  151.4863  140.6628  157.8538 N   0  0  0  0  0  0  0  0  0  0  0  0
  151.9000  140.2385  156.5222 C   0  0  0  0  0  0  0  0  0  0  0  0
  151.3796  138.8190  156.2385 C   0  0  0  0  0  0  0  0  0  0  0  0
  151.8314  137.9309  157.2574 O   0  0  0  0  0  0  0  0  0  0  0  0
  151.3609  138.3128  158.5472 C   0  0  0  0  0  0  0  0  0  0  0  0
  151.8822  139.7188  158.8914 C   0  0  0  0  0  0  0  0  0  0  0  0
  150.0784  141.8733  156.0861 H   0  0  0  0  0  0  0  0  0  0  0  0
  149.9623  143.5687  155.8026 H   0  0  0  0  0  0  0  0  0  0  0  0
  151.1924  145.2113  157.1574 H   0  0  0  0  0  0  0  0  0  0  0  0
  152.7974  145.6095  159.0381 H   0  0  0  0  0  0  0  0  0  0  0  0
  153.7092  143.6291  160.2763 H   0  0  0  0  0  0  0  0  0  0  0  0
  151.5161  140.9356  155.7763 H   0  0  0  0  0  0  0  0  0  0  0  0
  152.9885  140.2546  156.4507 H   0  0  0  0  0  0  0  0  0  0  0  0
  150.2897  138.8068  156.1889 H   0  0  0  0  0  0  0  0  0  0  0  0
  151.7467  138.4698  155.2734 H   0  0  0  0  0  0  0  0  0  0  0  0
  150.2703  138.2858  158.5700 H   0  0  0  0  0  0  0  0  0  0  0  0
  151.7133  137.5904  159.2834 H   0  0  0  0  0  0  0  0  0  0  0  0
  152.9693  139.6984  158.9787 H   0  0  0  0  0  0  0  0  0  0  0  0
  151.4855  140.0413  159.8548 H   0  0  0  0  0  0  0  0  0  0  0  0
  1  2  1  0  0  0  0
  1 14  1  0  0  0  0
  1 15  1  0  0  0  0
  2  7  1  0  0  0  0
  2  3  2  0  0  0  0
  3  4  1  0  0  0  0
  3 16  1  0  0  0  0
  4  5  2  0  0  0  0
  4 17  1  0  0  0  0
  5  6  1  0  0  0  0
  5 18  1  0  0  0  0
  6  7  2  0  0  0  0
  7  8  1  0  0  0  0
  8 13  1  0  0  0  0
  8  9  1  0  0  0  0
  9 10  1  0  0  0  0
  9 19  1  0  0  0  0
  9 20  1  0  0  0  0
 10 11  1  0  0  0  0
 10 21  1  0  0  0  0
 10 22  1  0  0  0  0
 11 12  1  0  0  0  0
 12 13  1  0  0  0  0
 12 23  1  0  0  0  0
 12 24  1  0  0  0  0
 13 25  1  0  0  0  0
 13 26  1  0  0  0  0
M  END
> <s_m_source_file>
AV-unprocessed.smi

> <i_m_source_file_index>
2117

> <i_lp_mmshare_version>
43012

> <i_f3d_flags>
0

> <s_epik_input>
W05IMl1jMVtjSF1bY0hdW2NIXW5jMU4yW0NIMl1bQ0gyXU9bQ0gyXVtDSDJdMg==

> <s_epik_cmdline>
J2VwaWtfcHl0aG9uJywgJy1waCcsICc3LjAnLCAnLXRuJywgJzgnLCAnLW1hJywgJzIwMCcsICctbWV0YWxfYmluZGluZycsICctaW1hZScsICc8aW5maWxlLm1hZT4nLCAnLW9tYWUnLCAnPG91dGZpbGUubWFlPic=

> <r_lp_tautomer_probability>
1

> <r_epik_Ionization_Penalty>
0.00962163

> <r_epik_Ionization_Penalty_Charging>
0

> <r_epik_Ionization_Penalty_Neutral>
0.00962163

> <r_epik_State_Penalty>
0.00726246

> <r_epik_Charging_Adjusted_Penalty>
0.00726246

> <i_epik_Tot_Q>
0

> <i_epik_Tot_abs_Q>
0

> <r_epik_Metal_State_Penalty>
7.30711e-06

> <b_epik_Metal_Only>
0

> <s_lp_Force_Field>
OPLS_2005

> <r_lp_Energy>
21.1425

> <b_lp_Chiralities_Consistent>
1

> <s_lp_Variant>
AV-unprocessed.smi:2117-1

> <Gold.Version>
5.8.1

> <Gold.Id.Protein>
6NUR|6NUR_protein|mol2

> <Gold.PLP.Fitness>
29.4290

> <Gold.PLP.PLP>
-26.6655

> <Gold.PLP.part.hbond>
-0.8987

> <Gold.PLP.part.metal>
0.0000

> <Gold.PLP.part.buried>
-4.4231

> <Gold.PLP.part.nonpolar>
-21.7957

> <Gold.PLP.part.repulsive>
0.0961

> <Gold.PLP.ligand.clash>
0.0000

> <Gold.PLP.ligand.torsion>
0.1753

> <Gold.PLP.Chemscore.Hbond>
1.0000

> <Gold.PLP.Chemscore.CHOScore>
0.0000

> <Gold.PLP.Chemscore.Metal>
0.0000

> <Gold.Chemscore.Hbonds>
donor molecule, donor type, donor heavy atom, donor atom, acceptor molecule, acceptor atom, score
      L1  H     1    15       P1  8028  0.99

> <Gold.PLP.Chemscore.Internal.Correction>
0.1142

> <Gold.Rescore>
     Score         DG    S(hbond)    S(metal)    S(lipo)     H(rot)  DE(clash)    DE(int)     intcor
     13.77     -14.96       1.00        0.00      74.45       1.00       0.02       1.17       ----

> <Gold.Chemscore.Fitness>
13.7696

> <Gold.Chemscore.DG>
-14.9580

> <Gold.Chemscore.ZeroCoef>
-5.4800

> <Gold.Chemscore.Hbond>
0.9961

> <Gold.Chemscore.Metal>
0.0000

> <Gold.Chemscore.Lipo>
74.4526

> <Gold.Chemscore.Internal_Hbond>
0.0000

> <Gold.Chemscore.DEClash>
0.0222

> <Gold.Chemscore.DEInternal>
1.1661

> <Gold.Chemscore.Rot>
1.0000

> <Gold.Chemscore.Internal.Correction>
   9.000000E+99

> <Gold.Chemscore.Hbonds>
donor molecule, donor type, donor heavy atom, donor atom, acceptor molecule, acceptor atom, score
      L1  H     1    15       P1  8028  0.92

> <Gold.Chemscore.Hbond.Weighted>
-3.3270

> <Gold.Chemscore.Metal.Weighted>
-0.0000

> <Gold.Chemscore.Lipo.Weighted>
-8.7110

> <Gold.Chemscore.Internal_Hbond.Weighted>
0.0000

> <Gold.Chemscore.DEClash.Weighted>
0.0222

> <Gold.Chemscore.DEInternal.Weighted>
1.1661

> <Gold.Chemscore.Rot.Weighted>
2.5600

> <Gold.Chemscore.Internal.Correction.Weighted>
   9.000000E+99

> <Gold.Protein.RotatedTorsions>
[ 6907 6896 6895 6894 ] final -109.85 input  -60.11 | X-H torsion
[ 7974 7965 7964 7962 ] final   83.43 input  175.53 | X-H torsion
[ 8008 7997 7996 7995 ] final  115.31 input   59.86 | X-H torsion
[ 10167 10162 10161 10158 ] final   97.66 input  -65.29 | X-H torsion
[ 10718 10713 10712 10709 ] final -166.02 input   66.30 | X-H torsion
[ 10763 10752 10751 10750 ] final -124.38 input  -60.55 | X-H torsion
[ 11005 11000 10999 10996 ] final  133.89 input  -57.11 | X-H torsion

> <Gold.Protein.ActiveResidues>
 VAL166  LYS551  ARG553  GLY616  TRP617  ASP618  TYR619  PRO620  LYS621  CYS622 
 ASP623  PHE694  ASN695  SER759  ASP760  ASP761  ALA762  ILE779  LEU786  VAL792 
 PHE793  MET794  SER795  GLU796  ALA797  LYS798  CYS799  TRP800  GLU811  SER814 

> <Gold.Protein.RotatedAtoms>
  150.7587  133.9469  159.3473 H   0  0  0  0  0  0  0  0  0  0  0  0  # atno 6907 bound_to 6896
  151.7383  135.0858  160.0321 H   0  0  0  0  0  0  0  0  0  0  0  0  # atno 6908 bound_to 6896
  152.3545  133.6183  159.6005 H   0  0  0  0  0  0  0  0  0  0  0  0  # atno 6909 bound_to 6896
  145.6120  139.2370  143.2187 H   0  0  0  0  0  0  0  0  0  0  0  0  # atno 7974 bound_to 7965
  156.2374  140.2941  156.0350 H   0  0  0  0  0  0  0  0  0  0  0  0  # atno 8008 bound_to 7997
  155.2052  140.0411  157.2941 H   0  0  0  0  0  0  0  0  0  0  0  0  # atno 8009 bound_to 7997
  154.6104  140.2450  155.7684 H   0  0  0  0  0  0  0  0  0  0  0  0  # atno 8010 bound_to 7997
  139.7781  144.6898  151.0061 H   0  0  0  0  0  0  0  0  0  0  0  0  # atno 10167 bound_to 10162
  156.6619  130.9049  151.3030 H   0  0  0  0  0  0  0  0  0  0  0  0  # atno 10718 bound_to 10713
  154.8722  135.4065  154.3097 H   0  0  0  0  0  0  0  0  0  0  0  0  # atno 10763 bound_to 10752
  153.3943  135.7016  153.6478 H   0  0  0  0  0  0  0  0  0  0  0  0  # atno 10764 bound_to 10752
  153.5247  135.3680  155.2619 H   0  0  0  0  0  0  0  0  0  0  0  0  # atno 10765 bound_to 10752
  139.9880  134.9525  156.9789 H   0  0  0  0  0  0  0  0  0  0  0  0  # atno 11005 bound_to 11000
  146.1497  140.6942  142.9328 LP  0  0  0  0  0  0  0  0  0  0  0  0  # atno 17320 bound_to 7965
  144.7266  140.4543  143.6968 LP  0  0  0  0  0  0  0  0  0  0  0  0  # atno 17321 bound_to 7965
  140.7817  143.4514  151.0408 LP  0  0  0  0  0  0  0  0  0  0  0  0  # atno 17342 bound_to 10162
  139.8195  143.7839  152.3176 LP  0  0  0  0  0  0  0  0  0  0  0  0  # atno 17343 bound_to 10162
  157.7107  130.9436  150.1079 LP  0  0  0  0  0  0  0  0  0  0  0  0  # atno 17370 bound_to 10713
  156.2004  130.3660  149.8795 LP  0  0  0  0  0  0  0  0  0  0  0  0  # atno 17371 bound_to 10713
  140.4964  134.1141  155.7242 LP  0  0  0  0  0  0  0  0  0  0  0  0  # atno 17394 bound_to 11000
  141.1541  133.8914  157.2021 LP  0  0  0  0  0  0  0  0  0  0  0  0  # atno 17395 bound_to 11000

$$$$
