AV-unprocessed.smi:1510|AV-procd|sdf|6096|dock9
  -GOLD-   22720 6223D 1   1.00000     0.00000
 Structure written by MMmdl.
 33 34  0  0  0  0  0  0  0  0  1 V2000
  151.0135  141.0831  157.7432 O   0  0  0  0  0  0  0  0  0  0  0  0
  152.1400  140.6079  157.8928 C   0  0  0  0  0  0  0  0  0  0  0  0
  152.7578  139.7128  156.8102 C   0  0  0  0  0  0  0  0  0  0  0  0
  151.7726  139.2592  155.8186 N   0  0  0  0  0  0  0  0  0  0  0  0
  151.0155  140.2787  155.2615 N   0  0  0  0  0  0  0  0  0  0  0  0
  150.1256  140.0056  154.3682 C   0  0  0  0  0  0  0  0  0  0  0  0
  149.4019  141.0454  153.8383 O   0  0  0  0  0  0  0  0  0  0  0  0
  149.8928  138.6457  153.9340 C   0  0  0  0  0  0  0  0  0  0  0  0
  150.6329  137.6589  154.4852 C   0  0  0  0  0  0  0  0  0  0  0  0
  151.6532  137.9337  155.4985 C   0  0  0  0  0  0  0  0  0  0  0  0
  152.3431  137.0555  156.0164 O   0  0  0  0  0  0  0  0  0  0  0  0
  152.8877  140.8162  158.9867 N   0  0  0  0  0  0  0  0  0  0  0  0
  152.5086  141.6592  160.1150 C   0  0  0  0  0  0  0  0  0  0  0  0
  152.6180  143.1583  159.7825 C   0  0  2  0  0  0  0  0  0  0  0  0
  152.0315  144.0962  160.8358 C   0  0  0  0  0  0  0  0  0  0  0  0
  151.7367  145.3587  160.0437 C   0  0  0  0  0  0  0  0  0  0  0  0
  151.6940  144.8846  158.5868 C   0  0  0  0  0  0  0  0  0  0  0  0
  151.8443  143.4713  158.6364 O   0  0  0  0  0  0  0  0  0  0  0  0
  148.4976  140.8374  154.0163 H   0  0  0  0  0  0  0  0  0  0  0  0
  153.5729  140.2382  156.3086 H   0  0  0  0  0  0  0  0  0  0  0  0
  153.2214  138.8573  157.3046 H   0  0  0  0  0  0  0  0  0  0  0  0
  149.1423  138.4346  153.1864 H   0  0  0  0  0  0  0  0  0  0  0  0
  150.4697  136.6387  154.1705 H   0  0  0  0  0  0  0  0  0  0  0  0
  153.7976  140.3806  159.0293 H   0  0  0  0  0  0  0  0  0  0  0  0
  151.4954  141.4159  160.4387 H   0  0  0  0  0  0  0  0  0  0  0  0
  153.1664  141.4164  160.9499 H   0  0  0  0  0  0  0  0  0  0  0  0
  153.6562  143.4304  159.5829 H   0  0  0  0  0  0  0  0  0  0  0  0
  151.1016  143.6849  161.2306 H   0  0  0  0  0  0  0  0  0  0  0  0
  152.7084  144.2679  161.6735 H   0  0  0  0  0  0  0  0  0  0  0  0
  150.7967  145.8140  160.3564 H   0  0  0  0  0  0  0  0  0  0  0  0
  152.5281  146.0968  160.1776 H   0  0  0  0  0  0  0  0  0  0  0  0
  150.7628  145.1543  158.0881 H   0  0  0  0  0  0  0  0  0  0  0  0
  152.5198  145.3150  158.0190 H   0  0  0  0  0  0  0  0  0  0  0  0
  1  2  2  0  0  0  0
  2  3  1  0  0  0  0
  2 12  1  0  0  0  0
  3 20  1  0  0  0  0
  3 21  1  0  0  0  0
  3  4  1  0  0  0  0
  4  5  1  0  0  0  0
  4 10  1  0  0  0  0
  5  6  2  0  0  0  0
  6  7  1  0  0  0  0
  6  8  1  0  0  0  0
  7 19  1  0  0  0  0
  8 22  1  0  0  0  0
  8  9  2  0  0  0  0
  9 23  1  0  0  0  0
  9 10  1  0  0  0  0
 10 11  2  0  0  0  0
 12 13  1  0  0  0  0
 12 24  1  0  0  0  0
 13 14  1  0  0  0  0
 13 25  1  0  0  0  0
 13 26  1  0  0  0  0
 14 18  1  0  0  0  0
 14 15  1  0  0  0  0
 14 27  1  0  0  0  0
 15 16  1  0  0  0  0
 15 28  1  0  0  0  0
 15 29  1  0  0  0  0
 16 17  1  0  0  0  0
 16 30  1  0  0  0  0
 16 31  1  0  0  0  0
 17 18  1  0  0  0  0
 17 32  1  0  0  0  0
 17 33  1  0  0  0  0
M  END
> <s_m_source_file>
AV-unprocessed.smi

> <i_m_source_file_index>
1510

> <i_lp_mmshare_version>
43012

> <i_f3d_flags>
0

> <s_epik_input>
TzFbQ0gyXVtDSDJdW0NIMl1bQ0BIXTFbQ0gyXVtOSF1DKD1PKVtDSDJdbjJbbkhdYyg9TylbY0hdW2NIXWMyPU8=

> <s_epik_cmdline>
J2VwaWtfcHl0aG9uJywgJy1waCcsICc3LjAnLCAnLXRuJywgJzgnLCAnLW1hJywgJzIwMCcsICctbWV0YWxfYmluZGluZycsICctaW1hZScsICc8aW5maWxlLm1hZT4nLCAnLW9tYWUnLCAnPG91dGZpbGUubWFlPic=

> <r_lp_tautomer_probability>
0.9996

> <r_epik_Ionization_Penalty>
2.13037

> <r_epik_Ionization_Penalty_Charging>
3.76e-08

> <r_epik_Ionization_Penalty_Neutral>
2.13037

> <r_epik_State_Penalty>
1.70753

> <r_epik_Charging_Adjusted_Penalty>
1.70753

> <i_epik_Tot_Q>
0

> <i_epik_Tot_abs_Q>
0

> <r_epik_Metal_State_Penalty>
1.70753

> <b_epik_Metal_Only>
0

> <s_lp_Force_Field>
OPLS_2005

> <r_lp_Energy>
28.2415

> <b_lp_Chiralities_Consistent>
1

> <s_lp_Variant>
AV-unprocessed.smi:1510-3

> <Gold.Version>
5.8.1

> <Gold.Id.Protein>
6NUR|6NUR_protein|mol2

> <Gold.PLP.Fitness>
42.5272

> <Gold.PLP.PLP>
-37.6938

> <Gold.PLP.part.hbond>
-5.0000

> <Gold.PLP.part.metal>
0.0000

> <Gold.PLP.part.buried>
1.2623

> <Gold.PLP.part.nonpolar>
-33.0175

> <Gold.PLP.part.repulsive>
0.1744

> <Gold.PLP.ligand.clash>
0.0000

> <Gold.PLP.ligand.torsion>
0.3592

> <Gold.PLP.Chemscore.Hbond>
1.8476

> <Gold.PLP.Chemscore.CHOScore>
0.0000

> <Gold.PLP.Chemscore.Metal>
0.0000

> <Gold.Chemscore.Hbonds>
donor molecule, donor type, donor heavy atom, donor atom, acceptor molecule, acceptor atom, score
      P1  H  8011  8017       L1     7  0.83
      P1  H 10752 10765       L1    11  0.93

> <Gold.PLP.Chemscore.Internal.Correction>
0.0090

> <Gold.Rescore>
     Score         DG    S(hbond)    S(metal)    S(lipo)     H(rot)  DE(clash)    DE(int)     intcor
      7.51     -13.90       1.75        0.00      81.03       2.69       2.08       4.31       ----

> <Gold.Chemscore.Fitness>
7.5122

> <Gold.Chemscore.DG>
-13.8979

> <Gold.Chemscore.ZeroCoef>
-5.4800

> <Gold.Chemscore.Hbond>
1.7465

> <Gold.Chemscore.Metal>
0.0000

> <Gold.Chemscore.Lipo>
81.0313

> <Gold.Chemscore.Internal_Hbond>
0.0000

> <Gold.Chemscore.DEClash>
2.0771

> <Gold.Chemscore.DEInternal>
4.3087

> <Gold.Chemscore.Rot>
2.6937

> <Gold.Chemscore.Internal.Correction>
   9.000000E+99

> <Gold.Chemscore.Hbonds>
donor molecule, donor type, donor heavy atom, donor atom, acceptor molecule, acceptor atom, score
      P1  H  8011  8017       L1     7  0.76
      P1  H 10752 10765       L1    11  0.85

> <Gold.Chemscore.Hbond.Weighted>
-5.8332

> <Gold.Chemscore.Metal.Weighted>
-0.0000

> <Gold.Chemscore.Lipo.Weighted>
-9.4807

> <Gold.Chemscore.Internal_Hbond.Weighted>
0.0000

> <Gold.Chemscore.DEClash.Weighted>
2.0771

> <Gold.Chemscore.DEInternal.Weighted>
4.3087

> <Gold.Chemscore.Rot.Weighted>
6.8959

> <Gold.Chemscore.Internal.Correction.Weighted>
   9.000000E+99

> <Gold.Protein.RotatedTorsions>
[ 6907 6896 6895 6894 ] final   14.48 input  -60.11 | X-H torsion
[ 7974 7965 7964 7962 ] final  -20.01 input  175.53 | X-H torsion
[ 8008 7997 7996 7995 ] final  166.41 input   59.86 | X-H torsion
[ 10167 10162 10161 10158 ] final  -69.65 input  -65.29 | X-H torsion
[ 10718 10713 10712 10709 ] final  -73.70 input   66.30 | X-H torsion
[ 10763 10752 10751 10750 ] final -154.36 input  -60.55 | X-H torsion
[ 11005 11000 10999 10996 ] final  109.34 input  -57.11 | X-H torsion

> <Gold.Protein.ActiveResidues>
 VAL166  LYS551  ARG553  GLY616  TRP617  ASP618  TYR619  PRO620  LYS621  CYS622 
 ASP623  PHE694  ASN695  SER759  ASP760  ASP761  ALA762  ILE779  LEU786  VAL792 
 PHE793  MET794  SER795  GLU796  ALA797  LYS798  CYS799  TRP800  GLU811  SER814 

> <Gold.Protein.RotatedAtoms>
  151.8030  135.0703  160.0402 H   0  0  0  0  0  0  0  0  0  0  0  0  # atno 6907 bound_to 6896
  152.3075  133.5714  159.5667 H   0  0  0  0  0  0  0  0  0  0  0  0  # atno 6908 bound_to 6896
  150.7303  134.0116  159.3713 H   0  0  0  0  0  0  0  0  0  0  0  0  # atno 6909 bound_to 6896
  146.1811  140.4142  142.8494 H   0  0  0  0  0  0  0  0  0  0  0  0  # atno 7974 bound_to 7965
  156.1721  140.1644  156.8429 H   0  0  0  0  0  0  0  0  0  0  0  0  # atno 8008 bound_to 7997
  154.5268  140.0766  156.8306 H   0  0  0  0  0  0  0  0  0  0  0  0  # atno 8009 bound_to 7997
  155.3491  140.3389  155.4241 H   0  0  0  0  0  0  0  0  0  0  0  0  # atno 8010 bound_to 7997
  140.5414  143.2315  151.7083 H   0  0  0  0  0  0  0  0  0  0  0  0  # atno 10167 bound_to 10162
  156.0270  130.4400  150.2781 H   0  0  0  0  0  0  0  0  0  0  0  0  # atno 10718 bound_to 10713
  154.7864  135.3191  154.7877 H   0  0  0  0  0  0  0  0  0  0  0  0  # atno 10763 bound_to 10752
  153.8576  135.6856  153.4790 H   0  0  0  0  0  0  0  0  0  0  0  0  # atno 10764 bound_to 10752
  153.1517  135.4697  154.9585 H   0  0  0  0  0  0  0  0  0  0  0  0  # atno 10765 bound_to 10752
  139.8860  134.9455  156.6111 H   0  0  0  0  0  0  0  0  0  0  0  0  # atno 11005 bound_to 11000
  144.8317  140.6717  143.6287 LP  0  0  0  0  0  0  0  0  0  0  0  0  # atno 17320 bound_to 7965
  145.4073  139.1586  143.4145 LP  0  0  0  0  0  0  0  0  0  0  0  0  # atno 17321 bound_to 7965
  139.4990  144.3963  152.0228 LP  0  0  0  0  0  0  0  0  0  0  0  0  # atno 17342 bound_to 10162
  140.3072  144.3579  150.6043 LP  0  0  0  0  0  0  0  0  0  0  0  0  # atno 17343 bound_to 10162
  157.0884  131.0163  151.3130 LP  0  0  0  0  0  0  0  0  0  0  0  0  # atno 17370 bound_to 10713
  157.4873  130.7801  149.7472 LP  0  0  0  0  0  0  0  0  0  0  0  0  # atno 17371 bound_to 10713
  140.7811  133.8659  155.8568 LP  0  0  0  0  0  0  0  0  0  0  0  0  # atno 17394 bound_to 11000
  140.9759  134.1469  157.4536 LP  0  0  0  0  0  0  0  0  0  0  0  0  # atno 17395 bound_to 11000

$$$$
