AV-unprocessed.smi:418|AV-procd|sdf|2529|dock4
  -GOLD-   2262022483D 1   1.00000     0.00000
 Structure written by MMmdl.
 40 42  0  0  0  0  0  0  0  0  1 V2000
  153.0739  138.0005  159.3118 C   0  0  0  0  0  0  0  0  0  0  0  0
  152.3533  139.2068  158.9231 N   0  0  0  0  0  0  0  0  0  0  0  0
  151.3208  139.2939  158.0520 C   0  0  0  0  0  0  0  0  0  0  0  0
  150.8147  138.3584  157.4323 O   0  0  0  0  0  0  0  0  0  0  0  0
  150.9446  140.5925  157.9771 N   0  0  0  0  0  0  0  0  0  0  0  0
  149.8812  141.1423  157.1392 C   0  0  0  0  0  0  0  0  0  0  0  0
  150.3522  141.3529  155.6861 C   0  0  1  0  0  0  0  0  0  0  0  0
  151.0161  140.2008  155.2082 O   0  0  0  0  0  0  0  0  0  0  0  0
  149.1991  141.6664  154.7184 C   0  0  0  0  0  0  0  0  0  0  0  0
  147.9526  141.4430  155.3664 O   0  0  0  0  0  0  0  0  0  0  0  0
  146.8874  142.2548  155.0392 C   0  0  0  0  0  0  0  0  0  0  0  0
  146.7396  142.9090  153.7895 C   0  0  0  0  0  0  0  0  0  0  0  0
  145.6182  143.7238  153.5393 C   0  0  0  0  0  0  0  0  0  0  0  0
  144.6334  143.8949  154.5295 C   0  0  0  0  0  0  0  0  0  0  0  0
  144.7710  143.2489  155.7718 C   0  0  0  0  0  0  0  0  0  0  0  0
  145.8919  142.4342  156.0235 C   0  0  0  0  0  0  0  0  0  0  0  0
  146.0124  141.8186  157.2240 F   0  0  0  0  0  0  0  0  0  0  0  0
  151.7695  141.3589  158.8132 C   0  0  0  0  0  0  0  0  0  0  0  0
  151.7955  142.7398  159.0755 C   0  0  0  0  0  0  0  0  0  0  0  0
  152.7750  143.2062  159.9837 C   0  0  0  0  0  0  0  0  0  0  0  0
  153.6871  142.3069  160.5954 C   0  0  0  0  0  0  0  0  0  0  0  0
  153.6394  140.9216  160.3119 C   0  0  0  0  0  0  0  0  0  0  0  0
  152.6557  140.4857  159.4076 C   0  0  0  0  0  0  0  0  0  0  0  0
  152.5982  137.0976  158.9269 H   0  0  0  0  0  0  0  0  0  0  0  0
  153.1159  137.9185  160.3982 H   0  0  0  0  0  0  0  0  0  0  0  0
  154.0949  138.0340  158.9309 H   0  0  0  0  0  0  0  0  0  0  0  0
  148.9904  140.5122  157.1747 H   0  0  0  0  0  0  0  0  0  0  0  0
  149.5825  142.0986  157.5703 H   0  0  0  0  0  0  0  0  0  0  0  0
  151.0615  142.1802  155.6407 H   0  0  0  0  0  0  0  0  0  0  0  0
  151.7097  139.9837  155.8128 H   0  0  0  0  0  0  0  0  0  0  0  0
  149.2652  142.7155  154.4262 H   0  0  0  0  0  0  0  0  0  0  0  0
  149.2868  141.0638  153.8124 H   0  0  0  0  0  0  0  0  0  0  0  0
  147.4731  142.8022  153.0050 H   0  0  0  0  0  0  0  0  0  0  0  0
  145.5142  144.2187  152.5849 H   0  0  0  0  0  0  0  0  0  0  0  0
  143.7741  144.5203  154.3367 H   0  0  0  0  0  0  0  0  0  0  0  0
  144.0165  143.3780  156.5337 H   0  0  0  0  0  0  0  0  0  0  0  0
  151.1005  143.4194  158.6047 H   0  0  0  0  0  0  0  0  0  0  0  0
  152.8302  144.2600  160.2140 H   0  0  0  0  0  0  0  0  0  0  0  0
  154.4277  142.6849  161.2847 H   0  0  0  0  0  0  0  0  0  0  0  0
  154.3311  140.2311  160.7715 H   0  0  0  0  0  0  0  0  0  0  0  0
  1  2  1  0  0  0  0
  1 24  1  0  0  0  0
  1 25  1  0  0  0  0
  1 26  1  0  0  0  0
  2 23  1  0  0  0  0
  2  3  1  0  0  0  0
  3  4  2  0  0  0  0
  3  5  1  0  0  0  0
  5  6  1  0  0  0  0
  5 18  1  0  0  0  0
  6  7  1  0  0  0  0
  6 27  1  0  0  0  0
  6 28  1  0  0  0  0
  7  8  1  0  0  0  0
  7  9  1  0  0  0  0
  7 29  1  0  0  0  0
  8 30  1  0  0  0  0
  9 10  1  0  0  0  0
  9 31  1  0  0  0  0
  9 32  1  0  0  0  0
 10 11  1  0  0  0  0
 11 16  1  0  0  0  0
 11 12  2  0  0  0  0
 12 13  1  0  0  0  0
 12 33  1  0  0  0  0
 13 14  2  0  0  0  0
 13 34  1  0  0  0  0
 14 15  1  0  0  0  0
 14 35  1  0  0  0  0
 15 16  2  0  0  0  0
 15 36  1  0  0  0  0
 16 17  1  0  0  0  0
 18 23  2  0  0  0  0
 18 19  1  0  0  0  0
 19 20  2  0  0  0  0
 19 37  1  0  0  0  0
 20 21  1  0  0  0  0
 20 38  1  0  0  0  0
 21 22  2  0  0  0  0
 21 39  1  0  0  0  0
 22 23  1  0  0  0  0
 22 40  1  0  0  0  0
M  END
> <s_m_source_file>
AV-unprocessed.smi

> <i_m_source_file_index>
418

> <i_lp_mmshare_version>
43012

> <i_f3d_flags>
0

> <s_epik_input>
W2NIXTFbY0hdW2NIXVtjSF1jKGMxMiluKFtDSDNdKWMoPU8pbjJbQ0gyXVtDQEhdKFtPSF0pW0NIMl1PYzNbY0hdW2NIXVtjSF1bY0hdYzNG

> <s_epik_cmdline>
J2VwaWtfcHl0aG9uJywgJy1waCcsICc3LjAnLCAnLXRuJywgJzgnLCAnLW1hJywgJzIwMCcsICctbWV0YWxfYmluZGluZycsICctaW1hZScsICc8aW5maWxlLm1hZT4nLCAnLW9tYWUnLCAnPG91dGZpbGUubWFlPic=

> <r_lp_tautomer_probability>
1

> <r_epik_Ionization_Penalty>
2.40171e-06

> <r_epik_Ionization_Penalty_Charging>
2.41238e-09

> <r_epik_Ionization_Penalty_Neutral>
2.3993e-06

> <r_epik_State_Penalty>
-0

> <r_epik_Charging_Adjusted_Penalty>
2.41238e-09

> <i_epik_Tot_Q>
0

> <i_epik_Tot_abs_Q>
0

> <r_epik_Metal_State_Penalty>
-0

> <b_epik_Metal_Only>
0

> <s_lp_Force_Field>
OPLS_2005

> <r_lp_Energy>
48.5553

> <b_lp_Chiralities_Consistent>
1

> <s_lp_Variant>
AV-unprocessed.smi:418-2

> <Gold.Version>
5.8.1

> <Gold.Id.Protein>
6NUR|6NUR_protein|mol2

> <Gold.PLP.Fitness>
46.6504

> <Gold.PLP.PLP>
-46.9452

> <Gold.PLP.part.hbond>
-1.0000

> <Gold.PLP.part.metal>
0.0000

> <Gold.PLP.part.buried>
-5.7866

> <Gold.PLP.part.nonpolar>
-38.5453

> <Gold.PLP.part.repulsive>
0.0996

> <Gold.PLP.ligand.clash>
0.0000

> <Gold.PLP.ligand.torsion>
1.6684

> <Gold.PLP.Chemscore.Hbond>
1.0000

> <Gold.PLP.Chemscore.CHOScore>
0.0000

> <Gold.PLP.Chemscore.Metal>
0.0000

> <Gold.Chemscore.Hbonds>
donor molecule, donor type, donor heavy atom, donor atom, acceptor molecule, acceptor atom, score
      P1  H  7989  7998       L1     8  0.95

> <Gold.PLP.Chemscore.Internal.Correction>
0.0421

> <Gold.Rescore>
     Score         DG    S(hbond)    S(metal)    S(lipo)     H(rot)  DE(clash)    DE(int)     intcor
     13.00     -15.04       0.78        0.00     108.97       2.27       0.41       1.63       ----

> <Gold.Chemscore.Fitness>
12.9960

> <Gold.Chemscore.DG>
-15.0367

> <Gold.Chemscore.ZeroCoef>
-5.4800

> <Gold.Chemscore.Hbond>
0.7843

> <Gold.Chemscore.Metal>
0.0000

> <Gold.Chemscore.Lipo>
108.9740

> <Gold.Chemscore.Internal_Hbond>
0.0000

> <Gold.Chemscore.DEClash>
0.4131

> <Gold.Chemscore.DEInternal>
1.6275

> <Gold.Chemscore.Rot>
2.2706

> <Gold.Chemscore.Internal.Correction>
   9.000000E+99

> <Gold.Chemscore.Hbonds>
donor molecule, donor type, donor heavy atom, donor atom, acceptor molecule, acceptor atom, score
      P1  H  7989  7998       L1     8  0.19

> <Gold.Chemscore.Hbond.Weighted>
-2.6195

> <Gold.Chemscore.Metal.Weighted>
-0.0000

> <Gold.Chemscore.Lipo.Weighted>
-12.7500

> <Gold.Chemscore.Internal_Hbond.Weighted>
0.0000

> <Gold.Chemscore.DEClash.Weighted>
0.4131

> <Gold.Chemscore.DEInternal.Weighted>
1.6275

> <Gold.Chemscore.Rot.Weighted>
5.8128

> <Gold.Chemscore.Internal.Correction.Weighted>
   9.000000E+99

> <Gold.Protein.RotatedTorsions>
[ 6907 6896 6895 6894 ] final -175.56 input  -60.11 | X-H torsion
[ 7974 7965 7964 7962 ] final    8.10 input  175.53 | X-H torsion
[ 8008 7997 7996 7995 ] final   50.77 input   59.86 | X-H torsion
[ 10167 10162 10161 10158 ] final   31.81 input  -65.29 | X-H torsion
[ 10718 10713 10712 10709 ] final  136.56 input   66.30 | X-H torsion
[ 10763 10752 10751 10750 ] final   67.52 input  -60.55 | X-H torsion
[ 11005 11000 10999 10996 ] final  101.70 input  -57.11 | X-H torsion

> <Gold.Protein.ActiveResidues>
 VAL166  LYS551  ARG553  GLY616  TRP617  ASP618  TYR619  PRO620  LYS621  CYS622 
 ASP623  PHE694  ASN695  SER759  ASP760  ASP761  ALA762  ILE779  LEU786  VAL792 
 PHE793  MET794  SER795  GLU796  ALA797  LYS798  CYS799  TRP800  GLU811  SER814 

> <Gold.Protein.RotatedAtoms>
  151.5905  133.3367  159.3026 H   0  0  0  0  0  0  0  0  0  0  0  0  # atno 6907 bound_to 6896
  150.8263  134.7498  159.6826 H   0  0  0  0  0  0  0  0  0  0  0  0  # atno 6908 bound_to 6896
  152.4351  134.5707  159.9972 H   0  0  0  0  0  0  0  0  0  0  0  0  # atno 6909 bound_to 6896
  146.2420  139.9983  142.8418 H   0  0  0  0  0  0  0  0  0  0  0  0  # atno 7974 bound_to 7965
  155.4243  140.3448  155.4274 H   0  0  0  0  0  0  0  0  0  0  0  0  # atno 8008 bound_to 7997
  156.1374  140.1532  156.9004 H   0  0  0  0  0  0  0  0  0  0  0  0  # atno 8009 bound_to 7997
  154.4943  140.0832  156.7643 H   0  0  0  0  0  0  0  0  0  0  0  0  # atno 8010 bound_to 7997
  140.4555  144.0985  150.6201 H   0  0  0  0  0  0  0  0  0  0  0  0  # atno 10167 bound_to 10162
  157.4454  131.1061  151.0096 H   0  0  0  0  0  0  0  0  0  0  0  0  # atno 10718 bound_to 10713
  153.0190  135.5281  154.6993 H   0  0  0  0  0  0  0  0  0  0  0  0  # atno 10763 bound_to 10752
  154.6106  135.2878  155.0438 H   0  0  0  0  0  0  0  0  0  0  0  0  # atno 10764 bound_to 10752
  154.1462  135.6570  153.5005 H   0  0  0  0  0  0  0  0  0  0  0  0  # atno 10765 bound_to 10752
  139.8774  134.9194  156.4946 H   0  0  0  0  0  0  0  0  0  0  0  0  # atno 11005 bound_to 11000
  145.1439  140.9586  143.4472 LP  0  0  0  0  0  0  0  0  0  0  0  0  # atno 17320 bound_to 7965
  145.0270  139.3374  143.6044 LP  0  0  0  0  0  0  0  0  0  0  0  0  # atno 17321 bound_to 7965
  140.4156  143.2636  151.9779 LP  0  0  0  0  0  0  0  0  0  0  0  0  # atno 17342 bound_to 10162
  139.4800  144.5876  151.7826 LP  0  0  0  0  0  0  0  0  0  0  0  0  # atno 17343 bound_to 10162
  157.0944  130.5956  149.5446 LP  0  0  0  0  0  0  0  0  0  0  0  0  # atno 17370 bound_to 10713
  155.9965  130.5034  150.7499 LP  0  0  0  0  0  0  0  0  0  0  0  0  # atno 17371 bound_to 10713
  140.8634  133.8043  155.9288 LP  0  0  0  0  0  0  0  0  0  0  0  0  # atno 17394 bound_to 11000
  140.9026  134.2359  157.5032 LP  0  0  0  0  0  0  0  0  0  0  0  0  # atno 17395 bound_to 11000

$$$$
