AV-unprocessed.smi:3043|AV-procd|sdf|11604|dock1
  -GOLD-   2272016583D 1   1.00000     0.00000
 Structure written by MMmdl.
 44 45  0  0  0  0  0  0  0  0  2 V2000
  151.5470  145.6958  160.4525 C   0  0  0  0  0  0  0  0  0  0  0  0
  152.0916  144.2660  160.4208 C   0  0  0  0  0  0  0  0  0  0  0  0
  152.2228  143.6737  161.4918 O   0  0  0  0  0  0  0  0  0  0  0  0
  152.4055  143.7018  159.2295 N   0  0  0  0  0  0  0  0  0  0  0  0
  152.8717  142.3157  159.1071 C   0  0  0  0  0  0  0  0  0  0  0  0
  151.7719  141.4795  158.4288 C   0  0  0  0  0  0  0  0  0  0  0  0
  151.3841  142.0672  157.0537 C   0  0  0  0  0  0  0  0  0  0  0  0
  150.2180  141.2831  156.4252 C   0  0  0  0  0  0  0  0  0  0  0  0
  149.5879  142.0416  155.3231 N   0  3  0  0  0  0  0  0  0  0  0  0
  148.2921  141.5121  154.8419 C   0  0  1  0  0  0  0  0  0  0  0  0
  147.4784  142.6625  154.2246 C   0  0  0  0  0  0  0  0  0  0  0  0
  148.4997  140.3308  153.8656 C   0  0  0  0  0  0  0  0  0  0  0  0
  149.6575  139.5189  154.1956 N   0  0  0  0  0  0  0  0  0  0  0  0
  149.6890  138.2180  154.6521 C   0  0  0  0  0  0  0  0  0  0  0  0
  151.0008  137.8791  154.8220 C   0  0  0  0  0  0  0  0  0  0  0  0
  151.7060  139.0552  154.4426 C   0  0  0  0  0  0  0  0  0  0  0  0
  150.8991  140.0353  154.0691 N   0  0  0  0  0  0  0  0  0  0  0  0
  151.0743  143.5781  157.1804 C   0  0  0  0  0  0  0  0  0  0  0  0
  152.2042  144.3229  157.9144 C   0  0  0  0  0  0  0  0  0  0  0  0
  150.6255  145.7725  159.8747 H   0  0  0  0  0  0  0  0  0  0  0  0
  152.2783  146.3978  160.0513 H   0  0  0  0  0  0  0  0  0  0  0  0
  151.3233  145.9984  161.4760 H   0  0  0  0  0  0  0  0  0  0  0  0
  153.7848  142.2926  158.5105 H   0  0  0  0  0  0  0  0  0  0  0  0
  153.1348  141.8712  160.0680 H   0  0  0  0  0  0  0  0  0  0  0  0
  152.1126  140.4500  158.3139 H   0  0  0  0  0  0  0  0  0  0  0  0
  150.8949  141.4434  159.0770 H   0  0  0  0  0  0  0  0  0  0  0  0
  152.2535  141.9585  156.4030 H   0  0  0  0  0  0  0  0  0  0  0  0
  150.5883  140.3351  156.0357 H   0  0  0  0  0  0  0  0  0  0  0  0
  149.4725  141.0470  157.1859 H   0  0  0  0  0  0  0  0  0  0  0  0
  149.4230  142.9779  155.6640 H   0  0  0  0  0  0  0  0  0  0  0  0
  147.7352  141.1547  155.7095 H   0  0  0  0  0  0  0  0  0  0  0  0
  146.4696  142.3457  153.9591 H   0  0  0  0  0  0  0  0  0  0  0  0
  147.9555  143.0456  153.3218 H   0  0  0  0  0  0  0  0  0  0  0  0
  147.3782  143.4920  154.9253 H   0  0  0  0  0  0  0  0  0  0  0  0
  147.6150  139.6915  153.8548 H   0  0  0  0  0  0  0  0  0  0  0  0
  148.6339  140.6901  152.8453 H   0  0  0  0  0  0  0  0  0  0  0  0
  148.7865  137.6473  154.8145 H   0  0  0  0  0  0  0  0  0  0  0  0
  151.3968  136.9353  155.1664 H   0  0  0  0  0  0  0  0  0  0  0  0
  152.7726  139.2248  154.4278 H   0  0  0  0  0  0  0  0  0  0  0  0
  150.9308  144.0200  156.1940 H   0  0  0  0  0  0  0  0  0  0  0  0
  150.1381  143.7214  157.7221 H   0  0  0  0  0  0  0  0  0  0  0  0
  151.9737  145.3860  157.9639 H   0  0  0  0  0  0  0  0  0  0  0  0
  153.1298  144.2537  157.3412 H   0  0  0  0  0  0  0  0  0  0  0  0
  150.2302  142.0948  154.5452 H   0  0  0  0  0  0  0  0  0  0  0  0
  1  2  1  0  0  0  0
  1 20  1  0  0  0  0
  1 21  1  0  0  0  0
  1 22  1  0  0  0  0
  2  3  2  0  0  0  0
  2  4  1  0  0  0  0
  4 19  1  0  0  0  0
  4  5  1  0  0  0  0
  5  6  1  0  0  0  0
  5 23  1  0  0  0  0
  5 24  1  0  0  0  0
  6  7  1  0  0  0  0
  6 25  1  0  0  0  0
  6 26  1  0  0  0  0
  7  8  1  0  0  0  0
  7 18  1  0  0  0  0
  7 27  1  0  0  0  0
  8  9  1  0  0  0  0
  8 28  1  0  0  0  0
  8 29  1  0  0  0  0
  9 10  1  0  0  0  0
  9 30  1  0  0  0  0
  9 44  1  0  0  0  0
 10 11  1  0  0  0  0
 10 12  1  0  0  0  0
 10 31  1  0  0  0  0
 11 32  1  0  0  0  0
 11 33  1  0  0  0  0
 11 34  1  0  0  0  0
 12 13  1  0  0  0  0
 12 35  1  0  0  0  0
 12 36  1  0  0  0  0
 13 17  1  0  0  0  0
 13 14  1  0  0  0  0
 14 15  2  0  0  0  0
 14 37  1  0  0  0  0
 15 16  1  0  0  0  0
 15 38  1  0  0  0  0
 16 17  2  0  0  0  0
 16 39  1  0  0  0  0
 18 19  1  0  0  0  0
 18 40  1  0  0  0  0
 18 41  1  0  0  0  0
 19 42  1  0  0  0  0
 19 43  1  0  0  0  0
M  CHG  1   9   1
M  END
> <s_m_source_file>
AV-unprocessed.smi

> <i_m_source_file_index>
3043

> <i_lp_mmshare_version>
43012

> <i_f3d_flags>
0

> <s_epik_input>
W0NIM11DKD1PKU4xW0NIMl1bQ0gyXVtDSF0oW0NIMl1bQ0gyXTEpW0NIMl1bTkhdW0NASF0oW0NIM10pW0NIMl1uMltjSF1bY0hdW2NIXW4y

> <s_epik_cmdline>
J2VwaWtfcHl0aG9uJywgJy1waCcsICc3LjAnLCAnLXRuJywgJzgnLCAnLW1hJywgJzIwMCcsICctbWV0YWxfYmluZGluZycsICctaW1hZScsICc8aW5maWxlLm1hZT4nLCAnLW9tYWUnLCAnPG91dGZpbGUubWFlPic=

> <r_lp_tautomer_probability>
1

> <r_epik_Ionization_Penalty>
0.00300549

> <r_epik_Ionization_Penalty_Charging>
0.00299781

> <r_epik_Ionization_Penalty_Neutral>
7.6831e-06

> <r_epik_State_Penalty>
0.00210473

> <r_epik_Charging_Adjusted_Penalty>
0.00510254

> <i_epik_Tot_Q>
1

> <i_epik_Tot_abs_Q>
1

> <r_epik_Metal_State_Penalty>
-0

> <b_epik_Metal_Only>
0

> <s_lp_Force_Field>
OPLS_2005

> <r_lp_Energy>
28.9571

> <b_lp_Chiralities_Consistent>
1

> <s_lp_Variant>
AV-unprocessed.smi:3043-2

> <Gold.Version>
5.8.1

> <Gold.Id.Protein>
6NUR|6NUR_protein|mol2

> <Gold.PLP.Fitness>
51.5185

> <Gold.PLP.PLP>
-44.0292

> <Gold.PLP.part.hbond>
-2.0000

> <Gold.PLP.part.metal>
0.0000

> <Gold.PLP.part.buried>
0.2767

> <Gold.PLP.part.nonpolar>
-42.5793

> <Gold.PLP.part.repulsive>
0.4475

> <Gold.PLP.ligand.clash>
0.0000

> <Gold.PLP.ligand.torsion>
0.7842

> <Gold.PLP.Chemscore.Hbond>
3.0000

> <Gold.PLP.Chemscore.CHOScore>
0.0000

> <Gold.PLP.Chemscore.Metal>
0.0000

> <Gold.Chemscore.Hbonds>
donor molecule, donor type, donor heavy atom, donor atom, acceptor molecule, acceptor atom, score
      L1  H     9    30       P1  8028  2.00
      P1  H  7989  7998       L1    17  0.29

> <Gold.PLP.Chemscore.Internal.Correction>
0.0577

> <Gold.Rescore>
     Score         DG    S(hbond)    S(metal)    S(lipo)     H(rot)  DE(clash)    DE(int)     intcor
     13.20     -19.52       1.89        0.00     104.13       1.74       1.38       4.94       ----

> <Gold.Chemscore.Fitness>
13.1980

> <Gold.Chemscore.DG>
-19.5195

> <Gold.Chemscore.ZeroCoef>
-5.4800

> <Gold.Chemscore.Hbond>
1.8909

> <Gold.Chemscore.Metal>
0.0000

> <Gold.Chemscore.Lipo>
104.1347

> <Gold.Chemscore.Internal_Hbond>
0.0000

> <Gold.Chemscore.DEClash>
1.3780

> <Gold.Chemscore.DEInternal>
4.9435

> <Gold.Chemscore.Rot>
1.7422

> <Gold.Chemscore.Internal.Correction>
   9.000000E+99

> <Gold.Chemscore.Hbonds>
donor molecule, donor type, donor heavy atom, donor atom, acceptor molecule, acceptor atom, score
      L1  H     9    30       P1  8028  0.99
      P1  H  7989  7998       L1    17  0.16

> <Gold.Chemscore.Hbond.Weighted>
-6.3157

> <Gold.Chemscore.Metal.Weighted>
-0.0000

> <Gold.Chemscore.Lipo.Weighted>
-12.1838

> <Gold.Chemscore.Internal_Hbond.Weighted>
0.0000

> <Gold.Chemscore.DEClash.Weighted>
1.3780

> <Gold.Chemscore.DEInternal.Weighted>
4.9435

> <Gold.Chemscore.Rot.Weighted>
4.4600

> <Gold.Chemscore.Internal.Correction.Weighted>
   9.000000E+99

> <Gold.Protein.RotatedTorsions>
[ 6907 6896 6895 6894 ] final   92.79 input  -60.11 | X-H torsion
[ 7974 7965 7964 7962 ] final  167.38 input  175.53 | X-H torsion
[ 8008 7997 7996 7995 ] final   -4.26 input   59.86 | X-H torsion
[ 10167 10162 10161 10158 ] final  -56.02 input  -65.29 | X-H torsion
[ 10718 10713 10712 10709 ] final    5.53 input   66.30 | X-H torsion
[ 10763 10752 10751 10750 ] final -107.84 input  -60.55 | X-H torsion
[ 11005 11000 10999 10996 ] final   91.97 input  -57.11 | X-H torsion

> <Gold.Protein.ActiveResidues>
 VAL166  LYS551  ARG553  GLY616  TRP617  ASP618  TYR619  PRO620  LYS621  CYS622 
 ASP623  PHE694  ASN695  SER759  ASP760  ASP761  ALA762  ILE779  LEU786  VAL792 
 PHE793  MET794  SER795  GLU796  ALA797  LYS798  CYS799  TRP800  GLU811  SER814 

> <Gold.Protein.RotatedAtoms>
  152.5453  134.1448  159.8493 H   0  0  0  0  0  0  0  0  0  0  0  0  # atno 6907 bound_to 6896
  151.1480  133.4919  159.2603 H   0  0  0  0  0  0  0  0  0  0  0  0  # atno 6908 bound_to 6896
  151.1502  135.0234  159.8720 H   0  0  0  0  0  0  0  0  0  0  0  0  # atno 6909 bound_to 6896
  144.7426  139.8752  143.6392 H   0  0  0  0  0  0  0  0  0  0  0  0  # atno 7974 bound_to 7965
  154.6162  140.2488  155.7607 H   0  0  0  0  0  0  0  0  0  0  0  0  # atno 8008 bound_to 7997
  156.2400  140.2936  156.0367 H   0  0  0  0  0  0  0  0  0  0  0  0  # atno 8009 bound_to 7997
  155.1971  140.0393  157.2901 H   0  0  0  0  0  0  0  0  0  0  0  0  # atno 8010 bound_to 7997
  140.6341  143.2473  151.5164 H   0  0  0  0  0  0  0  0  0  0  0  0  # atno 10167 bound_to 10162
  156.9088  130.5748  149.5647 H   0  0  0  0  0  0  0  0  0  0  0  0  # atno 10718 bound_to 10713
  154.8100  135.4660  154.0491 H   0  0  0  0  0  0  0  0  0  0  0  0  # atno 10763 bound_to 10752
  153.1930  135.6858  153.8335 H   0  0  0  0  0  0  0  0  0  0  0  0  # atno 10764 bound_to 10752
  153.7847  135.3251  155.3348 H   0  0  0  0  0  0  0  0  0  0  0  0  # atno 10765 bound_to 10752
  139.8830  134.8705  156.3505 H   0  0  0  0  0  0  0  0  0  0  0  0  # atno 11005 bound_to 11000
  146.1251  139.4276  143.0204 LP  0  0  0  0  0  0  0  0  0  0  0  0  # atno 17320 bound_to 7965
  145.7247  141.0063  143.1384 LP  0  0  0  0  0  0  0  0  0  0  0  0  # atno 17321 bound_to 7965
  139.5553  144.2292  152.1601 LP  0  0  0  0  0  0  0  0  0  0  0  0  # atno 17342 bound_to 10162
  140.1544  144.5085  150.6669 LP  0  0  0  0  0  0  0  0  0  0  0  0  # atno 17343 bound_to 10162
  156.0546  130.5610  150.9064 LP  0  0  0  0  0  0  0  0  0  0  0  0  # atno 17370 bound_to 10713
  157.5981  131.0942  150.9007 LP  0  0  0  0  0  0  0  0  0  0  0  0  # atno 17371 bound_to 10713
  140.9597  133.7396  156.0385 LP  0  0  0  0  0  0  0  0  0  0  0  0  # atno 17394 bound_to 11000
  140.8004  134.3515  157.5441 LP  0  0  0  0  0  0  0  0  0  0  0  0  # atno 17395 bound_to 11000

$$$$
