AV-unprocessed.smi:1|AV-procd|sdf|21|dock3
  -GOLD-   2262015123D 1   1.00000     0.00000
 Structure written by MMmdl.
 56 61  0  0  0  0  0  0  0  0  2 V2000
  146.3045  134.4478  162.6258 O   0  0  0  0  0  0  0  0  0  0  0  0
  145.4849  133.9450  161.8539 C   0  0  0  0  0  0  0  0  0  0  0  0
  145.7270  133.1165  160.8065 N   0  5  0  0  0  0  0  0  0  0  0  0
  146.8073  133.3173  160.0361 C   0  0  0  0  0  0  0  0  0  0  0  0
  147.4078  132.2732  159.4104 N   0  0  0  0  0  0  0  0  0  0  0  0
  148.4896  132.4731  158.6491 C   0  0  0  0  0  0  0  0  0  0  0  0
  149.1272  133.6163  158.3798 N   0  0  0  0  0  0  0  0  0  0  0  0
  148.5261  134.6777  158.9921 C   0  0  0  0  0  0  0  0  0  0  0  0
  147.3694  134.6060  159.8224 C   0  0  0  0  0  0  0  0  0  0  0  0
  147.0144  135.8653  160.2819 N   0  0  0  0  0  0  0  0  0  0  0  0
  147.9533  136.6279  159.7274 C   0  0  0  0  0  0  0  0  0  0  0  0
  148.8835  136.0173  158.9664 N   0  0  0  0  0  0  0  0  0  0  0  0
  150.0245  136.6659  158.2508 C   0  0  2  0  0  0  0  0  0  0  0  0
  151.0405  136.9522  159.1661 O   0  0  0  0  0  0  0  0  0  0  0  0
  151.2500  138.3587  159.2612 C   0  0  1  0  0  0  0  0  0  0  0  0
  152.7113  138.6760  159.5969 C   0  0  0  0  0  0  0  0  0  0  0  0
  152.8057  140.0350  159.9902 O   0  0  0  0  0  0  0  0  0  0  0  0
  152.7224  141.0130  159.0691 C   0  0  0  0  0  0  0  0  0  0  0  0
  152.7944  140.8143  157.8547 O   0  0  0  0  0  0  0  0  0  0  0  0
  152.5317  142.3629  159.6741 C   0  0  0  0  0  0  0  0  0  0  0  0
  152.3133  143.4763  158.8292 C   0  0  0  0  0  0  0  0  0  0  0  0
  152.1304  144.7633  159.3715 C   0  0  0  0  0  0  0  0  0  0  0  0
  152.1625  144.9526  160.7654 C   0  0  0  0  0  0  0  0  0  0  0  0
  152.3792  143.8534  161.6167 C   0  0  0  0  0  0  0  0  0  0  0  0
  152.5631  142.5656  161.0763 C   0  0  0  0  0  0  0  0  0  0  0  0
  150.7756  138.8981  157.9134 C   0  0  1  0  0  0  0  0  0  0  0  0
  151.7657  138.7328  156.9112 O   0  0  0  0  0  0  0  0  0  0  0  0
  151.0207  138.1773  155.5228 S   0  0  0  0  0  0  0  0  0  0  0  0
  150.8682  139.3085  154.5955 O   0  0  0  0  0  0  0  0  0  0  0  0
  151.6601  136.9116  155.1324 O   0  0  0  0  0  0  0  0  0  0  0  0
  149.5208  137.8301  156.1730 O   0  0  0  0  0  0  0  0  0  0  0  0
  149.5971  137.9799  157.5796 C   0  0  1  0  0  0  0  0  0  0  0  0
  144.0196  134.1969  162.0878 C   0  0  0  0  0  0  0  0  0  0  0  0
  143.5813  134.6599  163.3494 C   0  0  0  0  0  0  0  0  0  0  0  0
  142.2180  134.9293  163.5795 C   0  0  0  0  0  0  0  0  0  0  0  0
  141.2793  134.7477  162.5468 C   0  0  0  0  0  0  0  0  0  0  0  0
  141.7055  134.3001  161.2824 C   0  0  0  0  0  0  0  0  0  0  0  0
  143.0687  134.0300  161.0517 C   0  0  0  0  0  0  0  0  0  0  0  0
  148.9072  131.5884  158.1918 H   0  0  0  0  0  0  0  0  0  0  0  0
  147.9686  137.6956  159.8901 H   0  0  0  0  0  0  0  0  0  0  0  0
  150.3779  135.9130  157.5447 H   0  0  0  0  0  0  0  0  0  0  0  0
  150.6026  138.7626  160.0390 H   0  0  0  0  0  0  0  0  0  0  0  0
  153.0780  138.0177  160.3858 H   0  0  0  0  0  0  0  0  0  0  0  0
  153.3362  138.5189  158.7168 H   0  0  0  0  0  0  0  0  0  0  0  0
  152.2834  143.3548  157.7558 H   0  0  0  0  0  0  0  0  0  0  0  0
  151.9646  145.6058  158.7162 H   0  0  0  0  0  0  0  0  0  0  0  0
  152.0212  145.9394  161.1812 H   0  0  0  0  0  0  0  0  0  0  0  0
  152.4046  143.9970  162.6870 H   0  0  0  0  0  0  0  0  0  0  0  0
  152.7275  141.7440  161.7584 H   0  0  0  0  0  0  0  0  0  0  0  0
  150.4867  139.9485  157.9614 H   0  0  0  0  0  0  0  0  0  0  0  0
  148.6650  138.3565  158.0020 H   0  0  0  0  0  0  0  0  0  0  0  0
  144.2902  134.8075  164.1514 H   0  0  0  0  0  0  0  0  0  0  0  0
  141.8936  135.2772  164.5491 H   0  0  0  0  0  0  0  0  0  0  0  0
  140.2344  134.9558  162.7227 H   0  0  0  0  0  0  0  0  0  0  0  0
  140.9877  134.1671  160.4867 H   0  0  0  0  0  0  0  0  0  0  0  0
  143.3768  133.6983  160.0706 H   0  0  0  0  0  0  0  0  0  0  0  0
  1  2  2  0  0  0  0
  2  3  1  0  0  0  0
  2 33  1  0  0  0  0
  3  4  1  0  0  0  0
  4  9  1  0  0  0  0
  4  5  2  0  0  0  0
  5  6  1  0  0  0  0
  6  7  2  0  0  0  0
  6 39  1  0  0  0  0
  7  8  1  0  0  0  0
  8 12  1  0  0  0  0
  8  9  2  0  0  0  0
  9 10  1  0  0  0  0
 10 11  2  0  0  0  0
 11 12  1  0  0  0  0
 11 40  1  0  0  0  0
 12 13  1  0  0  0  0
 13 32  1  0  0  0  0
 13 14  1  0  0  0  0
 13 41  1  0  0  0  0
 14 15  1  0  0  0  0
 15 16  1  0  0  0  0
 15 26  1  0  0  0  0
 15 42  1  0  0  0  0
 16 17  1  0  0  0  0
 16 43  1  0  0  0  0
 16 44  1  0  0  0  0
 17 18  1  0  0  0  0
 18 19  2  0  0  0  0
 18 20  1  0  0  0  0
 20 25  1  0  0  0  0
 20 21  2  0  0  0  0
 21 22  1  0  0  0  0
 21 45  1  0  0  0  0
 22 23  2  0  0  0  0
 22 46  1  0  0  0  0
 23 24  1  0  0  0  0
 23 47  1  0  0  0  0
 24 25  2  0  0  0  0
 24 48  1  0  0  0  0
 25 49  1  0  0  0  0
 26 32  1  0  0  0  0
 26 27  1  0  0  0  0
 26 50  1  0  0  0  0
 27 28  1  0  0  0  0
 28 29  2  0  0  0  0
 28 30  2  0  0  0  0
 28 31  1  0  0  0  0
 31 32  1  0  0  0  0
 32 51  1  0  0  0  0
 33 38  1  0  0  0  0
 33 34  2  0  0  0  0
 34 35  1  0  0  0  0
 34 52  1  0  0  0  0
 35 36  2  0  0  0  0
 35 53  1  0  0  0  0
 36 37  1  0  0  0  0
 36 54  1  0  0  0  0
 37 38  2  0  0  0  0
 37 55  1  0  0  0  0
 38 56  1  0  0  0  0
M  CHG  1   3  -1
M  END
> <s_m_source_file>
AV-unprocessed.smi

> <i_m_source_file_index>
1

> <i_lp_mmshare_version>
43012

> <i_f3d_flags>
0

> <s_epik_input>
W2NIXTFbY0hdW2NIXVtjSF1bY0hdYzFDKD1PKVtOSF1jKG5bY0hdbjIpYyhjMjMpbltjSF1uM1tDQEBIXShbQ0BIXShbQ0BIXTQ1KU9TKE81KSg9Tyk9TylPW0NASF00W0NIMl1PQyg9TyljNltjSF1bY0hdW2NIXVtjSF1bY0hdNg==

> <s_epik_cmdline>
J2VwaWtfcHl0aG9uJywgJy1waCcsICc3LjAnLCAnLXRuJywgJzgnLCAnLW1hJywgJzIwMCcsICctbWV0YWxfYmluZGluZycsICctaW1hZScsICc8aW5maWxlLm1hZT4nLCAnLW9tYWUnLCAnPG91dGZpbGUubWFlPic=

> <r_lp_tautomer_probability>
1

> <r_epik_Ionization_Penalty>
4.39121

> <r_epik_Ionization_Penalty_Charging>
3.39398

> <r_epik_Ionization_Penalty_Neutral>
0.997232

> <r_epik_State_Penalty>
3.39839

> <r_epik_Charging_Adjusted_Penalty>
6.79237

> <i_epik_Tot_Q>
-1

> <i_epik_Tot_abs_Q>
1

> <r_epik_Metal_State_Penalty>
0.497663

> <b_epik_Metal_Only>
1

> <s_epik_Chemistry_Notes>
This compound has an ester and may undergo hydrolysis at high or low pH. This compound contains an acetal/aminal-like group ( X-CH(R)-Y where X, Y are N, S, or O) that may be acid/base labile, releasing an aldehyde.

> <s_lp_Force_Field>
OPLS_2005

> <r_lp_Energy>
42.9256

> <b_lp_Chiralities_Consistent>
1

> <s_lp_Variant>
AV-unprocessed.smi:1-21

> <Gold.Version>
5.8.1

> <Gold.Id.Protein>
6NUR|6NUR_protein|mol2

> <Gold.PLP.Fitness>
65.1482

> <Gold.PLP.PLP>
-53.9632

> <Gold.PLP.part.hbond>
-5.0000

> <Gold.PLP.part.metal>
0.0000

> <Gold.PLP.part.buried>
-4.8791

> <Gold.PLP.part.nonpolar>
-44.6494

> <Gold.PLP.part.repulsive>
0.2713

> <Gold.PLP.ligand.clash>
0.0000

> <Gold.PLP.ligand.torsion>
1.4267

> <Gold.PLP.Chemscore.Hbond>
4.5998

> <Gold.PLP.Chemscore.CHOScore>
0.0000

> <Gold.PLP.Chemscore.Metal>
0.0000

> <Gold.Chemscore.Hbonds>
donor molecule, donor type, donor heavy atom, donor atom, acceptor molecule, acceptor atom, score
      P1  H  6896  6907       L1     7  0.93
      P1  H  6896  6908       L1    14  1.00
      P1  H  7989  7998       L1    29  0.94
      P1  H  7997  8009       L1    19  0.58
      P1  H 10752 10763       L1    30  1.00

> <Gold.PLP.Chemscore.Internal.Correction>
0.2391

> <Gold.Rescore>
     Score         DG    S(hbond)    S(metal)    S(lipo)     H(rot)  DE(clash)    DE(int)     intcor
     16.93     -25.40       3.35        0.00     120.98       2.11       1.35       7.13       ----

> <Gold.Chemscore.Fitness>
16.9279

> <Gold.Chemscore.DG>
-25.4007

> <Gold.Chemscore.ZeroCoef>
-5.4800

> <Gold.Chemscore.Hbond>
3.3462

> <Gold.Chemscore.Metal>
0.0000

> <Gold.Chemscore.Lipo>
120.9839

> <Gold.Chemscore.Internal_Hbond>
0.0000

> <Gold.Chemscore.DEClash>
1.3472

> <Gold.Chemscore.DEInternal>
7.1256

> <Gold.Chemscore.Rot>
2.1136

> <Gold.Chemscore.Internal.Correction>
   9.000000E+99

> <Gold.Chemscore.Hbonds>
donor molecule, donor type, donor heavy atom, donor atom, acceptor molecule, acceptor atom, score
      P1  H  6896  6907       L1     7  0.21
      P1  H  6896  6908       L1    14  0.29
      P1  H  7989  7998       L1    29  0.90
      P1  H  7997  8009       L1    19  0.56
      P1  H 10752 10763       L1    30  0.99

> <Gold.Chemscore.Hbond.Weighted>
-11.1764

> <Gold.Chemscore.Metal.Weighted>
-0.0000

> <Gold.Chemscore.Lipo.Weighted>
-14.1551

> <Gold.Chemscore.Internal_Hbond.Weighted>
0.0000

> <Gold.Chemscore.DEClash.Weighted>
1.3472

> <Gold.Chemscore.DEInternal.Weighted>
7.1256

> <Gold.Chemscore.Rot.Weighted>
5.4107

> <Gold.Chemscore.Internal.Correction.Weighted>
   9.000000E+99

> <Gold.Protein.RotatedTorsions>
[ 6907 6896 6895 6894 ] final -131.73 input  -60.11 | X-H torsion
[ 7974 7965 7964 7962 ] final  -83.59 input  175.53 | X-H torsion
[ 8008 7997 7996 7995 ] final  171.63 input   59.86 | X-H torsion
[ 10167 10162 10161 10158 ] final  178.51 input  -65.29 | X-H torsion
[ 10718 10713 10712 10709 ] final  149.65 input   66.30 | X-H torsion
[ 10763 10752 10751 10750 ] final   54.15 input  -60.55 | X-H torsion
[ 11005 11000 10999 10996 ] final  -36.51 input  -57.11 | X-H torsion

> <Gold.Protein.ActiveResidues>
 VAL166  LYS551  ARG553  GLY616  TRP617  ASP618  TYR619  PRO620  LYS621  CYS622 
 ASP623  PHE694  ASN695  SER759  ASP760  ASP761  ALA762  ILE779  LEU786  VAL792 
 PHE793  MET794  SER795  GLU796  ALA797  LYS798  CYS799  TRP800  GLU811  SER814 

> <Gold.Protein.RotatedAtoms>
  150.9543  133.6515  159.2765 H   0  0  0  0  0  0  0  0  0  0  0  0  # atno 6907 bound_to 6896
  151.3860  135.0947  159.9521 H   0  0  0  0  0  0  0  0  0  0  0  0  # atno 6908 bound_to 6896
  152.5122  133.9067  159.7522 H   0  0  0  0  0  0  0  0  0  0  0  0  # atno 6909 bound_to 6896
  145.5179  140.9534  143.1671 H   0  0  0  0  0  0  0  0  0  0  0  0  # atno 7974 bound_to 7965
  156.1252  140.1507  156.9146 H   0  0  0  0  0  0  0  0  0  0  0  0  # atno 8008 bound_to 7997
  154.4866  140.0863  156.7542 H   0  0  0  0  0  0  0  0  0  0  0  0  # atno 8009 bound_to 7997
  155.4356  140.3429  155.4286 H   0  0  0  0  0  0  0  0  0  0  0  0  # atno 8010 bound_to 7997
  139.5297  144.2671  152.0659 H   0  0  0  0  0  0  0  0  0  0  0  0  # atno 10167 bound_to 10162
  157.2934  131.0857  151.1444 H   0  0  0  0  0  0  0  0  0  0  0  0  # atno 10718 bound_to 10713
  152.9802  135.5755  154.4857 H   0  0  0  0  0  0  0  0  0  0  0  0  # atno 10763 bound_to 10752
  154.4399  135.2775  155.1857 H   0  0  0  0  0  0  0  0  0  0  0  0  # atno 10764 bound_to 10752
  154.3529  135.6205  153.5705 H   0  0  0  0  0  0  0  0  0  0  0  0  # atno 10765 bound_to 10752
  140.9880  133.7020  156.1800 H   0  0  0  0  0  0  0  0  0  0  0  0  # atno 11005 bound_to 11000
  144.7692  139.6774  143.7202 LP  0  0  0  0  0  0  0  0  0  0  0  0  # atno 17320 bound_to 7965
  146.2125  139.5491  142.9672 LP  0  0  0  0  0  0  0  0  0  0  0  0  # atno 17321 bound_to 7965
  140.2132  144.4541  150.6376 LP  0  0  0  0  0  0  0  0  0  0  0  0  # atno 17342 bound_to 10162
  140.6466  143.2215  151.6171 LP  0  0  0  0  0  0  0  0  0  0  0  0  # atno 17343 bound_to 10162
  157.2832  130.6760  149.6076 LP  0  0  0  0  0  0  0  0  0  0  0  0  # atno 17370 bound_to 10713
  155.9668  130.4443  150.5458 LP  0  0  0  0  0  0  0  0  0  0  0  0  # atno 17371 bound_to 10713
  140.7083  134.4489  157.5583 LP  0  0  0  0  0  0  0  0  0  0  0  0  # atno 17394 bound_to 11000
  139.8979  134.8625  156.2023 LP  0  0  0  0  0  0  0  0  0  0  0  0  # atno 17395 bound_to 11000

$$$$
