AV-unprocessed.smi:92|AV-procd|sdf|844|dock1
  -GOLD-   2262017283D 1   1.00000     0.00000
 Structure written by MMmdl.
 61 64  0  0  0  0  0  0  0  0  2 V2000
  150.7219  144.8199  160.1069 C   0  0  0  0  0  0  0  0  0  0  0  0
  152.0700  144.5871  159.4094 C   0  0  0  0  0  0  0  0  0  0  0  0
  152.0978  143.3229  158.6307 N   0  3  1  0  0  0  0  0  0  0  0  0
  152.6312  142.1707  159.4022 C   0  0  0  0  0  0  0  0  0  0  0  0
  152.7898  140.9377  158.5023 C   0  0  0  0  0  0  0  0  0  0  0  0
  151.4527  140.5687  157.8244 C   0  0  2  0  0  0  0  0  0  0  0  0
  151.5420  139.3414  157.0173 N   0  0  0  0  0  0  0  0  0  0  0  0
  151.9926  139.4646  155.6347 C   0  0  0  0  0  0  0  0  0  0  0  0
  150.7768  138.2431  157.2597 C   0  0  0  0  0  0  0  0  0  0  0  0
  150.0040  138.1774  158.3754 N   0  0  0  0  0  0  0  0  0  0  0  0
  149.2388  137.1075  158.6091 C   0  0  0  0  0  0  0  0  0  0  0  0
  149.0995  136.0053  157.8713 N   0  0  0  0  0  0  0  0  0  0  0  0
  149.8743  136.0591  156.7505 C   0  0  0  0  0  0  0  0  0  0  0  0
  150.7276  137.1333  156.3682 C   0  0  0  0  0  0  0  0  0  0  0  0
  151.3498  136.8339  155.1620 N   0  0  0  0  0  0  0  0  0  0  0  0
  150.8822  135.6580  154.8438 C   0  0  0  0  0  0  0  0  0  0  0  0
  150.0141  135.1046  155.7575 N   0  0  0  0  0  0  0  0  0  0  0  0
  149.3313  133.8490  155.6387 C   0  0  0  0  0  0  0  0  0  0  0  0
  149.4269  133.0150  154.3580 C   0  0  0  0  0  0  0  0  0  0  0  0
  147.9524  132.5816  154.5129 C   0  0  0  0  0  0  0  0  0  0  0  0
  147.1068  132.6787  153.2337 C   0  0  0  0  0  0  0  0  0  0  0  0
  146.8558  134.0247  152.8837 O   0  0  0  0  0  0  0  0  0  0  0  0
  147.6859  131.1896  155.1286 C   0  0  0  0  0  0  0  0  0  0  0  0
  146.3647  131.0315  155.6045 O   0  0  0  0  0  0  0  0  0  0  0  0
  147.8097  133.7892  155.4663 C   0  0  0  0  0  0  0  0  0  0  0  0
  150.8562  141.7932  157.0791 C   0  0  1  0  0  0  0  0  0  0  0  0
  149.4666  141.4947  156.4888 C   0  0  0  0  0  0  0  0  0  0  0  0
  150.7763  143.0037  158.0322 C   0  0  0  0  0  0  0  0  0  0  0  0
  150.7706  145.7006  160.7477 H   0  0  0  0  0  0  0  0  0  0  0  0
  150.4509  143.9703  160.7346 H   0  0  0  0  0  0  0  0  0  0  0  0
  149.9133  144.9852  159.3955 H   0  0  0  0  0  0  0  0  0  0  0  0
  152.3228  145.4307  158.7656 H   0  0  0  0  0  0  0  0  0  0  0  0
  152.8377  144.5492  160.1833 H   0  0  0  0  0  0  0  0  0  0  0  0
  153.6012  142.4151  159.8332 H   0  0  0  0  0  0  0  0  0  0  0  0
  151.9637  141.9457  160.2355 H   0  0  0  0  0  0  0  0  0  0  0  0
  153.5615  141.1439  157.7617 H   0  0  0  0  0  0  0  0  0  0  0  0
  153.1555  140.1011  159.0982 H   0  0  0  0  0  0  0  0  0  0  0  0
  150.7521  140.3318  158.6267 H   0  0  0  0  0  0  0  0  0  0  0  0
  152.9219  138.9137  155.4890 H   0  0  0  0  0  0  0  0  0  0  0  0
  152.1831  140.5052  155.3715 H   0  0  0  0  0  0  0  0  0  0  0  0
  151.2485  139.0767  154.9373 H   0  0  0  0  0  0  0  0  0  0  0  0
  148.6551  137.1383  159.5173 H   0  0  0  0  0  0  0  0  0  0  0  0
  151.1678  135.1562  153.9307 H   0  0  0  0  0  0  0  0  0  0  0  0
  149.6442  133.2608  156.5021 H   0  0  0  0  0  0  0  0  0  0  0  0
  149.5952  133.6338  153.4748 H   0  0  0  0  0  0  0  0  0  0  0  0
  150.1512  132.2013  154.4059 H   0  0  0  0  0  0  0  0  0  0  0  0
  147.5972  132.1808  152.3965 H   0  0  0  0  0  0  0  0  0  0  0  0
  146.1430  132.1852  153.3638 H   0  0  0  0  0  0  0  0  0  0  0  0
  147.6773  134.4324  152.6543 H   0  0  0  0  0  0  0  0  0  0  0  0
  147.8681  130.4032  154.3957 H   0  0  0  0  0  0  0  0  0  0  0  0
  148.3575  130.9969  155.9654 H   0  0  0  0  0  0  0  0  0  0  0  0
  146.3521  131.2313  156.5281 H   0  0  0  0  0  0  0  0  0  0  0  0
  147.2617  133.5856  156.3870 H   0  0  0  0  0  0  0  0  0  0  0  0
  147.4140  134.6765  154.9693 H   0  0  0  0  0  0  0  0  0  0  0  0
  151.5103  142.0824  156.2575 H   0  0  0  0  0  0  0  0  0  0  0  0
  148.7633  141.1916  157.2651 H   0  0  0  0  0  0  0  0  0  0  0  0
  149.5069  140.6963  155.7477 H   0  0  0  0  0  0  0  0  0  0  0  0
  149.0543  142.3730  155.9916 H   0  0  0  0  0  0  0  0  0  0  0  0
  150.0543  142.8150  158.8288 H   0  0  0  0  0  0  0  0  0  0  0  0
  150.4122  143.8690  157.4762 H   0  0  0  0  0  0  0  0  0  0  0  0
  152.7274  143.4784  157.8563 H   0  0  0  0  0  0  0  0  0  0  0  0
  1  2  1  0  0  0  0
  1 29  1  0  0  0  0
  1 30  1  0  0  0  0
  1 31  1  0  0  0  0
  2  3  1  0  0  0  0
  2 32  1  0  0  0  0
  2 33  1  0  0  0  0
  3 28  1  0  0  0  0
  3  4  1  0  0  0  0
  3 61  1  0  0  0  0
  4  5  1  0  0  0  0
  4 34  1  0  0  0  0
  4 35  1  0  0  0  0
  5  6  1  0  0  0  0
  5 36  1  0  0  0  0
  5 37  1  0  0  0  0
  6  7  1  0  0  0  0
  6 26  1  0  0  0  0
  6 38  1  0  0  0  0
  7  8  1  0  0  0  0
  7  9  1  0  0  0  0
  8 39  1  0  0  0  0
  8 40  1  0  0  0  0
  8 41  1  0  0  0  0
  9 14  1  0  0  0  0
  9 10  2  0  0  0  0
 10 11  1  0  0  0  0
 11 12  2  0  0  0  0
 11 42  1  0  0  0  0
 12 13  1  0  0  0  0
 13 17  1  0  0  0  0
 13 14  2  0  0  0  0
 14 15  1  0  0  0  0
 15 16  2  0  0  0  0
 16 17  1  0  0  0  0
 16 43  1  0  0  0  0
 17 18  1  0  0  0  0
 18 25  1  0  0  0  0
 18 19  1  0  0  0  0
 18 44  1  0  0  0  0
 19 20  1  0  0  0  0
 19 45  1  0  0  0  0
 19 46  1  0  0  0  0
 20 21  1  0  0  0  0
 20 23  1  0  0  0  0
 20 25  1  0  0  0  0
 21 22  1  0  0  0  0
 21 47  1  0  0  0  0
 21 48  1  0  0  0  0
 22 49  1  0  0  0  0
 23 24  1  0  0  0  0
 23 50  1  0  0  0  0
 23 51  1  0  0  0  0
 24 52  1  0  0  0  0
 25 53  1  0  0  0  0
 25 54  1  0  0  0  0
 26 27  1  0  0  0  0
 26 28  1  0  0  0  0
 26 55  1  0  0  0  0
 27 56  1  0  0  0  0
 27 57  1  0  0  0  0
 27 58  1  0  0  0  0
 28 59  1  0  0  0  0
 28 60  1  0  0  0  0
M  CHG  1   3   1
M  END
> <s_m_source_file>
AV-unprocessed.smi

> <i_m_source_file_index>
92

> <i_lp_mmshare_version>
43012

> <i_f3d_flags>
0

> <s_epik_input>
W0NIM11bQ0gyXU4xW0NIMl1bQ0gyXVtDQEhdKFtDQEBIXShbQ0gzXSlbQ0gyXTEpTihbQ0gzXSljKG5bY0hdbjIpYyhjMjMpbltjSF1uM1tDSF0oW0NIMl00KVtDSDJdQzQoW0NIMl1bT0hdKVtDSDJdW09IXQ==

> <s_epik_cmdline>
J2VwaWtfcHl0aG9uJywgJy1waCcsICc3LjAnLCAnLXRuJywgJzgnLCAnLW1hJywgJzIwMCcsICctbWV0YWxfYmluZGluZycsICctaW1hZScsICc8aW5maWxlLm1hZT4nLCAnLW9tYWUnLCAnPG91dGZpbGUubWFlPic=

> <r_lp_tautomer_probability>
1

> <r_epik_Ionization_Penalty>
0.00235514

> <r_epik_Ionization_Penalty_Charging>
0.00137877

> <r_epik_Ionization_Penalty_Neutral>
0.000976366

> <r_epik_State_Penalty>
-0

> <r_epik_Charging_Adjusted_Penalty>
0.00137877

> <i_epik_Tot_Q>
1

> <i_epik_Tot_abs_Q>
1

> <r_epik_Metal_State_Penalty>
-0

> <b_epik_Metal_Only>
0

> <s_lp_Force_Field>
OPLS_2005

> <r_lp_Energy>
51.4593

> <b_lp_Chiralities_Consistent>
1

> <s_lp_Variant>
AV-unprocessed.smi:92-4

> <Gold.Version>
5.8.1

> <Gold.Id.Protein>
6NUR|6NUR_protein|mol2

> <Gold.PLP.Fitness>
46.9789

> <Gold.PLP.PLP>
-42.4244

> <Gold.PLP.part.hbond>
-2.5137

> <Gold.PLP.part.metal>
0.0000

> <Gold.PLP.part.buried>
-5.2902

> <Gold.PLP.part.nonpolar>
-35.0598

> <Gold.PLP.part.repulsive>
0.1483

> <Gold.PLP.ligand.clash>
0.0343

> <Gold.PLP.ligand.torsion>
1.3492

> <Gold.PLP.Chemscore.Hbond>
1.0000

> <Gold.PLP.Chemscore.CHOScore>
0.9968

> <Gold.PLP.Chemscore.Metal>
0.0000

> <Gold.Chemscore.Hbonds>
donor molecule, donor type, donor heavy atom, donor atom, acceptor molecule, acceptor atom, score
      L1  H    22    49       P1  7948  0.31
      L1  C    16    43       P1  7949  0.89

> <Gold.PLP.Chemscore.Internal.Correction>
1.2968

> <Gold.Rescore>
     Score         DG    S(hbond)    S(metal)    S(lipo)     H(rot)  DE(clash)    DE(int)     intcor
      9.91     -12.82       0.98        0.00     105.20       3.22       0.11       2.80       ----

> <Gold.Chemscore.Fitness>
9.9053

> <Gold.Chemscore.DG>
-12.8178

> <Gold.Chemscore.ZeroCoef>
-5.4800

> <Gold.Chemscore.Hbond>
0.9814

> <Gold.Chemscore.Metal>
0.0000

> <Gold.Chemscore.Lipo>
105.1987

> <Gold.Chemscore.Internal_Hbond>
0.0000

> <Gold.Chemscore.DEClash>
0.1108

> <Gold.Chemscore.DEInternal>
2.8018

> <Gold.Chemscore.Rot>
3.2219

> <Gold.Chemscore.Internal.Correction>
   9.000000E+99

> <Gold.Chemscore.Hbonds>
donor molecule, donor type, donor heavy atom, donor atom, acceptor molecule, acceptor atom, score
      L1  H    22    49       P1  7948  0.22

> <Gold.Chemscore.Hbond.Weighted>
-3.2777

> <Gold.Chemscore.Metal.Weighted>
-0.0000

> <Gold.Chemscore.Lipo.Weighted>
-12.3082

> <Gold.Chemscore.Internal_Hbond.Weighted>
0.0000

> <Gold.Chemscore.DEClash.Weighted>
0.1108

> <Gold.Chemscore.DEInternal.Weighted>
2.8018

> <Gold.Chemscore.Rot.Weighted>
8.2482

> <Gold.Chemscore.Internal.Correction.Weighted>
   9.000000E+99

> <Gold.Protein.RotatedTorsions>
[ 6907 6896 6895 6894 ] final   19.03 input  -60.11 | X-H torsion
[ 7974 7965 7964 7962 ] final  171.73 input  175.53 | X-H torsion
[ 8008 7997 7996 7995 ] final   36.09 input   59.86 | X-H torsion
[ 10167 10162 10161 10158 ] final   -7.66 input  -65.29 | X-H torsion
[ 10718 10713 10712 10709 ] final -155.74 input   66.30 | X-H torsion
[ 10763 10752 10751 10750 ] final -133.65 input  -60.55 | X-H torsion
[ 11005 11000 10999 10996 ] final  113.48 input  -57.11 | X-H torsion

> <Gold.Protein.ActiveResidues>
 VAL166  LYS551  ARG553  GLY616  TRP617  ASP618  TYR619  PRO620  LYS621  CYS622 
 ASP623  PHE694  ASN695  SER759  ASP760  ASP761  ALA762  ILE779  LEU786  VAL792 
 PHE793  MET794  SER795  GLU796  ALA797  LYS798  CYS799  TRP800  GLU811  SER814 

> <Gold.Protein.RotatedAtoms>
  151.8745  135.0477  160.0482 H   0  0  0  0  0  0  0  0  0  0  0  0  # atno 6907 bound_to 6896
  152.2562  133.5253  159.5362 H   0  0  0  0  0  0  0  0  0  0  0  0  # atno 6908 bound_to 6896
  150.7100  134.0809  159.3940 H   0  0  0  0  0  0  0  0  0  0  0  0  # atno 6909 bound_to 6896
  144.7287  139.9394  143.6428 H   0  0  0  0  0  0  0  0  0  0  0  0  # atno 7974 bound_to 7965
  155.1817  140.3300  155.4374 H   0  0  0  0  0  0  0  0  0  0  0  0  # atno 8008 bound_to 7997
  156.2474  140.1925  156.6865 H   0  0  0  0  0  0  0  0  0  0  0  0  # atno 8009 bound_to 7997
  154.6267  140.0588  156.9668 H   0  0  0  0  0  0  0  0  0  0  0  0  # atno 8010 bound_to 7997
  140.7036  143.6056  150.8755 H   0  0  0  0  0  0  0  0  0  0  0  0  # atno 10167 bound_to 10162
  156.5170  130.8460  151.2668 H   0  0  0  0  0  0  0  0  0  0  0  0  # atno 10718 bound_to 10713
  154.8730  135.3759  154.4608 H   0  0  0  0  0  0  0  0  0  0  0  0  # atno 10763 bound_to 10752
  153.5276  135.7028  153.5704 H   0  0  0  0  0  0  0  0  0  0  0  0  # atno 10764 bound_to 10752
  153.3923  135.3969  155.1897 H   0  0  0  0  0  0  0  0  0  0  0  0  # atno 10765 bound_to 10752
  139.8954  134.9550  156.6745 H   0  0  0  0  0  0  0  0  0  0  0  0  # atno 11005 bound_to 11000
  146.0796  139.3784  143.0472 LP  0  0  0  0  0  0  0  0  0  0  0  0  # atno 17320 bound_to 7965
  145.7858  140.9836  143.1075 LP  0  0  0  0  0  0  0  0  0  0  0  0  # atno 17321 bound_to 7965
  139.9779  143.5983  152.2952 LP  0  0  0  0  0  0  0  0  0  0  0  0  # atno 17342 bound_to 10162
  139.6594  144.7662  151.1992 LP  0  0  0  0  0  0  0  0  0  0  0  0  # atno 17343 bound_to 10162
  157.7442  130.9930  150.2657 LP  0  0  0  0  0  0  0  0  0  0  0  0  # atno 17370 bound_to 10713
  156.3186  130.3782  149.7596 LP  0  0  0  0  0  0  0  0  0  0  0  0  # atno 17371 bound_to 10713
  140.7347  133.9028  155.8236 LP  0  0  0  0  0  0  0  0  0  0  0  0  # atno 17394 bound_to 11000
  141.0125  134.1001  157.4206 LP  0  0  0  0  0  0  0  0  0  0  0  0  # atno 17395 bound_to 11000

$$$$
