AV-unprocessed.smi:1220|AV-procd|sdf|5114|dock1
  -GOLD-   22720 4173D 1   1.00000     0.00000
 Structure written by MMmdl.
 35 36  0  0  0  0  0  0  0  0  1 V2000
  149.8146  141.9634  156.9009 C   0  0  0  0  0  0  0  0  0  0  0  0
  150.6538  141.1874  157.9249 C   0  0  2  0  0  0  0  0  0  0  0  0
  152.0075  141.8835  158.1849 C   0  0  0  0  0  0  0  0  0  0  0  0
  151.8575  143.2166  158.7418 N   0  0  0  0  0  0  0  0  0  0  0  0
  151.2816  144.3280  158.1625 C   0  0  0  0  0  0  0  0  0  0  0  0
  151.3915  145.3546  159.0555 C   0  0  0  0  0  0  0  0  0  0  0  0
  152.0527  144.7644  160.1687 C   0  0  0  0  0  0  0  0  0  0  0  0
  152.3264  143.4836  159.9797 N   0  0  0  0  0  0  0  0  0  0  0  0
  150.8586  139.8242  157.4362 N   0  0  0  0  0  0  0  0  0  0  0  0
  151.2937  139.4876  156.2111 C   0  0  0  0  0  0  0  0  0  0  0  0
  151.6196  140.3120  155.3568 O   0  0  0  0  0  0  0  0  0  0  0  0
  151.3432  137.9884  155.8963 C   0  0  2  0  0  0  0  0  0  0  0  0
  150.1104  137.5114  155.0984 C   0  0  0  0  0  0  0  0  0  0  0  0
  150.0837  135.9794  155.1173 C   0  0  0  0  0  0  0  0  0  0  0  0
  150.7690  135.4914  156.7444 S   0  0  0  0  0  0  0  0  0  0  0  0
  149.6684  135.1593  157.6614 O   0  0  0  0  0  0  0  0  0  0  0  0
  151.8852  134.5581  156.5317 O   0  0  0  0  0  0  0  0  0  0  0  0
  151.4280  137.1446  157.1805 C   0  0  0  0  0  0  0  0  0  0  0  0
  149.6165  142.9786  157.2458 H   0  0  0  0  0  0  0  0  0  0  0  0
  148.8514  141.4797  156.7347 H   0  0  0  0  0  0  0  0  0  0  0  0
  150.3240  142.0328  155.9392 H   0  0  0  0  0  0  0  0  0  0  0  0
  150.0849  141.1671  158.8562 H   0  0  0  0  0  0  0  0  0  0  0  0
  152.6195  141.2885  158.8640 H   0  0  0  0  0  0  0  0  0  0  0  0
  152.5705  141.9683  157.2543 H   0  0  0  0  0  0  0  0  0  0  0  0
  150.8544  144.2980  157.1710 H   0  0  0  0  0  0  0  0  0  0  0  0
  151.0532  146.3728  158.9323 H   0  0  0  0  0  0  0  0  0  0  0  0
  152.3394  145.2251  161.1023 H   0  0  0  0  0  0  0  0  0  0  0  0
  150.6177  139.0766  158.0706 H   0  0  0  0  0  0  0  0  0  0  0  0
  152.2287  137.7749  155.2947 H   0  0  0  0  0  0  0  0  0  0  0  0
  149.1962  137.8803  155.5659 H   0  0  0  0  0  0  0  0  0  0  0  0
  150.1203  137.8911  154.0764 H   0  0  0  0  0  0  0  0  0  0  0  0
  149.0830  135.5668  154.9886 H   0  0  0  0  0  0  0  0  0  0  0  0
  150.7326  135.5713  154.3424 H   0  0  0  0  0  0  0  0  0  0  0  0
  152.4485  137.0467  157.5509 H   0  0  0  0  0  0  0  0  0  0  0  0
  150.8086  137.5520  157.9812 H   0  0  0  0  0  0  0  0  0  0  0  0
  1  2  1  0  0  0  0
  1 19  1  0  0  0  0
  1 20  1  0  0  0  0
  1 21  1  0  0  0  0
  2  3  1  0  0  0  0
  2  9  1  0  0  0  0
  2 22  1  0  0  0  0
  3  4  1  0  0  0  0
  3 23  1  0  0  0  0
  3 24  1  0  0  0  0
  4  8  1  0  0  0  0
  4  5  1  0  0  0  0
  5  6  2  0  0  0  0
  5 25  1  0  0  0  0
  6  7  1  0  0  0  0
  6 26  1  0  0  0  0
  7  8  2  0  0  0  0
  7 27  1  0  0  0  0
  9 10  1  0  0  0  0
  9 28  1  0  0  0  0
 10 11  2  0  0  0  0
 10 12  1  0  0  0  0
 12 18  1  0  0  0  0
 12 13  1  0  0  0  0
 12 29  1  0  0  0  0
 13 14  1  0  0  0  0
 13 30  1  0  0  0  0
 13 31  1  0  0  0  0
 14 15  1  0  0  0  0
 14 32  1  0  0  0  0
 14 33  1  0  0  0  0
 15 16  2  0  0  0  0
 15 17  2  0  0  0  0
 15 18  1  0  0  0  0
 18 34  1  0  0  0  0
 18 35  1  0  0  0  0
M  END
> <s_m_source_file>
AV-unprocessed.smi

> <i_m_source_file_index>
1220

> <i_lp_mmshare_version>
43012

> <i_f3d_flags>
0

> <s_epik_input>
bjFbY0hdW2NIXVtjSF1uMVtDSDJdW0NAQEhdKFtDSDNdKVtOSF1DKD1PKVtDQEBIXShbQ0gyXTIpW0NIMl1bQ0gyXVMyKD1PKT1P

> <s_epik_cmdline>
J2VwaWtfcHl0aG9uJywgJy1waCcsICc3LjAnLCAnLXRuJywgJzgnLCAnLW1hJywgJzIwMCcsICctbWV0YWxfYmluZGluZycsICctaW1hZScsICc8aW5maWxlLm1hZT4nLCAnLW9tYWUnLCAnPG91dGZpbGUubWFlPic=

> <r_lp_tautomer_probability>
1

> <r_epik_Ionization_Penalty>
0.000293905

> <r_epik_Ionization_Penalty_Charging>
0

> <r_epik_Ionization_Penalty_Neutral>
0.000293905

> <r_epik_State_Penalty>
-0

> <r_epik_Charging_Adjusted_Penalty>
0

> <i_epik_Tot_Q>
0

> <i_epik_Tot_abs_Q>
0

> <r_epik_Metal_State_Penalty>
-0

> <b_epik_Metal_Only>
0

> <s_lp_Force_Field>
OPLS_2005

> <r_lp_Energy>
3.03909

> <b_lp_Chiralities_Consistent>
1

> <s_lp_Variant>
AV-unprocessed.smi:1220-1

> <Gold.Version>
5.8.1

> <Gold.Id.Protein>
6NUR|6NUR_protein|mol2

> <Gold.PLP.Fitness>
39.5971

> <Gold.PLP.PLP>
-30.7000

> <Gold.PLP.part.hbond>
-3.1101

> <Gold.PLP.part.metal>
0.0000

> <Gold.PLP.part.buried>
-4.3871

> <Gold.PLP.part.nonpolar>
-23.8481

> <Gold.PLP.part.repulsive>
0.0569

> <Gold.PLP.ligand.clash>
0.0000

> <Gold.PLP.ligand.torsion>
0.7532

> <Gold.PLP.Chemscore.Hbond>
2.4623

> <Gold.PLP.Chemscore.CHOScore>
1.0000

> <Gold.PLP.Chemscore.Metal>
0.0000

> <Gold.Chemscore.Hbonds>
donor molecule, donor type, donor heavy atom, donor atom, acceptor molecule, acceptor atom, score
      P1  H  6896  6908       L1    16  0.59
      P1  H  7989  7998       L1    11  0.88
      P1  H 10752 10765       L1    17  0.62
      L1  C     5    25       P1  8028  1.00

> <Gold.PLP.Chemscore.Internal.Correction>
0.0165

> <Gold.Rescore>
     Score         DG    S(hbond)    S(metal)    S(lipo)     H(rot)  DE(clash)    DE(int)     intcor
     15.45     -17.47       2.46        0.00      70.49       1.75       0.10       1.92       ----

> <Gold.Chemscore.Fitness>
15.4461

> <Gold.Chemscore.DG>
-17.4675

> <Gold.Chemscore.ZeroCoef>
-5.4800

> <Gold.Chemscore.Hbond>
2.4580

> <Gold.Chemscore.Metal>
0.0000

> <Gold.Chemscore.Lipo>
70.4914

> <Gold.Chemscore.Internal_Hbond>
0.0000

> <Gold.Chemscore.DEClash>
0.0981

> <Gold.Chemscore.DEInternal>
1.9232

> <Gold.Chemscore.Rot>
1.7460

> <Gold.Chemscore.Internal.Correction>
   9.000000E+99

> <Gold.Chemscore.Hbonds>
donor molecule, donor type, donor heavy atom, donor atom, acceptor molecule, acceptor atom, score
      P1  H  6896  6908       L1    16  0.26
      P1  H  7989  7998       L1    11  0.86
      P1  H 10752 10765       L1    17  0.50

> <Gold.Chemscore.Hbond.Weighted>
-8.2097

> <Gold.Chemscore.Metal.Weighted>
-0.0000

> <Gold.Chemscore.Lipo.Weighted>
-8.2475

> <Gold.Chemscore.Internal_Hbond.Weighted>
0.0000

> <Gold.Chemscore.DEClash.Weighted>
0.0981

> <Gold.Chemscore.DEInternal.Weighted>
1.9232

> <Gold.Chemscore.Rot.Weighted>
4.4697

> <Gold.Chemscore.Internal.Correction.Weighted>
   9.000000E+99

> <Gold.Protein.RotatedTorsions>
[ 6907 6896 6895 6894 ] final  149.94 input  -60.11 | X-H torsion
[ 7974 7965 7964 7962 ] final  -22.07 input  175.53 | X-H torsion
[ 8008 7997 7996 7995 ] final  168.31 input   59.86 | X-H torsion
[ 10167 10162 10161 10158 ] final  152.25 input  -65.29 | X-H torsion
[ 10718 10713 10712 10709 ] final -143.54 input   66.30 | X-H torsion
[ 10763 10752 10751 10750 ] final -132.78 input  -60.55 | X-H torsion
[ 11005 11000 10999 10996 ] final  -66.35 input  -57.11 | X-H torsion

> <Gold.Protein.ActiveResidues>
 VAL166  LYS551  ARG553  GLY616  TRP617  ASP618  TYR619  PRO620  LYS621  CYS622 
 ASP623  PHE694  ASN695  SER759  ASP760  ASP761  ALA762  ILE779  LEU786  VAL792 
 PHE793  MET794  SER795  GLU796  ALA797  LYS798  CYS799  TRP800  GLU811  SER814 

> <Gold.Protein.RotatedAtoms>
  152.1213  133.4355  159.4676 H   0  0  0  0  0  0  0  0  0  0  0  0  # atno 6907 bound_to 6896
  150.6872  134.2532  159.4528 H   0  0  0  0  0  0  0  0  0  0  0  0  # atno 6908 bound_to 6896
  152.0409  134.9712  160.0624 H   0  0  0  0  0  0  0  0  0  0  0  0  # atno 6909 bound_to 6896
  146.1697  140.4429  142.8537 H   0  0  0  0  0  0  0  0  0  0  0  0  # atno 7974 bound_to 7965
  156.1558  140.1594  156.8695 H   0  0  0  0  0  0  0  0  0  0  0  0  # atno 8008 bound_to 7997
  154.5113  140.0800  156.8032 H   0  0  0  0  0  0  0  0  0  0  0  0  # atno 8009 bound_to 7997
  155.3806  140.3405  155.4249 H   0  0  0  0  0  0  0  0  0  0  0  0  # atno 8010 bound_to 7997
  139.4834  144.5374  151.7622 H   0  0  0  0  0  0  0  0  0  0  0  0  # atno 10167 bound_to 10162
  156.3592  130.7729  151.1894 H   0  0  0  0  0  0  0  0  0  0  0  0  # atno 10718 bound_to 10713
  154.8740  135.3787  154.4466 H   0  0  0  0  0  0  0  0  0  0  0  0  # atno 10763 bound_to 10752
  153.5146  135.7029  153.5768 H   0  0  0  0  0  0  0  0  0  0  0  0  # atno 10764 bound_to 10752
  153.4043  135.3940  155.1974 H   0  0  0  0  0  0  0  0  0  0  0  0  # atno 10765 bound_to 10752
  141.1480  133.6698  156.6126 H   0  0  0  0  0  0  0  0  0  0  0  0  # atno 11005 bound_to 11000
  144.8144  140.6442  143.6394 LP  0  0  0  0  0  0  0  0  0  0  0  0  # atno 17320 bound_to 7965
  145.4374  139.1540  143.3989 LP  0  0  0  0  0  0  0  0  0  0  0  0  # atno 17321 bound_to 7965
  140.4908  144.1313  150.5950 LP  0  0  0  0  0  0  0  0  0  0  0  0  # atno 17342 bound_to 10162
  140.4173  143.2628  151.9759 LP  0  0  0  0  0  0  0  0  0  0  0  0  # atno 17343 bound_to 10162
  157.7471  131.0405  150.4601 LP  0  0  0  0  0  0  0  0  0  0  0  0  # atno 17370 bound_to 10713
  156.4809  130.4073  149.6462 LP  0  0  0  0  0  0  0  0  0  0  0  0  # atno 17371 bound_to 10713
  140.3602  134.7694  157.4528 LP  0  0  0  0  0  0  0  0  0  0  0  0  # atno 17394 bound_to 11000
  140.0791  134.5756  155.8560 LP  0  0  0  0  0  0  0  0  0  0  0  0  # atno 17395 bound_to 11000

$$$$
