AV-unprocessed.smi:3015|AV-procd|sdf|11471|dock9
  -GOLD-   2272016403D 1   1.00000     0.00000
 Structure written by MMmdl.
 24 24  0  0  0  0  0  0  0  0  2 V2000
  148.2675  141.9367  155.8448 N   0  3  0  0  0  0  0  0  0  0  0  0
  149.5018  141.1303  155.8991 C   0  0  1  0  0  0  0  0  0  0  0  0
  149.5094  140.0904  154.7653 C   0  0  0  0  0  0  0  0  0  0  0  0
  149.6506  140.7324  153.5151 O   0  0  0  0  0  0  0  0  0  0  0  0
  150.7435  142.0405  155.8368 C   0  0  0  0  0  0  0  0  0  0  0  0
  151.3215  142.3547  157.2058 C   0  0  0  0  0  0  0  0  0  0  0  0
  151.8348  141.3288  158.0266 C   0  0  0  0  0  0  0  0  0  0  0  0
  152.3571  141.6673  159.2897 C   0  0  0  0  0  0  0  0  0  0  0  0
  152.3459  143.0213  159.6797 C   0  0  0  0  0  0  0  0  0  0  0  0
  151.8581  144.0119  158.9019 N   0  0  0  0  0  0  0  0  0  0  0  0
  151.3628  143.6797  157.6908 C   0  0  0  0  0  0  0  0  0  0  0  0
  147.7513  141.8250  156.7053 H   0  0  0  0  0  0  0  0  0  0  0  0
  147.6999  141.6301  155.0676 H   0  0  0  0  0  0  0  0  0  0  0  0
  149.5109  140.6015  156.8533 H   0  0  0  0  0  0  0  0  0  0  0  0
  150.3123  139.3643  154.8988 H   0  0  0  0  0  0  0  0  0  0  0  0
  148.5710  139.5346  154.7531 H   0  0  0  0  0  0  0  0  0  0  0  0
  149.5904  140.0815  152.8317 H   0  0  0  0  0  0  0  0  0  0  0  0
  151.5242  141.5615  155.2442 H   0  0  0  0  0  0  0  0  0  0  0  0
  150.5029  142.9719  155.3221 H   0  0  0  0  0  0  0  0  0  0  0  0
  151.8271  140.3001  157.6969 H   0  0  0  0  0  0  0  0  0  0  0  0
  152.7579  140.9076  159.9444 H   0  0  0  0  0  0  0  0  0  0  0  0
  152.7384  143.3161  160.6419 H   0  0  0  0  0  0  0  0  0  0  0  0
  150.9802  144.4955  157.0953 H   0  0  0  0  0  0  0  0  0  0  0  0
  148.5116  142.9092  155.7223 H   0  0  0  0  0  0  0  0  0  0  0  0
  1  2  1  0  0  0  0
  1 12  1  0  0  0  0
  1 13  1  0  0  0  0
  1 24  1  0  0  0  0
  2  3  1  0  0  0  0
  2  5  1  0  0  0  0
  2 14  1  0  0  0  0
  3  4  1  0  0  0  0
  3 15  1  0  0  0  0
  3 16  1  0  0  0  0
  4 17  1  0  0  0  0
  5  6  1  0  0  0  0
  5 18  1  0  0  0  0
  5 19  1  0  0  0  0
  6 11  1  0  0  0  0
  6  7  2  0  0  0  0
  7  8  1  0  0  0  0
  7 20  1  0  0  0  0
  8  9  2  0  0  0  0
  8 21  1  0  0  0  0
  9 10  1  0  0  0  0
  9 22  1  0  0  0  0
 10 11  2  0  0  0  0
 11 23  1  0  0  0  0
M  CHG  1   1   1
M  END
> <s_m_source_file>
AV-unprocessed.smi

> <i_m_source_file_index>
3015

> <i_lp_mmshare_version>
43012

> <i_f3d_flags>
0

> <s_epik_input>
W09IXVtDSDJdW0NAQEhdKFtOSDJdKVtDSDJdYzFbY0hdW2NIXVtjSF1uW2NIXTE=

> <s_epik_cmdline>
J2VwaWtfcHl0aG9uJywgJy1waCcsICc3LjAnLCAnLXRuJywgJzgnLCAnLW1hJywgJzIwMCcsICctbWV0YWxfYmluZGluZycsICctaW1hZScsICc8aW5maWxlLm1hZT4nLCAnLW9tYWUnLCAnPG91dGZpbGUubWFlPic=

> <r_epik_Ionization_Penalty>
0.0193991

> <r_epik_Ionization_Penalty_Charging>
0.0188044

> <r_epik_Ionization_Penalty_Neutral>
0.000594726

> <r_epik_State_Penalty>
0.00921718

> <r_epik_Charging_Adjusted_Penalty>
0.0280216

> <i_epik_Tot_Q>
1

> <i_epik_Tot_abs_Q>
1

> <r_epik_Metal_State_Penalty>
0.00867471

> <b_epik_Metal_Only>
0

> <s_lp_Force_Field>
OPLS_2005

> <r_lp_Energy>
6.76442

> <b_lp_Chiralities_Consistent>
1

> <s_lp_Variant>
AV-unprocessed.smi:3015-2

> <Gold.Version>
5.8.1

> <Gold.Id.Protein>
6NUR|6NUR_protein|mol2

> <Gold.PLP.Fitness>
37.7364

> <Gold.PLP.PLP>
-24.1281

> <Gold.PLP.part.hbond>
-3.8557

> <Gold.PLP.part.metal>
0.0000

> <Gold.PLP.part.buried>
-3.9126

> <Gold.PLP.part.nonpolar>
-16.3537

> <Gold.PLP.part.repulsive>
0.0888

> <Gold.PLP.ligand.clash>
0.0000

> <Gold.PLP.ligand.torsion>
0.5676

> <Gold.PLP.Chemscore.Hbond>
3.9122

> <Gold.PLP.Chemscore.CHOScore>
1.0000

> <Gold.PLP.Chemscore.Metal>
0.0000

> <Gold.Chemscore.Hbonds>
donor molecule, donor type, donor heavy atom, donor atom, acceptor molecule, acceptor atom, score
      L1  H     1    24       P1  8028  2.00
      L1  H     4    17       P1  7957  0.75
      P1  H  7989  7998       L1     4  0.31
      P1  H  8011  8017       L1     4  0.83
      L1  C    11    23       P1  8028  1.00

> <Gold.PLP.Chemscore.Internal.Correction>
0.0068

> <Gold.Rescore>
     Score         DG    S(hbond)    S(metal)    S(lipo)     H(rot)  DE(clash)    DE(int)     intcor
     13.80     -14.85       1.99        0.00      69.97       2.14       0.46       0.59       ----

> <Gold.Chemscore.Fitness>
13.7986

> <Gold.Chemscore.DG>
-14.8467

> <Gold.Chemscore.ZeroCoef>
-5.4800

> <Gold.Chemscore.Hbond>
1.9940

> <Gold.Chemscore.Metal>
0.0000

> <Gold.Chemscore.Lipo>
69.9695

> <Gold.Chemscore.Internal_Hbond>
0.0000

> <Gold.Chemscore.DEClash>
0.4583

> <Gold.Chemscore.DEInternal>
0.5899

> <Gold.Chemscore.Rot>
2.1405

> <Gold.Chemscore.Internal.Correction>
   9.000000E+99

> <Gold.Chemscore.Hbonds>
donor molecule, donor type, donor heavy atom, donor atom, acceptor molecule, acceptor atom, score
      L1  H     1    24       P1  8028  1.00
      L1  H     4    17       P1  7957  0.74
      P1  H  7989  7998       L1     4  0.01
      P1  H  8011  8017       L1     4  0.16

> <Gold.Chemscore.Hbond.Weighted>
-6.6600

> <Gold.Chemscore.Metal.Weighted>
-0.0000

> <Gold.Chemscore.Lipo.Weighted>
-8.1864

> <Gold.Chemscore.Internal_Hbond.Weighted>
0.0000

> <Gold.Chemscore.DEClash.Weighted>
0.4583

> <Gold.Chemscore.DEInternal.Weighted>
0.5899

> <Gold.Chemscore.Rot.Weighted>
5.4797

> <Gold.Chemscore.Internal.Correction.Weighted>
   9.000000E+99

> <Gold.Protein.RotatedTorsions>
[ 6907 6896 6895 6894 ] final -101.88 input  -60.11 | X-H torsion
[ 7974 7965 7964 7962 ] final  -17.06 input  175.53 | X-H torsion
[ 8008 7997 7996 7995 ] final  147.53 input   59.86 | X-H torsion
[ 10167 10162 10161 10158 ] final  -18.81 input  -65.29 | X-H torsion
[ 10718 10713 10712 10709 ] final  123.40 input   66.30 | X-H torsion
[ 10763 10752 10751 10750 ] final -135.07 input  -60.55 | X-H torsion
[ 11005 11000 10999 10996 ] final  113.90 input  -57.11 | X-H torsion

> <Gold.Protein.ActiveResidues>
 VAL166  LYS551  ARG553  GLY616  TRP617  ASP618  TYR619  PRO620  LYS621  CYS622 
 ASP623  PHE694  ASN695  SER759  ASP760  ASP761  ALA762  ILE779  LEU786  VAL792 
 PHE793  MET794  SER795  GLU796  ALA797  LYS798  CYS799  TRP800  GLU811  SER814 

> <Gold.Protein.RotatedAtoms>
  150.7173  134.0666  159.3849 H   0  0  0  0  0  0  0  0  0  0  0  0  # atno 6907 bound_to 6896
  151.8647  135.0509  160.0482 H   0  0  0  0  0  0  0  0  0  0  0  0  # atno 6908 bound_to 6896
  152.2689  133.5329  159.5464 H   0  0  0  0  0  0  0  0  0  0  0  0  # atno 6909 bound_to 6896
  146.1959  140.3725  142.8441 H   0  0  0  0  0  0  0  0  0  0  0  0  # atno 7974 bound_to 7965
  156.2822  140.2153  156.5552 H   0  0  0  0  0  0  0  0  0  0  0  0  # atno 8008 bound_to 7997
  154.7258  140.0499  157.0704 H   0  0  0  0  0  0  0  0  0  0  0  0  # atno 8009 bound_to 7997
  155.0418  140.3146  155.4725 H   0  0  0  0  0  0  0  0  0  0  0  0  # atno 8010 bound_to 7997
  140.7262  143.4880  151.0029 H   0  0  0  0  0  0  0  0  0  0  0  0  # atno 10167 bound_to 10162
  157.5668  131.1086  150.8440 H   0  0  0  0  0  0  0  0  0  0  0  0  # atno 10718 bound_to 10713
  154.8709  135.3715  154.4838 H   0  0  0  0  0  0  0  0  0  0  0  0  # atno 10763 bound_to 10752
  153.5490  135.7025  153.5605 H   0  0  0  0  0  0  0  0  0  0  0  0  # atno 10764 bound_to 10752
  153.3733  135.4016  155.1768 H   0  0  0  0  0  0  0  0  0  0  0  0  # atno 10765 bound_to 10752
  139.8965  134.9558  156.6810 H   0  0  0  0  0  0  0  0  0  0  0  0  # atno 11005 bound_to 11000
  144.8579  140.7097  143.6126 LP  0  0  0  0  0  0  0  0  0  0  0  0  # atno 17320 bound_to 7965
  145.3646  139.1673  143.4365 LP  0  0  0  0  0  0  0  0  0  0  0  0  # atno 17321 bound_to 7965
  139.8582  143.7348  152.3175 LP  0  0  0  0  0  0  0  0  0  0  0  0  # atno 17342 bound_to 10162
  139.7555  144.7522  151.0442 LP  0  0  0  0  0  0  0  0  0  0  0  0  # atno 17343 bound_to 10162
  156.8923  130.5217  149.5286 LP  0  0  0  0  0  0  0  0  0  0  0  0  # atno 17370 bound_to 10713
  156.0715  130.5747  150.9393 LP  0  0  0  0  0  0  0  0  0  0  0  0  # atno 17371 bound_to 10713
  140.7299  133.9067  155.8204 LP  0  0  0  0  0  0  0  0  0  0  0  0  # atno 17394 bound_to 11000
  141.0161  134.0954  157.4170 LP  0  0  0  0  0  0  0  0  0  0  0  0  # atno 17395 bound_to 11000

$$$$
