AV-unprocessed.smi:449|AV-procd|sdf|2606|dock1
  -GOLD-   2262023 03D 1   1.00000     0.00000
 Structure written by MMmdl.
 38 39  0  0  0  0  0  0  0  0  1 V2000
  145.2531  135.2598  151.2124 C   0  0  0  0  0  0  0  0  0  0  0  0
  146.0776  136.7963  150.7221 S   0  0  0  0  0  0  0  0  0  0  0  0
  146.2926  137.5555  152.3543 C   0  0  0  0  0  0  0  0  0  0  0  0
  146.7828  139.0072  152.2370 C   0  0  0  0  0  0  0  0  0  0  0  0
  147.2638  139.5775  153.5745 C   0  0  0  0  0  0  0  0  0  0  0  0
  146.5142  139.5601  154.5512 O   0  0  0  0  0  0  0  0  0  0  0  0
  148.5129  140.0801  153.5781 N   0  0  0  0  0  0  0  0  0  0  0  0
  149.2278  140.6566  154.6613 C   0  0  0  0  0  0  0  0  0  0  0  0
  148.4256  141.1710  155.7014 C   0  0  0  0  0  0  0  0  0  0  0  0
  149.0373  141.7679  156.8197 C   0  0  0  0  0  0  0  0  0  0  0  0
  150.4490  141.8403  156.8872 C   0  0  0  0  0  0  0  0  0  0  0  0
  151.1327  142.4283  157.9736 N   0  0  0  0  0  0  0  0  0  0  0  0
  151.5227  143.8258  157.8030 C   0  0  0  0  0  0  0  0  0  0  0  0
  151.9455  144.4319  159.1527 C   0  0  0  0  0  0  0  0  0  0  0  0
  152.9707  143.6367  159.7392 O   0  0  0  0  0  0  0  0  0  0  0  0
  152.5252  142.3102  160.0014 C   0  0  0  0  0  0  0  0  0  0  0  0
  152.1262  141.6268  158.6821 C   0  0  0  0  0  0  0  0  0  0  0  0
  151.1636  141.2983  155.7941 C   0  0  0  0  0  0  0  0  0  0  0  0
  150.5790  140.7273  154.7203 N   0  0  0  0  0  0  0  0  0  0  0  0
  145.0378  134.6514  150.3342 H   0  0  0  0  0  0  0  0  0  0  0  0
  144.3142  135.4770  151.7223 H   0  0  0  0  0  0  0  0  0  0  0  0
  145.8896  134.6841  151.8844 H   0  0  0  0  0  0  0  0  0  0  0  0
  145.3401  137.5118  152.8838 H   0  0  0  0  0  0  0  0  0  0  0  0
  147.0069  136.9593  152.9237 H   0  0  0  0  0  0  0  0  0  0  0  0
  147.5907  139.0600  151.5054 H   0  0  0  0  0  0  0  0  0  0  0  0
  145.9797  139.6418  151.8613 H   0  0  0  0  0  0  0  0  0  0  0  0
  149.0137  140.0342  152.7029 H   0  0  0  0  0  0  0  0  0  0  0  0
  147.3482  141.1118  155.6480 H   0  0  0  0  0  0  0  0  0  0  0  0
  148.4091  142.1520  157.6089 H   0  0  0  0  0  0  0  0  0  0  0  0
  152.3528  143.8752  157.0972 H   0  0  0  0  0  0  0  0  0  0  0  0
  150.7147  144.4237  157.3840 H   0  0  0  0  0  0  0  0  0  0  0  0
  152.3214  145.4447  159.0080 H   0  0  0  0  0  0  0  0  0  0  0  0
  151.0928  144.5028  159.8300 H   0  0  0  0  0  0  0  0  0  0  0  0
  153.3294  141.7540  160.4831 H   0  0  0  0  0  0  0  0  0  0  0  0
  151.6872  142.3276  160.7001 H   0  0  0  0  0  0  0  0  0  0  0  0
  151.7273  140.6349  158.8979 H   0  0  0  0  0  0  0  0  0  0  0  0
  153.0058  141.4988  158.0497 H   0  0  0  0  0  0  0  0  0  0  0  0
  152.2422  141.3359  155.7593 H   0  0  0  0  0  0  0  0  0  0  0  0
  1  2  1  0  0  0  0
  1 20  1  0  0  0  0
  1 21  1  0  0  0  0
  1 22  1  0  0  0  0
  2  3  1  0  0  0  0
  3  4  1  0  0  0  0
  3 23  1  0  0  0  0
  3 24  1  0  0  0  0
  4  5  1  0  0  0  0
  4 25  1  0  0  0  0
  4 26  1  0  0  0  0
  5  6  2  0  0  0  0
  5  7  1  0  0  0  0
  7  8  1  0  0  0  0
  7 27  1  0  0  0  0
  8 19  1  0  0  0  0
  8  9  2  0  0  0  0
  9 10  1  0  0  0  0
  9 28  1  0  0  0  0
 10 11  2  0  0  0  0
 10 29  1  0  0  0  0
 11 12  1  0  0  0  0
 11 18  1  0  0  0  0
 12 17  1  0  0  0  0
 12 13  1  0  0  0  0
 13 14  1  0  0  0  0
 13 30  1  0  0  0  0
 13 31  1  0  0  0  0
 14 15  1  0  0  0  0
 14 32  1  0  0  0  0
 14 33  1  0  0  0  0
 15 16  1  0  0  0  0
 16 17  1  0  0  0  0
 16 34  1  0  0  0  0
 16 35  1  0  0  0  0
 17 36  1  0  0  0  0
 17 37  1  0  0  0  0
 18 19  2  0  0  0  0
 18 38  1  0  0  0  0
M  END
> <s_m_source_file>
AV-unprocessed.smi

> <i_m_source_file_index>
449

> <i_lp_mmshare_version>
43012

> <i_f3d_flags>
0

> <s_epik_input>
W0NIM11TW0NIMl1bQ0gyXUMoPU8pW05IXWMxW2NIXVtjSF1jKFtjSF1uMSlOMltDSDJdW0NIMl1PW0NIMl1bQ0gyXTI=

> <s_epik_cmdline>
J2VwaWtfcHl0aG9uJywgJy1waCcsICc3LjAnLCAnLXRuJywgJzgnLCAnLW1hJywgJzIwMCcsICctbWV0YWxfYmluZGluZycsICctaW1hZScsICc8aW5maWxlLm1hZT4nLCAnLW9tYWUnLCAnPG91dGZpbGUubWFlPic=

> <r_lp_tautomer_probability>
1

> <r_epik_Ionization_Penalty>
0.00212969

> <r_epik_Ionization_Penalty_Charging>
0

> <r_epik_Ionization_Penalty_Neutral>
0.00212969

> <r_epik_State_Penalty>
0.00229518

> <r_epik_Charging_Adjusted_Penalty>
0.00229518

> <i_epik_Tot_Q>
0

> <i_epik_Tot_abs_Q>
0

> <r_epik_Metal_State_Penalty>
-0

> <b_epik_Metal_Only>
0

> <s_lp_Force_Field>
OPLS_2005

> <r_lp_Energy>
23.7251

> <b_lp_Chiralities_Consistent>
1

> <s_lp_Variant>
AV-unprocessed.smi:449-1

> <Gold.Version>
5.8.1

> <Gold.Id.Protein>
6NUR|6NUR_protein|mol2

> <Gold.PLP.Fitness>
44.0795

> <Gold.PLP.PLP>
-38.7512

> <Gold.PLP.part.hbond>
-2.0000

> <Gold.PLP.part.metal>
0.0000

> <Gold.PLP.part.buried>
0.5724

> <Gold.PLP.part.nonpolar>
-37.2809

> <Gold.PLP.part.repulsive>
0.3721

> <Gold.PLP.ligand.clash>
0.0000

> <Gold.PLP.ligand.torsion>
0.5586

> <Gold.PLP.Chemscore.Hbond>
2.0000

> <Gold.PLP.Chemscore.CHOScore>
0.0000

> <Gold.PLP.Chemscore.Metal>
0.0000

> <Gold.Chemscore.Hbonds>
donor molecule, donor type, donor heavy atom, donor atom, acceptor molecule, acceptor atom, score
      L1  H     7    27       P1  7957  1.00
      P1  H  7989  7998       L1    19  0.88

> <Gold.PLP.Chemscore.Internal.Correction>
0.4455

> <Gold.Rescore>
     Score         DG    S(hbond)    S(metal)    S(lipo)     H(rot)  DE(clash)    DE(int)     intcor
     15.26     -18.14       1.57        0.00      95.00       1.45       0.44       2.44       ----

> <Gold.Chemscore.Fitness>
15.2645

> <Gold.Chemscore.DG>
-18.1399

> <Gold.Chemscore.ZeroCoef>
-5.4800

> <Gold.Chemscore.Hbond>
1.5734

> <Gold.Chemscore.Metal>
0.0000

> <Gold.Chemscore.Lipo>
95.0012

> <Gold.Chemscore.Internal_Hbond>
0.0000

> <Gold.Chemscore.DEClash>
0.4361

> <Gold.Chemscore.DEInternal>
2.4393

> <Gold.Chemscore.Rot>
1.4493

> <Gold.Chemscore.Internal.Correction>
   9.000000E+99

> <Gold.Chemscore.Hbonds>
donor molecule, donor type, donor heavy atom, donor atom, acceptor molecule, acceptor atom, score
      L1  H     7    27       P1  7957  1.00
      P1  H  7989  7998       L1    19  0.47

> <Gold.Chemscore.Hbond.Weighted>
-5.2551

> <Gold.Chemscore.Metal.Weighted>
-0.0000

> <Gold.Chemscore.Lipo.Weighted>
-11.1151

> <Gold.Chemscore.Internal_Hbond.Weighted>
0.0000

> <Gold.Chemscore.DEClash.Weighted>
0.4361

> <Gold.Chemscore.DEInternal.Weighted>
2.4393

> <Gold.Chemscore.Rot.Weighted>
3.7103

> <Gold.Chemscore.Internal.Correction.Weighted>
   9.000000E+99

> <Gold.Protein.RotatedTorsions>
[ 6907 6896 6895 6894 ] final  -40.10 input  -60.11 | X-H torsion
[ 7974 7965 7964 7962 ] final   23.90 input  175.53 | X-H torsion
[ 8008 7997 7996 7995 ] final  -90.40 input   59.86 | X-H torsion
[ 10167 10162 10161 10158 ] final  -95.65 input  -65.29 | X-H torsion
[ 10718 10713 10712 10709 ] final   79.76 input   66.30 | X-H torsion
[ 10763 10752 10751 10750 ] final  160.09 input  -60.55 | X-H torsion
[ 11005 11000 10999 10996 ] final  127.60 input  -57.11 | X-H torsion

> <Gold.Protein.ActiveResidues>
 VAL166  LYS551  ARG553  GLY616  TRP617  ASP618  TYR619  PRO620  LYS621  CYS622 
 ASP623  PHE694  ASN695  SER759  ASP760  ASP761  ALA762  ILE779  LEU786  VAL792 
 PHE793  MET794  SER795  GLU796  ALA797  LYS798  CYS799  TRP800  GLU811  SER814 

> <Gold.Protein.RotatedAtoms>
  150.9824  134.9176  159.7851 H   0  0  0  0  0  0  0  0  0  0  0  0  # atno 6907 bound_to 6896
  152.5226  134.3392  159.9221 H   0  0  0  0  0  0  0  0  0  0  0  0  # atno 6908 bound_to 6896
  151.3399  133.3925  159.2705 H   0  0  0  0  0  0  0  0  0  0  0  0  # atno 6909 bound_to 6896
  146.1963  139.7679  142.8795 H   0  0  0  0  0  0  0  0  0  0  0  0  # atno 7974 bound_to 7965
  154.6981  140.0531  157.0431 H   0  0  0  0  0  0  0  0  0  0  0  0  # atno 8008 bound_to 7997
  155.0722  140.3201  155.4608 H   0  0  0  0  0  0  0  0  0  0  0  0  # atno 8009 bound_to 7997
  156.2751  140.2080  156.5850 H   0  0  0  0  0  0  0  0  0  0  0  0  # atno 8010 bound_to 7997
  140.3020  143.3157  152.0238 H   0  0  0  0  0  0  0  0  0  0  0  0  # atno 10167 bound_to 10162
  157.6786  130.9929  150.1979 H   0  0  0  0  0  0  0  0  0  0  0  0  # atno 10718 bound_to 10713
  154.2419  135.2774  155.2850 H   0  0  0  0  0  0  0  0  0  0  0  0  # atno 10763 bound_to 10752
  154.5538  135.5667  153.6949 H   0  0  0  0  0  0  0  0  0  0  0  0  # atno 10764 bound_to 10752
  152.9998  135.6281  154.2563 H   0  0  0  0  0  0  0  0  0  0  0  0  # atno 10765 bound_to 10752
  139.9516  134.9621  156.8879 H   0  0  0  0  0  0  0  0  0  0  0  0  # atno 11005 bound_to 11000
  145.3633  141.0330  143.3272 LP  0  0  0  0  0  0  0  0  0  0  0  0  # atno 17320 bound_to 7965
  144.8587  139.5210  143.6822 LP  0  0  0  0  0  0  0  0  0  0  0  0  # atno 17321 bound_to 7965
  139.4913  144.6449  151.6800 LP  0  0  0  0  0  0  0  0  0  0  0  0  # atno 17342 bound_to 10162
  140.5643  144.0216  150.6185 LP  0  0  0  0  0  0  0  0  0  0  0  0  # atno 17343 bound_to 10162
  156.2677  130.3718  149.8064 LP  0  0  0  0  0  0  0  0  0  0  0  0  # atno 17370 bound_to 10713
  156.5791  130.8458  151.3378 LP  0  0  0  0  0  0  0  0  0  0  0  0  # atno 17371 bound_to 10713
  140.5706  134.0447  155.7429 LP  0  0  0  0  0  0  0  0  0  0  0  0  # atno 17394 bound_to 11000
  141.1180  133.9508  157.2785 LP  0  0  0  0  0  0  0  0  0  0  0  0  # atno 17395 bound_to 11000

$$$$
