AV-unprocessed.smi:2844|AV-procd|sdf|10942|dock10
  -GOLD-   2272015393D 1   1.00000     0.00000
 Structure written by MMmdl.
 39 41  0  0  0  0  0  0  0  0  2 V2000
  152.2066  144.4100  161.3935 C   0  0  0  0  0  0  0  0  0  0  0  0
  152.1055  143.4195  160.2456 C   0  0  0  0  0  0  0  0  0  0  0  0
  151.2965  143.7533  159.1357 C   0  0  0  0  0  0  0  0  0  0  0  0
  151.2212  142.8252  158.1039 C   0  0  0  0  0  0  0  0  0  0  0  0
  150.5192  142.8522  156.8967 N   0  3  0  0  0  0  0  0  0  0  0  0
  150.7578  141.7029  156.2060 C   0  0  0  0  0  0  0  0  0  0  0  0
  151.6022  140.9428  156.9548 N   0  0  0  0  0  0  0  0  0  0  0  0
  152.1713  139.6155  156.6875 C   0  0  0  0  0  0  0  0  0  0  0  0
  152.3070  139.3210  155.1814 C   0  0  1  0  0  0  0  0  0  0  0  0
  153.6378  138.9319  154.8951 O   0  0  0  0  0  0  0  0  0  0  0  0
  151.3278  138.2271  154.7143 C   0  0  0  0  0  0  0  0  0  0  0  0
  149.9427  138.5608  154.9953 N   0  0  0  0  0  0  0  0  0  0  0  0
  148.8907  138.6668  154.1057 C   0  0  0  0  0  0  0  0  0  0  0  0
  147.8088  138.9987  154.8625 C   0  0  0  0  0  0  0  0  0  0  0  0
  146.2004  139.2700  154.3020 Cl  0  0  0  0  0  0  0  0  0  0  0  0
  148.2656  139.0764  156.2027 C   0  0  0  0  0  0  0  0  0  0  0  0
  149.5609  138.8060  156.2751 N   0  0  0  0  0  0  0  0  0  0  0  0
  151.9175  141.6020  158.1475 C   0  0  0  0  0  0  0  0  0  0  0  0
  152.7201  141.2575  159.2322 C   0  0  0  0  0  0  0  0  0  0  0  0
  152.8079  142.1873  160.2931 C   0  0  0  0  0  0  0  0  0  0  0  0
  153.6739  141.8387  161.4916 C   0  0  0  0  0  0  0  0  0  0  0  0
  151.6248  145.3108  161.1955 H   0  0  0  0  0  0  0  0  0  0  0  0
  153.2424  144.7115  161.5505 H   0  0  0  0  0  0  0  0  0  0  0  0
  151.8306  143.9666  162.3158 H   0  0  0  0  0  0  0  0  0  0  0  0
  150.7588  144.6891  159.0926 H   0  0  0  0  0  0  0  0  0  0  0  0
  150.3472  141.4401  155.2417 H   0  0  0  0  0  0  0  0  0  0  0  0
  153.1465  139.5704  157.1746 H   0  0  0  0  0  0  0  0  0  0  0  0
  151.5454  138.8687  157.1777 H   0  0  0  0  0  0  0  0  0  0  0  0
  152.1057  140.2352  154.6217 H   0  0  0  0  0  0  0  0  0  0  0  0
  153.6871  137.9884  154.9177 H   0  0  0  0  0  0  0  0  0  0  0  0
  151.4333  138.0522  153.6427 H   0  0  0  0  0  0  0  0  0  0  0  0
  151.5566  137.2815  155.2078 H   0  0  0  0  0  0  0  0  0  0  0  0
  149.0019  138.5038  153.0440 H   0  0  0  0  0  0  0  0  0  0  0  0
  147.7159  139.3126  157.1018 H   0  0  0  0  0  0  0  0  0  0  0  0
  153.2528  140.3186  159.2683 H   0  0  0  0  0  0  0  0  0  0  0  0
  154.1461  140.8631  161.3731 H   0  0  0  0  0  0  0  0  0  0  0  0
  153.0744  141.8098  162.4019 H   0  0  0  0  0  0  0  0  0  0  0  0
  154.4652  142.5777  161.6200 H   0  0  0  0  0  0  0  0  0  0  0  0
  149.9183  143.5971  156.5676 H   0  0  0  0  0  0  0  0  0  0  0  0
  1  2  1  0  0  0  0
  1 22  1  0  0  0  0
  1 23  1  0  0  0  0
  1 24  1  0  0  0  0
  2 20  1  0  0  0  0
  2  3  2  0  0  0  0
  3  4  1  0  0  0  0
  3 25  1  0  0  0  0
  4 18  2  0  0  0  0
  4  5  1  0  0  0  0
  5  6  2  0  0  0  0
  5 39  1  0  0  0  0
  6  7  1  0  0  0  0
  6 26  1  0  0  0  0
  7  8  1  0  0  0  0
  7 18  1  0  0  0  0
  8  9  1  0  0  0  0
  8 27  1  0  0  0  0
  8 28  1  0  0  0  0
  9 10  1  0  0  0  0
  9 11  1  0  0  0  0
  9 29  1  0  0  0  0
 10 30  1  0  0  0  0
 11 12  1  0  0  0  0
 11 31  1  0  0  0  0
 11 32  1  0  0  0  0
 12 17  1  0  0  0  0
 12 13  1  0  0  0  0
 13 14  2  0  0  0  0
 13 33  1  0  0  0  0
 14 15  1  0  0  0  0
 14 16  1  0  0  0  0
 16 17  2  0  0  0  0
 16 34  1  0  0  0  0
 18 19  1  0  0  0  0
 19 20  2  0  0  0  0
 19 35  1  0  0  0  0
 20 21  1  0  0  0  0
 21 36  1  0  0  0  0
 21 37  1  0  0  0  0
 21 38  1  0  0  0  0
M  CHG  1   5   1
M  END
> <s_m_source_file>
AV-unprocessed.smi

> <i_m_source_file_index>
2844

> <i_lp_mmshare_version>
43012

> <i_f3d_flags>
0

> <s_epik_input>
W0NIM11jKFtjSF0xKWMoW0NIM10pW2NIXWMoYzEyKW4oW2NIXW4yKVtDSDJdW0NASF0oW09IXSlbQ0gyXW4zW2NIXWMoQ2wpW2NIXW4z

> <s_epik_cmdline>
J2VwaWtfcHl0aG9uJywgJy1waCcsICc3LjAnLCAnLXRuJywgJzgnLCAnLW1hJywgJzIwMCcsICctbWV0YWxfYmluZGluZycsICctaW1hZScsICc8aW5maWxlLm1hZT4nLCAnLW9tYWUnLCAnPG91dGZpbGUubWFlPic=

> <r_lp_tautomer_probability>
1

> <r_epik_Ionization_Penalty>
1.09214

> <r_epik_Ionization_Penalty_Charging>
1.09214

> <r_epik_Ionization_Penalty_Neutral>
2.93683e-06

> <r_epik_State_Penalty>
1.14852

> <r_epik_Charging_Adjusted_Penalty>
2.24066

> <i_epik_Tot_Q>
1

> <i_epik_Tot_abs_Q>
1

> <r_epik_Metal_State_Penalty>
1.23687

> <b_epik_Metal_Only>
0

> <s_lp_Force_Field>
OPLS_2005

> <r_lp_Energy>
15.1146

> <b_lp_Chiralities_Consistent>
1

> <s_lp_Variant>
AV-unprocessed.smi:2844-4

> <Gold.Version>
5.8.1

> <Gold.Id.Protein>
6NUR|6NUR_protein|mol2

> <Gold.PLP.Fitness>
56.0325

> <Gold.PLP.PLP>
-43.3965

> <Gold.PLP.part.hbond>
-2.0000

> <Gold.PLP.part.metal>
0.0000

> <Gold.PLP.part.buried>
-5.1040

> <Gold.PLP.part.nonpolar>
-36.3589

> <Gold.PLP.part.repulsive>
0.0300

> <Gold.PLP.ligand.clash>
0.0000

> <Gold.PLP.ligand.torsion>
1.0918

> <Gold.PLP.Chemscore.Hbond>
3.0000

> <Gold.PLP.Chemscore.CHOScore>
1.9368

> <Gold.PLP.Chemscore.Metal>
0.0000

> <Gold.Chemscore.Hbonds>
donor molecule, donor type, donor heavy atom, donor atom, acceptor molecule, acceptor atom, score
      L1  H     5    39       P1  8028  2.00
      P1  H  7997  8009       L1    10  1.00
      L1  C    13    33       P1  7948  0.94
      L1  C    13    33       P1  7957  1.00

> <Gold.PLP.Chemscore.Internal.Correction>
0.0092

> <Gold.Rescore>
     Score         DG    S(hbond)    S(metal)    S(lipo)     H(rot)  DE(clash)    DE(int)     intcor
     17.41     -19.75       1.81        0.00     118.67       2.21       0.13       2.21       ----

> <Gold.Chemscore.Fitness>
17.4110

> <Gold.Chemscore.DG>
-19.7480

> <Gold.Chemscore.ZeroCoef>
-5.4800

> <Gold.Chemscore.Hbond>
1.8109

> <Gold.Chemscore.Metal>
0.0000

> <Gold.Chemscore.Lipo>
118.6711

> <Gold.Chemscore.Internal_Hbond>
0.0000

> <Gold.Chemscore.DEClash>
0.1319

> <Gold.Chemscore.DEInternal>
2.2051

> <Gold.Chemscore.Rot>
2.2129

> <Gold.Chemscore.Internal.Correction>
   9.000000E+99

> <Gold.Chemscore.Hbonds>
donor molecule, donor type, donor heavy atom, donor atom, acceptor molecule, acceptor atom, score
      L1  H     5    39       P1  8028  1.00
      P1  H  7997  8009       L1    10  0.29

> <Gold.Chemscore.Hbond.Weighted>
-6.0484

> <Gold.Chemscore.Metal.Weighted>
-0.0000

> <Gold.Chemscore.Lipo.Weighted>
-13.8845

> <Gold.Chemscore.Internal_Hbond.Weighted>
0.0000

> <Gold.Chemscore.DEClash.Weighted>
0.1319

> <Gold.Chemscore.DEInternal.Weighted>
2.2051

> <Gold.Chemscore.Rot.Weighted>
5.6649

> <Gold.Chemscore.Internal.Correction.Weighted>
   9.000000E+99

> <Gold.Protein.RotatedTorsions>
[ 6907 6896 6895 6894 ] final -122.31 input  -60.11 | X-H torsion
[ 7974 7965 7964 7962 ] final   77.40 input  175.53 | X-H torsion
[ 8008 7997 7996 7995 ] final -125.72 input   59.86 | X-H torsion
[ 10167 10162 10161 10158 ] final   23.60 input  -65.29 | X-H torsion
[ 10718 10713 10712 10709 ] final   43.49 input   66.30 | X-H torsion
[ 10763 10752 10751 10750 ] final   77.22 input  -60.55 | X-H torsion
[ 11005 11000 10999 10996 ] final   26.55 input  -57.11 | X-H torsion

> <Gold.Protein.ActiveResidues>
 VAL166  LYS551  ARG553  GLY616  TRP617  ASP618  TYR619  PRO620  LYS621  CYS622 
 ASP623  PHE694  ASN695  SER759  ASP760  ASP761  ALA762  ILE779  LEU786  VAL792 
 PHE793  MET794  SER795  GLU796  ALA797  LYS798  CYS799  TRP800  GLU811  SER814 

> <Gold.Protein.RotatedAtoms>
  150.8564  133.7709  159.3007 H   0  0  0  0  0  0  0  0  0  0  0  0  # atno 6907 bound_to 6896
  151.5365  135.1067  159.9925 H   0  0  0  0  0  0  0  0  0  0  0  0  # atno 6908 bound_to 6896
  152.4593  133.7744  159.6872 H   0  0  0  0  0  0  0  0  0  0  0  0  # atno 6909 bound_to 6896
  145.6905  139.2551  143.1763 H   0  0  0  0  0  0  0  0  0  0  0  0  # atno 7974 bound_to 7965
  155.2178  140.0421  157.2943 H   0  0  0  0  0  0  0  0  0  0  0  0  # atno 8008 bound_to 7997
  154.5969  140.2442  155.7816 H   0  0  0  0  0  0  0  0  0  0  0  0  # atno 8009 bound_to 7997
  156.2296  140.2943  156.0163 H   0  0  0  0  0  0  0  0  0  0  0  0  # atno 8010 bound_to 7997
  140.5255  143.9930  150.6438 H   0  0  0  0  0  0  0  0  0  0  0  0  # atno 10167 bound_to 10162
  157.4164  130.7944  149.7476 H   0  0  0  0  0  0  0  0  0  0  0  0  # atno 10718 bound_to 10713
  153.0783  135.4922  154.8449 H   0  0  0  0  0  0  0  0  0  0  0  0  # atno 10763 bound_to 10752
  154.7116  135.3021  154.9190 H   0  0  0  0  0  0  0  0  0  0  0  0  # atno 10764 bound_to 10752
  153.9882  135.6781  153.4806 H   0  0  0  0  0  0  0  0  0  0  0  0  # atno 10765 bound_to 10752
  140.3358  134.2387  155.7696 H   0  0  0  0  0  0  0  0  0  0  0  0  # atno 11005 bound_to 11000
  146.0886  140.7682  142.9606 LP  0  0  0  0  0  0  0  0  0  0  0  0  # atno 17320 bound_to 7965
  144.6998  140.3602  143.7165 LP  0  0  0  0  0  0  0  0  0  0  0  0  # atno 17321 bound_to 7965
  140.3290  143.3089  152.0706 LP  0  0  0  0  0  0  0  0  0  0  0  0  # atno 17342 bound_to 10162
  139.4937  144.6522  151.6651 LP  0  0  0  0  0  0  0  0  0  0  0  0  # atno 17343 bound_to 10162
  155.9866  130.3973  150.3202 LP  0  0  0  0  0  0  0  0  0  0  0  0  # atno 17370 bound_to 10713
  157.1346  131.0280  151.2954 LP  0  0  0  0  0  0  0  0  0  0  0  0  # atno 17371 bound_to 10713
  141.2051  133.7867  157.0248 LP  0  0  0  0  0  0  0  0  0  0  0  0  # atno 17394 bound_to 11000
  140.0822  134.9641  157.1643 LP  0  0  0  0  0  0  0  0  0  0  0  0  # atno 17395 bound_to 11000

$$$$
