#       Name:                AV-unprocessed.smi:203
#       Creating user name   scv26
#       Creation time:       Thu Mar 26 19:50:16 2020


#       File generated by GOLD software.
#

@<TRIPOS>MOLECULE
AV-unprocessed.smi:203
    67    71     1
SMALL
NO_CHARGES


@<TRIPOS>ATOM
      1 ****        -5.0586   2.7905   4.0039 O.2            1 S1                 0.0000
      2 ****        -4.2223   1.9590   3.6590 C.2            1 S1                 0.0000
      3 ****        -3.4062   2.0700   2.3828 C.3            1 S1                 0.0000
      4 ****        -2.6958   0.7044   2.2853 C.3            1 S1                 0.0000
      5 ****        -3.1940  -0.2020   1.1148 C.3            1 S1                 0.0000
      6 ****        -4.6991  -0.5620   1.2330 C.3            1 S1                 0.0000
      7 ****        -5.1651  -1.4501   0.0718 C.3            1 S1                 0.0000
      8 ****        -4.8546  -0.7665  -1.2637 C.3            1 S1                 0.0000
      9 ****        -3.3604  -0.4307  -1.3561 C.3            1 S1                 0.0000
     10 ****        -2.9237   0.3739  -0.2153 N.3            1 S1                 0.0000
     11 ****        -1.6761   0.8489  -0.4280 C.ar           1 S1                 0.0000
     12 ****        -1.5649   2.1460  -0.8057 N.ar           1 S1                 0.0000
     13 ****        -0.3575   2.6763  -1.0230 C.ar           1 S1                 0.0000
     14 ****         0.8404   2.0952  -0.9237 N.ar           1 S1                 0.0000
     15 ****         0.7287   0.7879  -0.5515 C.ar           1 S1                 0.0000
     16 ****        -0.4815   0.0873  -0.2885 C.ar           1 S1                 0.0000
     17 ****        -0.2022  -1.2293   0.0586 N.2            1 S1                 0.0000
     18 ****         1.1001  -1.3018   0.0076 C.2            1 S1                 0.0000
     19 ****         1.7385  -0.1363  -0.3508 N.pl3          1 S1                 0.0000
     20 ****         3.1720   0.0614  -0.4811 C.3            1 S1                 0.0000
     21 ****         3.7310  -0.5072  -1.8030 C.3            1 S1                 0.0000
     22 ****         3.0663   0.1338  -2.8749 O.3            1 S1                 0.0000
     23 ****         5.2436  -0.2610  -1.9751 C.3            1 S1                 0.0000
     24 ****         6.1077  -0.7056  -0.7931 C.3            1 S1                 0.0000
     25 ****         7.4752  -0.9333  -1.4154 C.3            1 S1                 0.0000
     26 ****         7.1771  -1.0793  -2.9093 C.3            1 S1                 0.0000
     27 ****         5.7594  -1.0907  -3.0057 O.3            1 S1                 0.0000
     28 ****        -2.8761   0.0621   3.6778 C.3            1 S1                 0.0000
     29 ****        -3.9003   0.8549   4.3296 N.am           1 S1                 0.0000
     30 ****        -4.0389   2.2918   1.5231 H              1 S1                 0.0000
     31 ****        -2.6844   2.8803   2.4879 H              1 S1                 0.0000
     32 ****        -1.6265   0.8808   2.1655 H              1 S1                 0.0000
     33 ****        -2.6399  -1.1394   1.1726 H              1 S1                 0.0000
     34 ****        -4.9047  -1.0755   2.1714 H              1 S1                 0.0000
     35 ****        -5.3055   0.3437   1.2432 H              1 S1                 0.0000
     36 ****        -4.6618  -2.4166   0.1196 H              1 S1                 0.0000
     37 ****        -6.2341  -1.6474   0.1540 H              1 S1                 0.0000
     38 ****        -5.1458  -1.4108  -2.0935 H              1 S1                 0.0000
     39 ****        -5.4429   0.1475  -1.3561 H              1 S1                 0.0000
     40 ****        -2.7775  -1.3521  -1.3931 H              1 S1                 0.0000
     41 ****        -3.1664   0.1053  -2.2867 H              1 S1                 0.0000
     42 ****        -0.3499   3.7152  -1.3182 H              1 S1                 0.0000
     43 ****         1.6349  -2.2139   0.2298 H              1 S1                 0.0000
     44 ****         3.3900   1.1274  -0.4021 H              1 S1                 0.0000
     45 ****         3.6487  -0.4164   0.3751 H              1 S1                 0.0000
     46 ****         3.5250  -1.5773  -1.8503 H              1 S1                 0.0000
     47 ****         2.1376  -0.0156  -2.7849 H              1 S1                 0.0000
     48 ****         5.4477   0.7871  -2.2054 H              1 S1                 0.0000
     49 ****         6.1298   0.0259   0.0151 H              1 S1                 0.0000
     50 ****         5.7327  -1.6462  -0.3870 H              1 S1                 0.0000
     51 ****         8.1352  -0.0826  -1.2409 H              1 S1                 0.0000
     52 ****         7.9547  -1.8219  -1.0031 H              1 S1                 0.0000
     53 ****         7.5700  -0.2267  -3.4645 H              1 S1                 0.0000
     54 ****         7.6027  -1.9885  -3.3341 H              1 S1                 0.0000
     55 ****        -3.1538  -0.9913   3.6362 H              1 S1                 0.0000
     56 ****        -1.9567   0.1347   4.2600 H              1 S1                 0.0000
     57 ****        -4.3204   0.5846   5.2073 H              1 S1                 0.0000
     58 ****        -5.5654   2.6659   4.8569 LP             1 S1                 0.0000
     59 ****        -5.2325   3.5919   3.4315 LP             1 S1                 0.0000
     60 ****        -3.5222   1.1736  -0.1676 LP             1 S1                 0.0000
     61 ****        -2.3855   2.7056  -0.9217 LP             1 S1                 0.0000
     62 ****         1.7085   2.5592  -1.0998 LP             1 S1                 0.0000
     63 ****        -0.8499  -1.9541   0.2933 LP             1 S1                 0.0000
     64 ****         3.3859  -0.2438  -3.7440 LP             1 S1                 0.0000
     65 ****         3.2539   1.1157  -2.8491 LP             1 S1                 0.0000
     66 ****         5.4769  -0.7388  -3.8981 LP             1 S1                 0.0000
     67 ****         5.4189  -2.0241  -2.8925 LP             1 S1                 0.0000
@<TRIPOS>BOND
    1    1    2 2     
    2    2   29 am    
    3    2    3 1     
    4    3    4 1     
    5    3   30 1     
    6    3   31 1     
    7    4    5 1     
    8    4   28 1     
    9    4   32 1     
   10    5   10 1     
   11    5    6 1     
   12    5   33 1     
   13    6    7 1     
   14    6   34 1     
   15    6   35 1     
   16    7    8 1     
   17    7   36 1     
   18    7   37 1     
   19    8    9 1     
   20    8   38 1     
   21    8   39 1     
   22    9   10 1     
   23    9   40 1     
   24    9   41 1     
   25   10   11 1     
   26   11   16 ar    
   27   11   12 ar    
   28   12   13 ar    
   29   13   14 ar    
   30   13   42 1     
   31   14   15 ar    
   32   15   19 1     
   33   15   16 ar    
   34   16   17 1     
   35   17   18 2     
   36   18   19 1     
   37   18   43 1     
   38   19   20 1     
   39   20   21 1     
   40   20   44 1     
   41   20   45 1     
   42   21   22 1     
   43   21   23 1     
   44   21   46 1     
   45   22   47 1     
   46   23   27 1     
   47   23   24 1     
   48   23   48 1     
   49   24   25 1     
   50   24   49 1     
   51   24   50 1     
   52   25   26 1     
   53   25   51 1     
   54   25   52 1     
   55   26   27 1     
   56   26   53 1     
   57   26   54 1     
   58   28   29 1     
   59   28   55 1     
   60   28   56 1     
   61   29   57 1     
   62    1   58 1     
   63    1   59 1     
   64   10   60 1     
   65   12   61 1     
   66   14   62 1     
   67   17   63 1     
   68   22   64 1     
   69   22   65 1     
   70   27   66 1     
   71   27   67 1     
@<TRIPOS>SUBSTRUCTURE
      1 S1             1
@<TRIPOS>SET
LONE_PAIRS      STATIC     ATOMS    <user>   **** ""
10 58 59 60 61 62 63 64 65 66 67
DONOR_HYDROGENS      STATIC     ATOMS    <user>   **** ""
2 47 57
ATOM$BLUE        STATIC     ATOMS    COLORGROUP SYSTEM
10 58 59 60 61 62 63 64 65 66 67
ATOM$RED        STATIC     ATOMS    COLORGROUP SYSTEM
2 47 57
