AV-unprocessed.smi:45|AV-procd|sdf|417|dock2
  -GOLD-   2262016293D 1   1.00000     0.00000
 Structure written by MMmdl.
 60 63  0  0  0  0  0  0  0  0  3 V2000
  150.6004  141.1289  156.1913 C   0  0  0  0  0  0  0  0  0  0  0  0
  151.4189  140.2281  155.4602 O   0  0  0  0  0  0  0  0  0  0  0  0
  151.0235  138.9090  155.3767 C   0  0  0  0  0  0  0  0  0  0  0  0
  149.7592  138.4355  155.8105 C   0  0  0  0  0  0  0  0  0  0  0  0
  149.4308  137.0707  155.7024 C   0  0  0  0  0  0  0  0  0  0  0  0
  150.3575  136.1560  155.1630 C   0  0  0  0  0  0  0  0  0  0  0  0
  150.0200  134.6804  155.0719 C   0  0  0  0  0  0  0  0  0  0  0  0
  149.9458  134.2097  153.6978 N   0  0  0  0  0  0  0  0  0  0  0  0
  148.9126  133.3207  153.3680 C   0  0  0  0  0  0  0  0  0  0  0  0
  147.8294  133.8048  152.7050 N   0  3  0  0  0  0  0  0  0  0  0  0
  146.8298  132.9848  152.3375 C   0  0  0  0  0  0  0  0  0  0  0  0
  145.7366  133.5296  151.6657 N   0  0  0  0  0  0  0  0  0  0  0  0
  144.7507  132.6840  151.0020 C   0  0  0  0  0  0  0  0  0  0  0  0
  144.2528  133.4845  149.8000 C   0  0  0  0  0  0  0  0  0  0  0  0
  144.4101  134.9269  150.2633 C   0  0  0  0  0  0  0  0  0  0  0  0
  145.6781  134.8908  151.1297 C   0  0  1  0  0  0  0  0  0  0  0  0
  145.6758  135.9769  152.2262 C   0  0  0  0  0  0  0  0  0  0  0  0
  145.8133  137.2557  151.6440 O   0  0  0  0  0  0  0  0  0  0  0  0
  146.8499  131.6717  152.6059 N   0  0  0  0  0  0  0  0  0  0  0  0
  147.9050  131.1450  153.2581 C   0  0  0  0  0  0  0  0  0  0  0  0
  148.9868  131.9412  153.6756 C   0  0  0  0  0  0  0  0  0  0  0  0
  150.1596  131.3446  154.3991 C   0  0  0  0  0  0  0  0  0  0  0  0
  151.1088  132.0826  154.6844 O   0  0  0  0  0  0  0  0  0  0  0  0
  150.0018  130.0054  154.5811 N   0  5  0  0  0  0  0  0  0  0  0  0
  150.7284  128.9959  153.8078 C   0  0  0  0  0  0  0  0  0  0  0  0
  149.8212  128.2577  152.8253 C   0  0  0  0  0  0  0  0  0  0  0  0
  149.1692  129.0044  151.9244 N   0  0  0  0  0  0  0  0  0  0  0  0
  148.3922  128.3520  151.0326 C   0  0  0  0  0  0  0  0  0  0  0  0
  148.2678  126.9486  151.0444 C   0  0  0  0  0  0  0  0  0  0  0  0
  149.0019  126.2661  152.0344 C   0  0  0  0  0  0  0  0  0  0  0  0
  149.7764  126.9230  152.9248 N   0  0  0  0  0  0  0  0  0  0  0  0
  151.6129  136.6205  154.7254 C   0  0  0  0  0  0  0  0  0  0  0  0
  151.9434  137.9855  154.8318 C   0  0  0  0  0  0  0  0  0  0  0  0
  153.4991  138.5170  154.3024 Cl  0  0  0  0  0  0  0  0  0  0  0  0
  146.5490  135.0226  150.4859 H   0  0  0  0  0  0  0  0  0  0  0  0
  151.0555  142.1192  156.1780 H   0  0  0  0  0  0  0  0  0  0  0  0
  150.5058  140.8238  157.2346 H   0  0  0  0  0  0  0  0  0  0  0  0
  149.6078  141.2163  155.7474 H   0  0  0  0  0  0  0  0  0  0  0  0
  149.0219  139.0998  156.2346 H   0  0  0  0  0  0  0  0  0  0  0  0
  148.4654  136.7265  156.0436 H   0  0  0  0  0  0  0  0  0  0  0  0
  150.7834  134.1106  155.6025 H   0  0  0  0  0  0  0  0  0  0  0  0
  149.0718  134.4981  155.5802 H   0  0  0  0  0  0  0  0  0  0  0  0
  150.1462  134.9107  152.9976 H   0  0  0  0  0  0  0  0  0  0  0  0
  145.1687  131.7271  150.6864 H   0  0  0  0  0  0  0  0  0  0  0  0
  143.9355  132.4862  151.6987 H   0  0  0  0  0  0  0  0  0  0  0  0
  144.8975  133.3011  148.9393 H   0  0  0  0  0  0  0  0  0  0  0  0
  143.2300  133.2343  149.5167 H   0  0  0  0  0  0  0  0  0  0  0  0
  144.4839  135.6330  149.4357 H   0  0  0  0  0  0  0  0  0  0  0  0
  143.5440  135.2075  150.8646 H   0  0  0  0  0  0  0  0  0  0  0  0
  144.7515  135.9433  152.8042 H   0  0  0  0  0  0  0  0  0  0  0  0
  146.4955  135.8434  152.9308 H   0  0  0  0  0  0  0  0  0  0  0  0
  144.9982  137.4860  151.2243 H   0  0  0  0  0  0  0  0  0  0  0  0
  147.8784  130.0821  153.4494 H   0  0  0  0  0  0  0  0  0  0  0  0
  151.5682  129.4314  153.2632 H   0  0  0  0  0  0  0  0  0  0  0  0
  151.1798  128.2532  154.4666 H   0  0  0  0  0  0  0  0  0  0  0  0
  147.8694  128.9525  150.3028 H   0  0  0  0  0  0  0  0  0  0  0  0
  147.6494  126.4253  150.3304 H   0  0  0  0  0  0  0  0  0  0  0  0
  148.9678  125.1896  152.1117 H   0  0  0  0  0  0  0  0  0  0  0  0
  152.3338  135.9282  154.3157 H   0  0  0  0  0  0  0  0  0  0  0  0
  147.7886  134.7994  152.4854 H   0  0  0  0  0  0  0  0  0  0  0  0
  1  2  1  0  0  0  0
  1 36  1  0  0  0  0
  1 37  1  0  0  0  0
  1 38  1  0  0  0  0
  2  3  1  0  0  0  0
  3 33  1  0  0  0  0
  3  4  2  0  0  0  0
  4  5  1  0  0  0  0
  4 39  1  0  0  0  0
  5  6  2  0  0  0  0
  5 40  1  0  0  0  0
  6  7  1  0  0  0  0
  6 32  1  0  0  0  0
  7  8  1  0  0  0  0
  7 41  1  0  0  0  0
  7 42  1  0  0  0  0
  8  9  1  0  0  0  0
  8 43  1  0  0  0  0
  9 21  1  0  0  0  0
  9 10  2  0  0  0  0
 10 11  1  0  0  0  0
 10 60  1  0  0  0  0
 11 12  1  0  0  0  0
 11 19  2  0  0  0  0
 12 16  1  0  0  0  0
 12 13  1  0  0  0  0
 13 14  1  0  0  0  0
 13 44  1  0  0  0  0
 13 45  1  0  0  0  0
 14 15  1  0  0  0  0
 14 46  1  0  0  0  0
 14 47  1  0  0  0  0
 15 16  1  0  0  0  0
 15 48  1  0  0  0  0
 15 49  1  0  0  0  0
 16 35  1  0  0  0  0
 16 17  1  0  0  0  0
 17 18  1  0  0  0  0
 17 50  1  0  0  0  0
 17 51  1  0  0  0  0
 18 52  1  0  0  0  0
 19 20  1  0  0  0  0
 20 21  2  0  0  0  0
 20 53  1  0  0  0  0
 21 22  1  0  0  0  0
 22 23  2  0  0  0  0
 22 24  1  0  0  0  0
 24 25  1  0  0  0  0
 25 26  1  0  0  0  0
 25 54  1  0  0  0  0
 25 55  1  0  0  0  0
 26 31  1  0  0  0  0
 26 27  2  0  0  0  0
 27 28  1  0  0  0  0
 28 29  2  0  0  0  0
 28 56  1  0  0  0  0
 29 30  1  0  0  0  0
 29 57  1  0  0  0  0
 30 31  2  0  0  0  0
 30 58  1  0  0  0  0
 32 33  2  0  0  0  0
 32 59  1  0  0  0  0
 33 34  1  0  0  0  0
M  CHG  1  10   1
M  CHG  1  24  -1
M  END
> <s_m_source_file>
AV-unprocessed.smi

> <i_m_source_file_index>
45

> <i_lp_mmshare_version>
43012

> <i_f3d_flags>
0

> <s_epik_input>
W0NIM11PYzFbY0hdW2NIXWMoW2NIXWMxQ2wpW0NIMl1bTkhdYzJuYyhOM1tDSDJdW0NIMl1bQ0gyXVtDQEhdM1tDSDJdW09IXSluW2NIXWMyQyg9TylbTkhdW0NIMl1jNG5bY0hdW2NIXVtjSF1uNA==

> <s_epik_cmdline>
J2VwaWtfcHl0aG9uJywgJy1waCcsICc3LjAnLCAnLXRuJywgJzgnLCAnLW1hJywgJzIwMCcsICctbWV0YWxfYmluZGluZycsICctaW1hZScsICc8aW5maWxlLm1hZT4nLCAnLW9tYWUnLCAnPG91dGZpbGUubWFlPic=

> <r_lp_tautomer_probability>
0.424989

> <r_epik_Ionization_Penalty>
7.51351

> <r_epik_Ionization_Penalty_Charging>
7.51312

> <r_epik_Ionization_Penalty_Neutral>
0.00038389

> <r_epik_State_Penalty>
8.64696

> <r_epik_Charging_Adjusted_Penalty>
16.1601

> <i_epik_Tot_Q>
0

> <i_epik_Tot_abs_Q>
2

> <r_epik_Metal_State_Penalty>
4.61083

> <b_epik_Metal_Only>
1

> <s_epik_Chemistry_Notes>
This compound contains an electron-poor aromatic ring that is susceptible to covalent hydrolysis at low pH, typically resulting in measured values for nitrogen ring protonation that are around two units higher than predicted values.

> <s_lp_Force_Field>
OPLS_2005

> <r_lp_Energy>
39.4565

> <b_lp_Chiralities_Consistent>
1

> <s_lp_Variant>
AV-unprocessed.smi:45-11

> <Gold.Version>
5.8.1

> <Gold.Id.Protein>
6NUR|6NUR_protein|mol2

> <Gold.PLP.Fitness>
64.3001

> <Gold.PLP.PLP>
-54.0981

> <Gold.PLP.part.hbond>
-4.2075

> <Gold.PLP.part.metal>
0.0000

> <Gold.PLP.part.buried>
-1.8850

> <Gold.PLP.part.nonpolar>
-47.4648

> <Gold.PLP.part.repulsive>
0.8340

> <Gold.PLP.ligand.clash>
0.7716

> <Gold.PLP.ligand.torsion>
1.5126

> <Gold.PLP.Chemscore.Hbond>
3.6320

> <Gold.PLP.Chemscore.CHOScore>
0.7031

> <Gold.PLP.Chemscore.Metal>
0.0000

> <Gold.Chemscore.Hbonds>
donor molecule, donor type, donor heavy atom, donor atom, acceptor molecule, acceptor atom, score
      L1  H    10    60       P1  7948  1.54
      L1  H    18    52       P1 10171  0.78
      P1  H  7989  7998       L1     2  0.87
      L1  C    28    56       P1 10747  0.47

> <Gold.PLP.Chemscore.Internal.Correction>
0.9936

> <Gold.Rescore>
     Score         DG    S(hbond)    S(metal)    S(lipo)     H(rot)  DE(clash)    DE(int)     intcor
     10.65     -17.73       2.02        0.00     115.95       3.16       1.49       5.59       ----

> <Gold.Chemscore.Fitness>
10.6530

> <Gold.Chemscore.DG>
-17.7269

> <Gold.Chemscore.ZeroCoef>
-5.4800

> <Gold.Chemscore.Hbond>
2.0249

> <Gold.Chemscore.Metal>
0.0000

> <Gold.Chemscore.Lipo>
115.9483

> <Gold.Chemscore.Internal_Hbond>
0.0000

> <Gold.Chemscore.DEClash>
1.4875

> <Gold.Chemscore.DEInternal>
5.5864

> <Gold.Chemscore.Rot>
3.1571

> <Gold.Chemscore.Internal.Correction>
   9.000000E+99

> <Gold.Chemscore.Hbonds>
donor molecule, donor type, donor heavy atom, donor atom, acceptor molecule, acceptor atom, score
      L1  H    10    60       P1  7948  0.65
      L1  H    18    52       P1 10171  0.74
      P1  H  7989  7998       L1     2  0.35

> <Gold.Chemscore.Hbond.Weighted>
-6.7631

> <Gold.Chemscore.Metal.Weighted>
-0.0000

> <Gold.Chemscore.Lipo.Weighted>
-13.5659

> <Gold.Chemscore.Internal_Hbond.Weighted>
0.0000

> <Gold.Chemscore.DEClash.Weighted>
1.4875

> <Gold.Chemscore.DEInternal.Weighted>
5.5864

> <Gold.Chemscore.Rot.Weighted>
8.0822

> <Gold.Chemscore.Internal.Correction.Weighted>
   9.000000E+99

> <Gold.Protein.RotatedTorsions>
[ 6907 6896 6895 6894 ] final -138.30 input  -60.11 | X-H torsion
[ 7974 7965 7964 7962 ] final  -84.85 input  175.53 | X-H torsion
[ 8008 7997 7996 7995 ] final -133.21 input   59.86 | X-H torsion
[ 10167 10162 10161 10158 ] final -178.24 input  -65.29 | X-H torsion
[ 10718 10713 10712 10709 ] final  -61.98 input   66.30 | X-H torsion
[ 10763 10752 10751 10750 ] final  -17.48 input  -60.55 | X-H torsion
[ 11005 11000 10999 10996 ] final -160.78 input  -57.11 | X-H torsion

> <Gold.Protein.ActiveResidues>
 VAL166  LYS551  ARG553  GLY616  TRP617  ASP618  TYR619  PRO620  LYS621  CYS622 
 ASP623  PHE694  ASN695  SER759  ASP760  ASP761  ALA762  ILE779  LEU786  VAL792 
 PHE793  MET794  SER795  GLU796  ALA797  LYS798  CYS799  TRP800  GLU811  SER814 

> <Gold.Protein.RotatedAtoms>
  151.0333  133.5771  159.2658 H   0  0  0  0  0  0  0  0  0  0  0  0  # atno 6907 bound_to 6896
  151.2844  135.0722  159.9191 H   0  0  0  0  0  0  0  0  0  0  0  0  # atno 6908 bound_to 6896
  152.5349  134.0042  159.7963 H   0  0  0  0  0  0  0  0  0  0  0  0  # atno 6909 bound_to 6896
  145.5011  140.9547  143.1759 H   0  0  0  0  0  0  0  0  0  0  0  0  # atno 7974 bound_to 7965
  155.3417  140.0472  157.3045 H   0  0  0  0  0  0  0  0  0  0  0  0  # atno 8008 bound_to 7997
  154.5274  140.2245  155.8830 H   0  0  0  0  0  0  0  0  0  0  0  0  # atno 8009 bound_to 7997
  156.1753  140.3086  155.9054 H   0  0  0  0  0  0  0  0  0  0  0  0  # atno 8010 bound_to 7997
  139.5441  144.2282  152.0954 H   0  0  0  0  0  0  0  0  0  0  0  0  # atno 10167 bound_to 10162
  156.0885  130.4204  150.1071 H   0  0  0  0  0  0  0  0  0  0  0  0  # atno 10718 bound_to 10713
  153.5746  135.7006  153.5490 H   0  0  0  0  0  0  0  0  0  0  0  0  # atno 10763 bound_to 10752
  153.3314  135.4046  155.1498 H   0  0  0  0  0  0  0  0  0  0  0  0  # atno 10764 bound_to 10752
  154.8627  135.3720  154.5270 H   0  0  0  0  0  0  0  0  0  0  0  0  # atno 10765 bound_to 10752
  140.6277  134.4684  157.5228 H   0  0  0  0  0  0  0  0  0  0  0  0  # atno 11005 bound_to 11000
  144.7779  139.6589  143.7167 LP  0  0  0  0  0  0  0  0  0  0  0  0  # atno 17320 bound_to 7965
  146.2225  139.5662  142.9609 LP  0  0  0  0  0  0  0  0  0  0  0  0  # atno 17321 bound_to 7965
  140.1765  144.4885  150.6551 LP  0  0  0  0  0  0  0  0  0  0  0  0  # atno 17342 bound_to 10162
  140.6683  143.2276  151.5688 LP  0  0  0  0  0  0  0  0  0  0  0  0  # atno 17343 bound_to 10162
  156.9086  130.9644  151.3566 LP  0  0  0  0  0  0  0  0  0  0  0  0  # atno 17370 bound_to 10713
  157.6027  130.8524  149.8827 LP  0  0  0  0  0  0  0  0  0  0  0  0  # atno 17371 bound_to 10713
  139.9128  134.8308  156.1468 LP  0  0  0  0  0  0  0  0  0  0  0  0  # atno 17394 bound_to 11000
  141.0698  133.6802  156.2117 LP  0  0  0  0  0  0  0  0  0  0  0  0  # atno 17395 bound_to 11000

$$$$
