AV-unprocessed.smi:2177|AV-procd|sdf|8848|dock2
  -GOLD-   2272012 43D 1   1.00000     0.00000
 Structure written by MMmdl.
 42 43  0  0  0  0  0  0  0  0  1 V2000
  151.3853  145.4981  159.9493 C   0  0  0  0  0  0  0  0  0  0  0  0
  152.0025  144.1290  159.9670 C   0  0  0  0  0  0  0  0  0  0  0  0
  152.6588  143.7243  161.0417 N   0  0  0  0  0  0  0  0  0  0  0  0
  153.0927  142.4859  160.7336 N   0  0  0  0  0  0  0  0  0  0  0  0
  153.8708  141.7429  161.7057 C   0  0  0  0  0  0  0  0  0  0  0  0
  152.7034  142.1041  159.4648 C   0  0  0  0  0  0  0  0  0  0  0  0
  153.0693  140.7743  158.8878 C   0  0  0  0  0  0  0  0  0  0  0  0
  151.9961  143.1490  158.9315 C   0  0  0  0  0  0  0  0  0  0  0  0
  151.3689  143.2703  157.5640 C   0  0  0  0  0  0  0  0  0  0  0  0
  150.6412  141.9698  157.2218 C   0  0  0  0  0  0  0  0  0  0  0  0
  149.9514  141.4059  158.0705 O   0  0  0  0  0  0  0  0  0  0  0  0
  150.7925  141.5210  155.9662 N   0  0  0  0  0  0  0  0  0  0  0  0
  150.0916  140.3886  155.3701 C   0  0  2  0  0  0  0  0  0  0  0  0
  151.1032  139.4395  154.7100 C   0  0  0  0  0  0  0  0  0  0  0  0
  149.0446  140.9111  154.3681 C   0  0  2  0  0  0  0  0  0  0  0  0
  147.9813  141.8310  154.9752 C   0  0  0  0  0  0  0  0  0  0  0  0
  146.7829  141.6569  154.0550 C   0  0  0  0  0  0  0  0  0  0  0  0
  147.1319  140.4264  153.2131 C   0  0  0  0  0  0  0  0  0  0  0  0
  148.2593  139.8473  153.8541 O   0  0  0  0  0  0  0  0  0  0  0  0
  151.8368  146.1169  159.1736 H   0  0  0  0  0  0  0  0  0  0  0  0
  151.5141  146.0140  160.9015 H   0  0  0  0  0  0  0  0  0  0  0  0
  150.3159  145.4405  159.7468 H   0  0  0  0  0  0  0  0  0  0  0  0
  153.2909  140.8924  162.0643 H   0  0  0  0  0  0  0  0  0  0  0  0
  154.1337  142.3760  162.5544 H   0  0  0  0  0  0  0  0  0  0  0  0
  154.7882  141.3800  161.2416 H   0  0  0  0  0  0  0  0  0  0  0  0
  152.5460  140.5907  157.9500 H   0  0  0  0  0  0  0  0  0  0  0  0
  152.8128  139.9676  159.5744 H   0  0  0  0  0  0  0  0  0  0  0  0
  154.1398  140.7226  158.6883 H   0  0  0  0  0  0  0  0  0  0  0  0
  150.6605  144.0973  157.5134 H   0  0  0  0  0  0  0  0  0  0  0  0
  152.1210  143.4716  156.8003 H   0  0  0  0  0  0  0  0  0  0  0  0
  151.3892  142.0539  155.3504 H   0  0  0  0  0  0  0  0  0  0  0  0
  149.5622  139.8395  156.1511 H   0  0  0  0  0  0  0  0  0  0  0  0
  150.6028  138.5756  154.2721 H   0  0  0  0  0  0  0  0  0  0  0  0
  151.8244  139.0661  155.4374 H   0  0  0  0  0  0  0  0  0  0  0  0
  151.6584  139.9400  153.9159 H   0  0  0  0  0  0  0  0  0  0  0  0
  149.5360  141.4199  153.5359 H   0  0  0  0  0  0  0  0  0  0  0  0
  147.7204  141.4951  155.9799 H   0  0  0  0  0  0  0  0  0  0  0  0
  148.3120  142.8677  155.0465 H   0  0  0  0  0  0  0  0  0  0  0  0
  145.8718  141.5016  154.6342 H   0  0  0  0  0  0  0  0  0  0  0  0
  146.6328  142.5302  153.4191 H   0  0  0  0  0  0  0  0  0  0  0  0
  146.3078  139.7158  153.1468 H   0  0  0  0  0  0  0  0  0  0  0  0
  147.4091  140.7218  152.1999 H   0  0  0  0  0  0  0  0  0  0  0  0
  1  2  1  0  0  0  0
  1 20  1  0  0  0  0
  1 21  1  0  0  0  0
  1 22  1  0  0  0  0
  2  8  1  0  0  0  0
  2  3  2  0  0  0  0
  3  4  1  0  0  0  0
  4  5  1  0  0  0  0
  4  6  1  0  0  0  0
  5 23  1  0  0  0  0
  5 24  1  0  0  0  0
  5 25  1  0  0  0  0
  6  7  1  0  0  0  0
  6  8  2  0  0  0  0
  7 26  1  0  0  0  0
  7 27  1  0  0  0  0
  7 28  1  0  0  0  0
  8  9  1  0  0  0  0
  9 10  1  0  0  0  0
  9 29  1  0  0  0  0
  9 30  1  0  0  0  0
 10 11  2  0  0  0  0
 10 12  1  0  0  0  0
 12 13  1  0  0  0  0
 12 31  1  0  0  0  0
 13 14  1  0  0  0  0
 13 15  1  0  0  0  0
 13 32  1  0  0  0  0
 14 33  1  0  0  0  0
 14 34  1  0  0  0  0
 14 35  1  0  0  0  0
 15 19  1  0  0  0  0
 15 16  1  0  0  0  0
 15 36  1  0  0  0  0
 16 17  1  0  0  0  0
 16 37  1  0  0  0  0
 16 38  1  0  0  0  0
 17 18  1  0  0  0  0
 17 39  1  0  0  0  0
 17 40  1  0  0  0  0
 18 19  1  0  0  0  0
 18 41  1  0  0  0  0
 18 42  1  0  0  0  0
M  END
> <s_m_source_file>
AV-unprocessed.smi

> <i_m_source_file_index>
2177

> <i_lp_mmshare_version>
43012

> <i_f3d_flags>
0

> <s_epik_input>
W0NIM11jMW5uKFtDSDNdKWMoW0NIM10pYzFbQ0gyXUMoPU8pW05IXVtDQEhdKFtDSDNdKVtDQEBIXTJbQ0gyXVtDSDJdW0NIMl1PMg==

> <s_epik_cmdline>
J2VwaWtfcHl0aG9uJywgJy1waCcsICc3LjAnLCAnLXRuJywgJzgnLCAnLW1hJywgJzIwMCcsICctbWV0YWxfYmluZGluZycsICctaW1hZScsICc8aW5maWxlLm1hZT4nLCAnLW9tYWUnLCAnPG91dGZpbGUubWFlPic=

> <r_lp_tautomer_probability>
1

> <r_epik_Ionization_Penalty>
0.00310467

> <r_epik_Ionization_Penalty_Charging>
0

> <r_epik_Ionization_Penalty_Neutral>
0.00310467

> <r_epik_State_Penalty>
0.00218493

> <r_epik_Charging_Adjusted_Penalty>
0.00218493

> <i_epik_Tot_Q>
0

> <i_epik_Tot_abs_Q>
0

> <r_epik_Metal_State_Penalty>
-0

> <b_epik_Metal_Only>
0

> <s_lp_Force_Field>
OPLS_2005

> <r_lp_Energy>
11.4342

> <b_lp_Chiralities_Consistent>
1

> <s_lp_Variant>
AV-unprocessed.smi:2177-1

> <Gold.Version>
5.8.1

> <Gold.Id.Protein>
6NUR|6NUR_protein|mol2

> <Gold.PLP.Fitness>
44.7496

> <Gold.PLP.PLP>
-45.8589

> <Gold.PLP.part.hbond>
0.0000

> <Gold.PLP.part.metal>
0.0000

> <Gold.PLP.part.buried>
-4.0274

> <Gold.PLP.part.nonpolar>
-42.9650

> <Gold.PLP.part.repulsive>
0.8043

> <Gold.PLP.ligand.clash>
0.0000

> <Gold.PLP.ligand.torsion>
0.5707

> <Gold.PLP.Chemscore.Hbond>
0.0000

> <Gold.PLP.Chemscore.CHOScore>
0.0000

> <Gold.PLP.Chemscore.Metal>
0.0000

> <Gold.PLP.Chemscore.Internal.Correction>
0.0321

> <Gold.Rescore>
     Score         DG    S(hbond)    S(metal)    S(lipo)     H(rot)  DE(clash)    DE(int)     intcor
     14.93     -15.52       0.00        0.00     117.79       1.46       0.11       0.48       ----

> <Gold.Chemscore.Fitness>
14.9279

> <Gold.Chemscore.DG>
-15.5168

> <Gold.Chemscore.ZeroCoef>
-5.4800

> <Gold.Chemscore.Hbond>
0.0000

> <Gold.Chemscore.Metal>
0.0000

> <Gold.Chemscore.Lipo>
117.7889

> <Gold.Chemscore.Internal_Hbond>
0.0000

> <Gold.Chemscore.DEClash>
0.1074

> <Gold.Chemscore.DEInternal>
0.4815

> <Gold.Chemscore.Rot>
1.4627

> <Gold.Chemscore.Internal.Correction>
   9.000000E+99

> <Gold.Chemscore.Hbond.Weighted>
-0.0000

> <Gold.Chemscore.Metal.Weighted>
-0.0000

> <Gold.Chemscore.Lipo.Weighted>
-13.7813

> <Gold.Chemscore.Internal_Hbond.Weighted>
0.0000

> <Gold.Chemscore.DEClash.Weighted>
0.1074

> <Gold.Chemscore.DEInternal.Weighted>
0.4815

> <Gold.Chemscore.Rot.Weighted>
3.7445

> <Gold.Chemscore.Internal.Correction.Weighted>
   9.000000E+99

> <Gold.Protein.RotatedTorsions>
[ 6907 6896 6895 6894 ] final  153.25 input  -60.11 | X-H torsion
[ 7974 7965 7964 7962 ] final  144.87 input  175.53 | X-H torsion
[ 8008 7997 7996 7995 ] final  125.96 input   59.86 | X-H torsion
[ 10167 10162 10161 10158 ] final  -12.25 input  -65.29 | X-H torsion
[ 10718 10713 10712 10709 ] final  -40.46 input   66.30 | X-H torsion
[ 10763 10752 10751 10750 ] final -176.19 input  -60.55 | X-H torsion
[ 11005 11000 10999 10996 ] final   46.02 input  -57.11 | X-H torsion

> <Gold.Protein.ActiveResidues>
 VAL166  LYS551  ARG553  GLY616  TRP617  ASP618  TYR619  PRO620  LYS621  CYS622 
 ASP623  PHE694  ASN695  SER759  ASP760  ASP761  ALA762  ILE779  LEU786  VAL792 
 PHE793  MET794  SER795  GLU796  ALA797  LYS798  CYS799  TRP800  GLU811  SER814 

> <Gold.Protein.RotatedAtoms>
  152.0753  133.4126  159.4476 H   0  0  0  0  0  0  0  0  0  0  0  0  # atno 6907 bound_to 6896
  150.6863  134.3045  159.4729 H   0  0  0  0  0  0  0  0  0  0  0  0  # atno 6908 bound_to 6896
  152.0881  134.9425  160.0623 H   0  0  0  0  0  0  0  0  0  0  0  0  # atno 6909 bound_to 6896
  144.8799  139.5714  143.5847 H   0  0  0  0  0  0  0  0  0  0  0  0  # atno 7974 bound_to 7965
  156.2850  140.2704  156.2034 H   0  0  0  0  0  0  0  0  0  0  0  0  # atno 8008 bound_to 7997
  155.0338  140.0386  157.2502 H   0  0  0  0  0  0  0  0  0  0  0  0  # atno 8009 bound_to 7997
  154.7332  140.2710  155.6443 H   0  0  0  0  0  0  0  0  0  0  0  0  # atno 8010 bound_to 7997
  140.7157  143.5552  150.9256 H   0  0  0  0  0  0  0  0  0  0  0  0  # atno 10167 bound_to 10162
  156.2811  130.4217  149.8336 H   0  0  0  0  0  0  0  0  0  0  0  0  # atno 10718 bound_to 10713
  154.5753  135.2831  155.0787 H   0  0  0  0  0  0  0  0  0  0  0  0  # atno 10763 bound_to 10752
  154.2143  135.6402  153.5129 H   0  0  0  0  0  0  0  0  0  0  0  0  # atno 10764 bound_to 10752
  153.0070  135.5499  154.6390 H   0  0  0  0  0  0  0  0  0  0  0  0  # atno 10765 bound_to 10752
  140.1407  134.4587  155.8452 H   0  0  0  0  0  0  0  0  0  0  0  0  # atno 11005 bound_to 11000
  146.2988  139.7360  142.9107 LP  0  0  0  0  0  0  0  0  0  0  0  0  # atno 17320 bound_to 7965
  145.3973  141.0380  143.3090 LP  0  0  0  0  0  0  0  0  0  0  0  0  # atno 17321 bound_to 7965
  139.9277  143.6530  152.3083 LP  0  0  0  0  0  0  0  0  0  0  0  0  # atno 17342 bound_to 10162
  139.6970  144.7640  151.1339 LP  0  0  0  0  0  0  0  0  0  0  0  0  # atno 17343 bound_to 10162
  156.5783  130.8454  151.3376 LP  0  0  0  0  0  0  0  0  0  0  0  0  # atno 17370 bound_to 10713
  157.7314  130.9700  150.1881 LP  0  0  0  0  0  0  0  0  0  0  0  0  # atno 17371 bound_to 10713
  141.2185  133.6832  156.7241 LP  0  0  0  0  0  0  0  0  0  0  0  0  # atno 17394 bound_to 11000
  140.2726  134.8380  157.3861 LP  0  0  0  0  0  0  0  0  0  0  0  0  # atno 17395 bound_to 11000

$$$$
