AV-unprocessed.smi:2974|AV-procd|sdf|11354|dock3
  -GOLD-   2272016273D 1   1.00000     0.00000
 Structure written by MMmdl.
 26 27  0  0  0  0  0  0  0  0  2 V2000
  153.6601  138.4122  155.2316 O   0  0  0  0  0  0  0  0  0  0  0  0
  152.4520  138.3951  154.9046 C   0  0  0  0  0  0  0  0  0  0  0  0
  151.9456  137.4402  154.2730 O   0  5  0  0  0  0  0  0  0  0  0  0
  151.5800  139.5622  155.2841 C   0  0  0  0  0  0  0  0  0  0  0  0
  151.8936  140.3527  156.4157 C   0  0  0  0  0  0  0  0  0  0  0  0
  151.0559  141.4405  156.7477 C   0  0  0  0  0  0  0  0  0  0  0  0
  151.3063  142.2632  157.8547 N   0  0  0  0  0  0  0  0  0  0  0  0
  152.3002  141.7123  158.7672 C   0  0  0  0  0  0  0  0  0  0  0  0
  152.4311  142.6130  160.0077 C   0  0  0  0  0  0  0  0  0  0  0  0
  152.7446  143.9430  159.6028 O   0  0  0  0  0  0  0  0  0  0  0  0
  151.7335  144.5008  158.7676 C   0  0  0  0  0  0  0  0  0  0  0  0
  151.5856  143.6477  157.4956 C   0  0  0  0  0  0  0  0  0  0  0  0
  149.9348  141.6965  155.9351 C   0  0  0  0  0  0  0  0  0  0  0  0
  149.7024  140.8571  154.8295 C   0  0  0  0  0  0  0  0  0  0  0  0
  150.4991  139.8173  154.5078 N   0  0  0  0  0  0  0  0  0  0  0  0
  152.7606  140.1303  157.0210 H   0  0  0  0  0  0  0  0  0  0  0  0
  152.0103  140.7036  159.0649 H   0  0  0  0  0  0  0  0  0  0  0  0
  153.2646  141.6359  158.2632 H   0  0  0  0  0  0  0  0  0  0  0  0
  151.5092  142.6076  160.5914 H   0  0  0  0  0  0  0  0  0  0  0  0
  153.2233  142.2432  160.6588 H   0  0  0  0  0  0  0  0  0  0  0  0
  150.7886  144.5562  159.3108 H   0  0  0  0  0  0  0  0  0  0  0  0
  152.0115  145.5216  158.5057 H   0  0  0  0  0  0  0  0  0  0  0  0
  152.5029  143.7017  156.9076 H   0  0  0  0  0  0  0  0  0  0  0  0
  150.7793  144.0384  156.8734 H   0  0  0  0  0  0  0  0  0  0  0  0
  149.2664  142.5169  156.1517 H   0  0  0  0  0  0  0  0  0  0  0  0
  148.8521  141.0255  154.1855 H   0  0  0  0  0  0  0  0  0  0  0  0
  1  2  2  0  0  0  0
  2  3  1  0  0  0  0
  2  4  1  0  0  0  0
  4 15  1  0  0  0  0
  4  5  2  0  0  0  0
  5  6  1  0  0  0  0
  5 16  1  0  0  0  0
  6  7  1  0  0  0  0
  6 13  2  0  0  0  0
  7 12  1  0  0  0  0
  7  8  1  0  0  0  0
  8  9  1  0  0  0  0
  8 17  1  0  0  0  0
  8 18  1  0  0  0  0
  9 10  1  0  0  0  0
  9 19  1  0  0  0  0
  9 20  1  0  0  0  0
 10 11  1  0  0  0  0
 11 12  1  0  0  0  0
 11 21  1  0  0  0  0
 11 22  1  0  0  0  0
 12 23  1  0  0  0  0
 12 24  1  0  0  0  0
 13 14  1  0  0  0  0
 13 25  1  0  0  0  0
 14 15  2  0  0  0  0
 14 26  1  0  0  0  0
M  CHG  1   3  -1
M  END
> <s_m_source_file>
AV-unprocessed.smi

> <i_m_source_file_index>
2974

> <i_lp_mmshare_version>
43012

> <i_f3d_flags>
0

> <s_epik_input>
Tz1DKFtPSF0pYzFbY0hdYyhbY0hdW2NIXW4xKU4yW0NIMl1bQ0gyXU9bQ0gyXVtDSDJdMg==

> <s_epik_cmdline>
J2VwaWtfcHl0aG9uJywgJy1waCcsICc3LjAnLCAnLXRuJywgJzgnLCAnLW1hJywgJzIwMCcsICctbWV0YWxfYmluZGluZycsICctaW1hZScsICc8aW5maWxlLm1hZT4nLCAnLW9tYWUnLCAnPG91dGZpbGUubWFlPic=

> <r_epik_Ionization_Penalty>
1.89136

> <r_epik_Ionization_Penalty_Charging>
0.000208402

> <r_epik_Ionization_Penalty_Neutral>
1.89115

> <r_epik_State_Penalty>
2.01169

> <r_epik_Charging_Adjusted_Penalty>
2.0119

> <i_epik_Tot_Q>
-1

> <i_epik_Tot_abs_Q>
1

> <r_epik_Metal_State_Penalty>
0.0168368

> <b_epik_Metal_Only>
0

> <s_lp_Force_Field>
OPLS_2005

> <r_lp_Energy>
22.2384

> <b_lp_Chiralities_Consistent>
1

> <s_lp_Variant>
AV-unprocessed.smi:2974-2

> <Gold.Version>
5.8.1

> <Gold.Id.Protein>
6NUR|6NUR_protein|mol2

> <Gold.PLP.Fitness>
45.2941

> <Gold.PLP.PLP>
-35.3563

> <Gold.PLP.part.hbond>
-3.0370

> <Gold.PLP.part.metal>
0.0000

> <Gold.PLP.part.buried>
-3.9456

> <Gold.PLP.part.nonpolar>
-28.0203

> <Gold.PLP.part.repulsive>
0.3118

> <Gold.PLP.ligand.clash>
0.1279

> <Gold.PLP.ligand.torsion>
0.4667

> <Gold.PLP.Chemscore.Hbond>
3.6340

> <Gold.PLP.Chemscore.CHOScore>
0.0000

> <Gold.PLP.Chemscore.Metal>
0.0000

> <Gold.Chemscore.Hbonds>
donor molecule, donor type, donor heavy atom, donor atom, acceptor molecule, acceptor atom, score
      P1  H  7989  7998       L1    15  0.20
      P1  H  7997  8010       L1     1  1.50
      P1  H 10752 10765       L1     3  1.89

> <Gold.PLP.Chemscore.Internal.Correction>
0.0971

> <Gold.Rescore>
     Score         DG    S(hbond)    S(metal)    S(lipo)     H(rot)  DE(clash)    DE(int)     intcor
     16.95     -17.30       1.60        0.00      77.21       1.00       0.01       0.34       ----

> <Gold.Chemscore.Fitness>
16.9504

> <Gold.Chemscore.DG>
-17.3001

> <Gold.Chemscore.ZeroCoef>
-5.4800

> <Gold.Chemscore.Hbond>
1.6009

> <Gold.Chemscore.Metal>
0.0000

> <Gold.Chemscore.Lipo>
77.2056

> <Gold.Chemscore.Internal_Hbond>
0.0000

> <Gold.Chemscore.DEClash>
0.0063

> <Gold.Chemscore.DEInternal>
0.3433

> <Gold.Chemscore.Rot>
1.0000

> <Gold.Chemscore.Internal.Correction>
   9.000000E+99

> <Gold.Chemscore.Hbonds>
donor molecule, donor type, donor heavy atom, donor atom, acceptor molecule, acceptor atom, score
      P1  H  7997  8010       L1     1  0.66
      P1  H 10752 10765       L1     3  0.81

> <Gold.Chemscore.Hbond.Weighted>
-5.3470

> <Gold.Chemscore.Metal.Weighted>
-0.0000

> <Gold.Chemscore.Lipo.Weighted>
-9.0331

> <Gold.Chemscore.Internal_Hbond.Weighted>
0.0000

> <Gold.Chemscore.DEClash.Weighted>
0.0063

> <Gold.Chemscore.DEInternal.Weighted>
0.3433

> <Gold.Chemscore.Rot.Weighted>
2.5600

> <Gold.Chemscore.Internal.Correction.Weighted>
   9.000000E+99

> <Gold.Protein.RotatedTorsions>
[ 6907 6896 6895 6894 ] final   64.38 input  -60.11 | X-H torsion
[ 7974 7965 7964 7962 ] final   44.80 input  175.53 | X-H torsion
[ 8008 7997 7996 7995 ] final   97.23 input   59.86 | X-H torsion
[ 10167 10162 10161 10158 ] final -103.08 input  -65.29 | X-H torsion
[ 10718 10713 10712 10709 ] final  165.63 input   66.30 | X-H torsion
[ 10763 10752 10751 10750 ] final  157.93 input  -60.55 | X-H torsion
[ 11005 11000 10999 10996 ] final  170.36 input  -57.11 | X-H torsion

> <Gold.Protein.ActiveResidues>
 VAL166  LYS551  ARG553  GLY616  TRP617  ASP618  TYR619  PRO620  LYS621  CYS622 
 ASP623  PHE694  ASN695  SER759  ASP760  ASP761  ALA762  ILE779  LEU786  VAL792 
 PHE793  MET794  SER795  GLU796  ALA797  LYS798  CYS799  TRP800  GLU811  SER814 

> <Gold.Protein.RotatedAtoms>
  152.4327  134.5747  159.9930 H   0  0  0  0  0  0  0  0  0  0  0  0  # atno 6907 bound_to 6896
  151.5865  133.3366  159.3027 H   0  0  0  0  0  0  0  0  0  0  0  0  # atno 6908 bound_to 6896
  150.8221  134.7470  159.6846 H   0  0  0  0  0  0  0  0  0  0  0  0  # atno 6909 bound_to 6896
  146.0537  139.5035  142.9702 H   0  0  0  0  0  0  0  0  0  0  0  0  # atno 7974 bound_to 7965
  156.0879  140.3261  155.7778 H   0  0  0  0  0  0  0  0  0  0  0  0  # atno 8008 bound_to 7997
  155.5045  140.0572  157.2951 H   0  0  0  0  0  0  0  0  0  0  0  0  # atno 8009 bound_to 7997
  154.4620  140.1971  156.0235 H   0  0  0  0  0  0  0  0  0  0  0  0  # atno 8010 bound_to 7997
  140.2238  143.3656  152.0946 H   0  0  0  0  0  0  0  0  0  0  0  0  # atno 10167 bound_to 10162
  157.0774  131.0383  151.2588 H   0  0  0  0  0  0  0  0  0  0  0  0  # atno 10718 bound_to 10713
  154.2080  135.2787  155.2968 H   0  0  0  0  0  0  0  0  0  0  0  0  # atno 10763 bound_to 10752
  154.5801  135.5592  153.7181 H   0  0  0  0  0  0  0  0  0  0  0  0  # atno 10764 bound_to 10752
  153.0071  135.6343  154.2218 H   0  0  0  0  0  0  0  0  0  0  0  0  # atno 10765 bound_to 10752
  140.3076  134.7544  157.3965 H   0  0  0  0  0  0  0  0  0  0  0  0  # atno 11005 bound_to 11000
  145.6680  141.0223  143.1673 LP  0  0  0  0  0  0  0  0  0  0  0  0  # atno 17320 bound_to 7965
  144.7136  139.8278  143.7406 LP  0  0  0  0  0  0  0  0  0  0  0  0  # atno 17321 bound_to 7965
  139.5134  144.6932  151.5702 LP  0  0  0  0  0  0  0  0  0  0  0  0  # atno 17342 bound_to 10162
  140.6235  143.9213  150.6545 LP  0  0  0  0  0  0  0  0  0  0  0  0  # atno 17343 bound_to 10162
  157.4828  130.7775  149.7431 LP  0  0  0  0  0  0  0  0  0  0  0  0  # atno 17370 bound_to 10713
  155.9933  130.3925  150.2905 LP  0  0  0  0  0  0  0  0  0  0  0  0  # atno 17371 bound_to 10713
  140.1053  134.5417  155.8315 LP  0  0  0  0  0  0  0  0  0  0  0  0  # atno 17394 bound_to 11000
  141.2115  133.6707  156.6588 LP  0  0  0  0  0  0  0  0  0  0  0  0  # atno 17395 bound_to 11000

$$$$
