#       Name:                AV-unprocessed.smi:2829
#       Creating user name   scv26
#       Creation time:       Fri Mar 27 15:35:13 2020


#       File generated by GOLD software.
#

@<TRIPOS>MOLECULE
AV-unprocessed.smi:2829
    56    59     1
SMALL
NO_CHARGES


@<TRIPOS>ATOM
      1 ****        -5.8458   0.9224  -1.4269 C.3            1 S1                 0.0000
      2 ****        -5.4377   0.8698   0.0600 C.3            1 S1                 0.0000
      3 ****        -5.9598   2.1230   0.7931 C.3            1 S1                 0.0000
      4 ****        -6.1329  -0.3588   0.6892 C.3            1 S1                 0.0000
      5 ****        -3.9044   0.7996   0.1748 C.ar           1 S1                 0.0000
      6 ****        -3.2235  -0.2785   0.7840 C.ar           1 S1                 0.0000
      7 ****        -1.8203  -0.2287   0.8206 C.ar           1 S1                 0.0000
      8 ****        -1.1726   0.8853   0.2510 C.ar           1 S1                 0.0000
      9 ****         0.2437   0.8595   0.3171 N.am           1 S1                 0.0000
     10 ****         1.1212   1.7515  -0.1814 C.2            1 S1                 0.0000
     11 ****         0.8135   2.8151  -0.7162 O.2            1 S1                 0.0000
     12 ****         2.4077   1.3913  -0.0309 N.am           1 S1                 0.0000
     13 ****         3.5920   2.1344  -0.4602 C.3            1 S1                 0.0000
     14 ****         4.8949   1.4196  -0.0964 C.3            1 S1                 0.0000
     15 ****         5.9482   0.7262  -0.8823 C.3            1 S1                 0.0000
     16 ****         7.1795   1.3362  -0.1650 C.3            1 S1                 0.0000
     17 ****         6.6591   2.3819   0.6916 O.3            1 S1                 0.0000
     18 ****         5.4820   2.8162   0.0377 C.3            1 S1                 0.0000
     19 ****         4.0946   3.1934   0.5770 C.3            1 S1                 0.0000
     20 ****         3.6235   4.6531   0.5662 C.3            1 S1                 0.0000
     21 ****         3.8634   4.6871   2.0795 C.3            1 S1                 0.0000
     22 ****         3.7799   3.1572   2.0844 C.3            1 S1                 0.0000
     23 ****        -1.8889   1.8875  -0.3167 N.ar           1 S1                 0.0000
     24 ****        -3.2241   1.8462  -0.3542 N.ar           1 S1                 0.0000
     25 ****        -6.9300   0.9522  -1.5412 H              1 S1                 0.0000
     26 ****        -5.4819   0.0479  -1.9676 H              1 S1                 0.0000
     27 ****        -5.4468   1.8063  -1.9258 H              1 S1                 0.0000
     28 ****        -5.5617   3.0415   0.3604 H              1 S1                 0.0000
     29 ****        -5.6808   2.1085   1.8474 H              1 S1                 0.0000
     30 ****        -7.0472   2.1897   0.7416 H              1 S1                 0.0000
     31 ****        -7.2174  -0.2896   0.5963 H              1 S1                 0.0000
     32 ****        -5.9096  -0.4475   1.7530 H              1 S1                 0.0000
     33 ****        -5.8307  -1.2866   0.2022 H              1 S1                 0.0000
     34 ****        -3.7342  -1.1262   1.2133 H              1 S1                 0.0000
     35 ****        -1.2569  -1.0315   1.2739 H              1 S1                 0.0000
     36 ****         0.6424   0.0423   0.7549 H              1 S1                 0.0000
     37 ****         2.5827   0.5315   0.4692 H              1 S1                 0.0000
     38 ****         3.5690   2.4873  -1.4948 H              1 S1                 0.0000
     39 ****         4.7833   0.9269   0.8767 H              1 S1                 0.0000
     40 ****         5.9025  -0.3590  -0.7878 H              1 S1                 0.0000
     41 ****         5.9137   0.9967  -1.9385 H              1 S1                 0.0000
     42 ****         7.7088   0.5976   0.4377 H              1 S1                 0.0000
     43 ****         7.8829   1.7517  -0.8876 H              1 S1                 0.0000
     44 ****         5.7048   3.2972  -0.9208 H              1 S1                 0.0000
     45 ****         4.2521   5.3334  -0.0090 H              1 S1                 0.0000
     46 ****         2.5699   4.7637   0.3097 H              1 S1                 0.0000
     47 ****         4.8574   5.0542   2.3398 H              1 S1                 0.0000
     48 ****         3.0836   5.1878   2.6539 H              1 S1                 0.0000
     49 ****         2.7747   2.7980   2.3099 H              1 S1                 0.0000
     50 ****         4.5324   2.6647   2.7011 H              1 S1                 0.0000
     51 ****        -0.1494   3.0698  -0.8051 LP             1 S1                 0.0000
     52 ****         1.5261   3.4253  -1.0621 LP             1 S1                 0.0000
     53 ****         7.3156   3.1317   0.7741 LP             1 S1                 0.0000
     54 ****         6.4474   2.0227   1.6005 LP             1 S1                 0.0000
     55 ****        -1.4099   2.6703  -0.7138 LP             1 S1                 0.0000
     56 ****        -3.7287   2.5981  -0.7785 LP             1 S1                 0.0000
@<TRIPOS>BOND
    1    1    2 1     
    2    1   25 1     
    3    1   26 1     
    4    1   27 1     
    5    2    3 1     
    6    2    4 1     
    7    2    5 1     
    8    3   28 1     
    9    3   29 1     
   10    3   30 1     
   11    4   31 1     
   12    4   32 1     
   13    4   33 1     
   14    5   24 ar    
   15    5    6 ar    
   16    6    7 ar    
   17    6   34 1     
   18    7    8 ar    
   19    7   35 1     
   20    8    9 1     
   21    8   23 ar    
   22    9   10 am    
   23    9   36 1     
   24   10   11 2     
   25   10   12 am    
   26   12   13 1     
   27   12   37 1     
   28   13   19 1     
   29   13   14 1     
   30   13   38 1     
   31   14   18 1     
   32   14   15 1     
   33   14   39 1     
   34   15   16 1     
   35   15   40 1     
   36   15   41 1     
   37   16   17 1     
   38   16   42 1     
   39   16   43 1     
   40   17   18 1     
   41   18   19 1     
   42   18   44 1     
   43   19   22 1     
   44   19   20 1     
   45   20   21 1     
   46   20   45 1     
   47   20   46 1     
   48   21   22 1     
   49   21   47 1     
   50   21   48 1     
   51   22   49 1     
   52   22   50 1     
   53   23   24 ar    
   54   11   51 1     
   55   11   52 1     
   56   17   53 1     
   57   17   54 1     
   58   23   55 1     
   59   24   56 1     
@<TRIPOS>SUBSTRUCTURE
      1 S1             1
@<TRIPOS>SET
LONE_PAIRS      STATIC     ATOMS    <user>   **** ""
6 51 52 53 54 55 56
DONOR_HYDROGENS      STATIC     ATOMS    <user>   **** ""
2 36 37
ATOM$BLUE        STATIC     ATOMS    COLORGROUP SYSTEM
6 51 52 53 54 55 56
ATOM$RED        STATIC     ATOMS    COLORGROUP SYSTEM
2 36 37
