AV-unprocessed.smi:3343|AV-procd|sdf|12896|dock7
  -GOLD-   2272019303D 1   1.00000     0.00000
 Structure written by MMmdl.
 42 43  0  0  0  0  0  0  0  0  2 V2000
  153.3886  139.1879  154.6360 C   0  0  0  0  0  0  0  0  0  0  0  0
  152.2529  138.9743  155.6540 C   0  0  1  0  0  0  0  0  0  0  0  0
  151.0112  139.8226  155.3410 C   0  0  0  0  0  0  0  0  0  0  0  0
  150.5284  139.8372  154.2078 O   0  0  0  0  0  0  0  0  0  0  0  0
  150.5000  140.5275  156.3626 N   0  0  0  0  0  0  0  0  0  0  0  0
  149.3230  141.3843  156.2835 C   0  0  0  0  0  0  0  0  0  0  0  0
  149.0150  142.0504  157.6383 C   0  0  0  0  0  0  0  0  0  0  0  0
  149.7401  143.3329  157.8154 N   0  3  0  0  0  0  0  0  0  0  0  0
  151.2039  143.1874  157.6262 C   0  0  0  0  0  0  0  0  0  0  0  0
  151.9040  144.5595  157.7223 C   0  0  0  0  0  0  0  0  0  0  0  0
  151.6306  145.2302  158.9943 N   0  0  0  0  0  0  0  0  0  0  0  0
  152.3079  144.6088  160.1273 C   0  0  0  0  0  0  0  0  0  0  0  0
  150.1857  145.3613  159.1883 C   0  0  0  0  0  0  0  0  0  0  0  0
  149.4604  144.0010  159.1112 C   0  0  0  0  0  0  0  0  0  0  0  0
  151.8888  137.5678  155.7503 N   0  0  0  0  0  0  0  0  0  0  0  0
  151.2972  136.7527  154.8721 C   0  0  0  0  0  0  0  0  0  0  0  0
  151.1072  135.5217  155.3251 N   0  0  0  0  0  0  0  0  0  0  0  0
  151.6381  135.6550  156.5767 C   0  0  0  0  0  0  0  0  0  0  0  0
  152.1150  136.8615  156.8840 N   0  0  0  0  0  0  0  0  0  0  0  0
  153.6662  140.2406  154.5694 H   0  0  0  0  0  0  0  0  0  0  0  0
  153.1084  138.8543  153.6361 H   0  0  0  0  0  0  0  0  0  0  0  0
  154.2807  138.6337  154.9295 H   0  0  0  0  0  0  0  0  0  0  0  0
  152.6293  139.2917  156.6287 H   0  0  0  0  0  0  0  0  0  0  0  0
  150.9530  140.4522  157.2625 H   0  0  0  0  0  0  0  0  0  0  0  0
  149.4639  142.1397  155.5085 H   0  0  0  0  0  0  0  0  0  0  0  0
  148.4912  140.7594  155.9601 H   0  0  0  0  0  0  0  0  0  0  0  0
  147.9424  142.2107  157.7578 H   0  0  0  0  0  0  0  0  0  0  0  0
  149.3139  141.3667  158.4343 H   0  0  0  0  0  0  0  0  0  0  0  0
  151.6087  142.4856  158.3565 H   0  0  0  0  0  0  0  0  0  0  0  0
  151.4015  142.7597  156.6427 H   0  0  0  0  0  0  0  0  0  0  0  0
  152.9809  144.4484  157.5899 H   0  0  0  0  0  0  0  0  0  0  0  0
  151.5586  145.2019  156.9110 H   0  0  0  0  0  0  0  0  0  0  0  0
  152.1227  145.1812  161.0367 H   0  0  0  0  0  0  0  0  0  0  0  0
  153.3854  144.5950  159.9604 H   0  0  0  0  0  0  0  0  0  0  0  0
  151.9811  143.5847  160.3020 H   0  0  0  0  0  0  0  0  0  0  0  0
  149.9872  145.8451  160.1454 H   0  0  0  0  0  0  0  0  0  0  0  0
  149.7923  146.0272  158.4190 H   0  0  0  0  0  0  0  0  0  0  0  0
  148.3902  144.1738  159.2189 H   0  0  0  0  0  0  0  0  0  0  0  0
  149.7531  143.3533  159.9385 H   0  0  0  0  0  0  0  0  0  0  0  0
  150.9979  137.0670  153.8829 H   0  0  0  0  0  0  0  0  0  0  0  0
  151.6709  134.8392  157.2839 H   0  0  0  0  0  0  0  0  0  0  0  0
  149.4213  143.9527  157.0845 H   0  0  0  0  0  0  0  0  0  0  0  0
  1  2  1  0  0  0  0
  1 20  1  0  0  0  0
  1 21  1  0  0  0  0
  1 22  1  0  0  0  0
  2  3  1  0  0  0  0
  2 15  1  0  0  0  0
  2 23  1  0  0  0  0
  3  4  2  0  0  0  0
  3  5  1  0  0  0  0
  5  6  1  0  0  0  0
  5 24  1  0  0  0  0
  6  7  1  0  0  0  0
  6 25  1  0  0  0  0
  6 26  1  0  0  0  0
  7  8  1  0  0  0  0
  7 27  1  0  0  0  0
  7 28  1  0  0  0  0
  8 14  1  0  0  0  0
  8  9  1  0  0  0  0
  8 42  1  0  0  0  0
  9 10  1  0  0  0  0
  9 29  1  0  0  0  0
  9 30  1  0  0  0  0
 10 11  1  0  0  0  0
 10 31  1  0  0  0  0
 10 32  1  0  0  0  0
 11 12  1  0  0  0  0
 11 13  1  0  0  0  0
 12 33  1  0  0  0  0
 12 34  1  0  0  0  0
 12 35  1  0  0  0  0
 13 14  1  0  0  0  0
 13 36  1  0  0  0  0
 13 37  1  0  0  0  0
 14 38  1  0  0  0  0
 14 39  1  0  0  0  0
 15 19  1  0  0  0  0
 15 16  1  0  0  0  0
 16 17  2  0  0  0  0
 16 40  1  0  0  0  0
 17 18  1  0  0  0  0
 18 19  2  0  0  0  0
 18 41  1  0  0  0  0
M  CHG  1   8   1
M  END
> <s_m_source_file>
AV-unprocessed.smi

> <i_m_source_file_index>
3343

> <i_lp_mmshare_version>
43012

> <i_f3d_flags>
0

> <s_epik_input>
bjFbY0hdbltjSF1uMVtDQEhdKFtDSDNdKUMoPU8pW05IXVtDSDJdW0NIMl1OMltDSDJdW0NIMl1OKFtDSDNdKVtDSDJdW0NIMl0y

> <s_epik_cmdline>
J2VwaWtfcHl0aG9uJywgJy1waCcsICc3LjAnLCAnLXRuJywgJzgnLCAnLW1hJywgJzIwMCcsICctbWV0YWxfYmluZGluZycsICctaW1hZScsICc8aW5maWxlLm1hZT4nLCAnLW9tYWUnLCAnPG91dGZpbGUubWFlPic=

> <r_epik_Ionization_Penalty>
0.559944

> <r_epik_Ionization_Penalty_Charging>
0.558624

> <r_epik_Ionization_Penalty_Neutral>
0.00131959

> <r_epik_State_Penalty>
2.08679

> <r_epik_Charging_Adjusted_Penalty>
2.64542

> <i_epik_Tot_Q>
1

> <i_epik_Tot_abs_Q>
1

> <r_epik_Metal_State_Penalty>
2.0868

> <b_epik_Metal_Only>
0

> <s_lp_Force_Field>
OPLS_2005

> <r_lp_Energy>
21.6118

> <b_lp_Chiralities_Consistent>
1

> <s_lp_Variant>
AV-unprocessed.smi:3343-6

> <Gold.Version>
5.8.1

> <Gold.Id.Protein>
6NUR|6NUR_protein|mol2

> <Gold.PLP.Fitness>
45.4606

> <Gold.PLP.PLP>
-34.1059

> <Gold.PLP.part.hbond>
-2.0000

> <Gold.PLP.part.metal>
0.0000

> <Gold.PLP.part.buried>
-6.8339

> <Gold.PLP.part.nonpolar>
-26.7328

> <Gold.PLP.part.repulsive>
0.6784

> <Gold.PLP.ligand.clash>
0.0000

> <Gold.PLP.ligand.torsion>
0.5359

> <Gold.PLP.Chemscore.Hbond>
3.0000

> <Gold.PLP.Chemscore.CHOScore>
1.1101

> <Gold.PLP.Chemscore.Metal>
0.0000

> <Gold.Chemscore.Hbonds>
donor molecule, donor type, donor heavy atom, donor atom, acceptor molecule, acceptor atom, score
      L1  H     8    42       P1  8028  2.00
      P1  H  7989  7998       L1     4  0.95
      L1  C    16    40       P1  7949  0.75

> <Gold.PLP.Chemscore.Internal.Correction>
0.0961

> <Gold.Rescore>
     Score         DG    S(hbond)    S(metal)    S(lipo)     H(rot)  DE(clash)    DE(int)     intcor
     12.69     -13.63       1.75        0.00      77.32       2.63       0.04       0.90       ----

> <Gold.Chemscore.Fitness>
12.6869

> <Gold.Chemscore.DG>
-13.6306

> <Gold.Chemscore.ZeroCoef>
-5.4800

> <Gold.Chemscore.Hbond>
1.7459

> <Gold.Chemscore.Metal>
0.0000

> <Gold.Chemscore.Lipo>
77.3194

> <Gold.Chemscore.Internal_Hbond>
0.0000

> <Gold.Chemscore.DEClash>
0.0402

> <Gold.Chemscore.DEInternal>
0.9035

> <Gold.Chemscore.Rot>
2.6278

> <Gold.Chemscore.Internal.Correction>
   9.000000E+99

> <Gold.Chemscore.Hbonds>
donor molecule, donor type, donor heavy atom, donor atom, acceptor molecule, acceptor atom, score
      L1  H     8    42       P1  8028  0.55
      P1  H  7989  7998       L1     4  0.21

> <Gold.Chemscore.Hbond.Weighted>
-5.8313

> <Gold.Chemscore.Metal.Weighted>
-0.0000

> <Gold.Chemscore.Lipo.Weighted>
-9.0464

> <Gold.Chemscore.Internal_Hbond.Weighted>
0.0000

> <Gold.Chemscore.DEClash.Weighted>
0.0402

> <Gold.Chemscore.DEInternal.Weighted>
0.9035

> <Gold.Chemscore.Rot.Weighted>
6.7271

> <Gold.Chemscore.Internal.Correction.Weighted>
   9.000000E+99

> <Gold.Protein.RotatedTorsions>
[ 6907 6896 6895 6894 ] final  -51.80 input  -60.11 | X-H torsion
[ 7974 7965 7964 7962 ] final  -55.48 input  175.53 | X-H torsion
[ 8008 7997 7996 7995 ] final  -84.58 input   59.86 | X-H torsion
[ 10167 10162 10161 10158 ] final   68.67 input  -65.29 | X-H torsion
[ 10718 10713 10712 10709 ] final  159.25 input   66.30 | X-H torsion
[ 10763 10752 10751 10750 ] final  -90.84 input  -60.55 | X-H torsion
[ 11005 11000 10999 10996 ] final -134.02 input  -57.11 | X-H torsion

> <Gold.Protein.ActiveResidues>
 VAL166  LYS551  ARG553  GLY616  TRP617  ASP618  TYR619  PRO620  LYS621  CYS622 
 ASP623  PHE694  ASN695  SER759  ASP760  ASP761  ALA762  ILE779  LEU786  VAL792 
 PHE793  MET794  SER795  GLU796  ALA797  LYS798  CYS799  TRP800  GLU811  SER814 

> <Gold.Protein.RotatedAtoms>
  150.8577  134.7921  159.7058 H   0  0  0  0  0  0  0  0  0  0  0  0  # atno 6907 bound_to 6896
  152.4624  134.5151  159.9775 H   0  0  0  0  0  0  0  0  0  0  0  0  # atno 6908 bound_to 6896
  151.5260  133.3419  159.2945 H   0  0  0  0  0  0  0  0  0  0  0  0  # atno 6909 bound_to 6896
  145.8737  140.8197  142.9875 H   0  0  0  0  0  0  0  0  0  0  0  0  # atno 7974 bound_to 7965
  154.6313  140.0603  156.9735 H   0  0  0  0  0  0  0  0  0  0  0  0  # atno 8008 bound_to 7997
  155.1661  140.3287  155.4383 H   0  0  0  0  0  0  0  0  0  0  0  0  # atno 8009 bound_to 7997
  156.2484  140.1922  156.6766 H   0  0  0  0  0  0  0  0  0  0  0  0  # atno 8010 bound_to 7997
  140.0761  144.5111  150.7194 H   0  0  0  0  0  0  0  0  0  0  0  0  # atno 10167 bound_to 10162
  157.1668  131.0600  151.2203 H   0  0  0  0  0  0  0  0  0  0  0  0  # atno 10718 bound_to 10713
  154.6699  135.5289  153.8125 H   0  0  0  0  0  0  0  0  0  0  0  0  # atno 10763 bound_to 10752
  153.0495  135.6526  154.0740 H   0  0  0  0  0  0  0  0  0  0  0  0  # atno 10764 bound_to 10752
  154.0640  135.2959  155.3300 H   0  0  0  0  0  0  0  0  0  0  0  0  # atno 10765 bound_to 10752
  140.9028  134.1669  157.4448 H   0  0  0  0  0  0  0  0  0  0  0  0  # atno 11005 bound_to 11000
  144.6726  140.1278  143.7445 LP  0  0  0  0  0  0  0  0  0  0  0  0  # atno 17320 bound_to 7965
  145.9106  139.2485  143.1440 LP  0  0  0  0  0  0  0  0  0  0  0  0  # atno 17321 bound_to 7965
  140.7101  143.2498  151.4606 LP  0  0  0  0  0  0  0  0  0  0  0  0  # atno 17342 bound_to 10162
  139.5807  144.1716  152.1964 LP  0  0  0  0  0  0  0  0  0  0  0  0  # atno 17343 bound_to 10162
  157.4081  130.7370  149.6818 LP  0  0  0  0  0  0  0  0  0  0  0  0  # atno 17370 bound_to 10713
  155.9745  130.4103  150.3921 LP  0  0  0  0  0  0  0  0  0  0  0  0  # atno 17371 bound_to 10713
  139.8745  134.9905  156.5504 LP  0  0  0  0  0  0  0  0  0  0  0  0  # atno 17394 bound_to 11000
  140.8209  133.8354  155.8894 LP  0  0  0  0  0  0  0  0  0  0  0  0  # atno 17395 bound_to 11000

$$$$
