AV-unprocessed.smi:658|AV-procd|sdf|3237|dock10
  -GOLD-   22720 0183D 1   1.00000     0.00000
 Structure written by MMmdl.
 37 37  0  0  0  0  0  0  0  0  3 V2000
  144.0718  136.1178  151.9194 C   0  0  0  0  0  0  0  0  0  0  0  0
  145.5725  135.8454  151.6986 C   0  0  1  0  0  0  0  0  0  0  0  0
  146.4019  136.7602  152.5183 N   0  3  0  0  0  0  0  0  0  0  0  0
  146.2774  138.1958  152.1950 C   0  0  0  0  0  0  0  0  0  0  0  0
  146.8503  139.0554  153.3263 C   0  0  0  0  0  0  0  0  0  0  0  0
  148.3750  138.9247  153.4472 C   0  0  0  0  0  0  0  0  0  0  0  0
  149.0934  140.2711  154.4836 S   0  0  0  0  0  0  0  0  0  0  0  0
  150.6509  139.8483  154.4865 N   0  5  0  0  0  0  0  0  0  0  0  0
  148.8626  141.5285  153.7561 O   0  0  0  0  0  0  0  0  0  0  0  0
  148.4769  140.1230  155.8104 O   0  0  0  0  0  0  0  0  0  0  0  0
  145.9469  134.3647  151.9700 C   0  0  1  0  0  0  0  0  0  0  0  0
  145.8374  133.9795  153.4564 C   0  0  0  0  0  0  0  0  0  0  0  0
  145.2183  133.4277  151.1190 N   0  0  0  0  0  0  0  0  0  0  0  0
  145.7094  132.4167  150.3146 C   0  0  0  0  0  0  0  0  0  0  0  0
  144.6400  131.7954  149.7370 C   0  0  0  0  0  0  0  0  0  0  0  0
  143.5190  132.4988  150.2575 C   0  0  0  0  0  0  0  0  0  0  0  0
  143.8676  133.4691  151.0865 N   0  0  0  0  0  0  0  0  0  0  0  0
  143.4611  135.4055  151.3642 H   0  0  0  0  0  0  0  0  0  0  0  0
  143.7874  137.1130  151.5787 H   0  0  0  0  0  0  0  0  0  0  0  0
  143.7981  136.0382  152.9719 H   0  0  0  0  0  0  0  0  0  0  0  0
  145.7972  136.0441  150.6495 H   0  0  0  0  0  0  0  0  0  0  0  0
  146.1777  136.6203  153.4932 H   0  0  0  0  0  0  0  0  0  0  0  0
  146.8079  138.4053  151.2652 H   0  0  0  0  0  0  0  0  0  0  0  0
  145.2298  138.4513  152.0369 H   0  0  0  0  0  0  0  0  0  0  0  0
  146.5896  140.1005  153.1539 H   0  0  0  0  0  0  0  0  0  0  0  0
  146.3834  138.7711  154.2700 H   0  0  0  0  0  0  0  0  0  0  0  0
  148.6286  137.9774  153.9231 H   0  0  0  0  0  0  0  0  0  0  0  0
  148.8644  138.9421  152.4731 H   0  0  0  0  0  0  0  0  0  0  0  0
  151.0467  140.0921  155.4024 H   0  0  0  0  0  0  0  0  0  0  0  0
  147.0041  134.2593  151.7184 H   0  0  0  0  0  0  0  0  0  0  0  0
  146.4587  134.6282  154.0742 H   0  0  0  0  0  0  0  0  0  0  0  0
  146.1735  132.9548  153.6189 H   0  0  0  0  0  0  0  0  0  0  0  0
  144.8144  134.0539  153.8257 H   0  0  0  0  0  0  0  0  0  0  0  0
  146.7675  132.2227  150.2185 H   0  0  0  0  0  0  0  0  0  0  0  0
  144.6557  130.9635  149.0483 H   0  0  0  0  0  0  0  0  0  0  0  0
  142.4699  132.3328  150.0618 H   0  0  0  0  0  0  0  0  0  0  0  0
  147.3689  136.5070  152.3738 H   0  0  0  0  0  0  0  0  0  0  0  0
  1  2  1  0  0  0  0
  1 18  1  0  0  0  0
  1 19  1  0  0  0  0
  1 20  1  0  0  0  0
  2  3  1  0  0  0  0
  2 11  1  0  0  0  0
  2 21  1  0  0  0  0
  3  4  1  0  0  0  0
  3 22  1  0  0  0  0
  3 37  1  0  0  0  0
  4  5  1  0  0  0  0
  4 23  1  0  0  0  0
  4 24  1  0  0  0  0
  5  6  1  0  0  0  0
  5 25  1  0  0  0  0
  5 26  1  0  0  0  0
  6  7  1  0  0  0  0
  6 27  1  0  0  0  0
  6 28  1  0  0  0  0
  7  8  1  0  0  0  0
  7  9  2  0  0  0  0
  7 10  2  0  0  0  0
  8 29  1  0  0  0  0
 11 12  1  0  0  0  0
 11 13  1  0  0  0  0
 11 30  1  0  0  0  0
 12 31  1  0  0  0  0
 12 32  1  0  0  0  0
 12 33  1  0  0  0  0
 13 17  1  0  0  0  0
 13 14  1  0  0  0  0
 14 15  2  0  0  0  0
 14 34  1  0  0  0  0
 15 16  1  0  0  0  0
 15 35  1  0  0  0  0
 16 17  2  0  0  0  0
 16 36  1  0  0  0  0
M  CHG  1   3   1
M  CHG  1   8  -1
M  END
> <s_m_source_file>
AV-unprocessed.smi

> <i_m_source_file_index>
658

> <i_lp_mmshare_version>
43012

> <i_f3d_flags>
0

> <s_epik_input>
bjFbY0hdW2NIXVtjSF1uMVtDQEBIXShbQ0gzXSlbQ0BIXShbQ0gzXSlbTkhdW0NIMl1bQ0gyXVtDSDJdUyg9TykoPU8pW05IMl0=

> <s_epik_cmdline>
J2VwaWtfcHl0aG9uJywgJy1waCcsICc3LjAnLCAnLXRuJywgJzgnLCAnLW1hJywgJzIwMCcsICctbWV0YWxfYmluZGluZycsICctaW1hZScsICc8aW5maWxlLm1hZT4nLCAnLW9tYWUnLCAnPG91dGZpbGUubWFlPic=

> <r_lp_tautomer_probability>
1

> <r_epik_Ionization_Penalty>
4.63642

> <r_epik_Ionization_Penalty_Charging>
4.63641

> <r_epik_Ionization_Penalty_Neutral>
1.08396e-05

> <r_epik_State_Penalty>
4.63466

> <r_epik_Charging_Adjusted_Penalty>
9.27106

> <i_epik_Tot_Q>
0

> <i_epik_Tot_abs_Q>
2

> <r_epik_Metal_State_Penalty>
0.890424

> <b_epik_Metal_Only>
1

> <s_lp_Force_Field>
OPLS_2005

> <r_lp_Energy>
1.41706

> <b_lp_Chiralities_Consistent>
1

> <s_lp_Variant>
AV-unprocessed.smi:658-8

> <Gold.Version>
5.8.1

> <Gold.Id.Protein>
6NUR|6NUR_protein|mol2

> <Gold.PLP.Fitness>
45.3167

> <Gold.PLP.PLP>
-27.9327

> <Gold.PLP.part.hbond>
-3.0000

> <Gold.PLP.part.metal>
0.0000

> <Gold.PLP.part.buried>
-1.6789

> <Gold.PLP.part.nonpolar>
-25.7742

> <Gold.PLP.part.repulsive>
0.4169

> <Gold.PLP.ligand.clash>
0.0000

> <Gold.PLP.ligand.torsion>
0.4373

> <Gold.PLP.Chemscore.Hbond>
3.7040

> <Gold.PLP.Chemscore.CHOScore>
2.2967

> <Gold.PLP.Chemscore.Metal>
0.0000

> <Gold.Chemscore.Hbonds>
donor molecule, donor type, donor heavy atom, donor atom, acceptor molecule, acceptor atom, score
      L1  H     3    37       P1  7948  2.00
      P1  H  7989  7998       L1     8  0.95
      P1  H  8011  8017       L1     9  0.72
      L1  C    14    34       P1 10747  0.85
      L1  C    16    36       P1 10186  0.64
      L1  C    16    36       P1 10952  0.78

> <Gold.PLP.Chemscore.Internal.Correction>
0.2567

> <Gold.Rescore>
     Score         DG    S(hbond)    S(metal)    S(lipo)     H(rot)  DE(clash)    DE(int)     intcor
     12.14     -14.78       2.51        0.00      74.46       3.04       0.79       1.85       ----

> <Gold.Chemscore.Fitness>
12.1417

> <Gold.Chemscore.DG>
-14.7832

> <Gold.Chemscore.ZeroCoef>
-5.4800

> <Gold.Chemscore.Hbond>
2.5080

> <Gold.Chemscore.Metal>
0.0000

> <Gold.Chemscore.Lipo>
74.4561

> <Gold.Chemscore.Internal_Hbond>
0.0000

> <Gold.Chemscore.DEClash>
0.7892

> <Gold.Chemscore.DEInternal>
1.8524

> <Gold.Chemscore.Rot>
3.0409

> <Gold.Chemscore.Internal.Correction>
   9.000000E+99

> <Gold.Chemscore.Hbonds>
donor molecule, donor type, donor heavy atom, donor atom, acceptor molecule, acceptor atom, score
      L1  H     3    37       P1  7948  1.00
      P1  H  7989  7998       L1     8  0.18
      P1  H  8011  8017       L1     9  0.72

> <Gold.Chemscore.Hbond.Weighted>
-8.3767

> <Gold.Chemscore.Metal.Weighted>
-0.0000

> <Gold.Chemscore.Lipo.Weighted>
-8.7114

> <Gold.Chemscore.Internal_Hbond.Weighted>
0.0000

> <Gold.Chemscore.DEClash.Weighted>
0.7892

> <Gold.Chemscore.DEInternal.Weighted>
1.8524

> <Gold.Chemscore.Rot.Weighted>
7.7848

> <Gold.Chemscore.Internal.Correction.Weighted>
   9.000000E+99

> <Gold.Protein.RotatedTorsions>
[ 6907 6896 6895 6894 ] final   76.31 input  -60.11 | X-H torsion
[ 7974 7965 7964 7962 ] final  -94.84 input  175.53 | X-H torsion
[ 8008 7997 7996 7995 ] final  104.98 input   59.86 | X-H torsion
[ 10167 10162 10161 10158 ] final  162.77 input  -65.29 | X-H torsion
[ 10718 10713 10712 10709 ] final -132.34 input   66.30 | X-H torsion
[ 10763 10752 10751 10750 ] final   74.36 input  -60.55 | X-H torsion
[ 11005 11000 10999 10996 ] final  178.18 input  -57.11 | X-H torsion

> <Gold.Protein.ActiveResidues>
 VAL166  LYS551  ARG553  GLY616  TRP617  ASP618  TYR619  PRO620  LYS621  CYS622 
 ASP623  PHE694  ASN695  SER759  ASP760  ASP761  ALA762  ILE779  LEU786  VAL792 
 PHE793  MET794  SER795  GLU796  ALA797  LYS798  CYS799  TRP800  GLU811  SER814 

> <Gold.Protein.RotatedAtoms>
  152.5067  134.3989  159.9409 H   0  0  0  0  0  0  0  0  0  0  0  0  # atno 6907 bound_to 6896
  151.3952  133.3769  159.2733 H   0  0  0  0  0  0  0  0  0  0  0  0  # atno 6908 bound_to 6896
  150.9403  134.8833  159.7667 H   0  0  0  0  0  0  0  0  0  0  0  0  # atno 6909 bound_to 6896
  145.3680  140.9501  143.2463 H   0  0  0  0  0  0  0  0  0  0  0  0  # atno 7974 bound_to 7965
  156.1620  140.3138  155.8823 H   0  0  0  0  0  0  0  0  0  0  0  0  # atno 8008 bound_to 7997
  155.3763  140.0485  157.3061 H   0  0  0  0  0  0  0  0  0  0  0  0  # atno 8009 bound_to 7997
  154.5155  140.2180  155.9084 H   0  0  0  0  0  0  0  0  0  0  0  0  # atno 8010 bound_to 7997
  139.4865  144.4405  151.8958 H   0  0  0  0  0  0  0  0  0  0  0  0  # atno 10167 bound_to 10162
  156.2336  130.7052  151.0884 H   0  0  0  0  0  0  0  0  0  0  0  0  # atno 10718 bound_to 10713
  153.0582  135.5028  154.8031 H   0  0  0  0  0  0  0  0  0  0  0  0  # atno 10763 bound_to 10752
  154.6841  135.2973  154.9575 H   0  0  0  0  0  0  0  0  0  0  0  0  # atno 10764 bound_to 10752
  154.0351  135.6724  153.4837 H   0  0  0  0  0  0  0  0  0  0  0  0  # atno 10765 bound_to 10752
  140.3922  134.6852  157.4514 H   0  0  0  0  0  0  0  0  0  0  0  0  # atno 11005 bound_to 11000
  144.8597  139.5195  143.6818 LP  0  0  0  0  0  0  0  0  0  0  0  0  # atno 17320 bound_to 7965
  146.2898  139.7107  142.9169 LP  0  0  0  0  0  0  0  0  0  0  0  0  # atno 17321 bound_to 7965
  140.3856  144.2681  150.5904 LP  0  0  0  0  0  0  0  0  0  0  0  0  # atno 17342 bound_to 10162
  140.5193  143.2270  151.8414 LP  0  0  0  0  0  0  0  0  0  0  0  0  # atno 17343 bound_to 10162
  157.7144  131.0717  150.6382 LP  0  0  0  0  0  0  0  0  0  0  0  0  # atno 17370 bound_to 10713
  156.6451  130.4469  149.5739 LP  0  0  0  0  0  0  0  0  0  0  0  0  # atno 17371 bound_to 10713
  140.0398  134.6284  155.8996 LP  0  0  0  0  0  0  0  0  0  0  0  0  # atno 17394 bound_to 11000
  141.1887  133.6563  156.5334 LP  0  0  0  0  0  0  0  0  0  0  0  0  # atno 17395 bound_to 11000

$$$$
