#       Name:                AV-unprocessed.smi:103
#       Creating user name   scv26
#       Creation time:       Thu Mar 26 17:54:00 2020


#       File generated by GOLD software.
#

@<TRIPOS>MOLECULE
AV-unprocessed.smi:103
    64    66     1
SMALL
NO_CHARGES


@<TRIPOS>ATOM
      1 ****        -3.8960   3.7409  -3.2780 C.3            1 S1                 0.0000
      2 ****        -2.5470   3.6142  -2.5824 C.2            1 S1                 0.0000
      3 ****        -1.6016   4.3481  -2.8706 O.2            1 S1                 0.0000
      4 ****        -2.5378   2.6407  -1.6611 O.3            1 S1                 0.0000
      5 ****        -1.3549   2.3825  -0.9229 C.3            1 S1                 0.0000
      6 ****        -1.5875   1.1734  -0.0094 C.3            1 S1                 0.0000
      7 ****        -0.4785   1.0613   0.8831 O.3            1 S1                 0.0000
      8 ****         0.0588  -0.2187   0.7990 C.3            1 S1                 0.0000
      9 ****         1.5342  -0.1392   1.0215 N.pl3          1 S1                 0.0000
     10 ****         2.3501  -0.9017   1.8332 C.2            1 S1                 0.0000
     11 ****         1.8326  -2.2163   2.9311 S.o2           1 S1                 0.0000
     12 ****         1.1688  -1.2707   4.3610 C.3            1 S1                 0.0000
     13 ****         0.7310  -2.9323   2.2701 O.2            1 S1                 0.0000
     14 ****         3.0481  -2.9349   3.3443 O.2            1 S1                 0.0000
     15 ****         3.6116  -0.5679   1.8736 N.2            1 S1                 0.0000
     16 ****         3.6897   0.4770   0.9638 C.ar           1 S1                 0.0000
     17 ****         4.7467   1.2933   0.4884 C.ar           1 S1                 0.0000
     18 ****         6.0151   1.1616   0.9011 N.pl3          1 S1                 0.0000
     19 ****         4.4634   2.2508  -0.4255 N.ar           1 S1                 0.0000
     20 ****         3.2055   2.4030  -0.8525 C.ar           1 S1                 0.0000
     21 ****         2.1142   1.7193  -0.4982 N.ar           1 S1                 0.0000
     22 ****         2.4013   0.7522   0.4224 C.ar           1 S1                 0.0000
     23 ****        -0.2649  -0.7232  -0.6031 C.3            1 S1                 0.0000
     24 ****        -0.2364  -2.1436  -0.6865 O.3            1 S1                 0.0000
     25 ****         0.8744  -2.7792  -1.0973 C.2            1 S1                 0.0000
     26 ****         0.7053  -4.2922  -1.1060 C.3            1 S1                 0.0000
     27 ****         1.9352  -2.2488  -1.4274 O.2            1 S1                 0.0000
     28 ****        -1.6602  -0.1546  -0.7878 C.3            1 S1                 0.0000
     29 ****        -2.6387  -1.0066  -0.1975 O.3            1 S1                 0.0000
     30 ****        -3.9204  -0.9455  -0.5988 C.2            1 S1                 0.0000
     31 ****        -4.8058  -1.9444   0.1340 C.3            1 S1                 0.0000
     32 ****        -4.3778  -0.1832  -1.4503 O.2            1 S1                 0.0000
     33 ****        -4.1393   2.8168  -3.8026 H              1 S1                 0.0000
     34 ****        -3.8793   4.5558  -4.0020 H              1 S1                 0.0000
     35 ****        -4.6805   3.9427  -2.5486 H              1 S1                 0.0000
     36 ****        -0.5156   2.1981  -1.5950 H              1 S1                 0.0000
     37 ****        -1.1098   3.2602  -0.3235 H              1 S1                 0.0000
     38 ****        -2.4897   1.3392   0.5813 H              1 S1                 0.0000
     39 ****        -0.3552  -0.8310   1.5975 H              1 S1                 0.0000
     40 ****         0.8133  -1.9655   5.1213 H              1 S1                 0.0000
     41 ****         0.3448  -0.6385   4.0315 H              1 S1                 0.0000
     42 ****         1.9583  -0.6470   4.7800 H              1 S1                 0.0000
     43 ****         6.2514   0.4542   1.5821 H              1 S1                 0.0000
     44 ****         6.7324   1.7662   0.5277 H              1 S1                 0.0000
     45 ****         3.0507   3.1851  -1.5813 H              1 S1                 0.0000
     46 ****         0.4069  -0.2511  -1.3214 H              1 S1                 0.0000
     47 ****         0.5620  -4.6611  -0.0902 H              1 S1                 0.0000
     48 ****         1.5877  -4.7741  -1.5275 H              1 S1                 0.0000
     49 ****        -0.1616  -4.5743  -1.7037 H              1 S1                 0.0000
     50 ****        -1.8748  -0.0089  -1.8478 H              1 S1                 0.0000
     51 ****        -4.8813  -1.6802   1.1889 H              1 S1                 0.0000
     52 ****        -4.3894  -2.9488   0.0562 H              1 S1                 0.0000
     53 ****        -5.8088  -1.9527  -0.2934 H              1 S1                 0.0000
     54 ****        -1.7092   5.0481  -3.5766 LP             1 S1                 0.0000
     55 ****        -0.7261   4.2442  -2.3988 LP             1 S1                 0.0000
     56 ****        -0.7857   1.2327   1.8192 LP             1 S1                 0.0000
     57 ****         0.2193   1.7325   0.6331 LP             1 S1                 0.0000
     58 ****         4.3433  -0.9678   2.4256 LP             1 S1                 0.0000
     59 ****         5.1898   2.8402  -0.7789 LP             1 S1                 0.0000
     60 ****         1.1994   1.8940  -0.8623 LP             1 S1                 0.0000
     61 ****         2.0251  -1.2531  -1.4034 LP             1 S1                 0.0000
     62 ****         2.7070  -2.8136  -1.7196 LP             1 S1                 0.0000
     63 ****        -3.7766   0.4684  -1.9128 LP             1 S1                 0.0000
     64 ****        -5.3506  -0.2156  -1.6796 LP             1 S1                 0.0000
@<TRIPOS>BOND
    1    1    2 1     
    2    1   33 1     
    3    1   34 1     
    4    1   35 1     
    5    2    3 2     
    6    2    4 1     
    7    4    5 1     
    8    5    6 1     
    9    5   36 1     
   10    5   37 1     
   11    6   28 1     
   12    6    7 1     
   13    6   38 1     
   14    7    8 1     
   15    8    9 1     
   16    8   23 1     
   17    8   39 1     
   18    9   22 1     
   19    9   10 1     
   20   10   11 1     
   21   10   15 2     
   22   11   12 1     
   23   11   13 2     
   24   11   14 2     
   25   12   40 1     
   26   12   41 1     
   27   12   42 1     
   28   15   16 1     
   29   16   22 ar    
   30   16   17 ar    
   31   17   18 1     
   32   17   19 ar    
   33   18   43 1     
   34   18   44 1     
   35   19   20 ar    
   36   20   21 ar    
   37   20   45 1     
   38   21   22 ar    
   39   23   24 1     
   40   23   28 1     
   41   23   46 1     
   42   24   25 1     
   43   25   26 1     
   44   25   27 2     
   45   26   47 1     
   46   26   48 1     
   47   26   49 1     
   48   28   29 1     
   49   28   50 1     
   50   29   30 1     
   51   30   31 1     
   52   30   32 2     
   53   31   51 1     
   54   31   52 1     
   55   31   53 1     
   56    3   54 1     
   57    3   55 1     
   58    7   56 1     
   59    7   57 1     
   60   15   58 1     
   61   19   59 1     
   62   21   60 1     
   63   27   61 1     
   64   27   62 1     
   65   32   63 1     
   66   32   64 1     
@<TRIPOS>SUBSTRUCTURE
      1 S1             1
@<TRIPOS>SET
LONE_PAIRS      STATIC     ATOMS    <user>   **** ""
13 54 55 56 57 13 14 58 59 60 61 62 63 64
DONOR_HYDROGENS      STATIC     ATOMS    <user>   **** ""
2 43 44
ATOM$BLUE        STATIC     ATOMS    COLORGROUP SYSTEM
13 54 55 56 57 13 14 58 59 60 61 62 63 64
ATOM$RED        STATIC     ATOMS    COLORGROUP SYSTEM
2 43 44
