AV-unprocessed.smi:3090|AV-procd|sdf|11777|dock4
  -GOLD-   2272017153D 1   1.00000     0.00000
 Structure written by MMmdl.
 21 21  0  0  0  0  0  0  0  0  1 V2000
  151.9913  142.3087  158.3146 C   0  0  0  0  0  0  0  0  0  0  0  0
  151.4761  141.5495  157.1956 N   0  0  0  0  0  0  0  0  0  0  0  0
  150.2951  141.7238  156.5070 C   0  0  0  0  0  0  0  0  0  0  0  0
  150.2393  140.7635  155.5344 C   0  0  0  0  0  0  0  0  0  0  0  0
  149.1713  140.5077  154.5035 C   0  0  1  0  0  0  0  0  0  0  0  0
  149.5016  141.1203  153.2728 O   0  0  0  0  0  0  0  0  0  0  0  0
  149.0132  138.9978  154.2562 C   0  0  0  0  0  0  0  0  0  0  0  0
  148.2071  138.6956  153.0630 N   0  0  0  0  0  0  0  0  0  0  0  0
  151.4572  140.0465  155.7136 C   0  0  0  0  0  0  0  0  0  0  0  0
  152.1931  140.5173  156.7070 N   0  0  0  0  0  0  0  0  0  0  0  0
  151.2942  143.1039  158.5805 H   0  0  0  0  0  0  0  0  0  0  0  0
  152.9514  142.7524  158.0494 H   0  0  0  0  0  0  0  0  0  0  0  0
  152.1250  141.6521  159.1748 H   0  0  0  0  0  0  0  0  0  0  0  0
  149.5970  142.5076  156.7621 H   0  0  0  0  0  0  0  0  0  0  0  0
  148.2200  140.9224  154.8398 H   0  0  0  0  0  0  0  0  0  0  0  0
  149.3400  140.5017  152.5772 H   0  0  0  0  0  0  0  0  0  0  0  0
  149.9911  138.5192  154.1891 H   0  0  0  0  0  0  0  0  0  0  0  0
  148.5192  138.5528  155.1208 H   0  0  0  0  0  0  0  0  0  0  0  0
  148.4868  139.2905  152.2845 H   0  0  0  0  0  0  0  0  0  0  0  0
  148.3519  137.7306  152.7699 H   0  0  0  0  0  0  0  0  0  0  0  0
  151.8254  139.2005  155.1523 H   0  0  0  0  0  0  0  0  0  0  0  0
  1  2  1  0  0  0  0
  1 11  1  0  0  0  0
  1 12  1  0  0  0  0
  1 13  1  0  0  0  0
  2 10  1  0  0  0  0
  2  3  1  0  0  0  0
  3  4  2  0  0  0  0
  3 14  1  0  0  0  0
  4  5  1  0  0  0  0
  4  9  1  0  0  0  0
  5  6  1  0  0  0  0
  5  7  1  0  0  0  0
  5 15  1  0  0  0  0
  6 16  1  0  0  0  0
  7  8  1  0  0  0  0
  7 17  1  0  0  0  0
  7 18  1  0  0  0  0
  8 19  1  0  0  0  0
  8 20  1  0  0  0  0
  9 10  2  0  0  0  0
  9 21  1  0  0  0  0
M  END
> <s_m_source_file>
AV-unprocessed.smi

> <i_m_source_file_index>
3090

> <i_lp_mmshare_version>
43012

> <i_f3d_flags>
0

> <s_epik_input>
W0NIM11uMVtjSF1jKFtjSF1uMSlbQ0BIXShbT0hdKVtDSDJdW05IMl0=

> <s_epik_cmdline>
J2VwaWtfcHl0aG9uJywgJy1waCcsICc3LjAnLCAnLXRuJywgJzgnLCAnLW1hJywgJzIwMCcsICctbWV0YWxfYmluZGluZycsICctaW1hZScsICc8aW5maWxlLm1hZT4nLCAnLW9tYWUnLCAnPG91dGZpbGUubWFlPic=

> <r_lp_tautomer_probability>
1

> <r_epik_Ionization_Penalty>
2.22426

> <r_epik_Ionization_Penalty_Charging>
0

> <r_epik_Ionization_Penalty_Neutral>
2.22426

> <r_epik_State_Penalty>
2.36938

> <r_epik_Charging_Adjusted_Penalty>
2.36938

> <i_epik_Tot_Q>
0

> <i_epik_Tot_abs_Q>
0

> <r_epik_Metal_State_Penalty>
2.36934

> <b_epik_Metal_Only>
0

> <s_lp_Force_Field>
OPLS_2005

> <r_lp_Energy>
8.04815

> <b_lp_Chiralities_Consistent>
1

> <s_lp_Variant>
AV-unprocessed.smi:3090-4

> <Gold.Version>
5.8.1

> <Gold.Id.Protein>
6NUR|6NUR_protein|mol2

> <Gold.PLP.Fitness>
36.3582

> <Gold.PLP.PLP>
-21.5495

> <Gold.PLP.part.hbond>
-5.1138

> <Gold.PLP.part.metal>
0.0000

> <Gold.PLP.part.buried>
-1.0984

> <Gold.PLP.part.nonpolar>
-14.3573

> <Gold.PLP.part.repulsive>
0.0000

> <Gold.PLP.ligand.clash>
0.0000

> <Gold.PLP.ligand.torsion>
0.7539

> <Gold.PLP.Chemscore.Hbond>
4.4582

> <Gold.PLP.Chemscore.CHOScore>
0.9802

> <Gold.PLP.Chemscore.Metal>
0.0000

> <Gold.Chemscore.Hbonds>
donor molecule, donor type, donor heavy atom, donor atom, acceptor molecule, acceptor atom, score
      L1  H     6    16       P1  7957  0.94
      L1  H     8    19       P1  7957  1.00
      L1  H     8    20       P1  7948  1.00
      P1  H  7989  7998       L1     6  0.08
      P1  H  7997  8009       L1    10  0.56
      P1  H  8011  8017       L1     6  0.85
      L1  C     3    14       P1  8028  0.90

> <Gold.PLP.Chemscore.Internal.Correction>
0.0011

> <Gold.Rescore>
     Score         DG    S(hbond)    S(metal)    S(lipo)     H(rot)  DE(clash)    DE(int)     intcor
     17.68     -18.51       3.86        0.00      42.68       1.90       0.08       0.74       ----

> <Gold.Chemscore.Fitness>
17.6828

> <Gold.Chemscore.DG>
-18.5076

> <Gold.Chemscore.ZeroCoef>
-5.4800

> <Gold.Chemscore.Hbond>
3.8646

> <Gold.Chemscore.Metal>
0.0000

> <Gold.Chemscore.Lipo>
42.6822

> <Gold.Chemscore.Internal_Hbond>
0.0000

> <Gold.Chemscore.DEClash>
0.0830

> <Gold.Chemscore.DEInternal>
0.7419

> <Gold.Chemscore.Rot>
1.9039

> <Gold.Chemscore.Internal.Correction>
   9.000000E+99

> <Gold.Chemscore.Hbonds>
donor molecule, donor type, donor heavy atom, donor atom, acceptor molecule, acceptor atom, score
      L1  H     6    16       P1  7957  0.83
      L1  H     8    19       P1  7957  0.99
      L1  H     8    20       P1  7948  1.00
      P1  H  7997  8009       L1    10  0.47
      P1  H  8011  8017       L1     6  0.14

> <Gold.Chemscore.Hbond.Weighted>
-12.9077

> <Gold.Chemscore.Metal.Weighted>
-0.0000

> <Gold.Chemscore.Lipo.Weighted>
-4.9938

> <Gold.Chemscore.Internal_Hbond.Weighted>
0.0000

> <Gold.Chemscore.DEClash.Weighted>
0.0830

> <Gold.Chemscore.DEInternal.Weighted>
0.7419

> <Gold.Chemscore.Rot.Weighted>
4.8739

> <Gold.Chemscore.Internal.Correction.Weighted>
   9.000000E+99

> <Gold.Protein.RotatedTorsions>
[ 6907 6896 6895 6894 ] final  -57.76 input  -60.11 | X-H torsion
[ 7974 7965 7964 7962 ] final   19.96 input  175.53 | X-H torsion
[ 8008 7997 7996 7995 ] final -167.41 input   59.86 | X-H torsion
[ 10167 10162 10161 10158 ] final -133.13 input  -65.29 | X-H torsion
[ 10718 10713 10712 10709 ] final   76.09 input   66.30 | X-H torsion
[ 10763 10752 10751 10750 ] final -121.98 input  -60.55 | X-H torsion
[ 11005 11000 10999 10996 ] final   85.23 input  -57.11 | X-H torsion

> <Gold.Protein.ActiveResidues>
 VAL166  LYS551  ARG553  GLY616  TRP617  ASP618  TYR619  PRO620  LYS621  CYS622 
 ASP623  PHE694  ASN695  SER759  ASP760  ASP761  ALA762  ILE779  LEU786  VAL792 
 PHE793  MET794  SER795  GLU796  ALA797  LYS798  CYS799  TRP800  GLU811  SER814 

> <Gold.Protein.RotatedAtoms>
  150.8060  134.7185  159.6644 H   0  0  0  0  0  0  0  0  0  0  0  0  # atno 6907 bound_to 6896
  152.4179  134.6004  160.0008 H   0  0  0  0  0  0  0  0  0  0  0  0  # atno 6908 bound_to 6896
  151.6228  133.3300  159.3128 H   0  0  0  0  0  0  0  0  0  0  0  0  # atno 6909 bound_to 6896
  146.2130  139.8238  142.8674 H   0  0  0  0  0  0  0  0  0  0  0  0  # atno 7974 bound_to 7965
  155.8773  140.1003  157.1509 H   0  0  0  0  0  0  0  0  0  0  0  0  # atno 8008 bound_to 7997
  154.4002  140.1335  156.4216 H   0  0  0  0  0  0  0  0  0  0  0  0  # atno 8009 bound_to 7997
  155.7682  140.3461  155.5236 H   0  0  0  0  0  0  0  0  0  0  0  0  # atno 8010 bound_to 7997
  139.9014  143.6603  152.2594 H   0  0  0  0  0  0  0  0  0  0  0  0  # atno 10167 bound_to 10162
  157.6660  130.9758  150.1447 H   0  0  0  0  0  0  0  0  0  0  0  0  # atno 10718 bound_to 10713
  154.8680  135.4149  154.2708 H   0  0  0  0  0  0  0  0  0  0  0  0  # atno 10763 bound_to 10752
  153.3618  135.7003  153.6711 H   0  0  0  0  0  0  0  0  0  0  0  0  # atno 10764 bound_to 10752
  153.5609  135.3610  155.2771 H   0  0  0  0  0  0  0  0  0  0  0  0  # atno 10765 bound_to 10752
  139.8977  134.8272  156.2554 H   0  0  0  0  0  0  0  0  0  0  0  0  # atno 11005 bound_to 11000
  145.3068  141.0209  143.3577 LP  0  0  0  0  0  0  0  0  0  0  0  0  # atno 17320 bound_to 7965
  144.8965  139.4706  143.6653 LP  0  0  0  0  0  0  0  0  0  0  0  0  # atno 17321 bound_to 7965
  139.7022  144.7633  151.1254 LP  0  0  0  0  0  0  0  0  0  0  0  0  # atno 17342 bound_to 10162
  140.7706  143.5443  150.9277 LP  0  0  0  0  0  0  0  0  0  0  0  0  # atno 17343 bound_to 10162
  156.2261  130.3678  149.8499 LP  0  0  0  0  0  0  0  0  0  0  0  0  # atno 17370 bound_to 10713
  156.6338  130.8677  151.3500 LP  0  0  0  0  0  0  0  0  0  0  0  0  # atno 17371 bound_to 10713
  141.0197  133.7048  156.1247 LP  0  0  0  0  0  0  0  0  0  0  0  0  # atno 17394 bound_to 11000
  140.7251  134.4316  157.5571 LP  0  0  0  0  0  0  0  0  0  0  0  0  # atno 17395 bound_to 11000

$$$$
