AV-unprocessed.smi:212|AV-procd|sdf|1628|dock3
  -GOLD-   2262019573D 1   1.00000     0.00000
 Structure written by MMmdl.
 65 68  0  0  0  0  0  0  0  0  2 V2000
  149.9485  129.8919  155.2193 C   0  0  0  0  0  0  0  0  0  0  0  0
  149.4394  130.8558  154.1302 C   0  0  1  0  0  0  0  0  0  0  0  0
  147.9246  130.7299  153.8568 C   0  0  0  0  0  0  0  0  0  0  0  0
  147.5043  131.6331  152.7523 N   0  3  1  0  0  0  0  0  0  0  0  0
  146.0653  131.5013  152.4001 C   0  0  0  0  0  0  0  0  0  0  0  0
  145.7835  131.8079  150.9102 C   0  0  0  0  0  0  0  0  0  0  0  0
  144.2894  131.6108  150.6038 C   0  0  0  0  0  0  0  0  0  0  0  0
  146.2251  133.2285  150.5118 C   0  0  0  0  0  0  0  0  0  0  0  0
  146.4838  130.8814  150.1038 O   0  0  0  0  0  0  0  0  0  0  0  0
  147.9236  133.0405  152.9798 C   0  0  0  0  0  0  0  0  0  0  0  0
  149.4390  133.1354  153.2397 C   0  0  0  0  0  0  0  0  0  0  0  0
  149.8358  132.2552  154.3343 N   0  0  0  0  0  0  0  0  0  0  0  0
  149.7263  132.8471  155.5515 C   0  0  0  0  0  0  0  0  0  0  0  0
  149.1865  132.1777  156.6038 N   0  0  0  0  0  0  0  0  0  0  0  0
  149.0641  132.7772  157.7920 C   0  0  0  0  0  0  0  0  0  0  0  0
  149.4046  134.0201  158.1382 N   0  0  0  0  0  0  0  0  0  0  0  0
  149.9386  134.6985  157.0828 C   0  0  0  0  0  0  0  0  0  0  0  0
  150.1271  134.1936  155.7662 C   0  0  0  0  0  0  0  0  0  0  0  0
  150.6872  135.1733  154.9562 N   0  0  0  0  0  0  0  0  0  0  0  0
  150.8253  136.2003  155.7500 C   0  0  0  0  0  0  0  0  0  0  0  0
  150.4184  135.9960  157.0500 N   0  0  0  0  0  0  0  0  0  0  0  0
  150.4571  136.9570  158.1369 C   0  0  0  0  0  0  0  0  0  0  0  0
  149.4136  138.1025  158.0328 C   0  0  2  0  0  0  0  0  0  0  0  0
  148.0600  137.4981  157.5996 C   0  0  0  0  0  0  0  0  0  0  0  0
  147.0344  138.4700  157.6057 O   0  0  0  0  0  0  0  0  0  0  0  0
  149.7969  139.3186  157.1341 C   0  0  1  0  0  0  0  0  0  0  0  0
  151.1247  140.0042  157.4026 C   0  0  0  0  0  0  0  0  0  0  0  0
  151.2631  140.8779  156.1610 C   0  0  0  0  0  0  0  0  0  0  0  0
  150.6779  140.1290  155.0993 O   0  0  0  0  0  0  0  0  0  0  0  0
  149.8577  139.0857  155.6213 C   0  0  0  0  0  0  0  0  0  0  0  0
  149.7709  128.8565  154.9278 H   0  0  0  0  0  0  0  0  0  0  0  0
  149.4532  130.0427  156.1779 H   0  0  0  0  0  0  0  0  0  0  0  0
  151.0217  130.0074  155.3744 H   0  0  0  0  0  0  0  0  0  0  0  0
  149.9467  130.5528  153.2131 H   0  0  0  0  0  0  0  0  0  0  0  0
  147.6894  129.6986  153.5943 H   0  0  0  0  0  0  0  0  0  0  0  0
  147.3475  130.9581  154.7529 H   0  0  0  0  0  0  0  0  0  0  0  0
  145.7021  130.5063  152.6642 H   0  0  0  0  0  0  0  0  0  0  0  0
  145.4755  132.1919  153.0056 H   0  0  0  0  0  0  0  0  0  0  0  0
  143.6738  132.2987  151.1847 H   0  0  0  0  0  0  0  0  0  0  0  0
  143.9630  130.5975  150.8421 H   0  0  0  0  0  0  0  0  0  0  0  0
  144.0706  131.7870  149.5498 H   0  0  0  0  0  0  0  0  0  0  0  0
  145.7186  133.9813  151.1167 H   0  0  0  0  0  0  0  0  0  0  0  0
  145.9925  133.4376  149.4669 H   0  0  0  0  0  0  0  0  0  0  0  0
  147.2986  133.3713  150.6383 H   0  0  0  0  0  0  0  0  0  0  0  0
  147.4008  131.1130  150.1040 H   0  0  0  0  0  0  0  0  0  0  0  0
  147.6692  133.6443  152.1079 H   0  0  0  0  0  0  0  0  0  0  0  0
  147.3697  133.4513  153.8255 H   0  0  0  0  0  0  0  0  0  0  0  0
  149.9881  132.8404  152.3448 H   0  0  0  0  0  0  0  0  0  0  0  0
  149.7202  134.1697  153.4427 H   0  0  0  0  0  0  0  0  0  0  0  0
  148.6323  132.1752  158.5779 H   0  0  0  0  0  0  0  0  0  0  0  0
  151.2401  137.1374  155.4075 H   0  0  0  0  0  0  0  0  0  0  0  0
  150.3509  136.4238  159.0817 H   0  0  0  0  0  0  0  0  0  0  0  0
  151.4626  137.3797  158.1498 H   0  0  0  0  0  0  0  0  0  0  0  0
  149.2678  138.4890  159.0425 H   0  0  0  0  0  0  0  0  0  0  0  0
  148.1321  137.0517  156.6073 H   0  0  0  0  0  0  0  0  0  0  0  0
  147.7581  136.7046  158.2839 H   0  0  0  0  0  0  0  0  0  0  0  0
  146.2543  138.0823  157.9726 H   0  0  0  0  0  0  0  0  0  0  0  0
  149.0490  140.0960  157.2973 H   0  0  0  0  0  0  0  0  0  0  0  0
  151.1277  140.5819  158.3273 H   0  0  0  0  0  0  0  0  0  0  0  0
  151.9563  139.3066  157.4390 H   0  0  0  0  0  0  0  0  0  0  0  0
  150.7015  141.8048  156.2847 H   0  0  0  0  0  0  0  0  0  0  0  0
  152.2997  141.1364  155.9441 H   0  0  0  0  0  0  0  0  0  0  0  0
  150.3328  138.1398  155.3683 H   0  0  0  0  0  0  0  0  0  0  0  0
  148.8683  139.0960  155.1633 H   0  0  0  0  0  0  0  0  0  0  0  0
  148.0136  131.3295  151.9347 H   0  0  0  0  0  0  0  0  0  0  0  0
  1  2  1  0  0  0  0
  1 31  1  0  0  0  0
  1 32  1  0  0  0  0
  1 33  1  0  0  0  0
  2 12  1  0  0  0  0
  2  3  1  0  0  0  0
  2 34  1  0  0  0  0
  3  4  1  0  0  0  0
  3 35  1  0  0  0  0
  3 36  1  0  0  0  0
  4  5  1  0  0  0  0
  4 10  1  0  0  0  0
  4 65  1  0  0  0  0
  5  6  1  0  0  0  0
  5 37  1  0  0  0  0
  5 38  1  0  0  0  0
  6  7  1  0  0  0  0
  6  8  1  0  0  0  0
  6  9  1  0  0  0  0
  7 39  1  0  0  0  0
  7 40  1  0  0  0  0
  7 41  1  0  0  0  0
  8 42  1  0  0  0  0
  8 43  1  0  0  0  0
  8 44  1  0  0  0  0
  9 45  1  0  0  0  0
 10 11  1  0  0  0  0
 10 46  1  0  0  0  0
 10 47  1  0  0  0  0
 11 12  1  0  0  0  0
 11 48  1  0  0  0  0
 11 49  1  0  0  0  0
 12 13  1  0  0  0  0
 13 18  1  0  0  0  0
 13 14  2  0  0  0  0
 14 15  1  0  0  0  0
 15 16  2  0  0  0  0
 15 50  1  0  0  0  0
 16 17  1  0  0  0  0
 17 21  1  0  0  0  0
 17 18  2  0  0  0  0
 18 19  1  0  0  0  0
 19 20  2  0  0  0  0
 20 21  1  0  0  0  0
 20 51  1  0  0  0  0
 21 22  1  0  0  0  0
 22 23  1  0  0  0  0
 22 52  1  0  0  0  0
 22 53  1  0  0  0  0
 23 24  1  0  0  0  0
 23 26  1  0  0  0  0
 23 54  1  0  0  0  0
 24 25  1  0  0  0  0
 24 55  1  0  0  0  0
 24 56  1  0  0  0  0
 25 57  1  0  0  0  0
 26 30  1  0  0  0  0
 26 27  1  0  0  0  0
 26 58  1  0  0  0  0
 27 28  1  0  0  0  0
 27 59  1  0  0  0  0
 27 60  1  0  0  0  0
 28 29  1  0  0  0  0
 28 61  1  0  0  0  0
 28 62  1  0  0  0  0
 29 30  1  0  0  0  0
 30 63  1  0  0  0  0
 30 64  1  0  0  0  0
M  CHG  1   4   1
M  END
> <s_m_source_file>
AV-unprocessed.smi

> <i_m_source_file_index>
212

> <i_lp_mmshare_version>
43012

> <i_f3d_flags>
0

> <s_epik_input>
W0NIM11bQ0BASF0xW0NIMl1OKFtDSDJdQyhbQ0gzXSkoW0NIM10pW09IXSlbQ0gyXVtDSDJdTjFjKG5bY0hdbjIpYyhjMjMpbltjSF1uM1tDSDJdW0NASF0oW0NIMl1bT0hdKVtDQEBIXTRbQ0gyXVtDSDJdT1tDSDJdNA==

> <s_epik_cmdline>
J2VwaWtfcHl0aG9uJywgJy1waCcsICc3LjAnLCAnLXRuJywgJzgnLCAnLW1hJywgJzIwMCcsICctbWV0YWxfYmluZGluZycsICctaW1hZScsICc8aW5maWxlLm1hZT4nLCAnLW9tYWUnLCAnPG91dGZpbGUubWFlPic=

> <r_lp_tautomer_probability>
1

> <r_epik_Ionization_Penalty>
0.00182193

> <r_epik_Ionization_Penalty_Charging>
0.00173996

> <r_epik_Ionization_Penalty_Neutral>
8.19718e-05

> <r_epik_State_Penalty>
-0

> <r_epik_Charging_Adjusted_Penalty>
0.00173996

> <i_epik_Tot_Q>
1

> <i_epik_Tot_abs_Q>
1

> <r_epik_Metal_State_Penalty>
-0

> <b_epik_Metal_Only>
0

> <s_lp_Force_Field>
OPLS_2005

> <r_lp_Energy>
60.5032

> <b_lp_Chiralities_Consistent>
1

> <s_lp_Variant>
AV-unprocessed.smi:212-12

> <Gold.Version>
5.8.1

> <Gold.Id.Protein>
6NUR|6NUR_protein|mol2

> <Gold.PLP.Fitness>
51.3955

> <Gold.PLP.PLP>
-39.7127

> <Gold.PLP.part.hbond>
-3.9990

> <Gold.PLP.part.metal>
0.0000

> <Gold.PLP.part.buried>
-7.0385

> <Gold.PLP.part.nonpolar>
-28.0732

> <Gold.PLP.part.repulsive>
0.2634

> <Gold.PLP.ligand.clash>
0.0000

> <Gold.PLP.ligand.torsion>
0.9048

> <Gold.PLP.Chemscore.Hbond>
4.0449

> <Gold.PLP.Chemscore.CHOScore>
0.0000

> <Gold.PLP.Chemscore.Metal>
0.0000

> <Gold.Chemscore.Hbonds>
donor molecule, donor type, donor heavy atom, donor atom, acceptor molecule, acceptor atom, score
      L1  H     4    65       P1 10747  1.00
      L1  H     9    45       P1 10747  1.00
      P1  H  6896  6909       L1    16  1.00
      P1  H  7989  7998       L1    29  1.00
      P1  H 10752 10765       L1    19  0.04

> <Gold.PLP.Chemscore.Internal.Correction>
1.3579

> <Gold.Rescore>
     Score         DG    S(hbond)    S(metal)    S(lipo)     H(rot)  DE(clash)    DE(int)     intcor
     13.86     -18.00       3.30        0.00      93.32       3.68       0.59       3.54       ----

> <Gold.Chemscore.Fitness>
13.8615

> <Gold.Chemscore.DG>
-17.9968

> <Gold.Chemscore.ZeroCoef>
-5.4800

> <Gold.Chemscore.Hbond>
3.3002

> <Gold.Chemscore.Metal>
0.0000

> <Gold.Chemscore.Lipo>
93.3160

> <Gold.Chemscore.Internal_Hbond>
0.0000

> <Gold.Chemscore.DEClash>
0.5904

> <Gold.Chemscore.DEInternal>
3.5449

> <Gold.Chemscore.Rot>
3.6812

> <Gold.Chemscore.Internal.Correction>
   9.000000E+99

> <Gold.Chemscore.Hbonds>
donor molecule, donor type, donor heavy atom, donor atom, acceptor molecule, acceptor atom, score
      L1  H     4    65       P1 10747  0.98
      L1  H     9    45       P1 10747  0.97
      P1  H  6896  6909       L1    16  0.33
      P1  H  7989  7998       L1    29  0.33

> <Gold.Chemscore.Hbond.Weighted>
-11.0228

> <Gold.Chemscore.Metal.Weighted>
-0.0000

> <Gold.Chemscore.Lipo.Weighted>
-10.9180

> <Gold.Chemscore.Internal_Hbond.Weighted>
0.0000

> <Gold.Chemscore.DEClash.Weighted>
0.5904

> <Gold.Chemscore.DEInternal.Weighted>
3.5449

> <Gold.Chemscore.Rot.Weighted>
9.4239

> <Gold.Chemscore.Internal.Correction.Weighted>
   9.000000E+99

> <Gold.Protein.RotatedTorsions>
[ 6907 6896 6895 6894 ] final   11.68 input  -60.11 | X-H torsion
[ 7974 7965 7964 7962 ] final  -60.51 input  175.53 | X-H torsion
[ 8008 7997 7996 7995 ] final   43.20 input   59.86 | X-H torsion
[ 10167 10162 10161 10158 ] final  175.77 input  -65.29 | X-H torsion
[ 10718 10713 10712 10709 ] final  -43.52 input   66.30 | X-H torsion
[ 10763 10752 10751 10750 ] final  177.49 input  -60.55 | X-H torsion
[ 11005 11000 10999 10996 ] final  -45.44 input  -57.11 | X-H torsion

> <Gold.Protein.ActiveResidues>
 VAL166  LYS551  ARG553  GLY616  TRP617  ASP618  TYR619  PRO620  LYS621  CYS622 
 ASP623  PHE694  ASN695  SER759  ASP760  ASP761  ALA762  ILE779  LEU786  VAL792 
 PHE793  MET794  SER795  GLU796  ALA797  LYS798  CYS799  TRP800  GLU811  SER814 

> <Gold.Protein.RotatedAtoms>
  151.7583  135.0816  160.0341 H   0  0  0  0  0  0  0  0  0  0  0  0  # atno 6907 bound_to 6896
  152.3371  133.6019  159.5858 H   0  0  0  0  0  0  0  0  0  0  0  0  # atno 6908 bound_to 6896
  150.7456  133.9696  159.3583 H   0  0  0  0  0  0  0  0  0  0  0  0  # atno 6909 bound_to 6896
  145.8147  140.8577  143.0164 H   0  0  0  0  0  0  0  0  0  0  0  0  # atno 7974 bound_to 7965
  155.2988  140.3383  155.4248 H   0  0  0  0  0  0  0  0  0  0  0  0  # atno 8008 bound_to 7997
  156.2011  140.1733  156.7936 H   0  0  0  0  0  0  0  0  0  0  0  0  # atno 8009 bound_to 7997
  154.5560  140.0696  156.8729 H   0  0  0  0  0  0  0  0  0  0  0  0  # atno 8010 bound_to 7997
  139.5189  144.2993  152.0393 H   0  0  0  0  0  0  0  0  0  0  0  0  # atno 10167 bound_to 10162
  156.2481  130.4185  149.8682 H   0  0  0  0  0  0  0  0  0  0  0  0  # atno 10718 bound_to 10713
  154.4952  135.2781  155.1465 H   0  0  0  0  0  0  0  0  0  0  0  0  # atno 10763 bound_to 10752
  154.3121  135.6227  153.5474 H   0  0  0  0  0  0  0  0  0  0  0  0  # atno 10764 bound_to 10752
  152.9894  135.5722  154.5382 H   0  0  0  0  0  0  0  0  0  0  0  0  # atno 10765 bound_to 10752
  141.0515  133.6741  156.3013 H   0  0  0  0  0  0  0  0  0  0  0  0  # atno 11005 bound_to 11000
  144.6753  140.0446  143.7480 LP  0  0  0  0  0  0  0  0  0  0  0  0  # atno 17320 bound_to 7965
  145.9740  139.2891  143.1082 LP  0  0  0  0  0  0  0  0  0  0  0  0  # atno 17321 bound_to 7965
  140.2441  144.4238  150.6248 LP  0  0  0  0  0  0  0  0  0  0  0  0  # atno 17342 bound_to 10162
  140.6270  143.2182  151.6576 LP  0  0  0  0  0  0  0  0  0  0  0  0  # atno 17343 bound_to 10162
  156.6240  130.8638  151.3481 LP  0  0  0  0  0  0  0  0  0  0  0  0  # atno 17370 bound_to 10713
  157.7203  130.9550  150.1413 LP  0  0  0  0  0  0  0  0  0  0  0  0  # atno 17371 bound_to 10713
  140.6045  134.5521  157.5523 LP  0  0  0  0  0  0  0  0  0  0  0  0  # atno 17394 bound_to 11000
  139.9355  134.7884  156.0815 LP  0  0  0  0  0  0  0  0  0  0  0  0  # atno 17395 bound_to 11000

$$$$
