AV-unprocessed.smi:266|AV-procd|sdf|2031|dock8
  -GOLD-   2262021243D 1   1.00000     0.00000
 Structure written by MMmdl.
 52 55  0  0  0  0  0  0  0  0  1 V2000
  143.5063  132.3946  149.6318 C   0  0  0  0  0  0  0  0  0  0  0  0
  144.9361  132.3183  150.1896 C   0  0  2  0  0  0  0  0  0  0  0  0
  144.9902  131.2192  151.0951 O   0  0  0  0  0  0  0  0  0  0  0  0
  145.9557  131.4969  152.0939 C   0  0  0  0  0  0  0  0  0  0  0  0
  145.7149  132.9712  152.3786 C   0  0  0  0  0  0  0  0  0  0  0  0
  145.4447  133.5502  150.9916 C   0  0  1  0  0  0  0  0  0  0  0  0
  146.6907  133.9385  150.4363 O   0  0  0  0  0  0  0  0  0  0  0  0
  144.5214  134.7974  151.0072 C   0  0  0  0  0  0  0  0  0  0  0  0
  145.2258  136.0273  151.3369 N   0  0  0  0  0  0  0  0  0  0  0  0
  145.8984  136.8527  150.4659 C   0  0  0  0  0  0  0  0  0  0  0  0
  146.4672  137.8908  151.0133 N   0  0  0  0  0  0  0  0  0  0  0  0
  146.1658  137.7782  152.3664 C   0  0  0  0  0  0  0  0  0  0  0  0
  146.4781  138.5454  153.5281 C   0  0  0  0  0  0  0  0  0  0  0  0
  147.2822  139.6440  153.5221 N   0  0  0  0  0  0  0  0  0  0  0  0
  146.9441  140.7468  154.4186 C   0  0  0  0  0  0  0  0  0  0  0  0
  148.6952  139.4675  153.1812 C   0  0  0  0  0  0  0  0  0  0  0  0
  149.6153  139.3044  154.4108 C   0  0  2  0  0  0  0  0  0  0  0  0
  150.0360  140.6696  154.9894 C   0  0  0  0  0  0  0  0  0  0  0  0
  151.1478  140.4476  156.0187 C   0  0  0  0  0  0  0  0  0  0  0  0
  152.1355  139.0489  155.3738 S   0  0  0  0  0  0  0  0  0  0  0  0
  153.3231  139.5669  154.6779 O   0  0  0  0  0  0  0  0  0  0  0  0
  152.2576  138.0237  156.4212 O   0  0  0  0  0  0  0  0  0  0  0  0
  150.9054  138.5115  154.1268 C   0  0  0  0  0  0  0  0  0  0  0  0
  145.9516  138.1207  154.7087 N   0  0  0  0  0  0  0  0  0  0  0  0
  145.2004  137.0180  154.7628 C   0  0  0  0  0  0  0  0  0  0  0  0
  144.8546  136.1968  153.7713 N   0  0  0  0  0  0  0  0  0  0  0  0
  145.3623  136.6210  152.5795 C   0  0  0  0  0  0  0  0  0  0  0  0
  143.3978  133.2167  148.9242 H   0  0  0  0  0  0  0  0  0  0  0  0
  142.7723  132.5275  150.4269 H   0  0  0  0  0  0  0  0  0  0  0  0
  143.2505  131.4752  149.1047 H   0  0  0  0  0  0  0  0  0  0  0  0
  145.6144  132.0957  149.3637 H   0  0  0  0  0  0  0  0  0  0  0  0
  145.8189  130.8680  152.9737 H   0  0  0  0  0  0  0  0  0  0  0  0
  146.9586  131.3294  151.6983 H   0  0  0  0  0  0  0  0  0  0  0  0
  144.8258  133.0628  153.0033 H   0  0  0  0  0  0  0  0  0  0  0  0
  146.5421  133.4497  152.9056 H   0  0  0  0  0  0  0  0  0  0  0  0
  146.5533  134.1849  149.5345 H   0  0  0  0  0  0  0  0  0  0  0  0
  144.0370  134.9292  150.0386 H   0  0  0  0  0  0  0  0  0  0  0  0
  143.7219  134.6717  151.7373 H   0  0  0  0  0  0  0  0  0  0  0  0
  145.9633  136.6539  149.4059 H   0  0  0  0  0  0  0  0  0  0  0  0
  145.8948  141.0254  154.3145 H   0  0  0  0  0  0  0  0  0  0  0  0
  147.5438  141.6275  154.1878 H   0  0  0  0  0  0  0  0  0  0  0  0
  147.1297  140.4746  155.4582 H   0  0  0  0  0  0  0  0  0  0  0  0
  148.8448  138.6439  152.4872 H   0  0  0  0  0  0  0  0  0  0  0  0
  149.0049  140.3557  152.6295 H   0  0  0  0  0  0  0  0  0  0  0  0
  149.0688  138.7838  155.1984 H   0  0  0  0  0  0  0  0  0  0  0  0
  150.4225  141.2960  154.1840 H   0  0  0  0  0  0  0  0  0  0  0  0
  149.1904  141.2003  155.4278 H   0  0  0  0  0  0  0  0  0  0  0  0
  151.7804  141.3234  156.1644 H   0  0  0  0  0  0  0  0  0  0  0  0
  150.7305  140.1514  156.9812 H   0  0  0  0  0  0  0  0  0  0  0  0
  150.7643  137.4324  154.1879 H   0  0  0  0  0  0  0  0  0  0  0  0
  151.3082  138.7530  153.1429 H   0  0  0  0  0  0  0  0  0  0  0  0
  144.8300  136.7517  155.7417 H   0  0  0  0  0  0  0  0  0  0  0  0
  1  2  1  0  0  0  0
  1 28  1  0  0  0  0
  1 29  1  0  0  0  0
  1 30  1  0  0  0  0
  2  6  1  0  0  0  0
  2  3  1  0  0  0  0
  2 31  1  0  0  0  0
  3  4  1  0  0  0  0
  4  5  1  0  0  0  0
  4 32  1  0  0  0  0
  4 33  1  0  0  0  0
  5  6  1  0  0  0  0
  5 34  1  0  0  0  0
  5 35  1  0  0  0  0
  6  7  1  0  0  0  0
  6  8  1  0  0  0  0
  7 36  1  0  0  0  0
  8  9  1  0  0  0  0
  8 37  1  0  0  0  0
  8 38  1  0  0  0  0
  9 27  1  0  0  0  0
  9 10  1  0  0  0  0
 10 11  2  0  0  0  0
 10 39  1  0  0  0  0
 11 12  1  0  0  0  0
 12 27  2  0  0  0  0
 12 13  1  0  0  0  0
 13 14  1  0  0  0  0
 13 24  2  0  0  0  0
 14 15  1  0  0  0  0
 14 16  1  0  0  0  0
 15 40  1  0  0  0  0
 15 41  1  0  0  0  0
 15 42  1  0  0  0  0
 16 17  1  0  0  0  0
 16 43  1  0  0  0  0
 16 44  1  0  0  0  0
 17 23  1  0  0  0  0
 17 18  1  0  0  0  0
 17 45  1  0  0  0  0
 18 19  1  0  0  0  0
 18 46  1  0  0  0  0
 18 47  1  0  0  0  0
 19 20  1  0  0  0  0
 19 48  1  0  0  0  0
 19 49  1  0  0  0  0
 20 21  2  0  0  0  0
 20 22  2  0  0  0  0
 20 23  1  0  0  0  0
 23 50  1  0  0  0  0
 23 51  1  0  0  0  0
 24 25  1  0  0  0  0
 25 26  2  0  0  0  0
 25 52  1  0  0  0  0
 26 27  1  0  0  0  0
M  END
> <s_m_source_file>
AV-unprocessed.smi

> <i_m_source_file_index>
266

> <i_lp_mmshare_version>
43012

> <i_f3d_flags>
0

> <s_epik_input>
W0NIMl0xW0NIMl1PW0NAQEhdKFtDSDNdKVtDQEBdMShbT0hdKVtDSDJdbihbY0hdbjIpYyhjMjMpbltjSF1uYzNOKFtDSDNdKVtDSDJdW0NAQEhdKFtDSDJdNClbQ0gyXVtDSDJdUzQoPU8pPU8=

> <s_epik_cmdline>
J2VwaWtfcHl0aG9uJywgJy1waCcsICc3LjAnLCAnLXRuJywgJzgnLCAnLW1hJywgJzIwMCcsICctbWV0YWxfYmluZGluZycsICctaW1hZScsICc8aW5maWxlLm1hZT4nLCAnLW9tYWUnLCAnPG91dGZpbGUubWFlPic=

> <r_lp_tautomer_probability>
1

> <r_epik_Ionization_Penalty>
0.00155497

> <r_epik_Ionization_Penalty_Charging>
0

> <r_epik_Ionization_Penalty_Neutral>
0.00155497

> <r_epik_State_Penalty>
-0

> <r_epik_Charging_Adjusted_Penalty>
0

> <i_epik_Tot_Q>
0

> <i_epik_Tot_abs_Q>
0

> <r_epik_Metal_State_Penalty>
-0

> <b_epik_Metal_Only>
0

> <s_lp_Force_Field>
OPLS_2005

> <r_lp_Energy>
29.5809

> <b_lp_Chiralities_Consistent>
1

> <s_lp_Variant>
AV-unprocessed.smi:266-1

> <Gold.Version>
5.8.1

> <Gold.Id.Protein>
6NUR|6NUR_protein|mol2

> <Gold.PLP.Fitness>
45.0094

> <Gold.PLP.PLP>
-38.8371

> <Gold.PLP.part.hbond>
-4.7392

> <Gold.PLP.part.metal>
0.0000

> <Gold.PLP.part.buried>
7.4891

> <Gold.PLP.part.nonpolar>
-42.8073

> <Gold.PLP.part.repulsive>
2.2499

> <Gold.PLP.ligand.clash>
0.0000

> <Gold.PLP.ligand.torsion>
2.0372

> <Gold.PLP.Chemscore.Hbond>
2.2135

> <Gold.PLP.Chemscore.CHOScore>
1.0000

> <Gold.PLP.Chemscore.Metal>
0.0000

> <Gold.Chemscore.Hbonds>
donor molecule, donor type, donor heavy atom, donor atom, acceptor molecule, acceptor atom, score
      L1  H     7    36       P1  7921  0.40
      P1  H  7954  7966       L1    11  0.84
      P1  H  7997  8008       L1    21  1.00
      L1  C    10    39       P1  7921  1.00

> <Gold.PLP.Chemscore.Internal.Correction>
0.6063

> <Gold.Rescore>
     Score         DG    S(hbond)    S(metal)    S(lipo)     H(rot)  DE(clash)    DE(int)     intcor
      7.02     -13.03       1.08        0.00      87.27       2.45       3.54       2.47       ----

> <Gold.Chemscore.Fitness>
7.0220

> <Gold.Chemscore.DG>
-13.0307

> <Gold.Chemscore.ZeroCoef>
-5.4800

> <Gold.Chemscore.Hbond>
1.0792

> <Gold.Chemscore.Metal>
0.0000

> <Gold.Chemscore.Lipo>
87.2711

> <Gold.Chemscore.Internal_Hbond>
0.0000

> <Gold.Chemscore.DEClash>
3.5408

> <Gold.Chemscore.DEInternal>
2.4679

> <Gold.Chemscore.Rot>
2.4471

> <Gold.Chemscore.Internal.Correction>
   9.000000E+99

> <Gold.Chemscore.Hbonds>
donor molecule, donor type, donor heavy atom, donor atom, acceptor molecule, acceptor atom, score
      L1  H     7    36       P1  7921  0.01
      P1  H  7954  7966       L1    11  0.13
      P1  H  7997  8008       L1    21  0.78

> <Gold.Chemscore.Hbond.Weighted>
-3.6045

> <Gold.Chemscore.Metal.Weighted>
-0.0000

> <Gold.Chemscore.Lipo.Weighted>
-10.2107

> <Gold.Chemscore.Internal_Hbond.Weighted>
0.0000

> <Gold.Chemscore.DEClash.Weighted>
3.5408

> <Gold.Chemscore.DEInternal.Weighted>
2.4679

> <Gold.Chemscore.Rot.Weighted>
6.2645

> <Gold.Chemscore.Internal.Correction.Weighted>
   9.000000E+99

> <Gold.Protein.RotatedTorsions>
[ 6907 6896 6895 6894 ] final  101.66 input  -60.11 | X-H torsion
[ 7974 7965 7964 7962 ] final  153.89 input  175.53 | X-H torsion
[ 8008 7997 7996 7995 ] final  -11.98 input   59.86 | X-H torsion
[ 10167 10162 10161 10158 ] final  112.85 input  -65.29 | X-H torsion
[ 10718 10713 10712 10709 ] final -104.65 input   66.30 | X-H torsion
[ 10763 10752 10751 10750 ] final   54.42 input  -60.55 | X-H torsion
[ 11005 11000 10999 10996 ] final  -36.14 input  -57.11 | X-H torsion

> <Gold.Protein.ActiveResidues>
 VAL166  LYS551  ARG553  GLY616  TRP617  ASP618  TYR619  PRO620  LYS621  CYS622 
 ASP623  PHE694  ASN695  SER759  ASP760  ASP761  ALA762  ILE779  LEU786  VAL792 
 PHE793  MET794  SER795  GLU796  ALA797  LYS798  CYS799  TRP800  GLU811  SER814 

> <Gold.Protein.RotatedAtoms>
  152.5344  134.0092  159.7930 H   0  0  0  0  0  0  0  0  0  0  0  0  # atno 6907 bound_to 6896
  151.0297  133.5793  159.2669 H   0  0  0  0  0  0  0  0  0  0  0  0  # atno 6908 bound_to 6896
  151.2802  135.0718  159.9220 H   0  0  0  0  0  0  0  0  0  0  0  0  # atno 6909 bound_to 6896
  144.8124  139.6861  143.6136 H   0  0  0  0  0  0  0  0  0  0  0  0  # atno 7974 bound_to 7965
  154.5417  140.2288  155.8630 H   0  0  0  0  0  0  0  0  0  0  0  0  # atno 8008 bound_to 7997
  156.1864  140.3088  155.9210 H   0  0  0  0  0  0  0  0  0  0  0  0  # atno 8009 bound_to 7997
  155.3245  140.0442  157.3031 H   0  0  0  0  0  0  0  0  0  0  0  0  # atno 8010 bound_to 7997
  139.6505  144.7128  151.2057 H   0  0  0  0  0  0  0  0  0  0  0  0  # atno 10167 bound_to 10162
  156.0313  130.5525  150.7427 H   0  0  0  0  0  0  0  0  0  0  0  0  # atno 10718 bound_to 10713
  152.9804  135.5745  154.4902 H   0  0  0  0  0  0  0  0  0  0  0  0  # atno 10763 bound_to 10752
  154.4437  135.2776  155.1831 H   0  0  0  0  0  0  0  0  0  0  0  0  # atno 10764 bound_to 10752
  154.3488  135.6213  153.5686 H   0  0  0  0  0  0  0  0  0  0  0  0  # atno 10765 bound_to 10752
  140.9851  133.7035  156.1751 H   0  0  0  0  0  0  0  0  0  0  0  0  # atno 11005 bound_to 11000
  146.2424  139.6029  142.9482 LP  0  0  0  0  0  0  0  0  0  0  0  0  # atno 17320 bound_to 7965
  145.5292  141.0428  143.2392 LP  0  0  0  0  0  0  0  0  0  0  0  0  # atno 17321 bound_to 7965
  140.7535  143.6158  150.8561 LP  0  0  0  0  0  0  0  0  0  0  0  0  # atno 17342 bound_to 10162
  139.9806  143.5956  152.2944 LP  0  0  0  0  0  0  0  0  0  0  0  0  # atno 17343 bound_to 10162
  157.4991  131.0917  151.0335 LP  0  0  0  0  0  0  0  0  0  0  0  0  # atno 17370 bound_to 10713
  157.0721  130.5868  149.5404 LP  0  0  0  0  0  0  0  0  0  0  0  0  # atno 17371 bound_to 10713
  140.7127  134.4444  157.5580 LP  0  0  0  0  0  0  0  0  0  0  0  0  # atno 17394 bound_to 11000
  139.8967  134.8653  156.2076 LP  0  0  0  0  0  0  0  0  0  0  0  0  # atno 17395 bound_to 11000

$$$$
