AV-unprocessed.smi:1725|AV-procd|sdf|6956|dock6
  -GOLD-   22720 8173D 1   1.00000     0.00000
 Structure written by MMmdl.
 35 36  0  0  0  0  0  0  0  0  2 V2000
  151.1400  137.4478  154.4013 C   0  0  0  0  0  0  0  0  0  0  0  0
  151.0356  138.9794  154.4071 C   0  0  1  0  0  0  0  0  0  0  0  0
  149.6636  139.3136  154.5971 O   0  0  0  0  0  0  0  0  0  0  0  0
  149.2806  140.6069  154.1393 C   0  0  0  0  0  0  0  0  0  0  0  0
  147.8357  140.6173  153.6754 C   0  0  0  0  0  0  0  0  0  0  0  0
  147.0011  141.8776  153.7752 C   0  0  0  0  0  0  0  0  0  0  0  0
  146.6916  140.7042  154.6652 C   0  0  0  0  0  0  0  0  0  0  0  0
  151.8919  139.5911  155.5273 C   0  0  0  0  0  0  0  0  0  0  0  0
  153.1057  139.3853  155.5413 O   0  0  0  0  0  0  0  0  0  0  0  0
  151.2188  140.3281  156.4323 N   0  0  0  0  0  0  0  0  0  0  0  0
  151.6931  140.9605  157.5937 C   0  0  0  0  0  0  0  0  0  0  0  0
  151.3385  142.2140  157.9911 C   0  0  0  0  0  0  0  0  0  0  0  0
  151.8788  142.8300  159.1969 C   0  0  0  0  0  0  0  0  0  0  0  0
  151.5183  144.2219  159.6831 C   0  0  0  0  0  0  0  0  0  0  0  0
  152.0163  145.1418  158.8574 F   0  0  0  0  0  0  0  0  0  0  0  0
  150.1942  144.3705  159.7152 F   0  0  0  0  0  0  0  0  0  0  0  0
  151.9971  144.4506  160.9062 F   0  0  0  0  0  0  0  0  0  0  0  0
  152.7725  142.0070  159.8522 C   0  0  0  0  0  0  0  0  0  0  0  0
  153.1827  140.7624  159.5227 N   0  5  0  0  0  0  0  0  0  0  0  0
  152.6731  140.1959  158.3924 C   0  0  0  0  0  0  0  0  0  0  0  0
  153.0108  139.0691  158.0274 O   0  0  0  0  0  0  0  0  0  0  0  0
  152.1719  137.1231  154.2629 H   0  0  0  0  0  0  0  0  0  0  0  0
  150.5502  137.0241  153.5885 H   0  0  0  0  0  0  0  0  0  0  0  0
  150.7741  137.0157  155.3335 H   0  0  0  0  0  0  0  0  0  0  0  0
  151.3671  139.3508  153.4352 H   0  0  0  0  0  0  0  0  0  0  0  0
  149.3895  141.3533  154.9266 H   0  0  0  0  0  0  0  0  0  0  0  0
  149.9174  140.9097  153.3073 H   0  0  0  0  0  0  0  0  0  0  0  0
  147.6575  140.0000  152.7969 H   0  0  0  0  0  0  0  0  0  0  0  0
  147.4512  142.7539  154.2378 H   0  0  0  0  0  0  0  0  0  0  0  0
  146.3104  142.0866  152.9610 H   0  0  0  0  0  0  0  0  0  0  0  0
  145.7927  140.1324  154.4442 H   0  0  0  0  0  0  0  0  0  0  0  0
  146.9320  140.7990  155.7223 H   0  0  0  0  0  0  0  0  0  0  0  0
  150.2391  140.4845  156.2437 H   0  0  0  0  0  0  0  0  0  0  0  0
  150.6544  142.8031  157.4027 H   0  0  0  0  0  0  0  0  0  0  0  0
  153.2280  142.4138  160.7803 H   0  0  0  0  0  0  0  0  0  0  0  0
  1  2  1  0  0  0  0
  1 22  1  0  0  0  0
  1 23  1  0  0  0  0
  1 24  1  0  0  0  0
  2  3  1  0  0  0  0
  2  8  1  0  0  0  0
  2 25  1  0  0  0  0
  3  4  1  0  0  0  0
  4  5  1  0  0  0  0
  4 26  1  0  0  0  0
  4 27  1  0  0  0  0
  5  7  1  0  0  0  0
  5  6  1  0  0  0  0
  5 28  1  0  0  0  0
  6  7  1  0  0  0  0
  6 29  1  0  0  0  0
  6 30  1  0  0  0  0
  7 31  1  0  0  0  0
  7 32  1  0  0  0  0
  8  9  2  0  0  0  0
  8 10  1  0  0  0  0
 10 11  1  0  0  0  0
 10 33  1  0  0  0  0
 11 20  1  0  0  0  0
 11 12  2  0  0  0  0
 12 13  1  0  0  0  0
 12 34  1  0  0  0  0
 13 14  1  0  0  0  0
 13 18  2  0  0  0  0
 14 15  1  0  0  0  0
 14 16  1  0  0  0  0
 14 17  1  0  0  0  0
 18 19  1  0  0  0  0
 18 35  1  0  0  0  0
 19 20  1  0  0  0  0
 20 21  2  0  0  0  0
M  CHG  1  19  -1
M  END
> <s_m_source_file>
AV-unprocessed.smi

> <i_m_source_file_index>
1725

> <i_lp_mmshare_version>
43012

> <i_f3d_flags>
0

> <s_epik_input>
W0NIMl0xW0NIMl1bQ0hdMVtDSDJdT1tDQEBIXShbQ0gzXSlDKD1PKVtOSF1jMltjSF1jKEMoRikoRilGKVtjSF1bbkhdYzI9Tw==

> <s_epik_cmdline>
J2VwaWtfcHl0aG9uJywgJy1waCcsICc3LjAnLCAnLXRuJywgJzgnLCAnLW1hJywgJzIwMCcsICctbWV0YWxfYmluZGluZycsICctaW1hZScsICc8aW5maWxlLm1hZT4nLCAnLW9tYWUnLCAnPG91dGZpbGUubWFlPic=

> <r_lp_tautomer_probability>
0.999

> <r_epik_Ionization_Penalty>
2.64397

> <r_epik_Ionization_Penalty_Charging>
0.0618254

> <r_epik_Ionization_Penalty_Neutral>
2.58215

> <r_epik_State_Penalty>
2.58023

> <r_epik_Charging_Adjusted_Penalty>
2.64205

> <i_epik_Tot_Q>
-1

> <i_epik_Tot_abs_Q>
1

> <r_epik_Metal_State_Penalty>
0.429101

> <b_epik_Metal_Only>
1

> <s_lp_Force_Field>
OPLS_2005

> <r_lp_Energy>
29.0368

> <b_lp_Chiralities_Consistent>
1

> <s_lp_Variant>
AV-unprocessed.smi:1725-4

> <Gold.Version>
5.8.1

> <Gold.Id.Protein>
6NUR|6NUR_protein|mol2

> <Gold.PLP.Fitness>
49.7580

> <Gold.PLP.PLP>
-48.7206

> <Gold.PLP.part.hbond>
-1.5571

> <Gold.PLP.part.metal>
0.0000

> <Gold.PLP.part.buried>
-6.8502

> <Gold.PLP.part.nonpolar>
-41.3435

> <Gold.PLP.part.repulsive>
0.2083

> <Gold.PLP.ligand.clash>
0.0000

> <Gold.PLP.ligand.torsion>
1.2963

> <Gold.PLP.Chemscore.Hbond>
1.0000

> <Gold.PLP.Chemscore.CHOScore>
0.0000

> <Gold.PLP.Chemscore.Metal>
0.0000

> <Gold.Chemscore.Hbonds>
donor molecule, donor type, donor heavy atom, donor atom, acceptor molecule, acceptor atom, score
      P1  H  7997  8009       L1     9  1.00

> <Gold.PLP.Chemscore.Internal.Correction>
0.6299

> <Gold.Rescore>
     Score         DG    S(hbond)    S(metal)    S(lipo)     H(rot)  DE(clash)    DE(int)     intcor
     10.13     -14.58       0.97        0.00      88.60       1.76       0.19       4.27       ----

> <Gold.Chemscore.Fitness>
10.1276

> <Gold.Chemscore.DG>
-14.5820

> <Gold.Chemscore.ZeroCoef>
-5.4800

> <Gold.Chemscore.Hbond>
0.9709

> <Gold.Chemscore.Metal>
0.0000

> <Gold.Chemscore.Lipo>
88.5959

> <Gold.Chemscore.Internal_Hbond>
0.0000

> <Gold.Chemscore.DEClash>
0.1850

> <Gold.Chemscore.DEInternal>
4.2695

> <Gold.Chemscore.Rot>
1.7604

> <Gold.Chemscore.Internal.Correction>
   9.000000E+99

> <Gold.Chemscore.Hbonds>
donor molecule, donor type, donor heavy atom, donor atom, acceptor molecule, acceptor atom, score
      P1  H  7997  8009       L1     9  0.98

> <Gold.Chemscore.Hbond.Weighted>
-3.2429

> <Gold.Chemscore.Metal.Weighted>
-0.0000

> <Gold.Chemscore.Lipo.Weighted>
-10.3657

> <Gold.Chemscore.Internal_Hbond.Weighted>
0.0000

> <Gold.Chemscore.DEClash.Weighted>
0.1850

> <Gold.Chemscore.DEInternal.Weighted>
4.2695

> <Gold.Chemscore.Rot.Weighted>
4.5065

> <Gold.Chemscore.Internal.Correction.Weighted>
   9.000000E+99

> <Gold.Protein.RotatedTorsions>
[ 6907 6896 6895 6894 ] final -165.31 input  -60.11 | X-H torsion
[ 7974 7965 7964 7962 ] final -129.85 input  175.53 | X-H torsion
[ 8008 7997 7996 7995 ] final -160.68 input   59.86 | X-H torsion
[ 10167 10162 10161 10158 ] final  -64.78 input  -65.29 | X-H torsion
[ 10718 10713 10712 10709 ] final  124.43 input   66.30 | X-H torsion
[ 10763 10752 10751 10750 ] final  -94.06 input  -60.55 | X-H torsion
[ 11005 11000 10999 10996 ] final   12.91 input  -57.11 | X-H torsion

> <Gold.Protein.ActiveResidues>
 VAL166  LYS551  ARG553  GLY616  TRP617  ASP618  TYR619  PRO620  LYS621  CYS622 
 ASP623  PHE694  ASN695  SER759  ASP760  ASP761  ALA762  ILE779  LEU786  VAL792 
 PHE793  MET794  SER795  GLU796  ALA797  LYS798  CYS799  TRP800  GLU811  SER814 

> <Gold.Protein.RotatedAtoms>
  151.4256  133.3685  159.2761 H   0  0  0  0  0  0  0  0  0  0  0  0  # atno 6907 bound_to 6896
  150.9262  134.8680  159.7532 H   0  0  0  0  0  0  0  0  0  0  0  0  # atno 6908 bound_to 6896
  152.5006  134.4197  159.9528 H   0  0  0  0  0  0  0  0  0  0  0  0  # atno 6909 bound_to 6896
  144.9532  140.7367  143.4775 H   0  0  0  0  0  0  0  0  0  0  0  0  # atno 7974 bound_to 7965
  155.7811  140.0865  157.2059 H   0  0  0  0  0  0  0  0  0  0  0  0  # atno 8008 bound_to 7997
  154.3990  140.1507  156.3110 H   0  0  0  0  0  0  0  0  0  0  0  0  # atno 8009 bound_to 7997
  155.8653  140.3428  155.5786 H   0  0  0  0  0  0  0  0  0  0  0  0  # atno 8010 bound_to 7997
  140.5777  143.2323  151.6408 H   0  0  0  0  0  0  0  0  0  0  0  0  # atno 10167 bound_to 10162
  157.5585  131.1091  150.8580 H   0  0  0  0  0  0  0  0  0  0  0  0  # atno 10718 bound_to 10713
  154.7019  135.5171  153.8539 H   0  0  0  0  0  0  0  0  0  0  0  0  # atno 10763 bound_to 10752
  153.0711  135.6601  154.0255 H   0  0  0  0  0  0  0  0  0  0  0  0  # atno 10764 bound_to 10752
  154.0113  135.3002  155.3371 H   0  0  0  0  0  0  0  0  0  0  0  0  # atno 10765 bound_to 10752
  140.4866  134.0882  155.7762 H   0  0  0  0  0  0  0  0  0  0  0  0  # atno 11005 bound_to 11000
  145.2813  139.1917  143.4789 LP  0  0  0  0  0  0  0  0  0  0  0  0  # atno 17320 bound_to 7965
  146.3328  140.2775  142.8608 LP  0  0  0  0  0  0  0  0  0  0  0  0  # atno 17321 bound_to 7965
  139.5152  144.3387  152.0760 LP  0  0  0  0  0  0  0  0  0  0  0  0  # atno 17342 bound_to 10162
  140.2532  144.4146  150.6213 LP  0  0  0  0  0  0  0  0  0  0  0  0  # atno 17343 bound_to 10162
  156.9084  130.5272  149.5281 LP  0  0  0  0  0  0  0  0  0  0  0  0  # atno 17370 bound_to 10713
  156.0641  130.5687  150.9252 LP  0  0  0  0  0  0  0  0  0  0  0  0  # atno 17371 bound_to 10713
  141.1505  133.8978  157.2110 LP  0  0  0  0  0  0  0  0  0  0  0  0  # atno 17394 bound_to 11000
  139.9794  135.0103  156.9712 LP  0  0  0  0  0  0  0  0  0  0  0  0  # atno 17395 bound_to 11000

$$$$
