AV-unprocessed.smi:1562|AV-procd|sdf|6287|dock10
  -GOLD-   22720 6483D 1   1.00000     0.00000
 Structure written by MMmdl.
 40 41  0  0  0  0  0  0  0  0  1 V2000
  144.0359  138.6747  154.2796 N   0  0  0  0  0  0  0  0  0  0  0  0
  145.2695  138.7174  154.7895 C   0  0  0  0  0  0  0  0  0  0  0  0
  145.7088  137.8233  155.5104 O   0  0  0  0  0  0  0  0  0  0  0  0
  146.1305  139.9384  154.4382 C   0  0  0  0  0  0  0  0  0  0  0  0
  147.3780  139.5243  153.6212 C   0  0  0  0  0  0  0  0  0  0  0  0
  148.3127  140.7251  153.3880 C   0  0  0  0  0  0  0  0  0  0  0  0
  148.6874  141.2921  154.6946 N   0  0  0  0  0  0  0  0  0  0  0  0
  149.8830  141.1451  155.3203 C   0  0  0  0  0  0  0  0  0  0  0  0
  150.8084  140.4753  154.8592 O   0  0  0  0  0  0  0  0  0  0  0  0
  149.9762  141.7629  156.5091 N   0  0  0  0  0  0  0  0  0  0  0  0
  151.1536  141.7338  157.3660 C   0  0  0  0  0  0  0  0  0  0  0  0
  151.6943  143.1522  157.5951 C   0  0  0  0  0  0  0  0  0  0  0  0
  151.9597  143.4350  159.0622 C   0  0  0  0  0  0  0  0  0  0  0  0
  151.6363  144.6880  159.6258 C   0  0  0  0  0  0  0  0  0  0  0  0
  151.9123  144.9012  160.9905 C   0  0  0  0  0  0  0  0  0  0  0  0
  152.4984  143.8593  161.7352 C   0  0  0  0  0  0  0  0  0  0  0  0
  152.7834  142.6452  161.0790 C   0  0  0  0  0  0  0  0  0  0  0  0
  152.5221  142.4303  159.7714 N   0  0  0  0  0  0  0  0  0  0  0  0
  147.5175  141.8548  155.3804 C   0  0  0  0  0  0  0  0  0  0  0  0
  146.5389  140.7135  155.7132 C   0  0  0  0  0  0  0  0  0  0  0  0
  143.4356  137.8901  154.4883 H   0  0  0  0  0  0  0  0  0  0  0  0
  143.7062  139.4257  153.6908 H   0  0  0  0  0  0  0  0  0  0  0  0
  145.5376  140.6123  153.8171 H   0  0  0  0  0  0  0  0  0  0  0  0
  147.9303  138.7388  154.1400 H   0  0  0  0  0  0  0  0  0  0  0  0
  147.0739  139.1052  152.6612 H   0  0  0  0  0  0  0  0  0  0  0  0
  149.1623  140.4187  152.7778 H   0  0  0  0  0  0  0  0  0  0  0  0
  147.7983  141.4874  152.8011 H   0  0  0  0  0  0  0  0  0  0  0  0
  149.1791  142.2884  156.8373 H   0  0  0  0  0  0  0  0  0  0  0  0
  150.8974  141.2735  158.3220 H   0  0  0  0  0  0  0  0  0  0  0  0
  151.9187  141.1103  156.9012 H   0  0  0  0  0  0  0  0  0  0  0  0
  152.6155  143.2964  157.0289 H   0  0  0  0  0  0  0  0  0  0  0  0
  150.9837  143.8887  157.2166 H   0  0  0  0  0  0  0  0  0  0  0  0
  151.1899  145.4690  159.0280 H   0  0  0  0  0  0  0  0  0  0  0  0
  151.6795  145.8471  161.4573 H   0  0  0  0  0  0  0  0  0  0  0  0
  152.7249  143.9871  162.7835 H   0  0  0  0  0  0  0  0  0  0  0  0
  153.2338  141.8253  161.6185 H   0  0  0  0  0  0  0  0  0  0  0  0
  147.7830  142.3964  156.2895 H   0  0  0  0  0  0  0  0  0  0  0  0
  147.0345  142.5878  154.7326 H   0  0  0  0  0  0  0  0  0  0  0  0
  145.6537  141.1214  156.2027 H   0  0  0  0  0  0  0  0  0  0  0  0
  147.0073  140.0411  156.4342 H   0  0  0  0  0  0  0  0  0  0  0  0
  1  2  1  0  0  0  0
  1 21  1  0  0  0  0
  1 22  1  0  0  0  0
  2  3  2  0  0  0  0
  2  4  1  0  0  0  0
  4 20  1  0  0  0  0
  4  5  1  0  0  0  0
  4 23  1  0  0  0  0
  5  6  1  0  0  0  0
  5 24  1  0  0  0  0
  5 25  1  0  0  0  0
  6  7  1  0  0  0  0
  6 26  1  0  0  0  0
  6 27  1  0  0  0  0
  7  8  1  0  0  0  0
  7 19  1  0  0  0  0
  8  9  2  0  0  0  0
  8 10  1  0  0  0  0
 10 11  1  0  0  0  0
 10 28  1  0  0  0  0
 11 12  1  0  0  0  0
 11 29  1  0  0  0  0
 11 30  1  0  0  0  0
 12 13  1  0  0  0  0
 12 31  1  0  0  0  0
 12 32  1  0  0  0  0
 13 18  1  0  0  0  0
 13 14  2  0  0  0  0
 14 15  1  0  0  0  0
 14 33  1  0  0  0  0
 15 16  2  0  0  0  0
 15 34  1  0  0  0  0
 16 17  1  0  0  0  0
 16 35  1  0  0  0  0
 17 18  2  0  0  0  0
 17 36  1  0  0  0  0
 19 20  1  0  0  0  0
 19 37  1  0  0  0  0
 19 38  1  0  0  0  0
 20 39  1  0  0  0  0
 20 40  1  0  0  0  0
M  END
> <s_m_source_file>
AV-unprocessed.smi

> <i_m_source_file_index>
1562

> <i_lp_mmshare_version>
43012

> <i_f3d_flags>
0

> <s_epik_input>
W05IMl1DKD1PKVtDSF0xW0NIMl1bQ0gyXU4oW0NIMl1bQ0gyXTEpQyg9TylbTkhdW0NIMl1bQ0gyXWMyW2NIXVtjSF1bY0hdW2NIXW4y

> <s_epik_cmdline>
J2VwaWtfcHl0aG9uJywgJy1waCcsICc3LjAnLCAnLXRuJywgJzgnLCAnLW1hJywgJzIwMCcsICctbWV0YWxfYmluZGluZycsICctaW1hZScsICc8aW5maWxlLm1hZT4nLCAnLW9tYWUnLCAnPG91dGZpbGUubWFlPic=

> <r_epik_Ionization_Penalty>
0.0445602

> <r_epik_Ionization_Penalty_Charging>
0

> <r_epik_Ionization_Penalty_Neutral>
0.0445602

> <r_epik_State_Penalty>
0.0377204

> <r_epik_Charging_Adjusted_Penalty>
0.0377204

> <i_epik_Tot_Q>
0

> <i_epik_Tot_abs_Q>
0

> <r_epik_Metal_State_Penalty>
0.0350723

> <b_epik_Metal_Only>
0

> <s_lp_Force_Field>
OPLS_2005

> <r_lp_Energy>
26.805

> <b_lp_Chiralities_Consistent>
1

> <s_lp_Variant>
AV-unprocessed.smi:1562-1

> <Gold.Version>
5.8.1

> <Gold.Id.Protein>
6NUR|6NUR_protein|mol2

> <Gold.PLP.Fitness>
39.5524

> <Gold.PLP.PLP>
-36.3644

> <Gold.PLP.part.hbond>
-2.1983

> <Gold.PLP.part.metal>
0.0000

> <Gold.PLP.part.buried>
0.4344

> <Gold.PLP.part.nonpolar>
-33.9356

> <Gold.PLP.part.repulsive>
0.1574

> <Gold.PLP.ligand.clash>
1.5519

> <Gold.PLP.ligand.torsion>
0.6611

> <Gold.PLP.Chemscore.Hbond>
2.0000

> <Gold.PLP.Chemscore.CHOScore>
0.0000

> <Gold.PLP.Chemscore.Metal>
0.0000

> <Gold.Chemscore.Hbonds>
donor molecule, donor type, donor heavy atom, donor atom, acceptor molecule, acceptor atom, score
      L1  H     1    22       P1 10175  1.00
      P1  H  7989  7998       L1     9  1.00

> <Gold.PLP.Chemscore.Internal.Correction>
0.0619

> <Gold.Rescore>
     Score         DG    S(hbond)    S(metal)    S(lipo)     H(rot)  DE(clash)    DE(int)     intcor
     16.62     -18.72       1.95        0.00     100.05       1.95       1.54       0.55       ----

> <Gold.Chemscore.Fitness>
16.6206

> <Gold.Chemscore.DG>
-18.7151

> <Gold.Chemscore.ZeroCoef>
-5.4800

> <Gold.Chemscore.Hbond>
1.9518

> <Gold.Chemscore.Metal>
0.0000

> <Gold.Chemscore.Lipo>
100.0518

> <Gold.Chemscore.Internal_Hbond>
0.0000

> <Gold.Chemscore.DEClash>
1.5403

> <Gold.Chemscore.DEInternal>
0.5542

> <Gold.Chemscore.Rot>
1.9492

> <Gold.Chemscore.Internal.Correction>
   9.000000E+99

> <Gold.Chemscore.Hbonds>
donor molecule, donor type, donor heavy atom, donor atom, acceptor molecule, acceptor atom, score
      L1  H     1    22       P1 10175  0.97
      P1  H  7989  7998       L1     9  0.96

> <Gold.Chemscore.Hbond.Weighted>
-6.5190

> <Gold.Chemscore.Metal.Weighted>
-0.0000

> <Gold.Chemscore.Lipo.Weighted>
-11.7061

> <Gold.Chemscore.Internal_Hbond.Weighted>
0.0000

> <Gold.Chemscore.DEClash.Weighted>
1.5403

> <Gold.Chemscore.DEInternal.Weighted>
0.5542

> <Gold.Chemscore.Rot.Weighted>
4.9900

> <Gold.Chemscore.Internal.Correction.Weighted>
   9.000000E+99

> <Gold.Protein.RotatedTorsions>
[ 6907 6896 6895 6894 ] final  125.31 input  -60.11 | X-H torsion
[ 7974 7965 7964 7962 ] final -100.85 input  175.53 | X-H torsion
[ 8008 7997 7996 7995 ] final  -36.57 input   59.86 | X-H torsion
[ 10167 10162 10161 10158 ] final  -45.36 input  -65.29 | X-H torsion
[ 10718 10713 10712 10709 ] final   19.65 input   66.30 | X-H torsion
[ 10763 10752 10751 10750 ] final  160.10 input  -60.55 | X-H torsion
[ 11005 11000 10999 10996 ] final  -87.26 input  -57.11 | X-H torsion

> <Gold.Protein.ActiveResidues>
 VAL166  LYS551  ARG553  GLY616  TRP617  ASP618  TYR619  PRO620  LYS621  CYS622 
 ASP623  PHE694  ASN695  SER759  ASP760  ASP761  ALA762  ILE779  LEU786  VAL792 
 PHE793  MET794  SER795  GLU796  ALA797  LYS798  CYS799  TRP800  GLU811  SER814 

> <Gold.Protein.RotatedAtoms>
  152.4003  133.6808  159.6310 H   0  0  0  0  0  0  0  0  0  0  0  0  # atno 6907 bound_to 6896
  150.7895  133.8803  159.3292 H   0  0  0  0  0  0  0  0  0  0  0  0  # atno 6908 bound_to 6896
  151.6570  135.0996  160.0223 H   0  0  0  0  0  0  0  0  0  0  0  0  # atno 6909 bound_to 6896
  145.2893  140.9348  143.2887 H   0  0  0  0  0  0  0  0  0  0  0  0  # atno 7974 bound_to 7965
  154.4070  140.1627  156.2395 H   0  0  0  0  0  0  0  0  0  0  0  0  # atno 8008 bound_to 7997
  155.9213  140.3421  155.6152 H   0  0  0  0  0  0  0  0  0  0  0  0  # atno 8009 bound_to 7997
  155.7218  140.0769  157.2318 H   0  0  0  0  0  0  0  0  0  0  0  0  # atno 8010 bound_to 7997
  140.6861  143.2883  151.3627 H   0  0  0  0  0  0  0  0  0  0  0  0  # atno 10167 bound_to 10162
  157.1134  130.6518  149.5904 H   0  0  0  0  0  0  0  0  0  0  0  0  # atno 10718 bound_to 10713
  154.2422  135.2774  155.2849 H   0  0  0  0  0  0  0  0  0  0  0  0  # atno 10763 bound_to 10752
  154.5535  135.5668  153.6947 H   0  0  0  0  0  0  0  0  0  0  0  0  # atno 10764 bound_to 10752
  152.9997  135.6280  154.2566 H   0  0  0  0  0  0  0  0  0  0  0  0  # atno 10765 bound_to 10752
  141.1619  133.7501  156.9280 H   0  0  0  0  0  0  0  0  0  0  0  0  # atno 11005 bound_to 11000
  144.9186  139.4439  143.6552 LP  0  0  0  0  0  0  0  0  0  0  0  0  # atno 17320 bound_to 7965
  146.3190  139.8035  142.8960 LP  0  0  0  0  0  0  0  0  0  0  0  0  # atno 17321 bound_to 7965
  139.6221  144.0887  152.2401 LP  0  0  0  0  0  0  0  0  0  0  0  0  # atno 17342 bound_to 10162
  140.0334  144.6063  150.7469 LP  0  0  0  0  0  0  0  0  0  0  0  0  # atno 17343 bound_to 10162
  155.9845  130.4870  150.6986 LP  0  0  0  0  0  0  0  0  0  0  0  0  # atno 17370 bound_to 10713
  157.4539  131.0875  151.0817 LP  0  0  0  0  0  0  0  0  0  0  0  0  # atno 17371 bound_to 10713
  140.1405  134.9296  157.2461 LP  0  0  0  0  0  0  0  0  0  0  0  0  # atno 17394 bound_to 11000
  140.2842  134.3315  155.7334 LP  0  0  0  0  0  0  0  0  0  0  0  0  # atno 17395 bound_to 11000

$$$$
