#       Name:                AV-unprocessed.smi:170
#       Creating user name   scv26
#       Creation time:       Thu Mar 26 19:16:54 2020


#       File generated by GOLD software.
#

@<TRIPOS>MOLECULE
AV-unprocessed.smi:170
    67    71     1
SMALL
NO_CHARGES


@<TRIPOS>ATOM
      1 ****        -2.9263   0.6884  -0.7924 O.3            1 S1                 0.0000
      2 ****        -3.4465   0.0290   0.3468 C.3            1 S1                 0.0000
      3 ****        -2.8620  -1.3915   0.4720 C.3            1 S1                 0.0000
      4 ****        -1.4115  -1.3856   0.5377 N.pl3          1 S1                 0.0000
      5 ****        -0.6404  -1.1126   1.6443 C.2            1 S1                 0.0000
      6 ****         0.6488  -1.1606   1.4479 N.2            1 S1                 0.0000
      7 ****         0.7760  -1.4879   0.1027 C.ar           1 S1                 0.0000
      8 ****         1.8789  -1.6889  -0.7761 C.ar           1 S1                 0.0000
      9 ****         3.1807  -1.5692  -0.4302 N.3            1 S1                 0.0000
     10 ****         3.6472  -2.7704   0.2517 C.3            1 S1                 0.0000
     11 ****         5.1653  -2.7033   0.4651 C.3            1 S1                 0.0000
     12 ****         5.4790  -1.5218   1.1904 O.3            1 S1                 0.0000
     13 ****         5.1035  -0.3455   0.4819 C.3            1 S1                 0.0000
     14 ****         3.5759  -0.3243   0.2410 C.3            1 S1                 0.0000
     15 ****         3.1402   0.9383  -0.5490 C.3            1 S1                 0.0000
     16 ****         3.4136   2.2624   0.1685 C.3            1 S1                 0.0000
     17 ****         2.7160   2.5490   1.5101 C.3            1 S1                 0.0000
     18 ****         1.6856   3.3841   0.7480 C.3            1 S1                 0.0000
     19 ****         2.7272   3.5311  -0.3634 C.3            1 S1                 0.0000
     20 ****         1.6144  -2.0228  -2.0631 N.ar           1 S1                 0.0000
     21 ****         0.3489  -2.1363  -2.4774 C.ar           1 S1                 0.0000
     22 ****        -0.7770  -1.9655  -1.7806 N.ar           1 S1                 0.0000
     23 ****        -0.5123  -1.6414  -0.4822 C.ar           1 S1                 0.0000
     24 ****        -4.9879   0.0422   0.3154 C.3            1 S1                 0.0000
     25 ****        -5.6520   1.4180   0.1355 C.3            1 S1                 0.0000
     26 ****        -6.6629   1.1936  -0.9783 C.3            1 S1                 0.0000
     27 ****        -6.8009  -0.3233  -1.0323 C.3            1 S1                 0.0000
     28 ****        -5.4899  -0.7736  -0.7365 O.3            1 S1                 0.0000
     29 ****        -3.1884   0.2047  -1.5611 H              1 S1                 0.0000
     30 ****        -3.1257   0.6098   1.2123 H              1 S1                 0.0000
     31 ****        -3.2429  -1.8781   1.3706 H              1 S1                 0.0000
     32 ****        -3.1703  -2.0109  -0.3710 H              1 S1                 0.0000
     33 ****        -1.0675  -0.8714   2.6068 H              1 S1                 0.0000
     34 ****         3.1413  -2.8651   1.2138 H              1 S1                 0.0000
     35 ****         3.3957  -3.6563  -0.3333 H              1 S1                 0.0000
     36 ****         5.5051  -3.5702   1.0317 H              1 S1                 0.0000
     37 ****         5.6960  -2.7145  -0.4883 H              1 S1                 0.0000
     38 ****         5.4128   0.5112   1.0795 H              1 S1                 0.0000
     39 ****         5.6497  -0.2898  -0.4613 H              1 S1                 0.0000
     40 ****         3.0968  -0.3094   1.2190 H              1 S1                 0.0000
     41 ****         3.6360   0.9398  -1.5203 H              1 S1                 0.0000
     42 ****         2.0745   0.8906  -0.7718 H              1 S1                 0.0000
     43 ****         4.4843   2.4470   0.2597 H              1 S1                 0.0000
     44 ****         2.2985   1.6794   2.0178 H              1 S1                 0.0000
     45 ****         3.3285   3.1499   2.1844 H              1 S1                 0.0000
     46 ****         0.8148   2.8026   0.4396 H              1 S1                 0.0000
     47 ****         1.4004   4.3164   1.2356 H              1 S1                 0.0000
     48 ****         3.3413   4.4258  -0.2489 H              1 S1                 0.0000
     49 ****         2.3253   3.4471  -1.3737 H              1 S1                 0.0000
     50 ****         0.2200  -2.3983  -3.5173 H              1 S1                 0.0000
     51 ****        -5.3568  -0.3913   1.2467 H              1 S1                 0.0000
     52 ****        -6.1476   1.7199   1.0588 H              1 S1                 0.0000
     53 ****        -4.9489   2.2079  -0.1298 H              1 S1                 0.0000
     54 ****        -7.6127   1.6991  -0.8025 H              1 S1                 0.0000
     55 ****        -6.2561   1.5579  -1.9223 H              1 S1                 0.0000
     56 ****        -7.4933  -0.6807  -0.2686 H              1 S1                 0.0000
     57 ****        -7.1413  -0.6824  -2.0035 H              1 S1                 0.0000
     58 ****        -1.9284   0.7213  -0.7377 LP             1 S1                 0.0000
     59 ****        -3.2885   1.6193  -0.8390 LP             1 S1                 0.0000
     60 ****         1.3781  -0.9990   2.1127 LP             1 S1                 0.0000
     61 ****         3.6665  -1.4851  -1.3002 LP             1 S1                 0.0000
     62 ****         6.4647  -1.4975   1.3571 LP             1 S1                 0.0000
     63 ****         4.9935  -1.5411   2.0644 LP             1 S1                 0.0000
     64 ****         2.3662  -2.1842  -2.7024 LP             1 S1                 0.0000
     65 ****        -1.6965  -2.0627  -2.1616 LP             1 S1                 0.0000
     66 ****        -5.5144  -1.7301  -0.4455 LP             1 S1                 0.0000
     67 ****        -4.9077  -0.6859  -1.5448 LP             1 S1                 0.0000
@<TRIPOS>BOND
    1    1    2 1     
    2    1   29 1     
    3    2    3 1     
    4    2   24 1     
    5    2   30 1     
    6    3    4 1     
    7    3   31 1     
    8    3   32 1     
    9    4   23 1     
   10    4    5 1     
   11    5    6 2     
   12    5   33 1     
   13    6    7 1     
   14    7   23 ar    
   15    7    8 ar    
   16    8    9 1     
   17    8   20 ar    
   18    9   14 1     
   19    9   10 1     
   20   10   11 1     
   21   10   34 1     
   22   10   35 1     
   23   11   12 1     
   24   11   36 1     
   25   11   37 1     
   26   12   13 1     
   27   13   14 1     
   28   13   38 1     
   29   13   39 1     
   30   14   15 1     
   31   14   40 1     
   32   15   16 1     
   33   15   41 1     
   34   15   42 1     
   35   16   19 1     
   36   16   17 1     
   37   16   43 1     
   38   17   18 1     
   39   17   44 1     
   40   17   45 1     
   41   18   19 1     
   42   18   46 1     
   43   18   47 1     
   44   19   48 1     
   45   19   49 1     
   46   20   21 ar    
   47   21   22 ar    
   48   21   50 1     
   49   22   23 ar    
   50   24   28 1     
   51   24   25 1     
   52   24   51 1     
   53   25   26 1     
   54   25   52 1     
   55   25   53 1     
   56   26   27 1     
   57   26   54 1     
   58   26   55 1     
   59   27   28 1     
   60   27   56 1     
   61   27   57 1     
   62    1   58 1     
   63    1   59 1     
   64    6   60 1     
   65    9   61 1     
   66   12   62 1     
   67   12   63 1     
   68   20   64 1     
   69   22   65 1     
   70   28   66 1     
   71   28   67 1     
@<TRIPOS>SUBSTRUCTURE
      1 S1             1
@<TRIPOS>SET
LONE_PAIRS      STATIC     ATOMS    <user>   **** ""
10 58 59 60 61 62 63 64 65 66 67
DONOR_HYDROGENS      STATIC     ATOMS    <user>   **** ""
1 29
ATOM$BLUE        STATIC     ATOMS    COLORGROUP SYSTEM
10 58 59 60 61 62 63 64 65 66 67
ATOM$RED        STATIC     ATOMS    COLORGROUP SYSTEM
1 29
