AV-unprocessed.smi:670|AV-procd|sdf|3267|dock5
  -GOLD-   22720 0223D 1   1.00000     0.00000
 Structure written by MMmdl.
 44 45  0  0  0  0  0  0  0  0  2 V2000
  147.9167  132.5256  161.4864 C   0  0  0  0  0  0  0  0  0  0  0  0
  147.4435  133.7824  162.2322 C   0  0  2  0  0  0  0  0  0  0  0  0
  145.9096  133.8068  162.3868 C   0  0  0  0  0  0  0  0  0  0  0  0
  145.4409  135.0383  163.1778 C   0  0  0  0  0  0  0  0  0  0  0  0
  145.9483  136.3395  162.5383 C   0  0  0  0  0  0  0  0  0  0  0  0
  147.4776  136.3235  162.3747 C   0  0  0  0  0  0  0  0  0  0  0  0
  147.9590  135.0908  161.5870 C   0  0  2  0  0  0  0  0  0  0  0  0
  147.4647  135.2061  160.2576 O   0  0  0  0  0  0  0  0  0  0  0  0
  148.4025  135.7194  159.3238 C   0  0  0  0  0  0  0  0  0  0  0  0
  148.6024  137.2178  159.5913 C   0  0  0  0  0  0  0  0  0  0  0  0
  149.4879  137.8269  158.6058 N   0  0  0  0  0  0  0  0  0  0  0  0
  150.8164  137.6511  158.5417 C   0  0  0  0  0  0  0  0  0  0  0  0
  151.4462  136.9418  159.3268 O   0  0  0  0  0  0  0  0  0  0  0  0
  151.5418  138.3750  157.4022 C   0  0  0  0  0  0  0  0  0  0  0  0
  151.3628  139.8311  157.4712 N   0  0  0  0  0  0  0  0  0  0  0  0
  151.6034  140.3887  158.7997 N   0  5  0  0  0  0  0  0  0  0  0  0
  151.4952  141.7311  158.9849 C   0  0  0  0  0  0  0  0  0  0  0  0
  151.6958  142.2725  160.0696 O   0  0  0  0  0  0  0  0  0  0  0  0
  151.1234  142.5511  157.8440 C   0  0  0  0  0  0  0  0  0  0  0  0
  150.8924  142.0079  156.6326 C   0  0  0  0  0  0  0  0  0  0  0  0
  151.0027  140.5750  156.3863 C   0  0  0  0  0  0  0  0  0  0  0  0
  150.7894  140.0737  155.2826 O   0  0  0  0  0  0  0  0  0  0  0  0
  147.4890  132.4721  160.4852 H   0  0  0  0  0  0  0  0  0  0  0  0
  147.6208  131.6210  162.0182 H   0  0  0  0  0  0  0  0  0  0  0  0
  149.0024  132.5101  161.3884 H   0  0  0  0  0  0  0  0  0  0  0  0
  147.8698  133.7297  163.2352 H   0  0  0  0  0  0  0  0  0  0  0  0
  145.4383  133.8035  161.4029 H   0  0  0  0  0  0  0  0  0  0  0  0
  145.5716  132.9010  162.8913 H   0  0  0  0  0  0  0  0  0  0  0  0
  144.3521  135.0517  163.2319 H   0  0  0  0  0  0  0  0  0  0  0  0
  145.8006  134.9713  164.2052 H   0  0  0  0  0  0  0  0  0  0  0  0
  145.4769  136.4746  161.5640 H   0  0  0  0  0  0  0  0  0  0  0  0
  145.6486  137.1936  163.1458 H   0  0  0  0  0  0  0  0  0  0  0  0
  147.8080  137.2357  161.8769 H   0  0  0  0  0  0  0  0  0  0  0  0
  147.9445  136.3270  163.3606 H   0  0  0  0  0  0  0  0  0  0  0  0
  149.0510  135.0915  161.5972 H   0  0  0  0  0  0  0  0  0  0  0  0
  149.3506  135.1918  159.4362 H   0  0  0  0  0  0  0  0  0  0  0  0
  148.0621  135.5580  158.3003 H   0  0  0  0  0  0  0  0  0  0  0  0
  147.6425  137.7334  159.5590 H   0  0  0  0  0  0  0  0  0  0  0  0
  149.0041  137.3709  160.5941 H   0  0  0  0  0  0  0  0  0  0  0  0
  149.0624  138.4350  157.9206 H   0  0  0  0  0  0  0  0  0  0  0  0
  152.6031  138.1226  157.4341 H   0  0  0  0  0  0  0  0  0  0  0  0
  151.1830  137.9875  156.4466 H   0  0  0  0  0  0  0  0  0  0  0  0
  151.0287  143.6196  157.9713 H   0  0  0  0  0  0  0  0  0  0  0  0
  150.6177  142.6556  155.8134 H   0  0  0  0  0  0  0  0  0  0  0  0
  1  2  1  0  0  0  0
  1 23  1  0  0  0  0
  1 24  1  0  0  0  0
  1 25  1  0  0  0  0
  2  7  1  0  0  0  0
  2  3  1  0  0  0  0
  2 26  1  0  0  0  0
  3  4  1  0  0  0  0
  3 27  1  0  0  0  0
  3 28  1  0  0  0  0
  4  5  1  0  0  0  0
  4 29  1  0  0  0  0
  4 30  1  0  0  0  0
  5  6  1  0  0  0  0
  5 31  1  0  0  0  0
  5 32  1  0  0  0  0
  6  7  1  0  0  0  0
  6 33  1  0  0  0  0
  6 34  1  0  0  0  0
  7  8  1  0  0  0  0
  7 35  1  0  0  0  0
  8  9  1  0  0  0  0
  9 10  1  0  0  0  0
  9 36  1  0  0  0  0
  9 37  1  0  0  0  0
 10 11  1  0  0  0  0
 10 38  1  0  0  0  0
 10 39  1  0  0  0  0
 11 12  1  0  0  0  0
 11 40  1  0  0  0  0
 12 13  2  0  0  0  0
 12 14  1  0  0  0  0
 14 41  1  0  0  0  0
 14 42  1  0  0  0  0
 14 15  1  0  0  0  0
 15 16  1  0  0  0  0
 15 21  1  0  0  0  0
 16 17  1  0  0  0  0
 17 18  2  0  0  0  0
 17 19  1  0  0  0  0
 19 43  1  0  0  0  0
 19 20  2  0  0  0  0
 20 44  1  0  0  0  0
 20 21  1  0  0  0  0
 21 22  2  0  0  0  0
M  CHG  1  16  -1
M  END
> <s_m_source_file>
AV-unprocessed.smi

> <i_m_source_file_index>
670

> <i_lp_mmshare_version>
43012

> <i_f3d_flags>
0

> <s_epik_input>
W0NIM11bQ0BASF0xW0NIMl1bQ0gyXVtDSDJdW0NIMl1bQ0BIXTFPW0NIMl1bQ0gyXVtOSF1DKD1PKVtDSDJdbjJbbkhdYyg9TylbY0hdW2NIXWMyPU8=

> <s_epik_cmdline>
J2VwaWtfcHl0aG9uJywgJy1waCcsICc3LjAnLCAnLXRuJywgJzgnLCAnLW1hJywgJzIwMCcsICctbWV0YWxfYmluZGluZycsICctaW1hZScsICc8aW5maWxlLm1hZT4nLCAnLW9tYWUnLCAnPG91dGZpbGUubWFlPic=

> <r_lp_tautomer_probability>
1

> <r_epik_Ionization_Penalty>
0.0975638

> <r_epik_Ionization_Penalty_Charging>
0.0975637

> <r_epik_Ionization_Penalty_Neutral>
2.78599e-08

> <r_epik_State_Penalty>
0.0343507

> <r_epik_Charging_Adjusted_Penalty>
0.131914

> <i_epik_Tot_Q>
-1

> <i_epik_Tot_abs_Q>
1

> <r_epik_Metal_State_Penalty>
0.0343507

> <b_epik_Metal_Only>
0

> <s_lp_Force_Field>
OPLS_2005

> <r_lp_Energy>
29.4365

> <b_lp_Chiralities_Consistent>
1

> <s_lp_Variant>
AV-unprocessed.smi:670-3

> <Gold.Version>
5.8.1

> <Gold.Id.Protein>
6NUR|6NUR_protein|mol2

> <Gold.PLP.Fitness>
43.9716

> <Gold.PLP.PLP>
-39.4910

> <Gold.PLP.part.hbond>
-3.0000

> <Gold.PLP.part.metal>
0.0000

> <Gold.PLP.part.buried>
-7.4912

> <Gold.PLP.part.nonpolar>
-29.4374

> <Gold.PLP.part.repulsive>
0.2024

> <Gold.PLP.ligand.clash>
0.0000

> <Gold.PLP.ligand.torsion>
0.7931

> <Gold.PLP.Chemscore.Hbond>
2.0000

> <Gold.PLP.Chemscore.CHOScore>
0.0000

> <Gold.PLP.Chemscore.Metal>
0.0000

> <Gold.Chemscore.Hbonds>
donor molecule, donor type, donor heavy atom, donor atom, acceptor molecule, acceptor atom, score
      P1  H  6896  6907       L1    13  1.00
      P1  H  7989  7998       L1    22  0.76

> <Gold.PLP.Chemscore.Internal.Correction>
0.0669

> <Gold.Rescore>
     Score         DG    S(hbond)    S(metal)    S(lipo)     H(rot)  DE(clash)    DE(int)     intcor
     14.52     -15.30       1.94        0.00      82.29       2.45       0.15       0.64       ----

> <Gold.Chemscore.Fitness>
14.5178

> <Gold.Chemscore.DG>
-15.3022

> <Gold.Chemscore.ZeroCoef>
-5.4800

> <Gold.Chemscore.Hbond>
1.9354

> <Gold.Chemscore.Metal>
0.0000

> <Gold.Chemscore.Lipo>
82.2855

> <Gold.Chemscore.Internal_Hbond>
0.0000

> <Gold.Chemscore.DEClash>
0.1460

> <Gold.Chemscore.DEInternal>
0.6384

> <Gold.Chemscore.Rot>
2.4490

> <Gold.Chemscore.Internal.Correction>
   9.000000E+99

> <Gold.Chemscore.Hbonds>
donor molecule, donor type, donor heavy atom, donor atom, acceptor molecule, acceptor atom, score
      P1  H  6896  6907       L1    13  0.99
      P1  H  7989  7998       L1    22  0.74

> <Gold.Chemscore.Hbond.Weighted>
-6.4642

> <Gold.Chemscore.Metal.Weighted>
-0.0000

> <Gold.Chemscore.Lipo.Weighted>
-9.6274

> <Gold.Chemscore.Internal_Hbond.Weighted>
0.0000

> <Gold.Chemscore.DEClash.Weighted>
0.1460

> <Gold.Chemscore.DEInternal.Weighted>
0.6384

> <Gold.Chemscore.Rot.Weighted>
6.2694

> <Gold.Chemscore.Internal.Correction.Weighted>
   9.000000E+99

> <Gold.Protein.RotatedTorsions>
[ 6907 6896 6895 6894 ] final  -15.33 input  -60.11 | X-H torsion
[ 7974 7965 7964 7962 ] final  -65.71 input  175.53 | X-H torsion
[ 8008 7997 7996 7995 ] final  -45.19 input   59.86 | X-H torsion
[ 10167 10162 10161 10158 ] final  -59.54 input  -65.29 | X-H torsion
[ 10718 10713 10712 10709 ] final   27.40 input   66.30 | X-H torsion
[ 10763 10752 10751 10750 ] final -135.54 input  -60.55 | X-H torsion
[ 11005 11000 10999 10996 ] final -175.90 input  -57.11 | X-H torsion

> <Gold.Protein.ActiveResidues>
 VAL166  LYS551  ARG553  GLY616  TRP617  ASP618  TYR619  PRO620  LYS621  CYS622 
 ASP623  PHE694  ASN695  SER759  ASP760  ASP761  ALA762  ILE779  LEU786  VAL792 
 PHE793  MET794  SER795  GLU796  ALA797  LYS798  CYS799  TRP800  GLU811  SER814 

> <Gold.Protein.RotatedAtoms>
  151.3256  135.0829  159.9320 H   0  0  0  0  0  0  0  0  0  0  0  0  # atno 6907 bound_to 6896
  152.5247  133.9595  159.7720 H   0  0  0  0  0  0  0  0  0  0  0  0  # atno 6908 bound_to 6896
  150.9924  133.6084  159.2736 H   0  0  0  0  0  0  0  0  0  0  0  0  # atno 6909 bound_to 6896
  145.7508  140.8909  143.0481 H   0  0  0  0  0  0  0  0  0  0  0  0  # atno 7974 bound_to 7965
  154.4000  140.1403  156.3807 H   0  0  0  0  0  0  0  0  0  0  0  0  # atno 8008 bound_to 7997
  155.8007  140.3476  155.5380 H   0  0  0  0  0  0  0  0  0  0  0  0  # atno 8009 bound_to 7997
  155.8487  140.0938  157.1679 H   0  0  0  0  0  0  0  0  0  0  0  0  # atno 8010 bound_to 7997
  140.6128  143.2392  151.5668 H   0  0  0  0  0  0  0  0  0  0  0  0  # atno 10167 bound_to 10162
  157.2197  130.6973  149.6264 H   0  0  0  0  0  0  0  0  0  0  0  0  # atno 10718 bound_to 10713
  154.8701  135.3700  154.4914 H   0  0  0  0  0  0  0  0  0  0  0  0  # atno 10763 bound_to 10752
  153.5561  135.7024  153.5574 H   0  0  0  0  0  0  0  0  0  0  0  0  # atno 10764 bound_to 10752
  153.3671  135.4031  155.1725 H   0  0  0  0  0  0  0  0  0  0  0  0  # atno 10765 bound_to 10752
  140.4581  134.6281  157.4830 H   0  0  0  0  0  0  0  0  0  0  0  0  # atno 11005 bound_to 11000
  144.6850  139.9589  143.7480 LP  0  0  0  0  0  0  0  0  0  0  0  0  # atno 17320 bound_to 7965
  146.0358  139.3376  143.0727 LP  0  0  0  0  0  0  0  0  0  0  0  0  # atno 17321 bound_to 7965
  139.5375  144.2740  152.1282 LP  0  0  0  0  0  0  0  0  0  0  0  0  # atno 17342 bound_to 10162
  140.1943  144.4720  150.6463 LP  0  0  0  0  0  0  0  0  0  0  0  0  # atno 17343 bound_to 10162
  155.9683  130.4524  150.5772 LP  0  0  0  0  0  0  0  0  0  0  0  0  # atno 17370 bound_to 10713
  157.3589  131.0746  151.1653 LP  0  0  0  0  0  0  0  0  0  0  0  0  # atno 17371 bound_to 10713
  139.9963  134.6906  155.9604 LP  0  0  0  0  0  0  0  0  0  0  0  0  # atno 17394 bound_to 11000
  141.1634  133.6538  156.4395 LP  0  0  0  0  0  0  0  0  0  0  0  0  # atno 17395 bound_to 11000

$$$$
