AV-unprocessed.smi:767|AV-procd|sdf|3670|dock4
  -GOLD-   22720 1 83D 1   1.00000     0.00000
 Structure written by MMmdl.
 48 50  0  0  0  0  0  0  0  0  2 V2000
  143.7358  131.9809  150.4036 C   0  0  0  0  0  0  0  0  0  0  0  0
  144.3302  133.3120  150.8124 C   0  0  0  0  0  0  0  0  0  0  0  0
  145.6005  133.4112  151.4184 C   0  0  0  0  0  0  0  0  0  0  0  0
  146.0968  134.6828  151.7715 C   0  0  0  0  0  0  0  0  0  0  0  0
  145.3163  135.8301  151.5092 C   0  0  0  0  0  0  0  0  0  0  0  0
  145.8404  137.2151  151.8516 C   0  0  0  0  0  0  0  0  0  0  0  0
  145.9106  137.4980  153.3673 C   0  0  0  0  0  0  0  0  0  0  0  0
  147.2679  137.7391  153.8489 N   0  0  0  0  0  0  0  0  0  0  0  0
  147.5883  138.4037  154.9673 C   0  0  0  0  0  0  0  0  0  0  0  0
  146.7670  138.9128  155.7293 O   0  0  0  0  0  0  0  0  0  0  0  0
  148.9120  138.4196  155.1662 N   0  0  0  0  0  0  0  0  0  0  0  0
  149.5866  139.0379  156.3089 C   0  0  1  0  0  0  0  0  0  0  0  0
  151.1196  138.8198  156.3152 C   0  0  1  0  0  0  0  0  0  0  0  0
  151.8162  137.8248  155.4203 C   0  0  0  0  0  0  0  0  0  0  0  0
  152.2445  138.6791  154.2235 C   0  0  0  0  0  0  0  0  0  0  0  0
  151.4185  139.8405  154.2858 O   0  0  0  0  0  0  0  0  0  0  0  0
  151.2501  140.1847  155.6599 C   0  0  1  0  0  0  0  0  0  0  0  0
  149.8214  140.5585  156.1077 C   0  0  0  0  0  0  0  0  0  0  0  0
  148.9604  141.3117  155.0845 C   0  0  0  0  0  0  0  0  0  0  0  0
  149.7670  141.3791  157.4002 C   0  0  0  0  0  0  0  0  0  0  0  0
  144.0491  135.6688  150.9089 C   0  0  0  0  0  0  0  0  0  0  0  0
  143.6086  134.4330  150.5858 N   0  3  0  0  0  0  0  0  0  0  0  0
  144.5206  131.2442  150.2292 H   0  0  0  0  0  0  0  0  0  0  0  0
  143.1553  132.0793  149.4855 H   0  0  0  0  0  0  0  0  0  0  0  0
  143.0792  131.6034  151.1879 H   0  0  0  0  0  0  0  0  0  0  0  0
  146.1917  132.5269  151.6074 H   0  0  0  0  0  0  0  0  0  0  0  0
  147.0727  134.7740  152.2264 H   0  0  0  0  0  0  0  0  0  0  0  0
  146.8294  137.3371  151.4089 H   0  0  0  0  0  0  0  0  0  0  0  0
  145.2058  137.9622  151.3730 H   0  0  0  0  0  0  0  0  0  0  0  0
  145.3327  138.3944  153.5926 H   0  0  0  0  0  0  0  0  0  0  0  0
  145.4481  136.6858  153.9299 H   0  0  0  0  0  0  0  0  0  0  0  0
  148.0208  137.3641  153.2906 H   0  0  0  0  0  0  0  0  0  0  0  0
  149.5033  137.9652  154.4856 H   0  0  0  0  0  0  0  0  0  0  0  0
  149.1215  138.8072  157.2694 H   0  0  0  0  0  0  0  0  0  0  0  0
  151.5072  138.8360  157.3349 H   0  0  0  0  0  0  0  0  0  0  0  0
  152.6803  137.3699  155.9054 H   0  0  0  0  0  0  0  0  0  0  0  0
  151.1551  137.0165  155.1160 H   0  0  0  0  0  0  0  0  0  0  0  0
  153.2880  138.9810  154.3238 H   0  0  0  0  0  0  0  0  0  0  0  0
  152.1295  138.1572  153.2733 H   0  0  0  0  0  0  0  0  0  0  0  0
  152.0585  140.7981  156.0604 H   0  0  0  0  0  0  0  0  0  0  0  0
  149.2835  142.3475  154.9763 H   0  0  0  0  0  0  0  0  0  0  0  0
  147.9108  141.3242  155.3797 H   0  0  0  0  0  0  0  0  0  0  0  0
  149.0117  140.8643  154.0919 H   0  0  0  0  0  0  0  0  0  0  0  0
  150.1697  142.3821  157.2550 H   0  0  0  0  0  0  0  0  0  0  0  0
  150.3469  140.9147  158.1986 H   0  0  0  0  0  0  0  0  0  0  0  0
  148.7449  141.4832  157.7653 H   0  0  0  0  0  0  0  0  0  0  0  0
  143.3836  136.4856  150.6699 H   0  0  0  0  0  0  0  0  0  0  0  0
  142.6917  134.3418  150.1476 H   0  0  0  0  0  0  0  0  0  0  0  0
  1  2  1  0  0  0  0
  1 23  1  0  0  0  0
  1 24  1  0  0  0  0
  1 25  1  0  0  0  0
  2 22  1  0  0  0  0
  2  3  2  0  0  0  0
  3  4  1  0  0  0  0
  3 26  1  0  0  0  0
  4  5  2  0  0  0  0
  4 27  1  0  0  0  0
  5  6  1  0  0  0  0
  5 21  1  0  0  0  0
  6  7  1  0  0  0  0
  6 28  1  0  0  0  0
  6 29  1  0  0  0  0
  7  8  1  0  0  0  0
  7 30  1  0  0  0  0
  7 31  1  0  0  0  0
  8  9  1  0  0  0  0
  8 32  1  0  0  0  0
  9 10  2  0  0  0  0
  9 11  1  0  0  0  0
 11 12  1  0  0  0  0
 11 33  1  0  0  0  0
 12 18  1  0  0  0  0
 12 13  1  0  0  0  0
 12 34  1  0  0  0  0
 13 17  1  0  0  0  0
 13 14  1  0  0  0  0
 13 35  1  0  0  0  0
 14 15  1  0  0  0  0
 14 36  1  0  0  0  0
 14 37  1  0  0  0  0
 15 16  1  0  0  0  0
 15 38  1  0  0  0  0
 15 39  1  0  0  0  0
 16 17  1  0  0  0  0
 17 18  1  0  0  0  0
 17 40  1  0  0  0  0
 18 19  1  0  0  0  0
 18 20  1  0  0  0  0
 19 41  1  0  0  0  0
 19 42  1  0  0  0  0
 19 43  1  0  0  0  0
 20 44  1  0  0  0  0
 20 45  1  0  0  0  0
 20 46  1  0  0  0  0
 21 22  2  0  0  0  0
 21 47  1  0  0  0  0
 22 48  1  0  0  0  0
M  CHG  1  22   1
M  END
> <s_m_source_file>
AV-unprocessed.smi

> <i_m_source_file_index>
767

> <i_lp_mmshare_version>
43012

> <i_f3d_flags>
0

> <s_epik_input>
W0NIM11jMVtjSF1bY0hdYyhbY0hdbjEpW0NIMl1bQ0gyXVtOSF1DKD1PKVtOSF1bQ0BIXTJDKFtDSDNdKShbQ0gzXSlbQ0BIXShbQ0BASF0yMylPW0NIMl1bQ0gyXTM=

> <s_epik_cmdline>
J2VwaWtfcHl0aG9uJywgJy1waCcsICc3LjAnLCAnLXRuJywgJzgnLCAnLW1hJywgJzIwMCcsICctbWV0YWxfYmluZGluZycsICctaW1hZScsICc8aW5maWxlLm1hZT4nLCAnLW9tYWUnLCAnPG91dGZpbGUubWFlPic=

> <r_epik_Ionization_Penalty>
1.41853

> <r_epik_Ionization_Penalty_Charging>
1.41848

> <r_epik_Ionization_Penalty_Neutral>
5.17407e-05

> <r_epik_State_Penalty>
1.50205

> <r_epik_Charging_Adjusted_Penalty>
2.92053

> <i_epik_Tot_Q>
1

> <i_epik_Tot_abs_Q>
1

> <r_epik_Metal_State_Penalty>
1.5544

> <b_epik_Metal_Only>
0

> <s_lp_Force_Field>
OPLS_2005

> <r_lp_Energy>
40.9756

> <b_lp_Chiralities_Consistent>
1

> <s_lp_Variant>
AV-unprocessed.smi:767-14

> <Gold.Version>
5.8.1

> <Gold.Id.Protein>
6NUR|6NUR_protein|mol2

> <Gold.PLP.Fitness>
45.4386

> <Gold.PLP.PLP>
-34.8402

> <Gold.PLP.part.hbond>
-2.9157

> <Gold.PLP.part.metal>
0.0000

> <Gold.PLP.part.buried>
-0.2907

> <Gold.PLP.part.nonpolar>
-31.3917

> <Gold.PLP.part.repulsive>
0.1669

> <Gold.PLP.ligand.clash>
0.0000

> <Gold.PLP.ligand.torsion>
0.8037

> <Gold.PLP.Chemscore.Hbond>
4.0000

> <Gold.PLP.Chemscore.CHOScore>
0.0000

> <Gold.PLP.Chemscore.Metal>
0.0000

> <Gold.Chemscore.Hbonds>
donor molecule, donor type, donor heavy atom, donor atom, acceptor molecule, acceptor atom, score
      L1  H     8    32       P1  7948  0.98
      L1  H    22    48       P1 10186  2.00
      P1  H  7989  7998       L1    16  0.44

> <Gold.PLP.Chemscore.Internal.Correction>
0.2058

> <Gold.Rescore>
     Score         DG    S(hbond)    S(metal)    S(lipo)     H(rot)  DE(clash)    DE(int)     intcor
     20.73     -22.22       2.80        0.00      96.42       1.52       0.61       0.88       ----

> <Gold.Chemscore.Fitness>
20.7307

> <Gold.Chemscore.DG>
-22.2243

> <Gold.Chemscore.ZeroCoef>
-5.4800

> <Gold.Chemscore.Hbond>
2.8032

> <Gold.Chemscore.Metal>
0.0000

> <Gold.Chemscore.Lipo>
96.4209

> <Gold.Chemscore.Internal_Hbond>
0.0000

> <Gold.Chemscore.DEClash>
0.6088

> <Gold.Chemscore.DEInternal>
0.8847

> <Gold.Chemscore.Rot>
1.5233

> <Gold.Chemscore.Internal.Correction>
   9.000000E+99

> <Gold.Chemscore.Hbonds>
donor molecule, donor type, donor heavy atom, donor atom, acceptor molecule, acceptor atom, score
      L1  H     8    32       P1  7948  0.91
      L1  H    22    48       P1 10186  0.85
      P1  H  7989  7998       L1    16  0.39

> <Gold.Chemscore.Hbond.Weighted>
-9.3626

> <Gold.Chemscore.Metal.Weighted>
-0.0000

> <Gold.Chemscore.Lipo.Weighted>
-11.2812

> <Gold.Chemscore.Internal_Hbond.Weighted>
0.0000

> <Gold.Chemscore.DEClash.Weighted>
0.6088

> <Gold.Chemscore.DEInternal.Weighted>
0.8847

> <Gold.Chemscore.Rot.Weighted>
3.8995

> <Gold.Chemscore.Internal.Correction.Weighted>
   9.000000E+99

> <Gold.Protein.RotatedTorsions>
[ 6907 6896 6895 6894 ] final  135.94 input  -60.11 | X-H torsion
[ 7974 7965 7964 7962 ] final  109.54 input  175.53 | X-H torsion
[ 8008 7997 7996 7995 ] final  150.12 input   59.86 | X-H torsion
[ 10167 10162 10161 10158 ] final  -39.32 input  -65.29 | X-H torsion
[ 10718 10713 10712 10709 ] final -100.05 input   66.30 | X-H torsion
[ 10763 10752 10751 10750 ] final -119.93 input  -60.55 | X-H torsion
[ 11005 11000 10999 10996 ] final   99.36 input  -57.11 | X-H torsion

> <Gold.Protein.ActiveResidues>
 VAL166  LYS551  ARG553  GLY616  TRP617  ASP618  TYR619  PRO620  LYS621  CYS622 
 ASP623  PHE694  ASN695  SER759  ASP760  ASP761  ALA762  ILE779  LEU786  VAL792 
 PHE793  MET794  SER795  GLU796  ALA797  LYS798  CYS799  TRP800  GLU811  SER814 

> <Gold.Protein.RotatedAtoms>
  152.2949  133.5597  159.5580 H   0  0  0  0  0  0  0  0  0  0  0  0  # atno 6907 bound_to 6896
  150.7251  134.0375  159.3763 H   0  0  0  0  0  0  0  0  0  0  0  0  # atno 6908 bound_to 6896
  151.8279  135.0631  160.0484 H   0  0  0  0  0  0  0  0  0  0  0  0  # atno 6909 bound_to 6896
  145.2664  139.2683  143.3989 H   0  0  0  0  0  0  0  0  0  0  0  0  # atno 7974 bound_to 7965
  156.2728  140.2083  156.5966 H   0  0  0  0  0  0  0  0  0  0  0  0  # atno 8008 bound_to 7997
  154.6939  140.0527  157.0415 H   0  0  0  0  0  0  0  0  0  0  0  0  # atno 8009 bound_to 7997
  155.0827  140.3188  155.4599 H   0  0  0  0  0  0  0  0  0  0  0  0  # atno 8010 bound_to 7997
  140.7067  143.3222  151.2766 H   0  0  0  0  0  0  0  0  0  0  0  0  # atno 10167 bound_to 10162
  156.0151  130.5310  150.6760 H   0  0  0  0  0  0  0  0  0  0  0  0  # atno 10718 bound_to 10713
  154.8631  135.4221  154.2378 H   0  0  0  0  0  0  0  0  0  0  0  0  # atno 10763 bound_to 10752
  153.3350  135.6990  153.6921 H   0  0  0  0  0  0  0  0  0  0  0  0  # atno 10764 bound_to 10752
  153.5922  135.3552  155.2888 H   0  0  0  0  0  0  0  0  0  0  0  0  # atno 10765 bound_to 10752
  139.8771  134.9092  156.4594 H   0  0  0  0  0  0  0  0  0  0  0  0  # atno 11005 bound_to 11000
  146.3260  140.3095  142.8626 LP  0  0  0  0  0  0  0  0  0  0  0  0  # atno 17320 bound_to 7965
  144.9373  140.8040  143.5652 LP  0  0  0  0  0  0  0  0  0  0  0  0  # atno 17321 bound_to 7965
  139.6679  144.0073  152.2734 LP  0  0  0  0  0  0  0  0  0  0  0  0  # atno 17342 bound_to 10162
  139.9661  144.6525  150.8033 LP  0  0  0  0  0  0  0  0  0  0  0  0  # atno 17343 bound_to 10162
  157.4472  131.0868  151.0883 LP  0  0  0  0  0  0  0  0  0  0  0  0  # atno 17370 bound_to 10713
  157.1409  130.6143  149.5555 LP  0  0  0  0  0  0  0  0  0  0  0  0  # atno 17371 bound_to 10713
  140.8874  133.7873  155.9534 LP  0  0  0  0  0  0  0  0  0  0  0  0  # atno 17394 bound_to 11000
  140.8789  134.2635  157.5154 LP  0  0  0  0  0  0  0  0  0  0  0  0  # atno 17395 bound_to 11000

$$$$
