AV-unprocessed.smi:243|AV-procd|sdf|1851|dock6
  -GOLD-   2262020473D 1   1.00000     0.00000
 Structure written by MMmdl.
 58 61  0  0  0  0  0  0  0  0  2 V2000
  144.9519  132.2002  152.1854 C   0  0  0  0  0  0  0  0  0  0  0  0
  146.4513  132.3079  151.8718 C   0  0  0  0  0  0  0  0  0  0  0  0
  147.2559  132.6968  153.0576 N   0  3  1  0  0  0  0  0  0  0  0  0
  148.7061  132.4738  152.8487 C   0  0  0  0  0  0  0  0  0  0  0  0
  149.4682  132.7036  154.1569 C   0  0  0  0  0  0  0  0  0  0  0  0
  149.2566  134.1367  154.6929 C   0  0  2  0  0  0  0  0  0  0  0  0
  150.0468  134.4125  155.9061 N   0  0  0  0  0  0  0  0  0  0  0  0
  151.1109  133.4909  156.2886 C   0  0  0  0  0  0  0  0  0  0  0  0
  150.1708  135.6830  156.3694 C   0  0  0  0  0  0  0  0  0  0  0  0
  149.7342  135.9484  157.6268 N   0  0  0  0  0  0  0  0  0  0  0  0
  149.8437  137.1775  158.1379 C   0  0  0  0  0  0  0  0  0  0  0  0
  150.3551  138.2717  157.5730 N   0  0  0  0  0  0  0  0  0  0  0  0
  150.8124  138.0112  156.3153 C   0  0  0  0  0  0  0  0  0  0  0  0
  150.7721  136.7543  155.6458 C   0  0  0  0  0  0  0  0  0  0  0  0
  151.3497  136.8780  154.3876 N   0  0  0  0  0  0  0  0  0  0  0  0
  151.7024  138.1316  154.3146 C   0  0  0  0  0  0  0  0  0  0  0  0
  151.4023  138.8893  155.4231 N   0  0  0  0  0  0  0  0  0  0  0  0
  151.6736  140.3059  155.6090 C   0  0  0  0  0  0  0  0  0  0  0  0
  150.3981  141.1828  155.6970 C   0  0  1  0  0  0  0  0  0  0  0  0
  150.7553  142.5300  155.9428 O   0  0  0  0  0  0  0  0  0  0  0  0
  149.5611  141.1030  154.4311 C   0  0  0  0  0  0  0  0  0  0  0  0
  148.7041  139.8598  154.6645 C   0  0  0  0  0  0  0  0  0  0  0  0
  148.5977  139.7109  156.0779 O   0  0  0  0  0  0  0  0  0  0  0  0
  149.3751  140.7060  156.7350 C   0  0  0  0  0  0  0  0  0  0  0  0
  147.7334  134.4226  154.8334 C   0  0  1  0  0  0  0  0  0  0  0  0
  147.4101  135.8809  155.2033 C   0  0  0  0  0  0  0  0  0  0  0  0
  146.9930  134.0843  153.5182 C   0  0  0  0  0  0  0  0  0  0  0  0
  144.4086  131.8100  151.3245 H   0  0  0  0  0  0  0  0  0  0  0  0
  144.5121  133.1664  152.4304 H   0  0  0  0  0  0  0  0  0  0  0  0
  144.7713  131.5245  153.0221 H   0  0  0  0  0  0  0  0  0  0  0  0
  146.7847  131.3315  151.5175 H   0  0  0  0  0  0  0  0  0  0  0  0
  146.6252  133.0088  151.0540 H   0  0  0  0  0  0  0  0  0  0  0  0
  148.8801  131.4509  152.5120 H   0  0  0  0  0  0  0  0  0  0  0  0
  149.0780  133.1360  152.0649 H   0  0  0  0  0  0  0  0  0  0  0  0
  149.1158  131.9624  154.8732 H   0  0  0  0  0  0  0  0  0  0  0  0
  150.5313  132.5152  154.0026 H   0  0  0  0  0  0  0  0  0  0  0  0
  149.6388  134.8126  153.9265 H   0  0  0  0  0  0  0  0  0  0  0  0
  151.4445  133.6862  157.3088 H   0  0  0  0  0  0  0  0  0  0  0  0
  151.9746  133.5646  155.6304 H   0  0  0  0  0  0  0  0  0  0  0  0
  150.7487  132.4631  156.2539 H   0  0  0  0  0  0  0  0  0  0  0  0
  149.4687  137.3022  159.1431 H   0  0  0  0  0  0  0  0  0  0  0  0
  152.1874  138.5430  153.4411 H   0  0  0  0  0  0  0  0  0  0  0  0
  152.2707  140.4210  156.5144 H   0  0  0  0  0  0  0  0  0  0  0  0
  152.3070  140.6370  154.7852 H   0  0  0  0  0  0  0  0  0  0  0  0
  150.0613  143.0875  155.6258 H   0  0  0  0  0  0  0  0  0  0  0  0
  148.9076  141.9735  154.3508 H   0  0  0  0  0  0  0  0  0  0  0  0
  150.1538  141.0493  153.5172 H   0  0  0  0  0  0  0  0  0  0  0  0
  147.7209  139.9469  154.2017 H   0  0  0  0  0  0  0  0  0  0  0  0
  149.1908  138.9731  154.2569 H   0  0  0  0  0  0  0  0  0  0  0  0
  149.8143  140.3338  157.6593 H   0  0  0  0  0  0  0  0  0  0  0  0
  148.6995  141.5199  157.0041 H   0  0  0  0  0  0  0  0  0  0  0  0
  147.3308  133.7793  155.6176 H   0  0  0  0  0  0  0  0  0  0  0  0
  147.8753  136.5798  154.5075 H   0  0  0  0  0  0  0  0  0  0  0  0
  147.7445  136.1320  156.2056 H   0  0  0  0  0  0  0  0  0  0  0  0
  146.3349  136.0617  155.1837 H   0  0  0  0  0  0  0  0  0  0  0  0
  147.2861  134.7826  152.7323 H   0  0  0  0  0  0  0  0  0  0  0  0
  145.9235  134.2224  153.6731 H   0  0  0  0  0  0  0  0  0  0  0  0
  146.9798  132.0775  153.8064 H   0  0  0  0  0  0  0  0  0  0  0  0
  1  2  1  0  0  0  0
  1 28  1  0  0  0  0
  1 29  1  0  0  0  0
  1 30  1  0  0  0  0
  2  3  1  0  0  0  0
  2 31  1  0  0  0  0
  2 32  1  0  0  0  0
  3 27  1  0  0  0  0
  3  4  1  0  0  0  0
  3 58  1  0  0  0  0
  4  5  1  0  0  0  0
  4 33  1  0  0  0  0
  4 34  1  0  0  0  0
  5  6  1  0  0  0  0
  5 35  1  0  0  0  0
  5 36  1  0  0  0  0
  6  7  1  0  0  0  0
  6 25  1  0  0  0  0
  6 37  1  0  0  0  0
  7  8  1  0  0  0  0
  7  9  1  0  0  0  0
  8 38  1  0  0  0  0
  8 39  1  0  0  0  0
  8 40  1  0  0  0  0
  9 14  1  0  0  0  0
  9 10  2  0  0  0  0
 10 11  1  0  0  0  0
 11 12  2  0  0  0  0
 11 41  1  0  0  0  0
 12 13  1  0  0  0  0
 13 17  1  0  0  0  0
 13 14  2  0  0  0  0
 14 15  1  0  0  0  0
 15 16  2  0  0  0  0
 16 17  1  0  0  0  0
 16 42  1  0  0  0  0
 17 18  1  0  0  0  0
 18 19  1  0  0  0  0
 18 43  1  0  0  0  0
 18 44  1  0  0  0  0
 19 24  1  0  0  0  0
 19 20  1  0  0  0  0
 19 21  1  0  0  0  0
 20 45  1  0  0  0  0
 21 22  1  0  0  0  0
 21 46  1  0  0  0  0
 21 47  1  0  0  0  0
 22 23  1  0  0  0  0
 22 48  1  0  0  0  0
 22 49  1  0  0  0  0
 23 24  1  0  0  0  0
 24 50  1  0  0  0  0
 24 51  1  0  0  0  0
 25 26  1  0  0  0  0
 25 27  1  0  0  0  0
 25 52  1  0  0  0  0
 26 53  1  0  0  0  0
 26 54  1  0  0  0  0
 26 55  1  0  0  0  0
 27 56  1  0  0  0  0
 27 57  1  0  0  0  0
M  CHG  1   3   1
M  END
> <s_m_source_file>
AV-unprocessed.smi

> <i_m_source_file_index>
243

> <i_lp_mmshare_version>
43012

> <i_f3d_flags>
0

> <s_epik_input>
W0NIM11bQ0gyXU4xW0NIMl1bQ0gyXVtDQEhdKFtDQEBIXShbQ0gzXSlbQ0gyXTEpTihbQ0gzXSljKG5bY0hdbjIpYyhjMjMpbltjSF1uM1tDSDJdW0NAQF00KFtPSF0pW0NIMl1bQ0gyXU9bQ0gyXTQ=

> <s_epik_cmdline>
J2VwaWtfcHl0aG9uJywgJy1waCcsICc3LjAnLCAnLXRuJywgJzgnLCAnLW1hJywgJzIwMCcsICctbWV0YWxfYmluZGluZycsICctaW1hZScsICc8aW5maWxlLm1hZT4nLCAnLW9tYWUnLCAnPG91dGZpbGUubWFlPic=

> <r_lp_tautomer_probability>
1

> <r_epik_Ionization_Penalty>
0.00253099

> <r_epik_Ionization_Penalty_Charging>
0.00137877

> <r_epik_Ionization_Penalty_Neutral>
0.00115221

> <r_epik_State_Penalty>
-0

> <r_epik_Charging_Adjusted_Penalty>
0.00137877

> <i_epik_Tot_Q>
1

> <i_epik_Tot_abs_Q>
1

> <r_epik_Metal_State_Penalty>
-0

> <b_epik_Metal_Only>
0

> <s_lp_Force_Field>
OPLS_2005

> <r_lp_Energy>
48.9209

> <b_lp_Chiralities_Consistent>
1

> <s_lp_Variant>
AV-unprocessed.smi:243-4

> <Gold.Version>
5.8.1

> <Gold.Id.Protein>
6NUR|6NUR_protein|mol2

> <Gold.PLP.Fitness>
41.4626

> <Gold.PLP.PLP>
-38.1745

> <Gold.PLP.part.hbond>
-2.0000

> <Gold.PLP.part.metal>
0.0000

> <Gold.PLP.part.buried>
-3.1097

> <Gold.PLP.part.nonpolar>
-32.3983

> <Gold.PLP.part.repulsive>
0.2943

> <Gold.PLP.ligand.clash>
0.0000

> <Gold.PLP.ligand.torsion>
1.7293

> <Gold.PLP.Chemscore.Hbond>
1.9913

> <Gold.PLP.Chemscore.CHOScore>
0.0000

> <Gold.PLP.Chemscore.Metal>
0.0000

> <Gold.Chemscore.Hbonds>
donor molecule, donor type, donor heavy atom, donor atom, acceptor molecule, acceptor atom, score
      L1  H    20    45       P1  8028  1.00
      P1  H 10752 10763       L1    15  1.00

> <Gold.PLP.Chemscore.Internal.Correction>
0.7728

> <Gold.Rescore>
     Score         DG    S(hbond)    S(metal)    S(lipo)     H(rot)  DE(clash)    DE(int)     intcor
      5.39     -14.50       1.71        0.00      77.26       2.24       0.11       9.00       ----

> <Gold.Chemscore.Fitness>
5.3886

> <Gold.Chemscore.DG>
-14.4958

> <Gold.Chemscore.ZeroCoef>
-5.4800

> <Gold.Chemscore.Hbond>
1.7083

> <Gold.Chemscore.Metal>
0.0000

> <Gold.Chemscore.Lipo>
77.2582

> <Gold.Chemscore.Internal_Hbond>
0.0000

> <Gold.Chemscore.DEClash>
0.1117

> <Gold.Chemscore.DEInternal>
8.9955

> <Gold.Chemscore.Rot>
2.2379

> <Gold.Chemscore.Internal.Correction>
   9.000000E+99

> <Gold.Chemscore.Hbonds>
donor molecule, donor type, donor heavy atom, donor atom, acceptor molecule, acceptor atom, score
      L1  H    20    45       P1  8028  0.93
      P1  H 10752 10763       L1    15  0.52

> <Gold.Chemscore.Hbond.Weighted>
-5.7057

> <Gold.Chemscore.Metal.Weighted>
-0.0000

> <Gold.Chemscore.Lipo.Weighted>
-9.0392

> <Gold.Chemscore.Internal_Hbond.Weighted>
0.0000

> <Gold.Chemscore.DEClash.Weighted>
0.1117

> <Gold.Chemscore.DEInternal.Weighted>
8.9955

> <Gold.Chemscore.Rot.Weighted>
5.7291

> <Gold.Chemscore.Internal.Correction.Weighted>
   9.000000E+99

> <Gold.Protein.RotatedTorsions>
[ 6907 6896 6895 6894 ] final   18.92 input  -60.11 | X-H torsion
[ 7974 7965 7964 7962 ] final  -35.96 input  175.53 | X-H torsion
[ 8008 7997 7996 7995 ] final  -69.00 input   59.86 | X-H torsion
[ 10167 10162 10161 10158 ] final  -77.48 input  -65.29 | X-H torsion
[ 10718 10713 10712 10709 ] final -100.61 input   66.30 | X-H torsion
[ 10763 10752 10751 10750 ] final   42.47 input  -60.55 | X-H torsion
[ 11005 11000 10999 10996 ] final   28.01 input  -57.11 | X-H torsion

> <Gold.Protein.ActiveResidues>
 VAL166  LYS551  ARG553  GLY616  TRP617  ASP618  TYR619  PRO620  LYS621  CYS622 
 ASP623  PHE694  ASN695  SER759  ASP760  ASP761  ALA762  ILE779  LEU786  VAL792 
 PHE793  MET794  SER795  GLU796  ALA797  LYS798  CYS799  TRP800  GLU811  SER814 

> <Gold.Protein.RotatedAtoms>
  151.8728  135.0483  160.0480 H   0  0  0  0  0  0  0  0  0  0  0  0  # atno 6907 bound_to 6896
  152.2575  133.5264  159.5370 H   0  0  0  0  0  0  0  0  0  0  0  0  # atno 6908 bound_to 6896
  150.7105  134.0792  159.3934 H   0  0  0  0  0  0  0  0  0  0  0  0  # atno 6909 bound_to 6896
  146.0702  140.6221  142.8956 H   0  0  0  0  0  0  0  0  0  0  0  0  # atno 7974 bound_to 7965
  154.4907  140.0862  156.7588 H   0  0  0  0  0  0  0  0  0  0  0  0  # atno 8008 bound_to 7997
  155.4237  140.3447  155.4255 H   0  0  0  0  0  0  0  0  0  0  0  0  # atno 8009 bound_to 7997
  156.1326  140.1506  156.9030 H   0  0  0  0  0  0  0  0  0  0  0  0  # atno 8010 bound_to 7997
  140.4767  143.2412  151.8122 H   0  0  0  0  0  0  0  0  0  0  0  0  # atno 10167 bound_to 10162
  156.0168  130.5335  150.6842 H   0  0  0  0  0  0  0  0  0  0  0  0  # atno 10718 bound_to 10713
  152.9882  135.6131  154.2954 H   0  0  0  0  0  0  0  0  0  0  0  0  # atno 10763 bound_to 10752
  154.2677  135.2780  155.2753 H   0  0  0  0  0  0  0  0  0  0  0  0  # atno 10764 bound_to 10752
  154.5150  135.5830  153.6692 H   0  0  0  0  0  0  0  0  0  0  0  0  # atno 10765 bound_to 10752
  140.3202  134.2552  155.7718 H   0  0  0  0  0  0  0  0  0  0  0  0  # atno 11005 bound_to 11000
  144.7227  140.4426  143.6996 LP  0  0  0  0  0  0  0  0  0  0  0  0  # atno 17320 bound_to 7965
  145.6404  139.1549  143.2919 LP  0  0  0  0  0  0  0  0  0  0  0  0  # atno 17321 bound_to 7965
  139.4826  144.4825  151.9289 LP  0  0  0  0  0  0  0  0  0  0  0  0  # atno 17342 bound_to 10162
  140.3910  144.2616  150.5900 LP  0  0  0  0  0  0  0  0  0  0  0  0  # atno 17343 bound_to 10162
  157.4538  131.0875  151.0818 LP  0  0  0  0  0  0  0  0  0  0  0  0  # atno 17370 bound_to 10713
  157.1326  130.6109  149.5533 LP  0  0  0  0  0  0  0  0  0  0  0  0  # atno 17371 bound_to 10713
  141.2088  133.7766  157.0034 LP  0  0  0  0  0  0  0  0  0  0  0  0  # atno 17394 bound_to 11000
  140.0949  134.9570  157.1833 LP  0  0  0  0  0  0  0  0  0  0  0  0  # atno 17395 bound_to 11000

$$$$
