#       Name:                AV-unprocessed.smi:1295
#       Creating user name   scv26
#       Creation time:       Fri Mar 27 04:56:17 2020


#       File generated by GOLD software.
#

@<TRIPOS>MOLECULE
AV-unprocessed.smi:1295
    48    49     1
SMALL
NO_CHARGES


@<TRIPOS>ATOM
      1 ****        -6.4637  -1.2627   0.7212 C.3            1 S1                 0.0000
      2 ****        -4.9567  -1.1320   0.7783 C.2            1 S1                 0.0000
      3 ****        -4.3396  -0.0401   1.0900 N.2            1 S1                 0.0000
      4 ****        -2.9379  -0.0394   1.1057 C.2            1 S1                 0.0000
      5 ****        -2.2867   1.2829   1.4746 C.3            1 S1                 0.0000
      6 ****        -2.2182  -1.1601   0.8046 C.2            1 S1                 0.0000
      7 ****        -0.6911  -1.1873   0.8064 C.3            1 S1                 0.0000
      8 ****        -0.0210  -0.6105  -0.4427 C.2            1 S1                 0.0000
      9 ****        -0.4943  -0.8325  -1.5570 O.2            1 S1                 0.0000
     10 ****         1.0771   0.1324  -0.2354 N.am           1 S1                 0.0000
     11 ****         1.8678   0.8150  -1.2612 C.3            1 S1                 0.0000
     12 ****         2.0472   2.2979  -0.8783 C.3            1 S1                 0.0000
     13 ****         2.9745   2.4767   0.3367 C.3            1 S1                 0.0000
     14 ****         4.3324   1.7970   0.1046 C.3            1 S1                 0.0000
     15 ****         4.1628   0.3129  -0.2591 C.3            1 S1                 0.0000
     16 ****         3.2402   0.1296  -1.4821 C.3            1 S1                 0.0000
     17 ****         3.1168  -1.3504  -1.8827 C.3            1 S1                 0.0000
     18 ****        -2.9334  -2.4023   0.4532 C.2            1 S1                 0.0000
     19 ****        -2.3864  -3.4653   0.1642 O.2            1 S1                 0.0000
     20 ****        -4.2820  -2.3095   0.4606 N.am           1 S1                 0.0000
     21 ****        -4.8169  -3.1321   0.2230 H              1 S1                 0.0000
     22 ****        -6.8732  -0.5636  -0.0082 H              1 S1                 0.0000
     23 ****        -6.8968  -1.0354   1.6954 H              1 S1                 0.0000
     24 ****        -6.7706  -2.2706   0.4377 H              1 S1                 0.0000
     25 ****        -1.7117   1.1833   2.3955 H              1 S1                 0.0000
     26 ****        -3.0339   2.0621   1.6305 H              1 S1                 0.0000
     27 ****        -1.6182   1.6187   0.6817 H              1 S1                 0.0000
     28 ****        -0.3399  -0.6426   1.6836 H              1 S1                 0.0000
     29 ****        -0.3235  -2.2040   0.9479 H              1 S1                 0.0000
     30 ****         1.3866   0.2497   0.7184 H              1 S1                 0.0000
     31 ****         1.3250   0.7923  -2.2079 H              1 S1                 0.0000
     32 ****         2.4675   2.8373  -1.7282 H              1 S1                 0.0000
     33 ****         1.0777   2.7565  -0.6797 H              1 S1                 0.0000
     34 ****         3.1208   3.5383   0.5375 H              1 S1                 0.0000
     35 ****         2.5031   2.0588   1.2271 H              1 S1                 0.0000
     36 ****         4.8644   2.3098  -0.6976 H              1 S1                 0.0000
     37 ****         4.9526   1.8925   0.9962 H              1 S1                 0.0000
     38 ****         5.1413  -0.1232  -0.4630 H              1 S1                 0.0000
     39 ****         3.7590  -0.2292   0.5969 H              1 S1                 0.0000
     40 ****         3.7163   0.6387  -2.3215 H              1 S1                 0.0000
     41 ****         2.7050  -1.9557  -1.0748 H              1 S1                 0.0000
     42 ****         4.0905  -1.7669  -2.1410 H              1 S1                 0.0000
     43 ****         2.4678  -1.4677  -2.7509 H              1 S1                 0.0000
     44 ****        -4.8522   0.7884   1.3156 LP             1 S1                 0.0000
     45 ****        -1.3188  -1.3910  -1.6478 LP             1 S1                 0.0000
     46 ****        -0.0544  -0.4543  -2.3715 LP             1 S1                 0.0000
     47 ****        -1.3884  -3.5282   0.1568 LP             1 S1                 0.0000
     48 ****        -2.9397  -4.2666  -0.0634 LP             1 S1                 0.0000
@<TRIPOS>BOND
    1    1    2 1     
    2    1   22 1     
    3    1   23 1     
    4    1   24 1     
    5    2   20 1     
    6    2    3 2     
    7    3    4 1     
    8    4    5 1     
    9    4    6 2     
   10    5   25 1     
   11    5   26 1     
   12    5   27 1     
   13    6    7 1     
   14    6   18 1     
   15    7    8 1     
   16    7   28 1     
   17    7   29 1     
   18    8    9 2     
   19    8   10 am    
   20   10   11 1     
   21   10   30 1     
   22   11   16 1     
   23   11   12 1     
   24   11   31 1     
   25   12   13 1     
   26   12   32 1     
   27   12   33 1     
   28   13   14 1     
   29   13   34 1     
   30   13   35 1     
   31   14   15 1     
   32   14   36 1     
   33   14   37 1     
   34   15   16 1     
   35   15   38 1     
   36   15   39 1     
   37   16   17 1     
   38   16   40 1     
   39   17   41 1     
   40   17   42 1     
   41   17   43 1     
   42   18   19 2     
   43   18   20 am    
   44   20   21 1     
   45    3   44 1     
   46    9   45 1     
   47    9   46 1     
   48   19   47 1     
   49   19   48 1     
@<TRIPOS>SUBSTRUCTURE
      1 S1             1
@<TRIPOS>SET
LONE_PAIRS      STATIC     ATOMS    <user>   **** ""
5 44 45 46 47 48
DONOR_HYDROGENS      STATIC     ATOMS    <user>   **** ""
2 30 21
ATOM$BLUE        STATIC     ATOMS    COLORGROUP SYSTEM
5 44 45 46 47 48
ATOM$RED        STATIC     ATOMS    COLORGROUP SYSTEM
2 30 21
