AV-unprocessed.smi:283|AV-procd|sdf|2128|dock5
  -GOLD-   2262021433D 1   1.00000     0.00000
 Structure written by MMmdl.
 48 51  0  0  0  0  0  0  0  0  1 V2000
  147.5595  142.2057  154.1237 C   0  0  0  0  0  0  0  0  0  0  0  0
  147.7296  140.7116  154.4292 C   0  0  1  0  0  0  0  0  0  0  0  0
  147.3603  139.9249  153.2545 N   0  0  0  0  0  0  0  0  0  0  0  0
  146.4454  138.9328  153.3283 C   0  0  0  0  0  0  0  0  0  0  0  0
  145.7714  138.8520  154.4992 N   0  0  0  0  0  0  0  0  0  0  0  0
  144.8334  137.9179  154.6677 C   0  0  0  0  0  0  0  0  0  0  0  0
  144.4241  136.9858  153.8074 N   0  0  0  0  0  0  0  0  0  0  0  0
  145.0982  137.0498  152.6224 C   0  0  0  0  0  0  0  0  0  0  0  0
  146.1300  137.9839  152.3105 C   0  0  0  0  0  0  0  0  0  0  0  0
  146.6094  137.7285  151.0325 N   0  0  0  0  0  0  0  0  0  0  0  0
  145.8911  136.7261  150.6123 C   0  0  0  0  0  0  0  0  0  0  0  0
  144.9414  136.2616  151.4942 N   0  0  0  0  0  0  0  0  0  0  0  0
  143.9817  135.1269  151.2476 C   0  0  1  0  0  0  0  0  0  0  0  0
  144.0515  134.7243  149.9122 O   0  0  0  0  0  0  0  0  0  0  0  0
  144.7346  133.4737  149.7880 C   0  0  2  0  0  0  0  0  0  0  0  0
  143.8047  132.4707  149.0786 C   0  0  0  0  0  0  0  0  0  0  0  0
  142.5416  132.3723  149.7050 O   0  0  0  0  0  0  0  0  0  0  0  0
  145.2024  133.0624  151.1948 C   0  0  1  0  0  0  0  0  0  0  0  0
  146.5746  133.3778  151.3526 O   0  0  0  0  0  0  0  0  0  0  0  0
  144.3057  133.8914  152.1063 C   0  0  1  0  0  0  0  0  0  0  0  0
  144.8804  134.1542  153.3756 O   0  0  0  0  0  0  0  0  0  0  0  0
  149.1345  140.4366  154.9744 C   0  0  0  0  0  0  0  0  0  0  0  0
  150.0567  139.6849  154.2088 C   0  0  0  0  0  0  0  0  0  0  0  0
  151.3490  139.4186  154.6986 C   0  0  0  0  0  0  0  0  0  0  0  0
  151.7377  139.9091  155.9579 C   0  0  0  0  0  0  0  0  0  0  0  0
  150.8349  140.6710  156.7219 C   0  0  0  0  0  0  0  0  0  0  0  0
  149.5398  140.9409  156.2362 C   0  0  0  0  0  0  0  0  0  0  0  0
  148.4783  141.8946  157.2131 Cl  0  0  0  0  0  0  0  0  0  0  0  0
  143.0067  135.5625  151.4691 H   0  0  0  0  0  0  0  0  0  0  0  0
  145.5926  133.6239  149.1314 H   0  0  0  0  0  0  0  0  0  0  0  0
  145.0868  131.9940  151.3804 H   0  0  0  0  0  0  0  0  0  0  0  0
  143.3677  133.3569  152.2596 H   0  0  0  0  0  0  0  0  0  0  0  0
  147.7415  142.8114  155.0120 H   0  0  0  0  0  0  0  0  0  0  0  0
  146.5480  142.4239  153.7801 H   0  0  0  0  0  0  0  0  0  0  0  0
  148.2535  142.5344  153.3491 H   0  0  0  0  0  0  0  0  0  0  0  0
  146.9981  140.4629  155.1963 H   0  0  0  0  0  0  0  0  0  0  0  0
  148.0059  139.9945  152.4815 H   0  0  0  0  0  0  0  0  0  0  0  0
  144.3361  137.9197  155.6262 H   0  0  0  0  0  0  0  0  0  0  0  0
  146.0288  136.2988  149.6298 H   0  0  0  0  0  0  0  0  0  0  0  0
  143.6729  132.7446  148.0315 H   0  0  0  0  0  0  0  0  0  0  0  0
  144.2585  131.4794  149.0924 H   0  0  0  0  0  0  0  0  0  0  0  0
  142.1767  133.2410  149.7809 H   0  0  0  0  0  0  0  0  0  0  0  0
  146.9690  132.7178  151.9023 H   0  0  0  0  0  0  0  0  0  0  0  0
  144.2389  133.9603  154.0414 H   0  0  0  0  0  0  0  0  0  0  0  0
  149.7766  139.3018  153.2386 H   0  0  0  0  0  0  0  0  0  0  0  0
  152.0421  138.8387  154.1072 H   0  0  0  0  0  0  0  0  0  0  0  0
  152.7289  139.7057  156.3358 H   0  0  0  0  0  0  0  0  0  0  0  0
  151.1392  141.0520  157.6856 H   0  0  0  0  0  0  0  0  0  0  0  0
  1  2  1  0  0  0  0
  1 33  1  0  0  0  0
  1 34  1  0  0  0  0
  1 35  1  0  0  0  0
  2  3  1  0  0  0  0
  2 22  1  0  0  0  0
  2 36  1  0  0  0  0
  3  4  1  0  0  0  0
  3 37  1  0  0  0  0
  4  9  1  0  0  0  0
  4  5  2  0  0  0  0
  5  6  1  0  0  0  0
  6  7  2  0  0  0  0
  6 38  1  0  0  0  0
  7  8  1  0  0  0  0
  8 12  1  0  0  0  0
  8  9  2  0  0  0  0
  9 10  1  0  0  0  0
 10 11  2  0  0  0  0
 11 12  1  0  0  0  0
 11 39  1  0  0  0  0
 12 13  1  0  0  0  0
 13 29  1  0  0  0  0
 13 20  1  0  0  0  0
 13 14  1  0  0  0  0
 14 15  1  0  0  0  0
 15 30  1  0  0  0  0
 15 16  1  0  0  0  0
 15 18  1  0  0  0  0
 16 17  1  0  0  0  0
 16 40  1  0  0  0  0
 16 41  1  0  0  0  0
 17 42  1  0  0  0  0
 18 31  1  0  0  0  0
 18 19  1  0  0  0  0
 18 20  1  0  0  0  0
 19 43  1  0  0  0  0
 20 32  1  0  0  0  0
 20 21  1  0  0  0  0
 21 44  1  0  0  0  0
 22 27  1  0  0  0  0
 22 23  2  0  0  0  0
 23 24  1  0  0  0  0
 23 45  1  0  0  0  0
 24 25  2  0  0  0  0
 24 46  1  0  0  0  0
 25 26  1  0  0  0  0
 25 47  1  0  0  0  0
 26 27  2  0  0  0  0
 26 48  1  0  0  0  0
 27 28  1  0  0  0  0
M  END
> <s_m_source_file>
AV-unprocessed.smi

> <i_m_source_file_index>
283

> <i_lp_mmshare_version>
43012

> <i_f3d_flags>
0

> <s_epik_input>
Q2xjMVtjSF1bY0hdW2NIXVtjSF1jMVtDQEhdKFtDSDNdKVtOSF1jKG5bY0hdbjIpYyhjMjMpbltjSF1uM1tDQEBIXTRPW0NASF0oW0NIMl1bT0hdKVtDQEBIXShbT0hdKVtDQEhdNFtPSF0=

> <s_epik_cmdline>
J2VwaWtfcHl0aG9uJywgJy1waCcsICc3LjAnLCAnLXRuJywgJzgnLCAnLW1hJywgJzIwMCcsICctbWV0YWxfYmluZGluZycsICctaW1hZScsICc8aW5maWxlLm1hZT4nLCAnLW9tYWUnLCAnPG91dGZpbGUubWFlPic=

> <r_lp_tautomer_probability>
1

> <r_epik_Ionization_Penalty>
0.000266407

> <r_epik_Ionization_Penalty_Charging>
0

> <r_epik_Ionization_Penalty_Neutral>
0.000266407

> <r_epik_State_Penalty>
-0

> <r_epik_Charging_Adjusted_Penalty>
0

> <i_epik_Tot_Q>
0

> <i_epik_Tot_abs_Q>
0

> <r_epik_Metal_State_Penalty>
-0

> <b_epik_Metal_Only>
0

> <s_epik_Chemistry_Notes>
This compound contains an acetal/aminal-like group ( X-CH(R)-Y where X, Y are N, S, or O) that may be acid/base labile, releasing an aldehyde.

> <s_lp_Force_Field>
OPLS_2005

> <r_lp_Energy>
53.7739

> <b_lp_Chiralities_Consistent>
1

> <s_lp_Variant>
AV-unprocessed.smi:283-4

> <Gold.Version>
5.8.1

> <Gold.Id.Protein>
6NUR|6NUR_protein|mol2

> <Gold.PLP.Fitness>
52.0139

> <Gold.PLP.PLP>
-40.5159

> <Gold.PLP.part.hbond>
-4.0000

> <Gold.PLP.part.metal>
0.0000

> <Gold.PLP.part.buried>
-1.0695

> <Gold.PLP.part.nonpolar>
-39.3293

> <Gold.PLP.part.repulsive>
4.1515

> <Gold.PLP.ligand.clash>
0.0026

> <Gold.PLP.ligand.torsion>
0.4423

> <Gold.PLP.Chemscore.Hbond>
3.0000

> <Gold.PLP.Chemscore.CHOScore>
1.0000

> <Gold.PLP.Chemscore.Metal>
0.0000

> <Gold.Chemscore.Hbonds>
donor molecule, donor type, donor heavy atom, donor atom, acceptor molecule, acceptor atom, score
      L1  H     3    37       P1  7957  0.93
      L1  H    17    42       P1 10186  1.00
      P1  H  7954  7966       L1    10  1.00
      L1  C    11    39       P1  7921  1.00

> <Gold.PLP.Chemscore.Internal.Correction>
0.3851

> <Gold.Rescore>
     Score         DG    S(hbond)    S(metal)    S(lipo)     H(rot)  DE(clash)    DE(int)     intcor
     12.12     -15.72       2.91        0.00      94.09       4.10       2.66       0.94       ----

> <Gold.Chemscore.Fitness>
12.1211

> <Gold.Chemscore.DG>
-15.7200

> <Gold.Chemscore.ZeroCoef>
-5.4800

> <Gold.Chemscore.Hbond>
2.9101

> <Gold.Chemscore.Metal>
0.0000

> <Gold.Chemscore.Lipo>
94.0867

> <Gold.Chemscore.Internal_Hbond>
0.0000

> <Gold.Chemscore.DEClash>
2.6559

> <Gold.Chemscore.DEInternal>
0.9430

> <Gold.Chemscore.Rot>
4.0968

> <Gold.Chemscore.Internal.Correction>
   9.000000E+99

> <Gold.Chemscore.Hbonds>
donor molecule, donor type, donor heavy atom, donor atom, acceptor molecule, acceptor atom, score
      L1  H     3    37       P1  7957  0.89
      L1  H    17    42       P1 10186  0.97
      P1  H  7954  7966       L1    10  0.65

> <Gold.Chemscore.Hbond.Weighted>
-9.7198

> <Gold.Chemscore.Metal.Weighted>
-0.0000

> <Gold.Chemscore.Lipo.Weighted>
-11.0081

> <Gold.Chemscore.Internal_Hbond.Weighted>
0.0000

> <Gold.Chemscore.DEClash.Weighted>
2.6559

> <Gold.Chemscore.DEInternal.Weighted>
0.9430

> <Gold.Chemscore.Rot.Weighted>
10.4879

> <Gold.Chemscore.Internal.Correction.Weighted>
   9.000000E+99

> <Gold.Protein.RotatedTorsions>
[ 6907 6896 6895 6894 ] final  140.56 input  -60.11 | X-H torsion
[ 7974 7965 7964 7962 ] final   70.87 input  175.53 | X-H torsion
[ 8008 7997 7996 7995 ] final  -25.16 input   59.86 | X-H torsion
[ 10167 10162 10161 10158 ] final    3.52 input  -65.29 | X-H torsion
[ 10718 10713 10712 10709 ] final  167.98 input   66.30 | X-H torsion
[ 10763 10752 10751 10750 ] final   55.63 input  -60.55 | X-H torsion
[ 11005 11000 10999 10996 ] final  -65.15 input  -57.11 | X-H torsion

> <Gold.Protein.ActiveResidues>
 VAL166  LYS551  ARG553  GLY616  TRP617  ASP618  TYR619  PRO620  LYS621  CYS622 
 ASP623  PHE694  ASN695  SER759  ASP760  ASP761  ALA762  ILE779  LEU786  VAL792 
 PHE793  MET794  SER795  GLU796  ALA797  LYS798  CYS799  TRP800  GLU811  SER814 

> <Gold.Protein.RotatedAtoms>
  152.2416  133.5140  159.5272 H   0  0  0  0  0  0  0  0  0  0  0  0  # atno 6907 bound_to 6896
  150.7066  134.1082  159.3999 H   0  0  0  0  0  0  0  0  0  0  0  0  # atno 6908 bound_to 6896
  151.9002  135.0381  160.0556 H   0  0  0  0  0  0  0  0  0  0  0  0  # atno 6909 bound_to 6896
  145.7728  139.2851  143.1311 H   0  0  0  0  0  0  0  0  0  0  0  0  # atno 7974 bound_to 7965
  154.4490  140.1934  156.0576 H   0  0  0  0  0  0  0  0  0  0  0  0  # atno 8008 bound_to 7997
  156.0607  140.3297  155.7431 H   0  0  0  0  0  0  0  0  0  0  0  0  # atno 8009 bound_to 7997
  155.5416  140.0587  157.2859 H   0  0  0  0  0  0  0  0  0  0  0  0  # atno 8010 bound_to 7997
  140.6582  143.7373  150.7690 H   0  0  0  0  0  0  0  0  0  0  0  0  # atno 10167 bound_to 10162
  157.0437  131.0294  151.2704 H   0  0  0  0  0  0  0  0  0  0  0  0  # atno 10718 bound_to 10713
  152.9819  135.5704  154.5098 H   0  0  0  0  0  0  0  0  0  0  0  0  # atno 10763 bound_to 10752
  154.4604  135.2781  155.1719 H   0  0  0  0  0  0  0  0  0  0  0  0  # atno 10764 bound_to 10752
  154.3309  135.6249  153.5604 H   0  0  0  0  0  0  0  0  0  0  0  0  # atno 10765 bound_to 10752
  141.1446  133.6677  156.5942 H   0  0  0  0  0  0  0  0  0  0  0  0  # atno 11005 bound_to 11000
  146.0153  140.8398  142.9950 LP  0  0  0  0  0  0  0  0  0  0  0  0  # atno 17320 bound_to 7965
  144.6810  140.2549  143.7327 LP  0  0  0  0  0  0  0  0  0  0  0  0  # atno 17321 bound_to 7965
  140.1037  143.4764  152.2410 LP  0  0  0  0  0  0  0  0  0  0  0  0  # atno 17342 bound_to 10162
  139.5809  144.7510  151.3643 LP  0  0  0  0  0  0  0  0  0  0  0  0  # atno 17343 bound_to 10162
  157.5084  130.7923  149.7679 LP  0  0  0  0  0  0  0  0  0  0  0  0  # atno 17370 bound_to 10713
  156.0030  130.3870  150.2535 LP  0  0  0  0  0  0  0  0  0  0  0  0  # atno 17371 bound_to 10713
  140.3739  134.7582  157.4617 LP  0  0  0  0  0  0  0  0  0  0  0  0  # atno 17394 bound_to 11000
  140.0689  134.5890  155.8664 LP  0  0  0  0  0  0  0  0  0  0  0  0  # atno 17395 bound_to 11000

$$$$
