AV-unprocessed.smi:2212|AV-procd|sdf|8952|dock8
  -GOLD-   2272012163D 1   1.00000     0.00000
 Structure written by MMmdl.
 32 33  0  0  0  0  0  0  0  0  2 V2000
  151.5934  141.2177  159.1778 C   0  0  0  0  0  0  0  0  0  0  0  0
  150.9547  142.4844  159.2804 O   0  0  0  0  0  0  0  0  0  0  0  0
  151.6336  143.5984  158.6901 C   0  0  0  0  0  0  0  0  0  0  0  0
  151.9291  143.3671  157.2004 C   0  0  0  0  0  0  0  0  0  0  0  0
  150.7069  143.1284  156.4384 N   0  0  0  0  0  0  0  0  0  0  0  0
  150.3675  141.9681  155.8585 C   0  0  0  0  0  0  0  0  0  0  0  0
  151.0454  140.9428  155.9355 O   0  0  0  0  0  0  0  0  0  0  0  0
  149.2069  142.0725  155.1899 N   0  0  0  0  0  0  0  0  0  0  0  0
  148.5598  141.0600  154.4369 C   0  0  0  0  0  0  0  0  0  0  0  0
  147.4591  141.1898  153.6924 N   0  3  0  0  0  0  0  0  0  0  0  0
  147.1571  139.9759  153.1290 C   0  0  0  0  0  0  0  0  0  0  0  0
  148.1281  139.1101  153.5704 C   0  0  0  0  0  0  0  0  0  0  0  0
  149.0151  139.7771  154.3926 O   0  0  0  0  0  0  0  0  0  0  0  0
  150.8550  144.8647  159.0959 C   0  0  0  0  0  0  0  0  0  0  0  0
  151.7283  144.9695  160.3468 C   0  0  0  0  0  0  0  0  0  0  0  0
  152.7597  144.1099  159.6137 C   0  0  0  0  0  0  0  0  0  0  0  0
  151.0489  140.4950  159.7853 H   0  0  0  0  0  0  0  0  0  0  0  0
  152.6219  141.2403  159.5359 H   0  0  0  0  0  0  0  0  0  0  0  0
  151.5886  140.8462  158.1533 H   0  0  0  0  0  0  0  0  0  0  0  0
  152.4707  144.2178  156.7833 H   0  0  0  0  0  0  0  0  0  0  0  0
  152.5922  142.5136  157.0619 H   0  0  0  0  0  0  0  0  0  0  0  0
  150.0913  143.9201  156.3214 H   0  0  0  0  0  0  0  0  0  0  0  0
  146.9112  142.0289  153.5453 H   0  0  0  0  0  0  0  0  0  0  0  0
  146.2989  139.8522  152.4841 H   0  0  0  0  0  0  0  0  0  0  0  0
  148.3209  138.0597  153.4065 H   0  0  0  0  0  0  0  0  0  0  0  0
  151.0159  145.6992  158.4117 H   0  0  0  0  0  0  0  0  0  0  0  0
  149.7930  144.7110  159.2905 H   0  0  0  0  0  0  0  0  0  0  0  0
  152.0622  145.9788  160.5883 H   0  0  0  0  0  0  0  0  0  0  0  0
  151.2938  144.4659  161.2119 H   0  0  0  0  0  0  0  0  0  0  0  0
  153.2455  143.3642  160.2419 H   0  0  0  0  0  0  0  0  0  0  0  0
  153.4966  144.7134  159.0812 H   0  0  0  0  0  0  0  0  0  0  0  0
  148.7438  142.9691  155.2129 H   0  0  0  0  0  0  0  0  0  0  0  0
  1  2  1  0  0  0  0
  1 17  1  0  0  0  0
  1 18  1  0  0  0  0
  1 19  1  0  0  0  0
  2  3  1  0  0  0  0
  3 16  1  0  0  0  0
  3  4  1  0  0  0  0
  3 14  1  0  0  0  0
  4  5  1  0  0  0  0
  4 20  1  0  0  0  0
  4 21  1  0  0  0  0
  5 22  1  0  0  0  0
  5  6  1  0  0  0  0
  6  8  1  0  0  0  0
  6  7  2  0  0  0  0
  8  9  1  0  0  0  0
  8 32  1  0  0  0  0
  9 13  1  0  0  0  0
  9 10  2  0  0  0  0
 10 23  1  0  0  0  0
 10 11  1  0  0  0  0
 11 24  1  0  0  0  0
 11 12  2  0  0  0  0
 12 25  1  0  0  0  0
 12 13  1  0  0  0  0
 14 15  1  0  0  0  0
 14 26  1  0  0  0  0
 14 27  1  0  0  0  0
 15 16  1  0  0  0  0
 15 28  1  0  0  0  0
 15 29  1  0  0  0  0
 16 30  1  0  0  0  0
 16 31  1  0  0  0  0
M  CHG  1  10   1
M  END
> <s_m_source_file>
AV-unprocessed.smi

> <i_m_source_file_index>
2212

> <i_lp_mmshare_version>
43012

> <i_f3d_flags>
0

> <s_epik_input>
W0NIMl0xW0NIMl1bQ0gyXUMxKE9bQ0gzXSlbQ0gyXVtOSF1DKD1PKVtOSF1jMm5bY0hdW2NIXW8y

> <s_epik_cmdline>
J2VwaWtfcHl0aG9uJywgJy1waCcsICc3LjAnLCAnLXRuJywgJzgnLCAnLW1hJywgJzIwMCcsICctbWV0YWxfYmluZGluZycsICctaW1hZScsICc8aW5maWxlLm1hZT4nLCAnLW9tYWUnLCAnPG91dGZpbGUubWFlPic=

> <r_epik_Ionization_Penalty>
6.73843

> <r_epik_Ionization_Penalty_Charging>
6.66704

> <r_epik_Ionization_Penalty_Neutral>
0.0713889

> <r_epik_State_Penalty>
1.94951

> <r_epik_Charging_Adjusted_Penalty>
8.61656

> <i_epik_Tot_Q>
1

> <i_epik_Tot_abs_Q>
1

> <r_epik_Metal_State_Penalty>
1.97013

> <b_epik_Metal_Only>
0

> <s_lp_Force_Field>
OPLS_2005

> <r_lp_Energy>
24.3681

> <b_lp_Chiralities_Consistent>
1

> <s_lp_Variant>
AV-unprocessed.smi:2212-2

> <Gold.Version>
5.8.1

> <Gold.Id.Protein>
6NUR|6NUR_protein|mol2

> <Gold.PLP.Fitness>
38.9664

> <Gold.PLP.PLP>
-30.1903

> <Gold.PLP.part.hbond>
-2.5099

> <Gold.PLP.part.metal>
0.0000

> <Gold.PLP.part.buried>
-5.0672

> <Gold.PLP.part.nonpolar>
-22.1189

> <Gold.PLP.part.repulsive>
0.5249

> <Gold.PLP.ligand.clash>
0.0000

> <Gold.PLP.ligand.torsion>
0.1830

> <Gold.PLP.Chemscore.Hbond>
1.9600

> <Gold.PLP.Chemscore.CHOScore>
0.9965

> <Gold.PLP.Chemscore.Metal>
0.0000

> <Gold.Chemscore.Hbonds>
donor molecule, donor type, donor heavy atom, donor atom, acceptor molecule, acceptor atom, score
      L1  H     5    22       P1  8028  1.00
      L1  H     8    32       P1  8028  0.94
      L1  C    12    25       P1  7948  1.00

> <Gold.PLP.Chemscore.Internal.Correction>
0.2728

> <Gold.Rescore>
     Score         DG    S(hbond)    S(metal)    S(lipo)     H(rot)  DE(clash)    DE(int)     intcor
     14.09     -17.11       1.93        0.00      80.64       1.67       1.47       1.55       ----

> <Gold.Chemscore.Fitness>
14.0924

> <Gold.Chemscore.DG>
-17.1120

> <Gold.Chemscore.ZeroCoef>
-5.4800

> <Gold.Chemscore.Hbond>
1.9339

> <Gold.Chemscore.Metal>
0.0000

> <Gold.Chemscore.Lipo>
80.6424

> <Gold.Chemscore.Internal_Hbond>
0.0000

> <Gold.Chemscore.DEClash>
1.4688

> <Gold.Chemscore.DEInternal>
1.5508

> <Gold.Chemscore.Rot>
1.6650

> <Gold.Chemscore.Internal.Correction>
   9.000000E+99

> <Gold.Chemscore.Hbonds>
donor molecule, donor type, donor heavy atom, donor atom, acceptor molecule, acceptor atom, score
      L1  H     5    22       P1  8028  0.96
      L1  H     8    32       P1  8028  0.91

> <Gold.Chemscore.Hbond.Weighted>
-6.4593

> <Gold.Chemscore.Metal.Weighted>
-0.0000

> <Gold.Chemscore.Lipo.Weighted>
-9.4352

> <Gold.Chemscore.Internal_Hbond.Weighted>
0.0000

> <Gold.Chemscore.DEClash.Weighted>
1.4688

> <Gold.Chemscore.DEInternal.Weighted>
1.5508

> <Gold.Chemscore.Rot.Weighted>
4.2625

> <Gold.Chemscore.Internal.Correction.Weighted>
   9.000000E+99

> <Gold.Protein.RotatedTorsions>
[ 6907 6896 6895 6894 ] final  171.82 input  -60.11 | X-H torsion
[ 7974 7965 7964 7962 ] final  -49.08 input  175.53 | X-H torsion
[ 8008 7997 7996 7995 ] final  122.70 input   59.86 | X-H torsion
[ 10167 10162 10161 10158 ] final -113.57 input  -65.29 | X-H torsion
[ 10718 10713 10712 10709 ] final -122.30 input   66.30 | X-H torsion
[ 10763 10752 10751 10750 ] final -143.45 input  -60.55 | X-H torsion
[ 11005 11000 10999 10996 ] final  -15.00 input  -57.11 | X-H torsion

> <Gold.Protein.ActiveResidues>
 VAL166  LYS551  ARG553  GLY616  TRP617  ASP618  TYR619  PRO620  LYS621  CYS622 
 ASP623  PHE694  ASN695  SER759  ASP760  ASP761  ALA762  ILE779  LEU786  VAL792 
 PHE793  MET794  SER795  GLU796  ALA797  LYS798  CYS799  TRP800  GLU811  SER814 

> <Gold.Protein.RotatedAtoms>
  151.7942  133.3362  159.3507 H   0  0  0  0  0  0  0  0  0  0  0  0  # atno 6907 bound_to 6896
  150.7381  134.5814  159.5950 H   0  0  0  0  0  0  0  0  0  0  0  0  # atno 6908 bound_to 6896
  152.3189  134.7407  160.0370 H   0  0  0  0  0  0  0  0  0  0  0  0  # atno 6909 bound_to 6896
  145.9444  140.7632  142.9536 H   0  0  0  0  0  0  0  0  0  0  0  0  # atno 7974 bound_to 7965
  156.2738  140.2780  156.1509 H   0  0  0  0  0  0  0  0  0  0  0  0  # atno 8008 bound_to 7997
  155.0854  140.0388  157.2670 H   0  0  0  0  0  0  0  0  0  0  0  0  # atno 8009 bound_to 7997
  154.6931  140.2633  155.6799 H   0  0  0  0  0  0  0  0  0  0  0  0  # atno 8010 bound_to 7997
  140.1104  143.4532  152.1756 H   0  0  0  0  0  0  0  0  0  0  0  0  # atno 10167 bound_to 10162
  156.1407  130.6464  150.9766 H   0  0  0  0  0  0  0  0  0  0  0  0  # atno 10718 bound_to 10713
  154.8469  135.3468  154.6188 H   0  0  0  0  0  0  0  0  0  0  0  0  # atno 10763 bound_to 10752
  153.6797  135.6980  153.5126 H   0  0  0  0  0  0  0  0  0  0  0  0  # atno 10764 bound_to 10752
  153.2678  135.4302  155.0914 H   0  0  0  0  0  0  0  0  0  0  0  0  # atno 10765 bound_to 10752
  140.7922  133.8279  155.9390 H   0  0  0  0  0  0  0  0  0  0  0  0  # atno 11005 bound_to 11000
  144.6784  140.2332  143.7353 LP  0  0  0  0  0  0  0  0  0  0  0  0  # atno 17320 bound_to 7965
  145.8256  139.2063  143.1912 LP  0  0  0  0  0  0  0  0  0  0  0  0  # atno 17321 bound_to 7965
  139.5622  144.7413  151.4122 LP  0  0  0  0  0  0  0  0  0  0  0  0  # atno 17342 bound_to 10162
  140.6929  143.7820  150.7282 LP  0  0  0  0  0  0  0  0  0  0  0  0  # atno 17343 bound_to 10162
  157.6573  131.0887  150.7918 LP  0  0  0  0  0  0  0  0  0  0  0  0  # atno 17370 bound_to 10713
  156.7994  130.4916  149.5372 LP  0  0  0  0  0  0  0  0  0  0  0  0  # atno 17371 bound_to 10713
  140.9378  134.1939  157.4819 LP  0  0  0  0  0  0  0  0  0  0  0  0  # atno 17394 bound_to 11000
  139.8730  134.9859  156.5303 LP  0  0  0  0  0  0  0  0  0  0  0  0  # atno 17395 bound_to 11000

$$$$
