AV-unprocessed.smi:3105|AV-procd|sdf|11822|dock4
  -GOLD-   2272017193D 1   1.00000     0.00000
 Structure written by MMmdl.
 34 34  0  0  0  0  0  0  0  0  2 V2000
  151.4248  140.4754  155.8041 C   0  0  0  0  0  0  0  0  0  0  0  0
  150.7311  141.8408  155.9671 C   0  0  1  0  0  0  0  0  0  0  0  0
  149.5564  141.9169  155.0673 N   0  3  0  0  0  0  0  0  0  0  0  0
  148.5932  140.8000  155.1848 C   0  0  0  0  0  0  0  0  0  0  0  0
  147.6675  140.7056  153.9557 C   0  0  0  0  0  0  0  0  0  0  0  0
  147.4065  139.2761  153.4590 C   0  0  0  0  0  0  0  0  0  0  0  0
  148.3133  138.7588  152.6275 N   0  0  0  0  0  0  0  0  0  0  0  0
  146.4141  138.6430  153.8157 O   0  0  0  0  0  0  0  0  0  0  0  0
  150.2913  142.1157  157.4311 C   0  0  1  0  0  0  0  0  0  0  0  0
  150.0702  140.8305  158.2506 C   0  0  0  0  0  0  0  0  0  0  0  0
  151.2419  142.9789  158.1247 N   0  0  0  0  0  0  0  0  0  0  0  0
  151.6394  144.2558  157.7845 C   0  0  0  0  0  0  0  0  0  0  0  0
  152.5392  144.6684  158.7248 C   0  0  0  0  0  0  0  0  0  0  0  0
  152.6237  143.5656  159.6193 C   0  0  0  0  0  0  0  0  0  0  0  0
  151.8448  142.5584  159.2602 N   0  0  0  0  0  0  0  0  0  0  0  0
  152.3461  140.4203  156.3833 H   0  0  0  0  0  0  0  0  0  0  0  0
  151.6991  140.2859  154.7665 H   0  0  0  0  0  0  0  0  0  0  0  0
  150.7774  139.6602  156.1288 H   0  0  0  0  0  0  0  0  0  0  0  0
  151.4362  142.6207  155.6750 H   0  0  0  0  0  0  0  0  0  0  0  0
  149.0825  142.7973  155.2079 H   0  0  0  0  0  0  0  0  0  0  0  0
  149.1347  139.8612  155.3119 H   0  0  0  0  0  0  0  0  0  0  0  0
  147.9894  140.9387  156.0814 H   0  0  0  0  0  0  0  0  0  0  0  0
  146.7067  141.1572  154.2068 H   0  0  0  0  0  0  0  0  0  0  0  0
  148.0773  141.2936  153.1337 H   0  0  0  0  0  0  0  0  0  0  0  0
  148.1979  137.8215  152.2693 H   0  0  0  0  0  0  0  0  0  0  0  0
  149.1180  139.3075  152.3595 H   0  0  0  0  0  0  0  0  0  0  0  0
  149.3420  142.6533  157.4028 H   0  0  0  0  0  0  0  0  0  0  0  0
  149.2464  140.2358  157.8573 H   0  0  0  0  0  0  0  0  0  0  0  0
  149.8244  141.0665  159.2865 H   0  0  0  0  0  0  0  0  0  0  0  0
  150.9620  140.2029  158.2579 H   0  0  0  0  0  0  0  0  0  0  0  0
  151.2558  144.7593  156.9093 H   0  0  0  0  0  0  0  0  0  0  0  0
  153.0563  145.6154  158.7691 H   0  0  0  0  0  0  0  0  0  0  0  0
  153.2230  143.4678  160.5124 H   0  0  0  0  0  0  0  0  0  0  0  0
  149.9084  141.8901  154.1201 H   0  0  0  0  0  0  0  0  0  0  0  0
  1  2  1  0  0  0  0
  1 16  1  0  0  0  0
  1 17  1  0  0  0  0
  1 18  1  0  0  0  0
  2  3  1  0  0  0  0
  2  9  1  0  0  0  0
  2 19  1  0  0  0  0
  3  4  1  0  0  0  0
  3 20  1  0  0  0  0
  3 34  1  0  0  0  0
  4  5  1  0  0  0  0
  4 21  1  0  0  0  0
  4 22  1  0  0  0  0
  5  6  1  0  0  0  0
  5 23  1  0  0  0  0
  5 24  1  0  0  0  0
  6  7  1  0  0  0  0
  6  8  2  0  0  0  0
  7 25  1  0  0  0  0
  7 26  1  0  0  0  0
  9 10  1  0  0  0  0
  9 11  1  0  0  0  0
  9 27  1  0  0  0  0
 10 28  1  0  0  0  0
 10 29  1  0  0  0  0
 10 30  1  0  0  0  0
 11 15  1  0  0  0  0
 11 12  1  0  0  0  0
 12 13  2  0  0  0  0
 12 31  1  0  0  0  0
 13 14  1  0  0  0  0
 13 32  1  0  0  0  0
 14 15  2  0  0  0  0
 14 33  1  0  0  0  0
M  CHG  1   3   1
M  END
> <s_m_source_file>
AV-unprocessed.smi

> <i_m_source_file_index>
3105

> <i_lp_mmshare_version>
43012

> <i_f3d_flags>
0

> <s_epik_input>
W05IMl1DKD1PKVtDSDJdW0NIMl1bTkhdW0NAQEhdKFtDSDNdKVtDQEhdKFtDSDNdKW4xW2NIXVtjSF1bY0hdbjE=

> <s_epik_cmdline>
J2VwaWtfcHl0aG9uJywgJy1waCcsICc3LjAnLCAnLXRuJywgJzgnLCAnLW1hJywgJzIwMCcsICctbWV0YWxfYmluZGluZycsICctaW1hZScsICc8aW5maWxlLm1hZT4nLCAnLW9tYWUnLCAnPG91dGZpbGUubWFlPic=

> <r_lp_tautomer_probability>
1

> <r_epik_Ionization_Penalty>
0.00475669

> <r_epik_Ionization_Penalty_Charging>
0.00474654

> <r_epik_Ionization_Penalty_Neutral>
1.01546e-05

> <r_epik_State_Penalty>
-0

> <r_epik_Charging_Adjusted_Penalty>
0.00474654

> <i_epik_Tot_Q>
1

> <i_epik_Tot_abs_Q>
1

> <r_epik_Metal_State_Penalty>
-0

> <b_epik_Metal_Only>
0

> <s_lp_Force_Field>
OPLS_2005

> <r_lp_Energy>
4.89455

> <b_lp_Chiralities_Consistent>
1

> <s_lp_Variant>
AV-unprocessed.smi:3105-4

> <Gold.Version>
5.8.1

> <Gold.Id.Protein>
6NUR|6NUR_protein|mol2

> <Gold.PLP.Fitness>
44.2618

> <Gold.PLP.PLP>
-33.6163

> <Gold.PLP.part.hbond>
-2.5563

> <Gold.PLP.part.metal>
0.0000

> <Gold.PLP.part.buried>
-4.0165

> <Gold.PLP.part.nonpolar>
-26.5991

> <Gold.PLP.part.repulsive>
0.4580

> <Gold.PLP.ligand.clash>
0.0000

> <Gold.PLP.ligand.torsion>
1.8628

> <Gold.PLP.Chemscore.Hbond>
3.7440

> <Gold.PLP.Chemscore.CHOScore>
1.0000

> <Gold.PLP.Chemscore.Metal>
0.0000

> <Gold.Chemscore.Hbonds>
donor molecule, donor type, donor heavy atom, donor atom, acceptor molecule, acceptor atom, score
      L1  H     3    20       P1  8028  2.00
      L1  H     7    25       P1  7948  0.94
      L1  H     7    26       P1  7957  0.66
      L1  C    12    31       P1  8028  0.73

> <Gold.PLP.Chemscore.Internal.Correction>
0.1392

> <Gold.Rescore>
     Score         DG    S(hbond)    S(metal)    S(lipo)     H(rot)  DE(clash)    DE(int)     intcor
     13.63     -14.97       2.38        0.00      75.37       2.85       0.01       1.32       ----

> <Gold.Chemscore.Fitness>
13.6313

> <Gold.Chemscore.DG>
-14.9691

> <Gold.Chemscore.ZeroCoef>
-5.4800

> <Gold.Chemscore.Hbond>
2.3831

> <Gold.Chemscore.Metal>
0.0000

> <Gold.Chemscore.Lipo>
75.3732

> <Gold.Chemscore.Internal_Hbond>
0.0000

> <Gold.Chemscore.DEClash>
0.0147

> <Gold.Chemscore.DEInternal>
1.3231

> <Gold.Chemscore.Rot>
2.8473

> <Gold.Chemscore.Internal.Correction>
   9.000000E+99

> <Gold.Chemscore.Hbonds>
donor molecule, donor type, donor heavy atom, donor atom, acceptor molecule, acceptor atom, score
      L1  H     3    20       P1  8028  0.97
      L1  H     7    25       P1  7948  0.92
      L1  H     7    26       P1  7957  0.63

> <Gold.Chemscore.Hbond.Weighted>
-7.9597

> <Gold.Chemscore.Metal.Weighted>
-0.0000

> <Gold.Chemscore.Lipo.Weighted>
-8.8187

> <Gold.Chemscore.Internal_Hbond.Weighted>
0.0000

> <Gold.Chemscore.DEClash.Weighted>
0.0147

> <Gold.Chemscore.DEInternal.Weighted>
1.3231

> <Gold.Chemscore.Rot.Weighted>
7.2892

> <Gold.Chemscore.Internal.Correction.Weighted>
   9.000000E+99

> <Gold.Protein.RotatedTorsions>
[ 6907 6896 6895 6894 ] final -130.71 input  -60.11 | X-H torsion
[ 7974 7965 7964 7962 ] final -150.32 input  175.53 | X-H torsion
[ 8008 7997 7996 7995 ] final  -48.30 input   59.86 | X-H torsion
[ 10167 10162 10161 10158 ] final  166.94 input  -65.29 | X-H torsion
[ 10718 10713 10712 10709 ] final   84.72 input   66.30 | X-H torsion
[ 10763 10752 10751 10750 ] final  -87.85 input  -60.55 | X-H torsion
[ 11005 11000 10999 10996 ] final  -28.79 input  -57.11 | X-H torsion

> <Gold.Protein.ActiveResidues>
 VAL166  LYS551  ARG553  GLY616  TRP617  ASP618  TYR619  PRO620  LYS621  CYS622 
 ASP623  PHE694  ASN695  SER759  ASP760  ASP761  ALA762  ILE779  LEU786  VAL792 
 PHE793  MET794  SER795  GLU796  ALA797  LYS798  CYS799  TRP800  GLU811  SER814 

> <Gold.Protein.RotatedAtoms>
  150.9428  133.6637  159.2787 H   0  0  0  0  0  0  0  0  0  0  0  0  # atno 6907 bound_to 6896
  151.4021  135.0971  159.9568 H   0  0  0  0  0  0  0  0  0  0  0  0  # atno 6908 bound_to 6896
  152.5076  133.8919  159.7453 H   0  0  0  0  0  0  0  0  0  0  0  0  # atno 6909 bound_to 6896
  144.7914  140.4947  143.5770 H   0  0  0  0  0  0  0  0  0  0  0  0  # atno 7974 bound_to 7965
  154.4027  140.1325  156.4316 H   0  0  0  0  0  0  0  0  0  0  0  0  # atno 8008 bound_to 7997
  155.7545  140.3487  155.5147 H   0  0  0  0  0  0  0  0  0  0  0  0  # atno 8009 bound_to 7997
  155.8918  140.1004  157.1403 H   0  0  0  0  0  0  0  0  0  0  0  0  # atno 8010 bound_to 7997
  139.4935  144.3975  151.9448 H   0  0  0  0  0  0  0  0  0  0  0  0  # atno 10167 bound_to 10162
  157.6903  131.0145  150.2715 H   0  0  0  0  0  0  0  0  0  0  0  0  # atno 10718 bound_to 10713
  154.6381  135.5398  153.7758 H   0  0  0  0  0  0  0  0  0  0  0  0  # atno 10763 bound_to 10752
  153.0319  135.6452  154.1200 H   0  0  0  0  0  0  0  0  0  0  0  0  # atno 10764 bound_to 10752
  154.1126  135.2925  155.3207 H   0  0  0  0  0  0  0  0  0  0  0  0  # atno 10765 bound_to 10752
  140.9240  133.7381  156.0841 H   0  0  0  0  0  0  0  0  0  0  0  0  # atno 11005 bound_to 11000
  145.5784  139.1487  143.3249 LP  0  0  0  0  0  0  0  0  0  0  0  0  # atno 17320 bound_to 7965
  146.2168  140.5914  142.9035 LP  0  0  0  0  0  0  0  0  0  0  0  0  # atno 17321 bound_to 7965
  140.3413  144.3200  150.5966 LP  0  0  0  0  0  0  0  0  0  0  0  0  # atno 17342 bound_to 10162
  140.5563  143.2198  151.7841 LP  0  0  0  0  0  0  0  0  0  0  0  0  # atno 17343 bound_to 10162
  156.3277  130.3795  149.7518 LP  0  0  0  0  0  0  0  0  0  0  0  0  # atno 17370 bound_to 10713
  156.5068  130.8154  151.3153 LP  0  0  0  0  0  0  0  0  0  0  0  0  # atno 17371 bound_to 10713
  140.7951  134.3573  157.5454 LP  0  0  0  0  0  0  0  0  0  0  0  0  # atno 17394 bound_to 11000
  139.8781  134.9164  156.3153 LP  0  0  0  0  0  0  0  0  0  0  0  0  # atno 17395 bound_to 11000

$$$$
