#       Name:                AV-unprocessed.smi:157
#       Creating user name   scv26
#       Creation time:       Thu Mar 26 18:58:11 2020


#       File generated by GOLD software.
#

@<TRIPOS>MOLECULE
AV-unprocessed.smi:157
    45    47     1
SMALL
NO_CHARGES


@<TRIPOS>ATOM
      1 ****        -4.1584   2.6158   0.4156 O.3            1 S1                 0.0000
      2 ****        -3.6821   1.3096   0.6622 C.3            1 S1                 0.0000
      3 ****        -2.1436   1.2934   0.6824 C.3            1 S1                 0.0000
      4 ****        -1.6485  -0.0421   0.7799 O.3            1 S1                 0.0000
      5 ****        -0.5440  -0.0832   1.6328 C.3            1 S1                 0.0000
      6 ****         0.5599  -0.8546   0.9756 N.pl3          1 S1                 0.0000
      7 ****         1.2560  -1.8387   1.5573 C.2            1 S1                 0.0000
      8 ****         2.1895  -2.3805   0.7942 N.2            1 S1                 0.0000
      9 ****         2.0845  -1.6859  -0.4094 C.2            1 S1                 0.0000
     10 ****         1.0752  -0.7368  -0.3223 C.2            1 S1                 0.0000
     11 ****         0.5395   0.2166  -1.1671 N.2            1 S1                 0.0000
     12 ****         0.7348   0.0810  -2.4406 C.2            1 S1                 0.0000
     13 ****         1.5050  -0.8421  -3.1329 N.pl3          1 S1                 0.0000
     14 ****         2.8844  -1.1369  -2.7855 C.3            1 S1                 0.0000
     15 ****         3.0288  -2.0098  -1.5325 C.3            1 S1                 0.0000
     16 ****         2.8111  -3.3621  -1.8801 O.3            1 S1                 0.0000
     17 ****        -0.1250   1.3588   1.9200 C.3            1 S1                 0.0000
     18 ****        -1.4523   2.0791   1.8103 C.3            1 S1                 0.0000
     19 ****        -2.1593   2.0110   3.0350 O.3            1 S1                 0.0000
     20 ****        -1.7774   1.6791  -0.2707 H              1 S1                 0.0000
     21 ****        -0.7993  -0.6403   2.5356 H              1 S1                 0.0000
     22 ****         4.0586  -1.9379  -1.1810 H              1 S1                 0.0000
     23 ****        -1.3228   3.1293   1.5477 H              1 S1                 0.0000
     24 ****        -5.1022   2.5879   0.3741 H              1 S1                 0.0000
     25 ****        -4.0991   0.9322   1.5960 H              1 S1                 0.0000
     26 ****        -4.0473   0.6590  -0.1327 H              1 S1                 0.0000
     27 ****         1.0778  -2.1626   2.5722 H              1 S1                 0.0000
     28 ****         0.2464   0.7833  -3.1174 H              1 S1                 0.0000
     29 ****         1.3458  -0.9547  -4.1237 H              1 S1                 0.0000
     30 ****         3.3955  -1.5881  -3.6365 H              1 S1                 0.0000
     31 ****         3.3808  -0.1824  -2.6046 H              1 S1                 0.0000
     32 ****         2.9621  -3.8914  -1.1116 H              1 S1                 0.0000
     33 ****         0.3625   1.4483   2.8914 H              1 S1                 0.0000
     34 ****         0.5587   1.7119   1.1475 H              1 S1                 0.0000
     35 ****        -2.9966   2.4339   2.9191 H              1 S1                 0.0000
     36 ****        -3.7922   2.9500  -0.4529 LP             1 S1                 0.0000
     37 ****        -3.8711   3.2248   1.1549 LP             1 S1                 0.0000
     38 ****        -1.3773  -0.3614  -0.1281 LP             1 S1                 0.0000
     39 ****        -2.3675  -0.6359   1.1410 LP             1 S1                 0.0000
     40 ****         2.8239  -3.1178   1.0266 LP             1 S1                 0.0000
     41 ****         0.0164   0.9886  -0.8060 LP             1 S1                 0.0000
     42 ****         3.4435  -3.6313  -2.6065 LP             1 S1                 0.0000
     43 ****         1.8700  -3.4836  -2.1956 LP             1 S1                 0.0000
     44 ****        -1.6408   2.4785   3.7510 LP             1 S1                 0.0000
     45 ****        -2.2965   1.0547   3.2932 LP             1 S1                 0.0000
@<TRIPOS>BOND
    1    1    2 1     
    2    1   24 1     
    3    2    3 1     
    4    2   25 1     
    5    2   26 1     
    6    3   20 1     
    7    3   18 1     
    8    3    4 1     
    9    4    5 1     
   10    5   21 1     
   11    5    6 1     
   12    5   17 1     
   13    6   10 1     
   14    6    7 1     
   15    7    8 2     
   16    7   27 1     
   17    8    9 1     
   18    9   15 1     
   19    9   10 2     
   20   10   11 1     
   21   11   12 2     
   22   12   13 1     
   23   12   28 1     
   24   13   14 1     
   25   13   29 1     
   26   14   15 1     
   27   14   30 1     
   28   14   31 1     
   29   15   22 1     
   30   15   16 1     
   31   16   32 1     
   32   17   18 1     
   33   17   33 1     
   34   17   34 1     
   35   18   23 1     
   36   18   19 1     
   37   19   35 1     
   38    1   36 1     
   39    1   37 1     
   40    4   38 1     
   41    4   39 1     
   42    8   40 1     
   43   11   41 1     
   44   16   42 1     
   45   16   43 1     
   46   19   44 1     
   47   19   45 1     
@<TRIPOS>SUBSTRUCTURE
      1 S1             1
@<TRIPOS>SET
LONE_PAIRS      STATIC     ATOMS    <user>   **** ""
10 36 37 38 39 40 41 42 43 44 45
DONOR_HYDROGENS      STATIC     ATOMS    <user>   **** ""
4 24 29 32 35
ATOM$BLUE        STATIC     ATOMS    COLORGROUP SYSTEM
10 36 37 38 39 40 41 42 43 44 45
ATOM$RED        STATIC     ATOMS    COLORGROUP SYSTEM
4 24 29 32 35
