AV-unprocessed.smi:1475|AV-procd|sdf|5976|dock7
  -GOLD-   22720 6 63D 1   1.00000     0.00000
 Structure written by MMmdl.
 50 51  0  0  0  0  0  0  0  0  2 V2000
  152.1982  140.7096  157.9820 C   0  0  0  0  0  0  0  0  0  0  0  0
  151.2705  140.6553  156.8045 C   0  0  0  0  0  0  0  0  0  0  0  0
  150.3797  141.6622  156.3388 C   0  0  0  0  0  0  0  0  0  0  0  0
  149.7783  141.1027  155.2470 C   0  0  0  0  0  0  0  0  0  0  0  0
  148.7455  141.6633  154.3257 C   0  0  0  0  0  0  0  0  0  0  0  0
  150.3090  139.8328  155.1033 N   0  0  0  0  0  0  0  0  0  0  0  0
  150.0200  138.8257  154.0949 C   0  0  0  0  0  0  0  0  0  0  0  0
  148.5379  138.4491  154.1057 C   0  0  0  0  0  0  0  0  0  0  0  0
  147.9820  138.1616  155.1655 O   0  0  0  0  0  0  0  0  0  0  0  0
  147.9078  138.4591  152.9205 N   0  0  0  0  0  0  0  0  0  0  0  0
  146.4912  138.1772  152.7221 C   0  0  0  0  0  0  0  0  0  0  0  0
  146.0602  136.8780  153.4321 C   0  0  0  0  0  0  0  0  0  0  0  0
  146.2828  135.6679  152.6002 N   0  3  1  0  0  0  0  0  0  0  0  0
  146.6662  134.4914  153.4234 C   0  0  0  0  0  0  0  0  0  0  0  0
  147.0345  133.2810  152.5435 C   0  0  1  0  0  0  0  0  0  0  0  0
  147.4377  132.0690  153.3955 C   0  0  0  0  0  0  0  0  0  0  0  0
  145.8725  132.9389  151.5964 C   0  0  0  0  0  0  0  0  0  0  0  0
  145.4661  134.1699  150.7700 C   0  0  1  0  0  0  0  0  0  0  0  0
  144.2928  133.8532  149.8318 C   0  0  0  0  0  0  0  0  0  0  0  0
  145.1396  135.3530  151.7017 C   0  0  0  0  0  0  0  0  0  0  0  0
  151.2243  139.5625  156.0602 N   0  0  0  0  0  0  0  0  0  0  0  0
  152.0973  141.6531  158.5186 H   0  0  0  0  0  0  0  0  0  0  0  0
  153.2379  140.6170  157.6673 H   0  0  0  0  0  0  0  0  0  0  0  0
  151.9878  139.9041  158.6860 H   0  0  0  0  0  0  0  0  0  0  0  0
  150.2077  142.6479  156.7454 H   0  0  0  0  0  0  0  0  0  0  0  0
  148.4918  142.6865  154.6031 H   0  0  0  0  0  0  0  0  0  0  0  0
  147.8314  141.0707  154.3600 H   0  0  0  0  0  0  0  0  0  0  0  0
  149.1054  141.6757  153.2970 H   0  0  0  0  0  0  0  0  0  0  0  0
  150.3086  139.2032  153.1125 H   0  0  0  0  0  0  0  0  0  0  0  0
  150.6301  137.9418  154.2839 H   0  0  0  0  0  0  0  0  0  0  0  0
  148.4441  138.7159  152.1035 H   0  0  0  0  0  0  0  0  0  0  0  0
  145.9152  139.0358  153.0676 H   0  0  0  0  0  0  0  0  0  0  0  0
  146.3107  138.0923  151.6501 H   0  0  0  0  0  0  0  0  0  0  0  0
  146.6391  136.7923  154.3528 H   0  0  0  0  0  0  0  0  0  0  0  0
  145.0121  136.9202  153.7317 H   0  0  0  0  0  0  0  0  0  0  0  0
  147.5211  134.7500  154.0497 H   0  0  0  0  0  0  0  0  0  0  0  0
  145.8461  134.2370  154.0971 H   0  0  0  0  0  0  0  0  0  0  0  0
  147.8977  133.5560  151.9352 H   0  0  0  0  0  0  0  0  0  0  0  0
  146.6136  131.7350  154.0267 H   0  0  0  0  0  0  0  0  0  0  0  0
  148.2794  132.3079  154.0461 H   0  0  0  0  0  0  0  0  0  0  0  0
  147.7365  131.2293  152.7672 H   0  0  0  0  0  0  0  0  0  0  0  0
  146.1620  132.1237  150.9319 H   0  0  0  0  0  0  0  0  0  0  0  0
  145.0178  132.5813  152.1727 H   0  0  0  0  0  0  0  0  0  0  0  0
  146.3153  134.4556  150.1471 H   0  0  0  0  0  0  0  0  0  0  0  0
  143.4050  133.5566  150.3913 H   0  0  0  0  0  0  0  0  0  0  0  0
  144.5436  133.0395  149.1507 H   0  0  0  0  0  0  0  0  0  0  0  0
  144.0295  134.7200  149.2249 H   0  0  0  0  0  0  0  0  0  0  0  0
  144.2562  135.1301  152.3024 H   0  0  0  0  0  0  0  0  0  0  0  0
  144.8918  136.2192  151.0898 H   0  0  0  0  0  0  0  0  0  0  0  0
  147.0768  135.8687  152.0091 H   0  0  0  0  0  0  0  0  0  0  0  0
  1  2  1  0  0  0  0
  1 22  1  0  0  0  0
  1 23  1  0  0  0  0
  1 24  1  0  0  0  0
  2 21  2  0  0  0  0
  2  3  1  0  0  0  0
  3  4  2  0  0  0  0
  3 25  1  0  0  0  0
  4  5  1  0  0  0  0
  4  6  1  0  0  0  0
  5 26  1  0  0  0  0
  5 27  1  0  0  0  0
  5 28  1  0  0  0  0
  6  7  1  0  0  0  0
  6 21  1  0  0  0  0
  7  8  1  0  0  0  0
  7 29  1  0  0  0  0
  7 30  1  0  0  0  0
  8  9  2  0  0  0  0
  8 10  1  0  0  0  0
 10 11  1  0  0  0  0
 10 31  1  0  0  0  0
 11 12  1  0  0  0  0
 11 32  1  0  0  0  0
 11 33  1  0  0  0  0
 12 13  1  0  0  0  0
 12 34  1  0  0  0  0
 12 35  1  0  0  0  0
 13 20  1  0  0  0  0
 13 14  1  0  0  0  0
 13 50  1  0  0  0  0
 14 15  1  0  0  0  0
 14 36  1  0  0  0  0
 14 37  1  0  0  0  0
 15 16  1  0  0  0  0
 15 17  1  0  0  0  0
 15 38  1  0  0  0  0
 16 39  1  0  0  0  0
 16 40  1  0  0  0  0
 16 41  1  0  0  0  0
 17 18  1  0  0  0  0
 17 42  1  0  0  0  0
 17 43  1  0  0  0  0
 18 19  1  0  0  0  0
 18 20  1  0  0  0  0
 18 44  1  0  0  0  0
 19 45  1  0  0  0  0
 19 46  1  0  0  0  0
 19 47  1  0  0  0  0
 20 48  1  0  0  0  0
 20 49  1  0  0  0  0
M  CHG  1  13   1
M  END
> <s_m_source_file>
AV-unprocessed.smi

> <i_m_source_file_index>
1475

> <i_lp_mmshare_version>
43012

> <i_f3d_flags>
0

> <s_epik_input>
W0NIM11jMVtjSF1jKFtDSDNdKW4objEpW0NIMl1DKD1PKVtOSF1bQ0gyXVtDSDJdTjJbQ0gyXVtDQEBIXShbQ0gzXSlbQ0gyXVtDQEBIXShbQ0gzXSlbQ0gyXTI=

> <s_epik_cmdline>
J2VwaWtfcHl0aG9uJywgJy1waCcsICc3LjAnLCAnLXRuJywgJzgnLCAnLW1hJywgJzIwMCcsICctbWV0YWxfYmluZGluZycsICctaW1hZScsICc8aW5maWxlLm1hZT4nLCAnLW9tYWUnLCAnPG91dGZpbGUubWFlPic=

> <r_lp_tautomer_probability>
1

> <r_epik_Ionization_Penalty>
0.00206431

> <r_epik_Ionization_Penalty_Charging>
0.00187095

> <r_epik_Ionization_Penalty_Neutral>
0.000193364

> <r_epik_State_Penalty>
-0

> <r_epik_Charging_Adjusted_Penalty>
0.00187095

> <i_epik_Tot_Q>
1

> <i_epik_Tot_abs_Q>
1

> <r_epik_Metal_State_Penalty>
-0

> <b_epik_Metal_Only>
0

> <s_lp_Force_Field>
OPLS_2005

> <r_lp_Energy>
13.7816

> <b_lp_Chiralities_Consistent>
1

> <s_lp_Variant>
AV-unprocessed.smi:1475-1

> <Gold.Version>
5.8.1

> <Gold.Id.Protein>
6NUR|6NUR_protein|mol2

> <Gold.PLP.Fitness>
44.6099

> <Gold.PLP.PLP>
-36.9794

> <Gold.PLP.part.hbond>
-3.0000

> <Gold.PLP.part.metal>
0.0000

> <Gold.PLP.part.buried>
-0.2425

> <Gold.PLP.part.nonpolar>
-33.2792

> <Gold.PLP.part.repulsive>
0.1212

> <Gold.PLP.ligand.clash>
0.0000

> <Gold.PLP.ligand.torsion>
0.7042

> <Gold.PLP.Chemscore.Hbond>
3.0000

> <Gold.PLP.Chemscore.CHOScore>
0.0000

> <Gold.PLP.Chemscore.Metal>
0.0000

> <Gold.Chemscore.Hbonds>
donor molecule, donor type, donor heavy atom, donor atom, acceptor molecule, acceptor atom, score
      L1  H    10    31       P1  7957  1.00
      L1  H    13    50       P1  7948  1.98

> <Gold.PLP.Chemscore.Internal.Correction>
0.0388

> <Gold.Rescore>
     Score         DG    S(hbond)    S(metal)    S(lipo)     H(rot)  DE(clash)    DE(int)     intcor
     16.22     -18.38       1.92        0.00      91.48       1.64       0.27       1.89       ----

> <Gold.Chemscore.Fitness>
16.2219

> <Gold.Chemscore.DG>
-18.3831

> <Gold.Chemscore.ZeroCoef>
-5.4800

> <Gold.Chemscore.Hbond>
1.9156

> <Gold.Chemscore.Metal>
0.0000

> <Gold.Chemscore.Lipo>
91.4798

> <Gold.Chemscore.Internal_Hbond>
0.0000

> <Gold.Chemscore.DEClash>
0.2742

> <Gold.Chemscore.DEInternal>
1.8869

> <Gold.Chemscore.Rot>
1.6399

> <Gold.Chemscore.Internal.Correction>
   9.000000E+99

> <Gold.Chemscore.Hbonds>
donor molecule, donor type, donor heavy atom, donor atom, acceptor molecule, acceptor atom, score
      L1  H    10    31       P1  7957  0.85
      L1  H    13    50       P1  7948  0.94

> <Gold.Chemscore.Hbond.Weighted>
-6.3981

> <Gold.Chemscore.Metal.Weighted>
-0.0000

> <Gold.Chemscore.Lipo.Weighted>
-10.7031

> <Gold.Chemscore.Internal_Hbond.Weighted>
0.0000

> <Gold.Chemscore.DEClash.Weighted>
0.2742

> <Gold.Chemscore.DEInternal.Weighted>
1.8869

> <Gold.Chemscore.Rot.Weighted>
4.1982

> <Gold.Chemscore.Internal.Correction.Weighted>
   9.000000E+99

> <Gold.Protein.RotatedTorsions>
[ 6907 6896 6895 6894 ] final   12.26 input  -60.11 | X-H torsion
[ 7974 7965 7964 7962 ] final   96.44 input  175.53 | X-H torsion
[ 8008 7997 7996 7995 ] final   75.42 input   59.86 | X-H torsion
[ 10167 10162 10161 10158 ] final  -18.36 input  -65.29 | X-H torsion
[ 10718 10713 10712 10709 ] final -143.47 input   66.30 | X-H torsion
[ 10763 10752 10751 10750 ] final  159.84 input  -60.55 | X-H torsion
[ 11005 11000 10999 10996 ] final   36.59 input  -57.11 | X-H torsion

> <Gold.Protein.ActiveResidues>
 VAL166  LYS551  ARG553  GLY616  TRP617  ASP618  TYR619  PRO620  LYS621  CYS622 
 ASP623  PHE694  ASN695  SER759  ASP760  ASP761  ALA762  ILE779  LEU786  VAL792 
 PHE793  MET794  SER795  GLU796  ALA797  LYS798  CYS799  TRP800  GLU811  SER814 

> <Gold.Protein.RotatedAtoms>
  151.7675  135.0794  160.0354 H   0  0  0  0  0  0  0  0  0  0  0  0  # atno 6907 bound_to 6896
  152.3311  133.5955  159.5819 H   0  0  0  0  0  0  0  0  0  0  0  0  # atno 6908 bound_to 6896
  150.7423  133.9782  159.3609 H   0  0  0  0  0  0  0  0  0  0  0  0  # atno 6909 bound_to 6896
  145.4388  139.2303  143.3103 H   0  0  0  0  0  0  0  0  0  0  0  0  # atno 7974 bound_to 7965
  155.8127  140.3472  155.5467 H   0  0  0  0  0  0  0  0  0  0  0  0  # atno 8008 bound_to 7997
  155.8424  140.0943  157.1746 H   0  0  0  0  0  0  0  0  0  0  0  0  # atno 8009 bound_to 7997
  154.4005  140.1392  156.3732 H   0  0  0  0  0  0  0  0  0  0  0  0  # atno 8010 bound_to 7997
  140.7258  143.4924  150.9975 H   0  0  0  0  0  0  0  0  0  0  0  0  # atno 10167 bound_to 10162
  156.3583  130.7724  151.1888 H   0  0  0  0  0  0  0  0  0  0  0  0  # atno 10718 bound_to 10713
  154.2381  135.2776  155.2864 H   0  0  0  0  0  0  0  0  0  0  0  0  # atno 10763 bound_to 10752
  154.5568  135.5659  153.6974 H   0  0  0  0  0  0  0  0  0  0  0  0  # atno 10764 bound_to 10752
  153.0005  135.6288  154.2524 H   0  0  0  0  0  0  0  0  0  0  0  0  # atno 10765 bound_to 10752
  140.2310  134.3527  155.7964 H   0  0  0  0  0  0  0  0  0  0  0  0  # atno 11005 bound_to 11000
  146.2568  140.5133  142.8870 LP  0  0  0  0  0  0  0  0  0  0  0  0  # atno 17320 bound_to 7965
  144.8135  140.6427  143.6400 LP  0  0  0  0  0  0  0  0  0  0  0  0  # atno 17321 bound_to 7965
  139.8629  143.7292  152.3172 LP  0  0  0  0  0  0  0  0  0  0  0  0  # atno 17342 bound_to 10162
  139.7513  144.7533  151.0502 LP  0  0  0  0  0  0  0  0  0  0  0  0  # atno 17343 bound_to 10162
  157.7470  131.0407  150.4613 LP  0  0  0  0  0  0  0  0  0  0  0  0  # atno 17370 bound_to 10713
  156.4819  130.4076  149.6456 LP  0  0  0  0  0  0  0  0  0  0  0  0  # atno 17371 bound_to 10713
  141.2217  133.7245  156.8731 LP  0  0  0  0  0  0  0  0  0  0  0  0  # atno 17394 bound_to 11000
  140.1750  134.9073  157.2880 LP  0  0  0  0  0  0  0  0  0  0  0  0  # atno 17395 bound_to 11000

$$$$
