#       Name:                AV-unprocessed.smi:861
#       Creating user name   scv26
#       Creation time:       Fri Mar 27 01:44:37 2020


#       File generated by GOLD software.
#

@<TRIPOS>MOLECULE
AV-unprocessed.smi:861
    48    49     1
SMALL
NO_CHARGES


@<TRIPOS>ATOM
      1 ****        -2.1481   4.3210   2.7734 C.3            1 S1                 0.0000
      2 ****        -2.5934   3.6771   1.4492 C.3            1 S1                 0.0000
      3 ****        -4.1268   3.6702   1.3510 C.3            1 S1                 0.0000
      4 ****        -2.0283   2.2538   1.2615 C.3            1 S1                 0.0000
      5 ****        -0.5009   2.2108   1.0553 C.3            1 S1                 0.0000
      6 ****         0.0709   0.8706   0.9235 N.3            1 S1                 0.0000
      7 ****         1.5280   0.9217   0.9710 C.3            1 S1                 0.0000
      8 ****         2.1568  -0.4736   0.8286 C.3            1 S1                 0.0000
      9 ****         1.7069  -1.0702  -0.3823 O.3            1 S1                 0.0000
     10 ****         0.2889  -1.2012  -0.4488 C.3            1 S1                 0.0000
     11 ****        -0.0940  -1.8595  -1.7855 C.3            1 S1                 0.0000
     12 ****         0.2548  -3.2752  -1.8286 N.pl3          1 S1                 0.0000
     13 ****         1.5437  -3.6952  -2.1886 C.ar           1 S1                 0.0000
     14 ****         1.9302  -5.0199  -1.9025 C.ar           1 S1                 0.0000
     15 ****         3.2251  -5.4181  -2.2769 C.ar           1 S1                 0.0000
     16 ****         4.0361  -4.4601  -2.9122 C.ar           1 S1                 0.0000
     17 ****         3.6131  -3.2016  -3.1664 N.ar           1 S1                 0.0000
     18 ****         2.3796  -2.8255  -2.8103 N.ar           1 S1                 0.0000
     19 ****        -0.3365   0.2017  -0.3112 C.3            1 S1                 0.0000
     20 ****        -2.4580   3.7212   3.6298 H              1 S1                 0.0000
     21 ****        -2.5843   5.3135   2.8902 H              1 S1                 0.0000
     22 ****        -1.0664   4.4414   2.8228 H              1 S1                 0.0000
     23 ****        -2.2217   4.2979   0.6330 H              1 S1                 0.0000
     24 ****        -4.5706   3.0559   2.1351 H              1 S1                 0.0000
     25 ****        -4.4595   3.2757   0.3904 H              1 S1                 0.0000
     26 ****        -4.5322   4.6778   1.4475 H              1 S1                 0.0000
     27 ****        -2.3017   1.6340   2.1166 H              1 S1                 0.0000
     28 ****        -2.5186   1.8088   0.3962 H              1 S1                 0.0000
     29 ****        -0.2331   2.8119   0.1851 H              1 S1                 0.0000
     30 ****        -0.0317   2.6974   1.9100 H              1 S1                 0.0000
     31 ****         1.9019   1.5661   0.1737 H              1 S1                 0.0000
     32 ****         1.8539   1.3681   1.9111 H              1 S1                 0.0000
     33 ****         3.2442  -0.4000   0.8066 H              1 S1                 0.0000
     34 ****         1.8940  -1.1070   1.6770 H              1 S1                 0.0000
     35 ****        -0.0570  -1.8292   0.3748 H              1 S1                 0.0000
     36 ****        -1.1751  -1.8005  -1.9139 H              1 S1                 0.0000
     37 ****         0.3367  -1.3150  -2.6264 H              1 S1                 0.0000
     38 ****        -0.3373  -3.9199  -1.3256 H              1 S1                 0.0000
     39 ****         1.2592  -5.7093  -1.4111 H              1 S1                 0.0000
     40 ****         3.5835  -6.4184  -2.0853 H              1 S1                 0.0000
     41 ****         5.0403  -4.7063  -3.2238 H              1 S1                 0.0000
     42 ****        -1.4202   0.0982  -0.3439 H              1 S1                 0.0000
     43 ****        -0.0539   0.8112  -1.1709 H              1 S1                 0.0000
     44 ****        -0.2816   0.3423   1.6960 LP             1 S1                 0.0000
     45 ****         2.1145  -1.9802  -0.4592 LP             1 S1                 0.0000
     46 ****         2.0103  -0.5033  -1.1482 LP             1 S1                 0.0000
     47 ****         4.2223  -2.5516  -3.6207 LP             1 S1                 0.0000
     48 ****         2.0706  -1.8944  -3.0041 LP             1 S1                 0.0000
@<TRIPOS>BOND
    1    1    2 1     
    2    1   20 1     
    3    1   21 1     
    4    1   22 1     
    5    2    3 1     
    6    2    4 1     
    7    2   23 1     
    8    3   24 1     
    9    3   25 1     
   10    3   26 1     
   11    4    5 1     
   12    4   27 1     
   13    4   28 1     
   14    5    6 1     
   15    5   29 1     
   16    5   30 1     
   17    6   19 1     
   18    6    7 1     
   19    7    8 1     
   20    7   31 1     
   21    7   32 1     
   22    8    9 1     
   23    8   33 1     
   24    8   34 1     
   25    9   10 1     
   26   10   11 1     
   27   10   19 1     
   28   10   35 1     
   29   11   12 1     
   30   11   36 1     
   31   11   37 1     
   32   12   13 1     
   33   12   38 1     
   34   13   18 ar    
   35   13   14 ar    
   36   14   15 ar    
   37   14   39 1     
   38   15   16 ar    
   39   15   40 1     
   40   16   17 ar    
   41   16   41 1     
   42   17   18 ar    
   43   19   42 1     
   44   19   43 1     
   45    6   44 1     
   46    9   45 1     
   47    9   46 1     
   48   17   47 1     
   49   18   48 1     
@<TRIPOS>SUBSTRUCTURE
      1 S1             1
@<TRIPOS>SET
LONE_PAIRS      STATIC     ATOMS    <user>   **** ""
5 44 45 46 47 48
DONOR_HYDROGENS      STATIC     ATOMS    <user>   **** ""
1 38
ATOM$BLUE        STATIC     ATOMS    COLORGROUP SYSTEM
5 44 45 46 47 48
ATOM$RED        STATIC     ATOMS    COLORGROUP SYSTEM
1 38
