AV-unprocessed.smi:3303|AV-procd|sdf|12696|dock3
  -GOLD-   2272019 33D 1   1.00000     0.00000
 Structure written by MMmdl.
 44 45  0  0  0  0  0  0  0  0  2 V2000
  151.6677  139.6093  154.9304 C   0  0  0  0  0  0  0  0  0  0  0  0
  150.8406  140.7098  155.6182 C   0  0  1  0  0  0  0  0  0  0  0  0
  149.4379  140.7890  154.9833 C   0  0  0  0  0  0  0  0  0  0  0  0
  148.5953  141.8430  155.6052 N   0  3  1  0  0  0  0  0  0  0  0  0
  147.3180  142.0046  154.8687 C   0  0  0  0  0  0  0  0  0  0  0  0
  148.4290  141.6252  157.0727 C   0  0  2  0  0  0  0  0  0  0  0  0
  147.5662  142.7123  157.7439 C   0  0  0  0  0  0  0  0  0  0  0  0
  149.8092  141.5677  157.7555 C   0  0  0  0  0  0  0  0  0  0  0  0
  150.7190  140.4909  157.1423 C   0  0  2  0  0  0  0  0  0  0  0  0
  152.0265  140.6164  157.7761 N   0  0  0  0  0  0  0  0  0  0  0  0
  152.0348  140.0021  159.0949 C   0  0  0  0  0  0  0  0  0  0  0  0
  153.0488  140.7234  159.9933 C   0  0  0  0  0  0  0  0  0  0  0  0
  152.7483  142.2044  160.1217 C   0  0  0  0  0  0  0  0  0  0  0  0
  152.5587  142.7947  161.3897 C   0  0  0  0  0  0  0  0  0  0  0  0
  152.2809  144.1739  161.4525 C   0  0  0  0  0  0  0  0  0  0  0  0
  152.2024  144.9056  160.2518 C   0  0  0  0  0  0  0  0  0  0  0  0
  152.4052  144.2224  159.0361 C   0  0  0  0  0  0  0  0  0  0  0  0
  152.6725  142.9004  158.9648 N   0  0  0  0  0  0  0  0  0  0  0  0
  151.2373  138.6221  155.1025 H   0  0  0  0  0  0  0  0  0  0  0  0
  152.6948  139.5928  155.2956 H   0  0  0  0  0  0  0  0  0  0  0  0
  151.7137  139.7686  153.8527 H   0  0  0  0  0  0  0  0  0  0  0  0
  151.3408  141.6637  155.4413 H   0  0  0  0  0  0  0  0  0  0  0  0
  149.5411  140.9962  153.9172 H   0  0  0  0  0  0  0  0  0  0  0  0
  148.9305  139.8262  155.0674 H   0  0  0  0  0  0  0  0  0  0  0  0
  146.6623  141.1480  155.0296 H   0  0  0  0  0  0  0  0  0  0  0  0
  147.4971  142.0973  153.7970 H   0  0  0  0  0  0  0  0  0  0  0  0
  146.7910  142.9080  155.1741 H   0  0  0  0  0  0  0  0  0  0  0  0
  147.9322  140.6643  157.2179 H   0  0  0  0  0  0  0  0  0  0  0  0
  147.5472  142.5795  158.8259 H   0  0  0  0  0  0  0  0  0  0  0  0
  146.5292  142.6769  157.4108 H   0  0  0  0  0  0  0  0  0  0  0  0
  147.9543  143.7113  157.5425 H   0  0  0  0  0  0  0  0  0  0  0  0
  150.2883  142.5455  157.6778 H   0  0  0  0  0  0  0  0  0  0  0  0
  149.6836  141.3714  158.8213 H   0  0  0  0  0  0  0  0  0  0  0  0
  150.2801  139.5102  157.3364 H   0  0  0  0  0  0  0  0  0  0  0  0
  152.2687  141.5929  157.8671 H   0  0  0  0  0  0  0  0  0  0  0  0
  151.0369  140.0651  159.5313 H   0  0  0  0  0  0  0  0  0  0  0  0
  152.2922  138.9457  159.0113 H   0  0  0  0  0  0  0  0  0  0  0  0
  153.0554  140.2718  160.9864 H   0  0  0  0  0  0  0  0  0  0  0  0
  154.0574  140.6038  159.5942 H   0  0  0  0  0  0  0  0  0  0  0  0
  152.6247  142.2068  162.2936 H   0  0  0  0  0  0  0  0  0  0  0  0
  152.1304  144.6619  162.4042 H   0  0  0  0  0  0  0  0  0  0  0  0
  151.9908  145.9647  160.2618 H   0  0  0  0  0  0  0  0  0  0  0  0
  152.3507  144.7515  158.0962 H   0  0  0  0  0  0  0  0  0  0  0  0
  149.0991  142.7117  155.4958 H   0  0  0  0  0  0  0  0  0  0  0  0
  1  2  1  0  0  0  0
  1 19  1  0  0  0  0
  1 20  1  0  0  0  0
  1 21  1  0  0  0  0
  2  9  1  0  0  0  0
  2  3  1  0  0  0  0
  2 22  1  0  0  0  0
  3  4  1  0  0  0  0
  3 23  1  0  0  0  0
  3 24  1  0  0  0  0
  4  5  1  0  0  0  0
  4  6  1  0  0  0  0
  4 44  1  0  0  0  0
  5 25  1  0  0  0  0
  5 26  1  0  0  0  0
  5 27  1  0  0  0  0
  6  7  1  0  0  0  0
  6  8  1  0  0  0  0
  6 28  1  0  0  0  0
  7 29  1  0  0  0  0
  7 30  1  0  0  0  0
  7 31  1  0  0  0  0
  8  9  1  0  0  0  0
  8 32  1  0  0  0  0
  8 33  1  0  0  0  0
  9 10  1  0  0  0  0
  9 34  1  0  0  0  0
 10 11  1  0  0  0  0
 10 35  1  0  0  0  0
 11 12  1  0  0  0  0
 11 36  1  0  0  0  0
 11 37  1  0  0  0  0
 12 13  1  0  0  0  0
 12 38  1  0  0  0  0
 12 39  1  0  0  0  0
 13 18  1  0  0  0  0
 13 14  2  0  0  0  0
 14 15  1  0  0  0  0
 14 40  1  0  0  0  0
 15 16  2  0  0  0  0
 15 41  1  0  0  0  0
 16 17  1  0  0  0  0
 16 42  1  0  0  0  0
 17 18  2  0  0  0  0
 17 43  1  0  0  0  0
M  CHG  1   4   1
M  END
> <s_m_source_file>
AV-unprocessed.smi

> <i_m_source_file_index>
3303

> <i_lp_mmshare_version>
43012

> <i_f3d_flags>
0

> <s_epik_input>
W0NIM11bQ0BASF0xW0NIMl1OKFtDSDNdKVtDQEBIXShbQ0gzXSlbQ0gyXVtDQEhdMVtOSF1bQ0gyXVtDSDJdYzJbY0hdW2NIXVtjSF1bY0hdbjI=

> <s_epik_cmdline>
J2VwaWtfcHl0aG9uJywgJy1waCcsICc3LjAnLCAnLXRuJywgJzgnLCAnLW1hJywgJzIwMCcsICctbWV0YWxfYmluZGluZycsICctaW1hZScsICc8aW5maWxlLm1hZT4nLCAnLW9tYWUnLCAnPG91dGZpbGUubWFlPic=

> <r_epik_Ionization_Penalty>
2.31085

> <r_epik_Ionization_Penalty_Charging>
0.000313057

> <r_epik_Ionization_Penalty_Neutral>
2.31054

> <r_epik_State_Penalty>
2.4087

> <r_epik_Charging_Adjusted_Penalty>
2.40902

> <i_epik_Tot_Q>
1

> <i_epik_Tot_abs_Q>
1

> <r_epik_Metal_State_Penalty>
2.30979

> <b_epik_Metal_Only>
0

> <s_lp_Force_Field>
OPLS_2005

> <r_lp_Energy>
23.6085

> <b_lp_Chiralities_Consistent>
1

> <s_lp_Variant>
AV-unprocessed.smi:3303-40

> <Gold.Version>
5.8.1

> <Gold.Id.Protein>
6NUR|6NUR_protein|mol2

> <Gold.PLP.Fitness>
46.9114

> <Gold.PLP.PLP>
-41.6027

> <Gold.PLP.part.hbond>
-1.0000

> <Gold.PLP.part.metal>
0.0000

> <Gold.PLP.part.buried>
-3.2443

> <Gold.PLP.part.nonpolar>
-37.4630

> <Gold.PLP.part.repulsive>
0.0728

> <Gold.PLP.ligand.clash>
0.0000

> <Gold.PLP.ligand.torsion>
0.3616

> <Gold.PLP.Chemscore.Hbond>
2.0000

> <Gold.PLP.Chemscore.CHOScore>
0.0000

> <Gold.PLP.Chemscore.Metal>
0.0000

> <Gold.Chemscore.Hbonds>
donor molecule, donor type, donor heavy atom, donor atom, acceptor molecule, acceptor atom, score
      L1  H     4    44       P1  8028  1.70

> <Gold.PLP.Chemscore.Internal.Correction>
0.0318

> <Gold.Rescore>
     Score         DG    S(hbond)    S(metal)    S(lipo)     H(rot)  DE(clash)    DE(int)     intcor
     15.54     -18.23       0.93        0.00     111.48       1.33       0.78       1.91       ----

> <Gold.Chemscore.Fitness>
15.5419

> <Gold.Chemscore.DG>
-18.2250

> <Gold.Chemscore.ZeroCoef>
-5.4800

> <Gold.Chemscore.Hbond>
0.9279

> <Gold.Chemscore.Metal>
0.0000

> <Gold.Chemscore.Lipo>
111.4832

> <Gold.Chemscore.Internal_Hbond>
0.0000

> <Gold.Chemscore.DEClash>
0.7762

> <Gold.Chemscore.DEInternal>
1.9070

> <Gold.Chemscore.Rot>
1.3272

> <Gold.Chemscore.Internal.Correction>
   9.000000E+99

> <Gold.Chemscore.Hbonds>
donor molecule, donor type, donor heavy atom, donor atom, acceptor molecule, acceptor atom, score
      L1  H     4    44       P1  8028  0.79

> <Gold.Chemscore.Hbond.Weighted>
-3.0991

> <Gold.Chemscore.Metal.Weighted>
-0.0000

> <Gold.Chemscore.Lipo.Weighted>
-13.0435

> <Gold.Chemscore.Internal_Hbond.Weighted>
0.0000

> <Gold.Chemscore.DEClash.Weighted>
0.7762

> <Gold.Chemscore.DEInternal.Weighted>
1.9070

> <Gold.Chemscore.Rot.Weighted>
3.3976

> <Gold.Chemscore.Internal.Correction.Weighted>
   9.000000E+99

> <Gold.Protein.RotatedTorsions>
[ 6907 6896 6895 6894 ] final   91.82 input  -60.11 | X-H torsion
[ 7974 7965 7964 7962 ] final   -3.93 input  175.53 | X-H torsion
[ 8008 7997 7996 7995 ] final   51.52 input   59.86 | X-H torsion
[ 10167 10162 10161 10158 ] final  -35.34 input  -65.29 | X-H torsion
[ 10718 10713 10712 10709 ] final -167.41 input   66.30 | X-H torsion
[ 10763 10752 10751 10750 ] final   16.50 input  -60.55 | X-H torsion
[ 11005 11000 10999 10996 ] final  160.08 input  -57.11 | X-H torsion

> <Gold.Protein.ActiveResidues>
 VAL166  LYS551  ARG553  GLY616  TRP617  ASP618  TYR619  PRO620  LYS621  CYS622 
 ASP623  PHE694  ASN695  SER759  ASP760  ASP761  ALA762  ILE779  LEU786  VAL792 
 PHE793  MET794  SER795  GLU796  ALA797  LYS798  CYS799  TRP800  GLU811  SER814 

> <Gold.Protein.RotatedAtoms>
  152.5451  134.1598  159.8552 H   0  0  0  0  0  0  0  0  0  0  0  0  # atno 6907 bound_to 6896
  151.1617  133.4833  159.2601 H   0  0  0  0  0  0  0  0  0  0  0  0  # atno 6908 bound_to 6896
  151.1366  135.0169  159.8661 H   0  0  0  0  0  0  0  0  0  0  0  0  # atno 6909 bound_to 6896
  146.2381  140.1795  142.8332 H   0  0  0  0  0  0  0  0  0  0  0  0  # atno 7974 bound_to 7965
  155.4367  140.3453  155.4285 H   0  0  0  0  0  0  0  0  0  0  0  0  # atno 8008 bound_to 7997
  156.1304  140.1512  156.9105 H   0  0  0  0  0  0  0  0  0  0  0  0  # atno 8009 bound_to 7997
  154.4890  140.0847  156.7531 H   0  0  0  0  0  0  0  0  0  0  0  0  # atno 8010 bound_to 7997
  140.7167  143.3484  151.2207 H   0  0  0  0  0  0  0  0  0  0  0  0  # atno 10167 bound_to 10162
  156.6820  130.9125  151.3058 H   0  0  0  0  0  0  0  0  0  0  0  0  # atno 10718 bound_to 10713
  153.1425  135.6763  153.9005 H   0  0  0  0  0  0  0  0  0  0  0  0  # atno 10763 bound_to 10752
  153.8457  135.3099  155.3430 H   0  0  0  0  0  0  0  0  0  0  0  0  # atno 10764 bound_to 10752
  154.7799  135.4894  153.9906 H   0  0  0  0  0  0  0  0  0  0  0  0  # atno 10765 bound_to 10752
  140.2025  134.8327  157.3033 H   0  0  0  0  0  0  0  0  0  0  0  0  # atno 11005 bound_to 11000
  144.9946  140.8577  143.5319 LP  0  0  0  0  0  0  0  0  0  0  0  0  # atno 17320 bound_to 7965
  145.1806  139.2354  143.5294 LP  0  0  0  0  0  0  0  0  0  0  0  0  # atno 17321 bound_to 7965
  139.7009  143.9534  152.2905 LP  0  0  0  0  0  0  0  0  0  0  0  0  # atno 17342 bound_to 10162
  139.9227  144.6790  150.8444 LP  0  0  0  0  0  0  0  0  0  0  0  0  # atno 17343 bound_to 10162
  157.7040  130.9364  150.0873 LP  0  0  0  0  0  0  0  0  0  0  0  0  # atno 17370 bound_to 10713
  156.1860  130.3652  149.8972 LP  0  0  0  0  0  0  0  0  0  0  0  0  # atno 17371 bound_to 10713
  140.2039  134.4221  155.7648 LP  0  0  0  0  0  0  0  0  0  0  0  0  # atno 17394 bound_to 11000
  141.2227  133.7085  156.8228 LP  0  0  0  0  0  0  0  0  0  0  0  0  # atno 17395 bound_to 11000

$$$$
