AV-unprocessed.smi:1120|AV-procd|sdf|4824|dock4
  -GOLD-   22720 3383D 1   1.00000     0.00000
 Structure written by MMmdl.
 48 49  0  0  0  0  0  0  0  0  3 V2000
  151.2307  128.5469  155.2986 C   0  0  0  0  0  0  0  0  0  0  0  0
  151.0922  130.0595  155.0785 C   0  0  2  0  0  0  0  0  0  0  0  0
  151.4507  130.8631  156.3504 C   0  0  0  0  0  0  0  0  0  0  0  0
  151.2717  132.3911  156.1661 C   0  0  0  0  0  0  0  0  0  0  0  0
  149.8472  132.7891  155.7120 C   0  0  1  0  0  0  0  0  0  0  0  0
  149.7952  134.2186  155.4417 N   0  5  0  0  0  0  0  0  0  0  0  0
  150.3422  135.2675  156.5494 S   0  0  0  0  0  0  0  0  0  0  0  0
  149.6147  135.1760  157.8268 O   0  0  0  0  0  0  0  0  0  0  0  0
  151.8120  135.2964  156.6254 O   0  0  0  0  0  0  0  0  0  0  0  0
  149.8367  136.8685  155.7823 C   0  0  0  0  0  0  0  0  0  0  0  0
  149.9502  137.9990  156.8029 C   0  0  0  0  0  0  0  0  0  0  0  0
  150.3411  137.7615  157.9458 O   0  0  0  0  0  0  0  0  0  0  0  0
  149.5982  139.2238  156.3799 N   0  0  0  0  0  0  0  0  0  0  0  0
  149.6003  140.4367  157.1929 C   0  0  0  0  0  0  0  0  0  0  0  0
  150.3383  141.6068  156.5137 C   0  0  0  0  0  0  0  0  0  0  0  0
  151.2090  142.4206  157.4558 C   0  0  0  0  0  0  0  0  0  0  0  0
  152.0764  141.8101  158.3873 C   0  0  0  0  0  0  0  0  0  0  0  0
  152.8403  142.6214  159.2524 C   0  0  0  0  0  0  0  0  0  0  0  0
  152.7231  144.0242  159.1667 C   0  0  0  0  0  0  0  0  0  0  0  0
  151.8421  144.5808  158.2179 C   0  0  0  0  0  0  0  0  0  0  0  0
  151.1257  143.7703  157.4093 N   0  3  0  0  0  0  0  0  0  0  0  0
  149.4843  131.9768  154.4440 C   0  0  0  0  0  0  0  0  0  0  0  0
  149.6656  130.4485  154.6245 C   0  0  0  0  0  0  0  0  0  0  0  0
  150.5553  128.1967  156.0798 H   0  0  0  0  0  0  0  0  0  0  0  0
  152.2469  128.2854  155.5947 H   0  0  0  0  0  0  0  0  0  0  0  0
  151.0000  127.9959  154.3867 H   0  0  0  0  0  0  0  0  0  0  0  0
  151.7886  130.3471  154.2893 H   0  0  0  0  0  0  0  0  0  0  0  0
  150.8436  130.5150  157.1887 H   0  0  0  0  0  0  0  0  0  0  0  0
  152.4846  130.6577  156.6295 H   0  0  0  0  0  0  0  0  0  0  0  0
  151.5149  132.8977  157.1008 H   0  0  0  0  0  0  0  0  0  0  0  0
  152.0004  132.7412  155.4330 H   0  0  0  0  0  0  0  0  0  0  0  0
  149.1563  132.5081  156.5081 H   0  0  0  0  0  0  0  0  0  0  0  0
  150.4829  137.0616  154.9257 H   0  0  0  0  0  0  0  0  0  0  0  0
  148.8129  136.7759  155.4195 H   0  0  0  0  0  0  0  0  0  0  0  0
  149.2862  139.3186  155.4237 H   0  0  0  0  0  0  0  0  0  0  0  0
  148.5816  140.7340  157.4473 H   0  0  0  0  0  0  0  0  0  0  0  0
  150.0897  140.2023  158.1382 H   0  0  0  0  0  0  0  0  0  0  0  0
  150.9640  141.2218  155.7076 H   0  0  0  0  0  0  0  0  0  0  0  0
  149.6136  142.2708  156.0406 H   0  0  0  0  0  0  0  0  0  0  0  0
  152.1488  140.7337  158.4459 H   0  0  0  0  0  0  0  0  0  0  0  0
  153.5049  142.1725  159.9759 H   0  0  0  0  0  0  0  0  0  0  0  0
  153.2935  144.6643  159.8238 H   0  0  0  0  0  0  0  0  0  0  0  0
  151.6768  145.6410  158.0908 H   0  0  0  0  0  0  0  0  0  0  0  0
  148.4535  132.1798  154.1526 H   0  0  0  0  0  0  0  0  0  0  0  0
  150.1053  132.3062  153.6094 H   0  0  0  0  0  0  0  0  0  0  0  0
  149.4375  129.9507  153.6816 H   0  0  0  0  0  0  0  0  0  0  0  0
  148.9354  130.0697  155.3427 H   0  0  0  0  0  0  0  0  0  0  0  0
  150.4794  144.1983  156.7447 H   0  0  0  0  0  0  0  0  0  0  0  0
  1  2  1  0  0  0  0
  1 24  1  0  0  0  0
  1 25  1  0  0  0  0
  1 26  1  0  0  0  0
  2 23  1  0  0  0  0
  2  3  1  0  0  0  0
  2 27  1  0  0  0  0
  3  4  1  0  0  0  0
  3 28  1  0  0  0  0
  3 29  1  0  0  0  0
  4  5  1  0  0  0  0
  4 30  1  0  0  0  0
  4 31  1  0  0  0  0
  5  6  1  0  0  0  0
  5 22  1  0  0  0  0
  5 32  1  0  0  0  0
  6  7  1  0  0  0  0
  7  8  2  0  0  0  0
  7  9  2  0  0  0  0
  7 10  1  0  0  0  0
 10 11  1  0  0  0  0
 10 33  1  0  0  0  0
 10 34  1  0  0  0  0
 11 12  2  0  0  0  0
 11 13  1  0  0  0  0
 13 14  1  0  0  0  0
 13 35  1  0  0  0  0
 14 15  1  0  0  0  0
 14 36  1  0  0  0  0
 14 37  1  0  0  0  0
 15 16  1  0  0  0  0
 15 38  1  0  0  0  0
 15 39  1  0  0  0  0
 16 21  1  0  0  0  0
 16 17  2  0  0  0  0
 17 18  1  0  0  0  0
 17 40  1  0  0  0  0
 18 19  2  0  0  0  0
 18 41  1  0  0  0  0
 19 20  1  0  0  0  0
 19 42  1  0  0  0  0
 20 21  2  0  0  0  0
 20 43  1  0  0  0  0
 21 48  1  0  0  0  0
 22 23  1  0  0  0  0
 22 44  1  0  0  0  0
 22 45  1  0  0  0  0
 23 46  1  0  0  0  0
 23 47  1  0  0  0  0
M  CHG  1   6  -1
M  CHG  1  21   1
M  END
> <s_m_source_file>
AV-unprocessed.smi

> <i_m_source_file_index>
1120

> <i_lp_mmshare_version>
43012

> <i_f3d_flags>
0

> <s_epik_input>
W0NIM11bQ0BASF0xW0NIMl1bQ0gyXVtDQEhdKFtDSDJdW0NIMl0xKVtOSF1TKD1PKSg9TylbQ0gyXUMoPU8pW05IXVtDSDJdW0NIMl1jMltjSF1bY0hdW2NIXVtjSF1uMg==

> <s_epik_cmdline>
J2VwaWtfcHl0aG9uJywgJy1waCcsICc3LjAnLCAnLXRuJywgJzgnLCAnLW1hJywgJzIwMCcsICctbWV0YWxfYmluZGluZycsICctaW1hZScsICc8aW5maWxlLm1hZT4nLCAnLW9tYWUnLCAnPG91dGZpbGUubWFlPic=

> <r_epik_Ionization_Penalty>
7.48373

> <r_epik_Ionization_Penalty_Charging>
7.48373

> <r_epik_Ionization_Penalty_Neutral>
1.58512e-08

> <r_epik_State_Penalty>
7.71683

> <r_epik_Charging_Adjusted_Penalty>
15.2006

> <i_epik_Tot_Q>
0

> <i_epik_Tot_abs_Q>
2

> <r_epik_Metal_State_Penalty>
3.7254

> <b_epik_Metal_Only>
1

> <s_lp_Force_Field>
OPLS_2005

> <r_lp_Energy>
6.08915

> <b_lp_Chiralities_Consistent>
1

> <s_lp_Variant>
AV-unprocessed.smi:1120-7

> <Gold.Version>
5.8.1

> <Gold.Id.Protein>
6NUR|6NUR_protein|mol2

> <Gold.PLP.Fitness>
49.8229

> <Gold.PLP.PLP>
-39.7320

> <Gold.PLP.part.hbond>
-3.0000

> <Gold.PLP.part.metal>
0.0000

> <Gold.PLP.part.buried>
-6.0925

> <Gold.PLP.part.nonpolar>
-31.2009

> <Gold.PLP.part.repulsive>
0.0850

> <Gold.PLP.ligand.clash>
0.0000

> <Gold.PLP.ligand.torsion>
1.4500

> <Gold.PLP.Chemscore.Hbond>
3.9516

> <Gold.PLP.Chemscore.CHOScore>
0.0000

> <Gold.PLP.Chemscore.Metal>
0.0000

> <Gold.Chemscore.Hbonds>
donor molecule, donor type, donor heavy atom, donor atom, acceptor molecule, acceptor atom, score
      L1  H    21    48       P1  8028  2.00
      P1  H  6896  6907       L1     8  0.89
      P1  H 10752 10765       L1     9  0.91

> <Gold.PLP.Chemscore.Internal.Correction>
1.1362

> <Gold.Rescore>
     Score         DG    S(hbond)    S(metal)    S(lipo)     H(rot)  DE(clash)    DE(int)     intcor
     19.53     -22.56       2.86        0.00     107.67       1.98       0.15       2.88       ----

> <Gold.Chemscore.Fitness>
19.5262

> <Gold.Chemscore.DG>
-22.5553

> <Gold.Chemscore.ZeroCoef>
-5.4800

> <Gold.Chemscore.Hbond>
2.8607

> <Gold.Chemscore.Metal>
0.0000

> <Gold.Chemscore.Lipo>
107.6698

> <Gold.Chemscore.Internal_Hbond>
0.0000

> <Gold.Chemscore.DEClash>
0.1466

> <Gold.Chemscore.DEInternal>
2.8825

> <Gold.Chemscore.Rot>
1.9832

> <Gold.Chemscore.Internal.Correction>
   9.000000E+99

> <Gold.Chemscore.Hbonds>
donor molecule, donor type, donor heavy atom, donor atom, acceptor molecule, acceptor atom, score
      L1  H    21    48       P1  8028  0.97
      P1  H  6896  6907       L1     8  0.78
      P1  H 10752 10765       L1     9  0.86

> <Gold.Chemscore.Hbond.Weighted>
-9.5548

> <Gold.Chemscore.Metal.Weighted>
-0.0000

> <Gold.Chemscore.Lipo.Weighted>
-12.5974

> <Gold.Chemscore.Internal_Hbond.Weighted>
0.0000

> <Gold.Chemscore.DEClash.Weighted>
0.1466

> <Gold.Chemscore.DEInternal.Weighted>
2.8825

> <Gold.Chemscore.Rot.Weighted>
5.0769

> <Gold.Chemscore.Internal.Correction.Weighted>
   9.000000E+99

> <Gold.Protein.RotatedTorsions>
[ 6907 6896 6895 6894 ] final  -81.17 input  -60.11 | X-H torsion
[ 7974 7965 7964 7962 ] final  117.02 input  175.53 | X-H torsion
[ 8008 7997 7996 7995 ] final  117.73 input   59.86 | X-H torsion
[ 10167 10162 10161 10158 ] final   -4.89 input  -65.29 | X-H torsion
[ 10718 10713 10712 10709 ] final   -4.86 input   66.30 | X-H torsion
[ 10763 10752 10751 10750 ] final -134.22 input  -60.55 | X-H torsion
[ 11005 11000 10999 10996 ] final -111.10 input  -57.11 | X-H torsion

> <Gold.Protein.ActiveResidues>
 VAL166  LYS551  ARG553  GLY616  TRP617  ASP618  TYR619  PRO620  LYS621  CYS622 
 ASP623  PHE694  ASN695  SER759  ASP760  ASP761  ALA762  ILE779  LEU786  VAL792 
 PHE793  MET794  SER795  GLU796  ALA797  LYS798  CYS799  TRP800  GLU811  SER814 

> <Gold.Protein.RotatedAtoms>
  150.6916  134.3858  159.5053 H   0  0  0  0  0  0  0  0  0  0  0  0  # atno 6907 bound_to 6896
  152.1653  134.8876  160.0547 H   0  0  0  0  0  0  0  0  0  0  0  0  # atno 6908 bound_to 6896
  151.9922  133.3760  159.4186 H   0  0  0  0  0  0  0  0  0  0  0  0  # atno 6909 bound_to 6896
  145.1725  139.3093  143.4460 H   0  0  0  0  0  0  0  0  0  0  0  0  # atno 7974 bound_to 7965
  156.2510  140.2890  156.0724 H   0  0  0  0  0  0  0  0  0  0  0  0  # atno 8008 bound_to 7997
  155.1656  140.0400  157.2869 H   0  0  0  0  0  0  0  0  0  0  0  0  # atno 8009 bound_to 7997
  154.6362  140.2511  155.7382 H   0  0  0  0  0  0  0  0  0  0  0  0  # atno 8010 bound_to 7997
  140.6944  143.6371  150.8469 H   0  0  0  0  0  0  0  0  0  0  0  0  # atno 10167 bound_to 10162
  156.7551  130.5251  149.5796 H   0  0  0  0  0  0  0  0  0  0  0  0  # atno 10718 bound_to 10713
  154.8722  135.3741  154.4701 H   0  0  0  0  0  0  0  0  0  0  0  0  # atno 10763 bound_to 10752
  153.5362  135.7027  153.5664 H   0  0  0  0  0  0  0  0  0  0  0  0  # atno 10764 bound_to 10752
  153.3846  135.3988  155.1846 H   0  0  0  0  0  0  0  0  0  0  0  0  # atno 10765 bound_to 10752
  141.0753  133.9311  157.2401 H   0  0  0  0  0  0  0  0  0  0  0  0  # atno 11005 bound_to 11000
  146.3466  140.1876  142.8589 LP  0  0  0  0  0  0  0  0  0  0  0  0  # atno 17320 bound_to 7965
  145.0218  140.8800  143.5162 LP  0  0  0  0  0  0  0  0  0  0  0  0  # atno 17321 bound_to 7965
  140.0088  143.5665  152.2847 LP  0  0  0  0  0  0  0  0  0  0  0  0  # atno 17342 bound_to 10162
  139.6381  144.7652  151.2395 LP  0  0  0  0  0  0  0  0  0  0  0  0  # atno 17343 bound_to 10162
  156.1376  130.6222  151.0422 LP  0  0  0  0  0  0  0  0  0  0  0  0  # atno 17370 bound_to 10713
  157.6760  131.0850  150.7493 LP  0  0  0  0  0  0  0  0  0  0  0  0  # atno 17371 bound_to 10713
  139.9566  135.0164  156.9145 LP  0  0  0  0  0  0  0  0  0  0  0  0  # atno 17394 bound_to 11000
  140.5585  134.0557  155.7391 LP  0  0  0  0  0  0  0  0  0  0  0  0  # atno 17395 bound_to 11000

$$$$
