AV-unprocessed.smi:3244|AV-procd|sdf|12399|dock7
  -GOLD-   2272018273D 1   1.00000     0.00000
 Structure written by MMmdl.
 41 42  0  0  0  0  0  0  0  0  2 V2000
  151.8624  144.1825  158.8545 C   0  0  0  0  0  0  0  0  0  0  0  0
  151.9414  143.1066  159.9499 C   0  0  0  0  0  0  0  0  0  0  0  0
  152.9149  142.0531  159.6231 N   0  0  0  0  0  0  0  0  0  0  0  0
  152.7141  141.1233  158.6549 C   0  0  0  0  0  0  0  0  0  0  0  0
  153.4276  140.1244  158.5452 O   0  0  0  0  0  0  0  0  0  0  0  0
  151.5631  141.3169  157.6509 C   0  0  0  0  0  0  0  0  0  0  0  0
  151.5679  140.3154  156.5591 N   0  3  0  0  0  0  0  0  0  0  0  0
  150.4898  140.4425  155.5477 C   0  0  1  0  0  0  0  0  0  0  0  0
  150.5138  139.2801  154.5407 C   0  0  0  0  0  0  0  0  0  0  0  0
  149.1166  140.5255  156.2468 C   0  0  0  0  0  0  0  0  0  0  0  0
  148.0239  140.8306  155.3369 N   0  0  0  0  0  0  0  0  0  0  0  0
  147.8538  141.9527  154.5528 C   0  0  0  0  0  0  0  0  0  0  0  0
  146.6702  141.8094  153.8873 C   0  0  0  0  0  0  0  0  0  0  0  0
  146.1727  140.5584  154.3467 C   0  0  0  0  0  0  0  0  0  0  0  0
  146.9822  139.9782  155.2179 N   0  0  0  0  0  0  0  0  0  0  0  0
  153.9909  141.9671  160.5757 C   0  0  0  0  0  0  0  0  0  0  0  0
  154.2030  140.6709  161.3292 C   0  0  0  0  0  0  0  0  0  0  0  0
  153.7122  141.8896  162.0671 C   0  0  0  0  0  0  0  0  0  0  0  0
  151.1223  144.9400  159.1134 H   0  0  0  0  0  0  0  0  0  0  0  0
  151.5664  143.7483  157.8992 H   0  0  0  0  0  0  0  0  0  0  0  0
  152.8132  144.6921  158.7053 H   0  0  0  0  0  0  0  0  0  0  0  0
  152.1607  143.5658  160.9130 H   0  0  0  0  0  0  0  0  0  0  0  0
  150.9499  142.6691  160.0757 H   0  0  0  0  0  0  0  0  0  0  0  0
  150.6185  141.2021  158.1800 H   0  0  0  0  0  0  0  0  0  0  0  0
  151.5769  142.3235  157.2323 H   0  0  0  0  0  0  0  0  0  0  0  0
  152.4690  140.3295  156.1025 H   0  0  0  0  0  0  0  0  0  0  0  0
  150.6457  141.3702  154.9952 H   0  0  0  0  0  0  0  0  0  0  0  0
  149.6955  139.3668  153.8253 H   0  0  0  0  0  0  0  0  0  0  0  0
  150.4144  138.3166  155.0421 H   0  0  0  0  0  0  0  0  0  0  0  0
  151.4393  139.2651  153.9650 H   0  0  0  0  0  0  0  0  0  0  0  0
  148.8863  139.5791  156.7379 H   0  0  0  0  0  0  0  0  0  0  0  0
  149.1375  141.2854  157.0296 H   0  0  0  0  0  0  0  0  0  0  0  0
  148.5806  142.7514  154.5315 H   0  0  0  0  0  0  0  0  0  0  0  0
  146.2236  142.4973  153.1847 H   0  0  0  0  0  0  0  0  0  0  0  0
  145.2535  140.0598  154.0768 H   0  0  0  0  0  0  0  0  0  0  0  0
  154.8945  142.5077  160.2995 H   0  0  0  0  0  0  0  0  0  0  0  0
  153.4899  139.8644  161.1685 H   0  0  0  0  0  0  0  0  0  0  0  0
  155.2296  140.3559  161.5047 H   0  0  0  0  0  0  0  0  0  0  0  0
  154.4126  142.3885  162.7336 H   0  0  0  0  0  0  0  0  0  0  0  0
  152.6801  141.8674  162.4117 H   0  0  0  0  0  0  0  0  0  0  0  0
  151.4453  139.4120  156.9939 H   0  0  0  0  0  0  0  0  0  0  0  0
  1  2  1  0  0  0  0
  1 19  1  0  0  0  0
  1 20  1  0  0  0  0
  1 21  1  0  0  0  0
  2  3  1  0  0  0  0
  2 22  1  0  0  0  0
  2 23  1  0  0  0  0
  3  4  1  0  0  0  0
  3 16  1  0  0  0  0
  4  5  2  0  0  0  0
  4  6  1  0  0  0  0
  6  7  1  0  0  0  0
  6 24  1  0  0  0  0
  6 25  1  0  0  0  0
  7  8  1  0  0  0  0
  7 26  1  0  0  0  0
  7 41  1  0  0  0  0
  8  9  1  0  0  0  0
  8 10  1  0  0  0  0
  8 27  1  0  0  0  0
  9 28  1  0  0  0  0
  9 29  1  0  0  0  0
  9 30  1  0  0  0  0
 10 11  1  0  0  0  0
 10 31  1  0  0  0  0
 10 32  1  0  0  0  0
 11 15  1  0  0  0  0
 11 12  1  0  0  0  0
 12 13  2  0  0  0  0
 12 33  1  0  0  0  0
 13 14  1  0  0  0  0
 13 34  1  0  0  0  0
 14 15  2  0  0  0  0
 14 35  1  0  0  0  0
 16 18  1  0  0  0  0
 16 17  1  0  0  0  0
 16 36  1  0  0  0  0
 17 18  1  0  0  0  0
 17 37  1  0  0  0  0
 17 38  1  0  0  0  0
 18 39  1  0  0  0  0
 18 40  1  0  0  0  0
M  CHG  1   7   1
M  END
> <s_m_source_file>
AV-unprocessed.smi

> <i_m_source_file_index>
3244

> <i_lp_mmshare_version>
43012

> <i_f3d_flags>
0

> <s_epik_input>
W0NIMl0xW0NIMl1bQ0hdMU4oW0NIMl1bQ0gzXSlDKD1PKVtDSDJdW05IXVtDQEhdKFtDSDNdKVtDSDJdbjJbY0hdW2NIXVtjSF1uMg==

> <s_epik_cmdline>
J2VwaWtfcHl0aG9uJywgJy1waCcsICc3LjAnLCAnLXRuJywgJzgnLCAnLW1hJywgJzIwMCcsICctbWV0YWxfYmluZGluZycsICctaW1hZScsICc8aW5maWxlLm1hZT4nLCAnLW9tYWUnLCAnPG91dGZpbGUubWFlPic=

> <r_lp_tautomer_probability>
1

> <r_epik_Ionization_Penalty>
0.115625

> <r_epik_Ionization_Penalty_Charging>
0.115622

> <r_epik_Ionization_Penalty_Neutral>
3.43793e-06

> <r_epik_State_Penalty>
0.105255

> <r_epik_Charging_Adjusted_Penalty>
0.220877

> <i_epik_Tot_Q>
1

> <i_epik_Tot_abs_Q>
1

> <r_epik_Metal_State_Penalty>
0.105264

> <b_epik_Metal_Only>
0

> <s_lp_Force_Field>
OPLS_2005

> <r_lp_Energy>
36.1392

> <b_lp_Chiralities_Consistent>
1

> <s_lp_Variant>
AV-unprocessed.smi:3244-2

> <Gold.Version>
5.8.1

> <Gold.Id.Protein>
6NUR|6NUR_protein|mol2

> <Gold.PLP.Fitness>
48.1171

> <Gold.PLP.PLP>
-39.2929

> <Gold.PLP.part.hbond>
-1.0000

> <Gold.PLP.part.metal>
0.0000

> <Gold.PLP.part.buried>
-1.3517

> <Gold.PLP.part.nonpolar>
-35.5642

> <Gold.PLP.part.repulsive>
0.1646

> <Gold.PLP.ligand.clash>
0.0000

> <Gold.PLP.ligand.torsion>
0.2815

> <Gold.PLP.Chemscore.Hbond>
1.0000

> <Gold.PLP.Chemscore.CHOScore>
1.9993

> <Gold.PLP.Chemscore.Metal>
0.0000

> <Gold.Chemscore.Hbonds>
donor molecule, donor type, donor heavy atom, donor atom, acceptor molecule, acceptor atom, score
      P1  H  7997  8009       L1     5  0.99
      L1  C    12    33       P1  8028  1.00
      L1  C    14    35       P1 10175  1.00

> <Gold.PLP.Chemscore.Internal.Correction>
0.3895

> <Gold.Rescore>
     Score         DG    S(hbond)    S(metal)    S(lipo)     H(rot)  DE(clash)    DE(int)     intcor
     14.24     -14.80       0.91        0.00      98.36       2.04       0.07       0.49       ----

> <Gold.Chemscore.Fitness>
14.2406

> <Gold.Chemscore.DG>
-14.7987

> <Gold.Chemscore.ZeroCoef>
-5.4800

> <Gold.Chemscore.Hbond>
0.9111

> <Gold.Chemscore.Metal>
0.0000

> <Gold.Chemscore.Lipo>
98.3610

> <Gold.Chemscore.Internal_Hbond>
0.0000

> <Gold.Chemscore.DEClash>
0.0685

> <Gold.Chemscore.DEInternal>
0.4896

> <Gold.Chemscore.Rot>
2.0440

> <Gold.Chemscore.Internal.Correction>
   9.000000E+99

> <Gold.Chemscore.Hbonds>
donor molecule, donor type, donor heavy atom, donor atom, acceptor molecule, acceptor atom, score
      P1  H  7997  8009       L1     5  0.91

> <Gold.Chemscore.Hbond.Weighted>
-3.0430

> <Gold.Chemscore.Metal.Weighted>
-0.0000

> <Gold.Chemscore.Lipo.Weighted>
-11.5082

> <Gold.Chemscore.Internal_Hbond.Weighted>
0.0000

> <Gold.Chemscore.DEClash.Weighted>
0.0685

> <Gold.Chemscore.DEInternal.Weighted>
0.4896

> <Gold.Chemscore.Rot.Weighted>
5.2325

> <Gold.Chemscore.Internal.Correction.Weighted>
   9.000000E+99

> <Gold.Protein.RotatedTorsions>
[ 6907 6896 6895 6894 ] final    3.00 input  -60.11 | X-H torsion
[ 7974 7965 7964 7962 ] final  -55.40 input  175.53 | X-H torsion
[ 8008 7997 7996 7995 ] final  146.01 input   59.86 | X-H torsion
[ 10167 10162 10161 10158 ] final  145.06 input  -65.29 | X-H torsion
[ 10718 10713 10712 10709 ] final   19.16 input   66.30 | X-H torsion
[ 10763 10752 10751 10750 ] final -168.91 input  -60.55 | X-H torsion
[ 11005 11000 10999 10996 ] final -104.88 input  -57.11 | X-H torsion

> <Gold.Protein.ActiveResidues>
 VAL166  LYS551  ARG553  GLY616  TRP617  ASP618  TYR619  PRO620  LYS621  CYS622 
 ASP623  PHE694  ASN695  SER759  ASP760  ASP761  ALA762  ILE779  LEU786  VAL792 
 PHE793  MET794  SER795  GLU796  ALA797  LYS798  CYS799  TRP800  GLU811  SER814 

> <Gold.Protein.RotatedAtoms>
  151.6179  135.1034  160.0095 H   0  0  0  0  0  0  0  0  0  0  0  0  # atno 6907 bound_to 6896
  152.4173  133.7055  159.6459 H   0  0  0  0  0  0  0  0  0  0  0  0  # atno 6908 bound_to 6896
  150.8061  133.8433  159.3226 H   0  0  0  0  0  0  0  0  0  0  0  0  # atno 6909 bound_to 6896
  145.8746  140.8191  142.9871 H   0  0  0  0  0  0  0  0  0  0  0  0  # atno 7974 bound_to 7965
  156.2867  140.2194  156.5308 H   0  0  0  0  0  0  0  0  0  0  0  0  # atno 8008 bound_to 7997
  154.7450  140.0485  157.0866 H   0  0  0  0  0  0  0  0  0  0  0  0  # atno 8009 bound_to 7997
  155.0182  140.3121  155.4806 H   0  0  0  0  0  0  0  0  0  0  0  0  # atno 8010 bound_to 7997
  139.4934  144.5928  151.6645 H   0  0  0  0  0  0  0  0  0  0  0  0  # atno 10167 bound_to 10162
  157.1065  130.6490  149.5886 H   0  0  0  0  0  0  0  0  0  0  0  0  # atno 10718 bound_to 10713
  154.6578  135.2920  154.9905 H   0  0  0  0  0  0  0  0  0  0  0  0  # atno 10763 bound_to 10752
  154.0975  135.6581  153.4866 H   0  0  0  0  0  0  0  0  0  0  0  0  # atno 10764 bound_to 10752
  153.0412  135.5234  154.7515 H   0  0  0  0  0  0  0  0  0  0  0  0  # atno 10765 bound_to 10752
  141.1080  133.8761  157.1666 H   0  0  0  0  0  0  0  0  0  0  0  0  # atno 11005 bound_to 11000
  144.6726  140.1290  143.7445 LP  0  0  0  0  0  0  0  0  0  0  0  0  # atno 17320 bound_to 7965
  145.9097  139.2479  143.1445 LP  0  0  0  0  0  0  0  0  0  0  0  0  # atno 17321 bound_to 7965
  140.5559  144.0349  150.6147 LP  0  0  0  0  0  0  0  0  0  0  0  0  # atno 17342 bound_to 10162
  140.3419  143.3015  152.0580 LP  0  0  0  0  0  0  0  0  0  0  0  0  # atno 17343 bound_to 10162
  155.9861  130.4893  150.7061 LP  0  0  0  0  0  0  0  0  0  0  0  0  # atno 17370 bound_to 10713
  157.4596  131.0881  151.0760 LP  0  0  0  0  0  0  0  0  0  0  0  0  # atno 17371 bound_to 10713
  139.9959  135.0047  157.0080 LP  0  0  0  0  0  0  0  0  0  0  0  0  # atno 17394 bound_to 11000
  140.4852  134.1249  155.7223 LP  0  0  0  0  0  0  0  0  0  0  0  0  # atno 17395 bound_to 11000

$$$$
