AV-unprocessed.smi:268|AV-procd|sdf|2040|dock8
  -GOLD-   2262021253D 1   1.00000     0.00000
 Structure written by MMmdl.
 50 53  0  0  0  0  0  0  0  0  1 V2000
  151.8603  145.7118  160.1042 C   0  0  0  0  0  0  0  0  0  0  0  0
  151.1616  144.3619  160.2818 C   0  0  0  0  0  0  0  0  0  0  0  0
  150.7123  143.9072  159.0163 O   0  0  0  0  0  0  0  0  0  0  0  0
  150.9080  142.5146  158.8336 C   0  0  2  0  0  0  0  0  0  0  0  0
  152.3640  142.0572  158.9931 C   0  0  0  0  0  0  0  0  0  0  0  0
  152.2236  141.2488  157.6896 C   0  0  1  0  0  0  0  0  0  0  0  0
  151.8873  139.8390  157.9277 N   0  0  0  0  0  0  0  0  0  0  0  0
  152.4835  139.1960  159.0959 C   0  0  0  0  0  0  0  0  0  0  0  0
  151.8219  139.0048  156.8574 C   0  0  0  0  0  0  0  0  0  0  0  0
  152.5877  139.2406  155.7581 N   0  0  0  0  0  0  0  0  0  0  0  0
  152.5323  138.4166  154.7078 C   0  0  0  0  0  0  0  0  0  0  0  0
  151.7949  137.3159  154.5488 N   0  0  0  0  0  0  0  0  0  0  0  0
  151.0280  137.0713  155.6497 C   0  0  0  0  0  0  0  0  0  0  0  0
  150.9839  137.8548  156.8370 C   0  0  0  0  0  0  0  0  0  0  0  0
  150.0861  137.2968  157.7390 N   0  0  0  0  0  0  0  0  0  0  0  0
  149.6266  136.2433  157.1208 C   0  0  0  0  0  0  0  0  0  0  0  0
  150.1301  136.0378  155.8558 N   0  0  0  0  0  0  0  0  0  0  0  0
  149.7912  134.9537  154.9465 C   0  0  0  0  0  0  0  0  0  0  0  0
  149.9460  133.5519  155.5653 C   0  0  0  0  0  0  0  0  0  0  0  0
  149.7953  132.4999  154.4471 C   0  0  0  0  0  0  0  0  0  0  0  0
  149.9239  131.1766  154.9278 O   0  0  0  0  0  0  0  0  0  0  0  0
  151.1563  133.3868  156.4957 C   0  0  0  0  0  0  0  0  0  0  0  0
  150.3342  132.8928  157.5762 O   0  0  0  0  0  0  0  0  0  0  0  0
  149.1487  133.2869  156.8507 C   0  0  0  0  0  0  0  0  0  0  0  0
  151.0025  142.1309  157.3538 C   0  0  0  0  0  0  0  0  0  0  0  0
  152.2178  146.0942  161.0604 H   0  0  0  0  0  0  0  0  0  0  0  0
  151.1804  146.4516  159.6808 H   0  0  0  0  0  0  0  0  0  0  0  0
  152.7180  145.6231  159.4371 H   0  0  0  0  0  0  0  0  0  0  0  0
  151.8530  143.6413  160.7209 H   0  0  0  0  0  0  0  0  0  0  0  0
  150.3168  144.4674  160.9640 H   0  0  0  0  0  0  0  0  0  0  0  0
  150.1975  141.8851  159.3731 H   0  0  0  0  0  0  0  0  0  0  0  0
  153.0755  142.8786  158.8943 H   0  0  0  0  0  0  0  0  0  0  0  0
  152.5519  141.4800  159.8989 H   0  0  0  0  0  0  0  0  0  0  0  0
  153.0621  141.3927  157.0068 H   0  0  0  0  0  0  0  0  0  0  0  0
  151.7007  138.8821  159.7868 H   0  0  0  0  0  0  0  0  0  0  0  0
  153.1460  139.8803  159.6266 H   0  0  0  0  0  0  0  0  0  0  0  0
  153.0736  138.3177  158.8276 H   0  0  0  0  0  0  0  0  0  0  0  0
  153.1703  138.6768  153.8762 H   0  0  0  0  0  0  0  0  0  0  0  0
  148.9004  135.5856  157.5752 H   0  0  0  0  0  0  0  0  0  0  0  0
  148.7704  135.1047  154.5929 H   0  0  0  0  0  0  0  0  0  0  0  0
  150.4247  135.0545  154.0643 H   0  0  0  0  0  0  0  0  0  0  0  0
  148.8195  132.5720  153.9669 H   0  0  0  0  0  0  0  0  0  0  0  0
  150.5437  132.6511  153.6685 H   0  0  0  0  0  0  0  0  0  0  0  0
  150.4484  131.1915  155.7138 H   0  0  0  0  0  0  0  0  0  0  0  0
  151.8903  132.6548  156.1570 H   0  0  0  0  0  0  0  0  0  0  0  0
  151.6447  134.3264  156.7587 H   0  0  0  0  0  0  0  0  0  0  0  0
  148.6933  134.1772  157.2856 H   0  0  0  0  0  0  0  0  0  0  0  0
  148.4195  132.4803  156.7669 H   0  0  0  0  0  0  0  0  0  0  0  0
  150.1206  141.6147  156.9735 H   0  0  0  0  0  0  0  0  0  0  0  0
  151.2679  142.9760  156.7166 H   0  0  0  0  0  0  0  0  0  0  0  0
  1  2  1  0  0  0  0
  1 26  1  0  0  0  0
  1 27  1  0  0  0  0
  1 28  1  0  0  0  0
  2  3  1  0  0  0  0
  2 29  1  0  0  0  0
  2 30  1  0  0  0  0
  3  4  1  0  0  0  0
  4 25  1  0  0  0  0
  4  5  1  0  0  0  0
  4 31  1  0  0  0  0
  5  6  1  0  0  0  0
  5 32  1  0  0  0  0
  5 33  1  0  0  0  0
  6  7  1  0  0  0  0
  6 25  1  0  0  0  0
  6 34  1  0  0  0  0
  7  8  1  0  0  0  0
  7  9  1  0  0  0  0
  8 35  1  0  0  0  0
  8 36  1  0  0  0  0
  8 37  1  0  0  0  0
  9 14  1  0  0  0  0
  9 10  2  0  0  0  0
 10 11  1  0  0  0  0
 11 12  2  0  0  0  0
 11 38  1  0  0  0  0
 12 13  1  0  0  0  0
 13 17  1  0  0  0  0
 13 14  2  0  0  0  0
 14 15  1  0  0  0  0
 15 16  2  0  0  0  0
 16 17  1  0  0  0  0
 16 39  1  0  0  0  0
 17 18  1  0  0  0  0
 18 19  1  0  0  0  0
 18 40  1  0  0  0  0
 18 41  1  0  0  0  0
 19 24  1  0  0  0  0
 19 20  1  0  0  0  0
 19 22  1  0  0  0  0
 20 21  1  0  0  0  0
 20 42  1  0  0  0  0
 20 43  1  0  0  0  0
 21 44  1  0  0  0  0
 22 23  1  0  0  0  0
 22 45  1  0  0  0  0
 22 46  1  0  0  0  0
 23 24  1  0  0  0  0
 24 47  1  0  0  0  0
 24 48  1  0  0  0  0
 25 49  1  0  0  0  0
 25 50  1  0  0  0  0
M  END
> <s_m_source_file>
AV-unprocessed.smi

> <i_m_source_file_index>
268

> <i_lp_mmshare_version>
43012

> <i_f3d_flags>
0

> <s_epik_input>
W0NIM11bQ0gyXU9bQ0BASF0xW0NIMl1bQ0BIXShbQ0gyXTEpTihbQ0gzXSljKG5bY0hdbjIpYyhjMjMpbltjSF1uM1tDSDJdQzQoW0NIMl1bT0hdKVtDSDJdT1tDSDJdNA==

> <s_epik_cmdline>
J2VwaWtfcHl0aG9uJywgJy1waCcsICc3LjAnLCAnLXRuJywgJzgnLCAnLW1hJywgJzIwMCcsICctbWV0YWxfYmluZGluZycsICctaW1hZScsICc8aW5maWxlLm1hZT4nLCAnLW9tYWUnLCAnPG91dGZpbGUubWFlPic=

> <r_lp_tautomer_probability>
1

> <r_epik_Ionization_Penalty>
0.00205824

> <r_epik_Ionization_Penalty_Charging>
0

> <r_epik_Ionization_Penalty_Neutral>
0.00205824

> <r_epik_State_Penalty>
0.00125218

> <r_epik_Charging_Adjusted_Penalty>
0.00125218

> <i_epik_Tot_Q>
0

> <i_epik_Tot_abs_Q>
0

> <r_epik_Metal_State_Penalty>
-0

> <b_epik_Metal_Only>
0

> <s_lp_Force_Field>
OPLS_2005

> <r_lp_Energy>
42.2334

> <b_lp_Chiralities_Consistent>
1

> <s_lp_Variant>
AV-unprocessed.smi:268-1

> <Gold.Version>
5.8.1

> <Gold.Id.Protein>
6NUR|6NUR_protein|mol2

> <Gold.PLP.Fitness>
44.0667

> <Gold.PLP.PLP>
-37.1660

> <Gold.PLP.part.hbond>
-3.0000

> <Gold.PLP.part.metal>
0.0000

> <Gold.PLP.part.buried>
-8.6427

> <Gold.PLP.part.nonpolar>
-26.1589

> <Gold.PLP.part.repulsive>
0.2598

> <Gold.PLP.ligand.clash>
0.0000

> <Gold.PLP.ligand.torsion>
1.7140

> <Gold.PLP.Chemscore.Hbond>
3.0000

> <Gold.PLP.Chemscore.CHOScore>
0.0000

> <Gold.PLP.Chemscore.Metal>
0.0000

> <Gold.Chemscore.Hbonds>
donor molecule, donor type, donor heavy atom, donor atom, acceptor molecule, acceptor atom, score
      P1  H  6896  6907       L1    23  1.00
      P1  H  7997  8010       L1    10  1.00
      P1  H 10752 10765       L1    12  1.00

> <Gold.PLP.Chemscore.Internal.Correction>
1.3288

> <Gold.Rescore>
     Score         DG    S(hbond)    S(metal)    S(lipo)     H(rot)  DE(clash)    DE(int)     intcor
     12.76     -15.45       2.30        0.00      88.54       3.15       0.05       2.63       ----

> <Gold.Chemscore.Fitness>
12.7648

> <Gold.Chemscore.DG>
-15.4486

> <Gold.Chemscore.ZeroCoef>
-5.4800

> <Gold.Chemscore.Hbond>
2.3008

> <Gold.Chemscore.Metal>
0.0000

> <Gold.Chemscore.Lipo>
88.5351

> <Gold.Chemscore.Internal_Hbond>
0.0000

> <Gold.Chemscore.DEClash>
0.0538

> <Gold.Chemscore.DEInternal>
2.6300

> <Gold.Chemscore.Rot>
3.1542

> <Gold.Chemscore.Internal.Correction>
   9.000000E+99

> <Gold.Chemscore.Hbonds>
donor molecule, donor type, donor heavy atom, donor atom, acceptor molecule, acceptor atom, score
      P1  H  6896  6907       L1    23  0.47
      P1  H  7997  8010       L1    10  0.76
      P1  H 10752 10765       L1    12  0.42

> <Gold.Chemscore.Hbond.Weighted>
-7.6848

> <Gold.Chemscore.Metal.Weighted>
-0.0000

> <Gold.Chemscore.Lipo.Weighted>
-10.3586

> <Gold.Chemscore.Internal_Hbond.Weighted>
0.0000

> <Gold.Chemscore.DEClash.Weighted>
0.0538

> <Gold.Chemscore.DEInternal.Weighted>
2.6300

> <Gold.Chemscore.Rot.Weighted>
8.0748

> <Gold.Chemscore.Internal.Correction.Weighted>
   9.000000E+99

> <Gold.Protein.RotatedTorsions>
[ 6907 6896 6895 6894 ] final -157.03 input  -60.11 | X-H torsion
[ 7974 7965 7964 7962 ] final   12.23 input  175.53 | X-H torsion
[ 8008 7997 7996 7995 ] final   85.81 input   59.86 | X-H torsion
[ 10167 10162 10161 10158 ] final  169.78 input  -65.29 | X-H torsion
[ 10718 10713 10712 10709 ] final   46.37 input   66.30 | X-H torsion
[ 10763 10752 10751 10750 ] final  160.99 input  -60.55 | X-H torsion
[ 11005 11000 10999 10996 ] final   59.95 input  -57.11 | X-H torsion

> <Gold.Protein.ActiveResidues>
 VAL166  LYS551  ARG553  GLY616  TRP617  ASP618  TYR619  PRO620  LYS621  CYS622 
 ASP623  PHE694  ASN695  SER759  ASP760  ASP761  ALA762  ILE779  LEU786  VAL792 
 PHE793  MET794  SER795  GLU796  ALA797  LYS798  CYS799  TRP800  GLU811  SER814 

> <Gold.Protein.RotatedAtoms>
  151.2966  133.4141  159.2636 H   0  0  0  0  0  0  0  0  0  0  0  0  # atno 6907 bound_to 6896
  151.0231  134.9485  159.8081 H   0  0  0  0  0  0  0  0  0  0  0  0  # atno 6908 bound_to 6896
  152.5329  134.2928  159.9102 H   0  0  0  0  0  0  0  0  0  0  0  0  # atno 6909 bound_to 6896
  146.2355  139.9367  142.8489 H   0  0  0  0  0  0  0  0  0  0  0  0  # atno 7974 bound_to 7965
  155.9548  140.3398  155.6439 H   0  0  0  0  0  0  0  0  0  0  0  0  # atno 8008 bound_to 7997
  155.6874  140.0745  157.2480 H   0  0  0  0  0  0  0  0  0  0  0  0  # atno 8009 bound_to 7997
  154.4130  140.1663  156.2036 H   0  0  0  0  0  0  0  0  0  0  0  0  # atno 8010 bound_to 7997
  139.5001  144.3669  151.9766 H   0  0  0  0  0  0  0  0  0  0  0  0  # atno 10167 bound_to 10162
  157.4473  130.8117  149.7753 H   0  0  0  0  0  0  0  0  0  0  0  0  # atno 10718 bound_to 10713
  154.2560  135.2770  155.2797 H   0  0  0  0  0  0  0  0  0  0  0  0  # atno 10763 bound_to 10752
  154.5425  135.5698  153.6855 H   0  0  0  0  0  0  0  0  0  0  0  0  # atno 10764 bound_to 10752
  152.9971  135.6254  154.2708 H   0  0  0  0  0  0  0  0  0  0  0  0  # atno 10765 bound_to 10752
  140.0267  134.6073  155.9564 H   0  0  0  0  0  0  0  0  0  0  0  0  # atno 11005 bound_to 11000
  145.1992  140.9846  143.4166 LP  0  0  0  0  0  0  0  0  0  0  0  0  # atno 17320 bound_to 7965
  144.9789  139.3804  143.6272 LP  0  0  0  0  0  0  0  0  0  0  0  0  # atno 17321 bound_to 7965
  140.3105  144.3543  150.6035 LP  0  0  0  0  0  0  0  0  0  0  0  0  # atno 17342 bound_to 10162
  140.5803  143.2173  151.7441 LP  0  0  0  0  0  0  0  0  0  0  0  0  # atno 17343 bound_to 10162
  155.9973  130.3901  150.2747 LP  0  0  0  0  0  0  0  0  0  0  0  0  # atno 17370 bound_to 10713
  157.0916  131.0171  151.3119 LP  0  0  0  0  0  0  0  0  0  0  0  0  # atno 17371 bound_to 10713
  141.1807  133.6546  156.5007 LP  0  0  0  0  0  0  0  0  0  0  0  0  # atno 17394 bound_to 11000
  140.4295  134.7114  157.4934 LP  0  0  0  0  0  0  0  0  0  0  0  0  # atno 17395 bound_to 11000

$$$$
