AV-unprocessed.smi:3287|AV-procd|sdf|12598|dock7
  -GOLD-   2272018523D 1   1.00000     0.00000
 Structure written by MMmdl.
 43 44  0  0  0  0  0  0  0  0  2 V2000
  150.9669  142.1068  156.6895 C   0  0  0  0  0  0  0  0  0  0  0  0
  150.3713  141.3701  155.4785 C   0  0  2  0  0  0  0  0  0  0  0  0
  148.8384  141.5166  155.4151 C   0  0  0  0  0  0  0  0  0  0  0  0
  148.2584  140.8526  154.1560 C   0  0  0  0  0  0  0  0  0  0  0  0
  148.6696  139.3695  154.0514 C   0  0  1  0  0  0  0  0  0  0  0  0
  148.1755  138.7555  152.7990 N   0  3  0  0  0  0  0  0  0  0  0  0
  146.7375  138.4093  152.7846 C   0  0  0  0  0  0  0  0  0  0  0  0
  146.4634  137.1925  151.8835 C   0  0  2  0  0  0  0  0  0  0  0  0
  146.4182  137.6246  150.5374 O   0  0  0  0  0  0  0  0  0  0  0  0
  145.1806  136.4841  152.2894 C   0  0  0  0  0  0  0  0  0  0  0  0
  144.7413  135.3414  151.5887 C   0  0  0  0  0  0  0  0  0  0  0  0
  143.5491  134.7138  152.0022 C   0  0  0  0  0  0  0  0  0  0  0  0
  142.8040  135.1486  153.0407 N   0  0  0  0  0  0  0  0  0  0  0  0
  143.2295  136.2412  153.7097 C   0  0  0  0  0  0  0  0  0  0  0  0
  144.4055  136.9427  153.3769 C   0  0  0  0  0  0  0  0  0  0  0  0
  150.2040  139.2346  154.1226 C   0  0  0  0  0  0  0  0  0  0  0  0
  150.8049  139.8848  155.3870 C   0  0  2  0  0  0  0  0  0  0  0  0
  150.5027  139.0579  156.6533 C   0  0  0  0  0  0  0  0  0  0  0  0
  150.5571  141.7384  157.6301 H   0  0  0  0  0  0  0  0  0  0  0  0
  150.7526  143.1748  156.6382 H   0  0  0  0  0  0  0  0  0  0  0  0
  152.0506  141.9923  156.7265 H   0  0  0  0  0  0  0  0  0  0  0  0
  150.7728  141.8683  154.5945 H   0  0  0  0  0  0  0  0  0  0  0  0
  148.3808  141.0825  156.3045 H   0  0  0  0  0  0  0  0  0  0  0  0
  148.5679  142.5733  155.4214 H   0  0  0  0  0  0  0  0  0  0  0  0
  147.1733  140.9518  154.1746 H   0  0  0  0  0  0  0  0  0  0  0  0
  148.6019  141.3932  153.2727 H   0  0  0  0  0  0  0  0  0  0  0  0
  148.2367  138.8182  154.8870 H   0  0  0  0  0  0  0  0  0  0  0  0
  148.3694  139.3800  152.0289 H   0  0  0  0  0  0  0  0  0  0  0  0
  146.4245  138.1847  153.8052 H   0  0  0  0  0  0  0  0  0  0  0  0
  146.1472  139.2623  152.4491 H   0  0  0  0  0  0  0  0  0  0  0  0
  147.2905  136.4861  151.9708 H   0  0  0  0  0  0  0  0  0  0  0  0
  145.5316  137.8847  150.3359 H   0  0  0  0  0  0  0  0  0  0  0  0
  145.3005  134.9493  150.7520 H   0  0  0  0  0  0  0  0  0  0  0  0
  143.1851  133.8385  151.4850 H   0  0  0  0  0  0  0  0  0  0  0  0
  142.6153  136.5660  154.5365 H   0  0  0  0  0  0  0  0  0  0  0  0
  144.7014  137.8112  153.9472 H   0  0  0  0  0  0  0  0  0  0  0  0
  150.4902  138.1830  154.0757 H   0  0  0  0  0  0  0  0  0  0  0  0
  150.6464  139.7039  153.2424 H   0  0  0  0  0  0  0  0  0  0  0  0
  151.8889  139.8691  155.2652 H   0  0  0  0  0  0  0  0  0  0  0  0
  149.4431  139.0622  156.9069 H   0  0  0  0  0  0  0  0  0  0  0  0
  151.0499  139.4359  157.5166 H   0  0  0  0  0  0  0  0  0  0  0  0
  150.8037  138.0184  156.5197 H   0  0  0  0  0  0  0  0  0  0  0  0
  148.6914  137.8998  152.6522 H   0  0  0  0  0  0  0  0  0  0  0  0
  1  2  1  0  0  0  0
  1 19  1  0  0  0  0
  1 20  1  0  0  0  0
  1 21  1  0  0  0  0
  2 17  1  0  0  0  0
  2  3  1  0  0  0  0
  2 22  1  0  0  0  0
  3  4  1  0  0  0  0
  3 23  1  0  0  0  0
  3 24  1  0  0  0  0
  4  5  1  0  0  0  0
  4 25  1  0  0  0  0
  4 26  1  0  0  0  0
  5  6  1  0  0  0  0
  5 16  1  0  0  0  0
  5 27  1  0  0  0  0
  6  7  1  0  0  0  0
  6 28  1  0  0  0  0
  6 43  1  0  0  0  0
  7  8  1  0  0  0  0
  7 29  1  0  0  0  0
  7 30  1  0  0  0  0
  8  9  1  0  0  0  0
  8 10  1  0  0  0  0
  8 31  1  0  0  0  0
  9 32  1  0  0  0  0
 10 15  1  0  0  0  0
 10 11  2  0  0  0  0
 11 12  1  0  0  0  0
 11 33  1  0  0  0  0
 12 13  2  0  0  0  0
 12 34  1  0  0  0  0
 13 14  1  0  0  0  0
 14 15  2  0  0  0  0
 14 35  1  0  0  0  0
 15 36  1  0  0  0  0
 16 17  1  0  0  0  0
 16 37  1  0  0  0  0
 16 38  1  0  0  0  0
 17 18  1  0  0  0  0
 17 39  1  0  0  0  0
 18 40  1  0  0  0  0
 18 41  1  0  0  0  0
 18 42  1  0  0  0  0
M  CHG  1   6   1
M  END
> <s_m_source_file>
AV-unprocessed.smi

> <i_m_source_file_index>
3287

> <i_lp_mmshare_version>
43012

> <i_f3d_flags>
0

> <s_epik_input>
W0NIM11bQ0BASF0xW0NIMl1bQ0gyXVtDQEhdKFtDSDJdW0NASF0xW0NIM10pW05IXVtDSDJdW0NASF0oW09IXSljMltjSF1bY0hdbltjSF1bY0hdMg==

> <s_epik_cmdline>
J2VwaWtfcHl0aG9uJywgJy1waCcsICc3LjAnLCAnLXRuJywgJzgnLCAnLW1hJywgJzIwMCcsICctbWV0YWxfYmluZGluZycsICctaW1hZScsICc8aW5maWxlLm1hZT4nLCAnLW9tYWUnLCAnPG91dGZpbGUubWFlPic=

> <r_lp_tautomer_probability>
1

> <r_epik_Ionization_Penalty>
0.00537262

> <r_epik_Ionization_Penalty_Charging>
0.00321624

> <r_epik_Ionization_Penalty_Neutral>
0.00215638

> <r_epik_State_Penalty>
-0

> <r_epik_Charging_Adjusted_Penalty>
0.00321624

> <i_epik_Tot_Q>
1

> <i_epik_Tot_abs_Q>
1

> <r_epik_Metal_State_Penalty>
-0

> <b_epik_Metal_Only>
0

> <s_lp_Force_Field>
OPLS_2005

> <r_lp_Energy>
18.5341

> <b_lp_Chiralities_Consistent>
1

> <s_lp_Variant>
AV-unprocessed.smi:3287-9

> <Gold.Version>
5.8.1

> <Gold.Id.Protein>
6NUR|6NUR_protein|mol2

> <Gold.PLP.Fitness>
49.2899

> <Gold.PLP.PLP>
-33.2260

> <Gold.PLP.part.hbond>
-4.1469

> <Gold.PLP.part.metal>
0.0000

> <Gold.PLP.part.buried>
-0.6507

> <Gold.PLP.part.nonpolar>
-30.0283

> <Gold.PLP.part.repulsive>
0.2684

> <Gold.PLP.ligand.clash>
0.0000

> <Gold.PLP.ligand.torsion>
0.5751

> <Gold.PLP.Chemscore.Hbond>
4.9040

> <Gold.PLP.Chemscore.CHOScore>
0.8295

> <Gold.PLP.Chemscore.Metal>
0.0000

> <Gold.Chemscore.Hbonds>
donor molecule, donor type, donor heavy atom, donor atom, acceptor molecule, acceptor atom, score
      L1  H     6    28       P1  7957  0.86
      L1  H     6    43       P1  7948  2.00
      L1  H     9    32       P1 10171  1.00
      P1  H  7954  7966       L1     9  0.94

> <Gold.PLP.Chemscore.Internal.Correction>
0.0137

> <Gold.Rescore>
     Score         DG    S(hbond)    S(metal)    S(lipo)     H(rot)  DE(clash)    DE(int)     intcor
     21.47     -23.44       3.85        0.00      85.11       1.90       1.34       0.63       ----

> <Gold.Chemscore.Fitness>
21.4702

> <Gold.Chemscore.DG>
-23.4355

> <Gold.Chemscore.ZeroCoef>
-5.4800

> <Gold.Chemscore.Hbond>
3.8534

> <Gold.Chemscore.Metal>
0.0000

> <Gold.Chemscore.Lipo>
85.1120

> <Gold.Chemscore.Internal_Hbond>
0.0000

> <Gold.Chemscore.DEClash>
1.3364

> <Gold.Chemscore.DEInternal>
0.6289

> <Gold.Chemscore.Rot>
1.9035

> <Gold.Chemscore.Internal.Correction>
   9.000000E+99

> <Gold.Chemscore.Hbonds>
donor molecule, donor type, donor heavy atom, donor atom, acceptor molecule, acceptor atom, score
      L1  H     6    28       P1  7957  0.84
      L1  H     6    43       P1  7948  0.97
      L1  H     9    32       P1 10171  1.00
      P1  H  7954  7966       L1     9  0.69

> <Gold.Chemscore.Hbond.Weighted>
-12.8703

> <Gold.Chemscore.Metal.Weighted>
-0.0000

> <Gold.Chemscore.Lipo.Weighted>
-9.9581

> <Gold.Chemscore.Internal_Hbond.Weighted>
0.0000

> <Gold.Chemscore.DEClash.Weighted>
1.3364

> <Gold.Chemscore.DEInternal.Weighted>
0.6289

> <Gold.Chemscore.Rot.Weighted>
4.8729

> <Gold.Chemscore.Internal.Correction.Weighted>
   9.000000E+99

> <Gold.Protein.RotatedTorsions>
[ 6907 6896 6895 6894 ] final   39.19 input  -60.11 | X-H torsion
[ 7974 7965 7964 7962 ] final  105.44 input  175.53 | X-H torsion
[ 8008 7997 7996 7995 ] final  -28.02 input   59.86 | X-H torsion
[ 10167 10162 10161 10158 ] final  -55.92 input  -65.29 | X-H torsion
[ 10718 10713 10712 10709 ] final -123.67 input   66.30 | X-H torsion
[ 10763 10752 10751 10750 ] final  129.52 input  -60.55 | X-H torsion
[ 11005 11000 10999 10996 ] final  -76.10 input  -57.11 | X-H torsion

> <Gold.Protein.ActiveResidues>
 VAL166  LYS551  ARG553  GLY616  TRP617  ASP618  TYR619  PRO620  LYS621  CYS622 
 ASP623  PHE694  ASN695  SER759  ASP760  ASP761  ALA762  ILE779  LEU786  VAL792 
 PHE793  MET794  SER795  GLU796  ALA797  LYS798  CYS799  TRP800  GLU811  SER814 

> <Gold.Protein.RotatedAtoms>
  152.1664  134.8870  160.0537 H   0  0  0  0  0  0  0  0  0  0  0  0  # atno 6907 bound_to 6896
  151.9847  133.3765  159.4129 H   0  0  0  0  0  0  0  0  0  0  0  0  # atno 6908 bound_to 6896
  150.6895  134.3924  159.5126 H   0  0  0  0  0  0  0  0  0  0  0  0  # atno 6909 bound_to 6896
  145.3196  139.2516  143.3719 H   0  0  0  0  0  0  0  0  0  0  0  0  # atno 7974 bound_to 7965
  154.4351  140.1856  156.1023 H   0  0  0  0  0  0  0  0  0  0  0  0  # atno 8008 bound_to 7997
  156.0282  140.3333  155.7086 H   0  0  0  0  0  0  0  0  0  0  0  0  # atno 8009 bound_to 7997
  155.5877  140.0628  157.2757 H   0  0  0  0  0  0  0  0  0  0  0  0  # atno 8010 bound_to 7997
  140.6347  143.2476  151.5150 H   0  0  0  0  0  0  0  0  0  0  0  0  # atno 10167 bound_to 10162
  156.1522  130.6543  150.9930 H   0  0  0  0  0  0  0  0  0  0  0  0  # atno 10718 bound_to 10713
  153.7431  135.3221  155.3308 H   0  0  0  0  0  0  0  0  0  0  0  0  # atno 10763 bound_to 10752
  154.8288  135.4549  154.1006 H   0  0  0  0  0  0  0  0  0  0  0  0  # atno 10764 bound_to 10752
  153.2187  135.6945  153.8108 H   0  0  0  0  0  0  0  0  0  0  0  0  # atno 10765 bound_to 10752
  141.1651  133.6971  156.7618 H   0  0  0  0  0  0  0  0  0  0  0  0  # atno 11005 bound_to 11000
  146.3087  140.3750  142.8678 LP  0  0  0  0  0  0  0  0  0  0  0  0  # atno 17320 bound_to 7965
  144.8950  140.7571  143.5903 LP  0  0  0  0  0  0  0  0  0  0  0  0  # atno 17321 bound_to 7965
  139.5558  144.2279  152.1609 LP  0  0  0  0  0  0  0  0  0  0  0  0  # atno 17342 bound_to 10162
  140.1532  144.5095  150.6675 LP  0  0  0  0  0  0  0  0  0  0  0  0  # atno 17343 bound_to 10162
  157.6666  131.0870  150.7713 LP  0  0  0  0  0  0  0  0  0  0  0  0  # atno 17370 bound_to 10713
  156.7780  130.4850  149.5406 LP  0  0  0  0  0  0  0  0  0  0  0  0  # atno 17371 bound_to 10713
  140.2528  134.8527  157.3684 LP  0  0  0  0  0  0  0  0  0  0  0  0  # atno 17394 bound_to 11000
  140.1686  134.4638  155.7847 LP  0  0  0  0  0  0  0  0  0  0  0  0  # atno 17395 bound_to 11000

$$$$
