AV-unprocessed.smi:1570|AV-procd|sdf|6314|dock1
  -GOLD-   22720 6513D 1   1.00000     0.00000
 Structure written by MMmdl.
 51 53  0  0  0  0  0  0  0  0  1 V2000
  155.0858  140.5310  159.9527 C   0  0  0  0  0  0  0  0  0  0  0  0
  153.5872  140.2457  160.1114 C   0  0  0  0  0  0  0  0  0  0  0  0
  152.7850  141.1734  159.3179 N   0  0  0  0  0  0  0  0  0  0  0  0
  152.3322  140.9743  158.0577 C   0  0  0  0  0  0  0  0  0  0  0  0
  152.5183  139.9689  157.3720 O   0  0  0  0  0  0  0  0  0  0  0  0
  151.6497  142.0796  157.6761 N   0  0  0  0  0  0  0  0  0  0  0  0
  150.9965  142.2958  156.3860 C   0  0  0  0  0  0  0  0  0  0  0  0
  150.1740  141.0678  155.9476 C   0  0  2  0  0  0  0  0  0  0  0  0
  151.0482  140.1597  155.3075 O   0  0  0  0  0  0  0  0  0  0  0  0
  149.0903  141.4565  154.9214 C   0  0  0  0  0  0  0  0  0  0  0  0
  147.7319  141.5798  155.4540 N   0  0  0  0  0  0  0  0  0  0  0  0
  146.9579  142.5430  154.6811 C   0  0  0  0  0  0  0  0  0  0  0  0
  145.5091  142.6589  155.1871 C   0  0  2  0  0  0  0  0  0  0  0  0
  144.7188  143.7317  154.4305 C   0  0  0  0  0  0  0  0  0  0  0  0
  145.5180  143.0081  156.5699 O   0  0  0  0  0  0  0  0  0  0  0  0
  146.2797  142.1415  157.4122 C   0  0  1  0  0  0  0  0  0  0  0  0
  145.5624  140.8017  157.6496 C   0  0  0  0  0  0  0  0  0  0  0  0
  147.7103  141.9777  156.8609 C   0  0  0  0  0  0  0  0  0  0  0  0
  151.6840  143.0214  158.7146 C   0  0  0  0  0  0  0  0  0  0  0  0
  151.1509  144.3190  158.8064 C   0  0  0  0  0  0  0  0  0  0  0  0
  151.3727  145.0258  160.0114 C   0  0  0  0  0  0  0  0  0  0  0  0
  152.1062  144.4381  161.0745 C   0  0  0  0  0  0  0  0  0  0  0  0
  152.6346  143.1314  160.9548 C   0  0  0  0  0  0  0  0  0  0  0  0
  152.3983  142.4508  159.7476 C   0  0  0  0  0  0  0  0  0  0  0  0
  155.6779  139.8363  160.5487 H   0  0  0  0  0  0  0  0  0  0  0  0
  155.3318  141.5420  160.2786 H   0  0  0  0  0  0  0  0  0  0  0  0
  155.3990  140.4276  158.9135 H   0  0  0  0  0  0  0  0  0  0  0  0
  153.3720  139.2192  159.8114 H   0  0  0  0  0  0  0  0  0  0  0  0
  153.3013  140.3195  161.1608 H   0  0  0  0  0  0  0  0  0  0  0  0
  150.3352  143.1570  156.4949 H   0  0  0  0  0  0  0  0  0  0  0  0
  151.7204  142.5810  155.6217 H   0  0  0  0  0  0  0  0  0  0  0  0
  149.7284  140.5932  156.8209 H   0  0  0  0  0  0  0  0  0  0  0  0
  150.5788  139.3527  155.1585 H   0  0  0  0  0  0  0  0  0  0  0  0
  149.3682  142.3980  154.4450 H   0  0  0  0  0  0  0  0  0  0  0  0
  149.0997  140.7112  154.1245 H   0  0  0  0  0  0  0  0  0  0  0  0
  147.4390  143.5216  154.7230 H   0  0  0  0  0  0  0  0  0  0  0  0
  146.9455  142.2471  153.6314 H   0  0  0  0  0  0  0  0  0  0  0  0
  145.0007  141.7031  155.0575 H   0  0  0  0  0  0  0  0  0  0  0  0
  144.6763  143.5091  153.3642 H   0  0  0  0  0  0  0  0  0  0  0  0
  145.1751  144.7147  154.5499 H   0  0  0  0  0  0  0  0  0  0  0  0
  143.6943  143.7931  154.7982 H   0  0  0  0  0  0  0  0  0  0  0  0
  146.3496  142.6399  158.3795 H   0  0  0  0  0  0  0  0  0  0  0  0
  146.1004  140.1989  158.3817 H   0  0  0  0  0  0  0  0  0  0  0  0
  145.4841  140.2108  156.7373 H   0  0  0  0  0  0  0  0  0  0  0  0
  144.5542  140.9630  158.0317 H   0  0  0  0  0  0  0  0  0  0  0  0
  148.2397  141.2525  157.4769 H   0  0  0  0  0  0  0  0  0  0  0  0
  148.2415  142.9239  156.9764 H   0  0  0  0  0  0  0  0  0  0  0  0
  150.5983  144.7642  157.9925 H   0  0  0  0  0  0  0  0  0  0  0  0
  150.9803  146.0260  160.1223 H   0  0  0  0  0  0  0  0  0  0  0  0
  152.2654  144.9964  161.9854 H   0  0  0  0  0  0  0  0  0  0  0  0
  153.1978  142.6810  161.7586 H   0  0  0  0  0  0  0  0  0  0  0  0
  1  2  1  0  0  0  0
  1 25  1  0  0  0  0
  1 26  1  0  0  0  0
  1 27  1  0  0  0  0
  2  3  1  0  0  0  0
  2 28  1  0  0  0  0
  2 29  1  0  0  0  0
  3 24  1  0  0  0  0
  3  4  1  0  0  0  0
  4  5  2  0  0  0  0
  4  6  1  0  0  0  0
  6  7  1  0  0  0  0
  6 19  1  0  0  0  0
  7  8  1  0  0  0  0
  7 30  1  0  0  0  0
  7 31  1  0  0  0  0
  8  9  1  0  0  0  0
  8 10  1  0  0  0  0
  8 32  1  0  0  0  0
  9 33  1  0  0  0  0
 10 11  1  0  0  0  0
 10 34  1  0  0  0  0
 10 35  1  0  0  0  0
 11 18  1  0  0  0  0
 11 12  1  0  0  0  0
 12 13  1  0  0  0  0
 12 36  1  0  0  0  0
 12 37  1  0  0  0  0
 13 14  1  0  0  0  0
 13 15  1  0  0  0  0
 13 38  1  0  0  0  0
 14 39  1  0  0  0  0
 14 40  1  0  0  0  0
 14 41  1  0  0  0  0
 15 16  1  0  0  0  0
 16 17  1  0  0  0  0
 16 18  1  0  0  0  0
 16 42  1  0  0  0  0
 17 43  1  0  0  0  0
 17 44  1  0  0  0  0
 17 45  1  0  0  0  0
 18 46  1  0  0  0  0
 18 47  1  0  0  0  0
 19 24  2  0  0  0  0
 19 20  1  0  0  0  0
 20 21  2  0  0  0  0
 20 48  1  0  0  0  0
 21 22  1  0  0  0  0
 21 49  1  0  0  0  0
 22 23  2  0  0  0  0
 22 50  1  0  0  0  0
 23 24  1  0  0  0  0
 23 51  1  0  0  0  0
M  END
> <s_m_source_file>
AV-unprocessed.smi

> <i_m_source_file_index>
1570

> <i_lp_mmshare_version>
43012

> <i_f3d_flags>
0

> <s_epik_input>
W2NIXTFbY0hdW2NIXVtjSF1jKGMxMiluKFtDSDJdW0NIM10pYyg9TyluMltDSDJdW0NASF0oW09IXSlbQ0gyXU4zW0NIMl1bQ0BASF0oW0NIM10pT1tDQEBIXShbQ0gzXSlbQ0gyXTM=

> <s_epik_cmdline>
J2VwaWtfcHl0aG9uJywgJy1waCcsICc3LjAnLCAnLXRuJywgJzgnLCAnLW1hJywgJzIwMCcsICctbWV0YWxfYmluZGluZycsICctaW1hZScsICc8aW5maWxlLm1hZT4nLCAnLW9tYWUnLCAnPG91dGZpbGUubWFlPic=

> <r_epik_Ionization_Penalty>
0.214359

> <r_epik_Ionization_Penalty_Charging>
2.30976e-09

> <r_epik_Ionization_Penalty_Neutral>
0.214359

> <r_epik_State_Penalty>
0.204533

> <r_epik_Charging_Adjusted_Penalty>
0.204533

> <i_epik_Tot_Q>
0

> <i_epik_Tot_abs_Q>
0

> <r_epik_Metal_State_Penalty>
0.204533

> <b_epik_Metal_Only>
0

> <s_lp_Force_Field>
OPLS_2005

> <r_lp_Energy>
63.7902

> <b_lp_Chiralities_Consistent>
1

> <s_lp_Variant>
AV-unprocessed.smi:1570-3

> <Gold.Version>
5.8.1

> <Gold.Id.Protein>
6NUR|6NUR_protein|mol2

> <Gold.PLP.Fitness>
51.8740

> <Gold.PLP.PLP>
-49.0768

> <Gold.PLP.part.hbond>
-2.0000

> <Gold.PLP.part.metal>
0.0000

> <Gold.PLP.part.buried>
-5.9687

> <Gold.PLP.part.nonpolar>
-41.6508

> <Gold.PLP.part.repulsive>
0.2323

> <Gold.PLP.ligand.clash>
0.0000

> <Gold.PLP.ligand.torsion>
1.7289

> <Gold.PLP.Chemscore.Hbond>
2.0000

> <Gold.PLP.Chemscore.CHOScore>
0.0000

> <Gold.PLP.Chemscore.Metal>
0.0000

> <Gold.Chemscore.Hbonds>
donor molecule, donor type, donor heavy atom, donor atom, acceptor molecule, acceptor atom, score
      P1  H  7989  7998       L1     9  1.00
      P1  H  7997  8009       L1     5  1.00

> <Gold.PLP.Chemscore.Internal.Correction>
0.2551

> <Gold.Rescore>
     Score         DG    S(hbond)    S(metal)    S(lipo)     H(rot)  DE(clash)    DE(int)     intcor
     16.80     -19.78       1.39        0.00     127.41       2.06       0.26       2.72       ----

> <Gold.Chemscore.Fitness>
16.7993

> <Gold.Chemscore.DG>
-19.7760

> <Gold.Chemscore.ZeroCoef>
-5.4800

> <Gold.Chemscore.Hbond>
1.3940

> <Gold.Chemscore.Metal>
0.0000

> <Gold.Chemscore.Lipo>
127.4109

> <Gold.Chemscore.Internal_Hbond>
0.0000

> <Gold.Chemscore.DEClash>
0.2599

> <Gold.Chemscore.DEInternal>
2.7168

> <Gold.Chemscore.Rot>
2.0574

> <Gold.Chemscore.Internal.Correction>
   9.000000E+99

> <Gold.Chemscore.Hbonds>
donor molecule, donor type, donor heavy atom, donor atom, acceptor molecule, acceptor atom, score
      P1  H  7989  7998       L1     9  0.47
      P1  H  7997  8009       L1     5  0.47

> <Gold.Chemscore.Hbond.Weighted>
-4.6558

> <Gold.Chemscore.Metal.Weighted>
-0.0000

> <Gold.Chemscore.Lipo.Weighted>
-14.9071

> <Gold.Chemscore.Internal_Hbond.Weighted>
0.0000

> <Gold.Chemscore.DEClash.Weighted>
0.2599

> <Gold.Chemscore.DEInternal.Weighted>
2.7168

> <Gold.Chemscore.Rot.Weighted>
5.2669

> <Gold.Chemscore.Internal.Correction.Weighted>
   9.000000E+99

> <Gold.Protein.RotatedTorsions>
[ 6907 6896 6895 6894 ] final  -93.41 input  -60.11 | X-H torsion
[ 7974 7965 7964 7962 ] final  156.74 input  175.53 | X-H torsion
[ 8008 7997 7996 7995 ] final  171.42 input   59.86 | X-H torsion
[ 10167 10162 10161 10158 ] final  -31.67 input  -65.29 | X-H torsion
[ 10718 10713 10712 10709 ] final -169.26 input   66.30 | X-H torsion
[ 10763 10752 10751 10750 ] final  150.00 input  -60.55 | X-H torsion
[ 11005 11000 10999 10996 ] final  162.35 input  -57.11 | X-H torsion

> <Gold.Protein.ActiveResidues>
 VAL166  LYS551  ARG553  GLY616  TRP617  ASP618  TYR619  PRO620  LYS621  CYS622 
 ASP623  PHE694  ASN695  SER759  ASP760  ASP761  ALA762  ILE779  LEU786  VAL792 
 PHE793  MET794  SER795  GLU796  ALA797  LYS798  CYS799  TRP800  GLU811  SER814 

> <Gold.Protein.RotatedAtoms>
  150.6922  134.1972  159.4307 H   0  0  0  0  0  0  0  0  0  0  0  0  # atno 6907 bound_to 6896
  151.9940  134.9961  160.0572 H   0  0  0  0  0  0  0  0  0  0  0  0  # atno 6908 bound_to 6896
  152.1641  133.4565  159.4912 H   0  0  0  0  0  0  0  0  0  0  0  0  # atno 6909 bound_to 6896
  144.7945  139.7245  143.6208 H   0  0  0  0  0  0  0  0  0  0  0  0  # atno 7974 bound_to 7965
  156.1273  140.1512  156.9118 H   0  0  0  0  0  0  0  0  0  0  0  0  # atno 8008 bound_to 7997
  154.4881  140.0859  156.7573 H   0  0  0  0  0  0  0  0  0  0  0  0  # atno 8009 bound_to 7997
  155.4321  140.3427  155.4283 H   0  0  0  0  0  0  0  0  0  0  0  0  # atno 8010 bound_to 7997
  140.7233  143.3753  151.1702 H   0  0  0  0  0  0  0  0  0  0  0  0  # atno 10167 bound_to 10162
  156.7089  130.9226  151.3087 H   0  0  0  0  0  0  0  0  0  0  0  0  # atno 10718 bound_to 10713
  154.0804  135.2860  155.3291 H   0  0  0  0  0  0  0  0  0  0  0  0  # atno 10763 bound_to 10752
  154.6687  135.5307  153.8114 H   0  0  0  0  0  0  0  0  0  0  0  0  # atno 10764 bound_to 10752
  153.0451  135.6552  154.0979 H   0  0  0  0  0  0  0  0  0  0  0  0  # atno 10765 bound_to 10752
  140.2248  134.8168  157.3257 H   0  0  0  0  0  0  0  0  0  0  0  0  # atno 11005 bound_to 11000
  146.2208  139.5632  142.9619 LP  0  0  0  0  0  0  0  0  0  0  0  0  # atno 17320 bound_to 7965
  145.5709  141.0394  143.2174 LP  0  0  0  0  0  0  0  0  0  0  0  0  # atno 17321 bound_to 7965
  139.7331  143.9041  152.3026 LP  0  0  0  0  0  0  0  0  0  0  0  0  # atno 17342 bound_to 10162
  139.8836  144.7004  150.8849 LP  0  0  0  0  0  0  0  0  0  0  0  0  # atno 17343 bound_to 10162
  157.6944  130.9266  150.0602 LP  0  0  0  0  0  0  0  0  0  0  0  0  # atno 17370 bound_to 10713
  156.1675  130.3645  149.9212 LP  0  0  0  0  0  0  0  0  0  0  0  0  # atno 17371 bound_to 10713
  140.1811  134.4488  155.7771 LP  0  0  0  0  0  0  0  0  0  0  0  0  # atno 17394 bound_to 11000
  141.2221  133.6984  156.7871 LP  0  0  0  0  0  0  0  0  0  0  0  0  # atno 17395 bound_to 11000

$$$$
