AV-unprocessed.smi:2121|AV-procd|sdf|8642|dock1
  -GOLD-   2272011393D 1   1.00000     0.00000
 Structure written by MMmdl.
 49 50  0  0  0  0  0  0  0  0  1 V2000
  150.7041  144.9903  159.4897 C   0  0  0  0  0  0  0  0  0  0  0  0
  152.1073  144.5178  159.0691 C   0  0  2  0  0  0  0  0  0  0  0  0
  152.1014  143.6120  157.8227 C   0  0  0  0  0  0  0  0  0  0  0  0
  151.6204  142.2724  158.1520 N   0  0  0  0  0  0  0  0  0  0  0  0
  151.2933  141.4047  157.0886 C   0  0  0  0  0  0  0  0  0  0  0  0
  150.1111  141.6145  156.3409 C   0  0  0  0  0  0  0  0  0  0  0  0
  149.8035  140.7398  155.2815 C   0  0  0  0  0  0  0  0  0  0  0  0
  150.6820  139.6715  154.9965 C   0  0  0  0  0  0  0  0  0  0  0  0
  150.4359  138.6806  153.8652 C   0  0  0  0  0  0  0  0  0  0  0  0
  149.9128  137.3846  154.2846 N   0  0  0  0  0  0  0  0  0  0  0  0
  150.6265  136.4271  154.8957 C   0  0  0  0  0  0  0  0  0  0  0  0
  151.8295  136.5327  155.1397 O   0  0  0  0  0  0  0  0  0  0  0  0
  149.8567  135.1559  155.2872 C   0  0  1  0  0  0  0  0  0  0  0  0
  148.7192  135.5508  156.2432 C   0  0  0  0  0  0  0  0  0  0  0  0
  149.2638  134.5292  154.1065 N   0  0  0  0  0  0  0  0  0  0  0  0
  149.2153  133.2084  153.8775 C   0  0  0  0  0  0  0  0  0  0  0  0
  148.6313  132.9167  152.7149 N   0  0  0  0  0  0  0  0  0  0  0  0
  149.6555  132.3511  154.6414 O   0  0  0  0  0  0  0  0  0  0  0  0
  151.8388  139.5474  155.7915 C   0  0  0  0  0  0  0  0  0  0  0  0
  152.1408  140.3852  156.8053 N   0  0  0  0  0  0  0  0  0  0  0  0
  152.3365  141.6622  159.2668 C   0  0  0  0  0  0  0  0  0  0  0  0
  152.3048  142.5892  160.4955 C   0  0  1  0  0  0  0  0  0  0  0  0
  153.1660  142.0482  161.6415 C   0  0  0  0  0  0  0  0  0  0  0  0
  152.8056  143.8776  160.1396 O   0  0  0  0  0  0  0  0  0  0  0  0
  150.2486  145.5921  158.7028 H   0  0  0  0  0  0  0  0  0  0  0  0
  150.7541  145.6055  160.3882 H   0  0  0  0  0  0  0  0  0  0  0  0
  150.0295  144.1582  159.6894 H   0  0  0  0  0  0  0  0  0  0  0  0
  152.6801  145.4127  158.8249 H   0  0  0  0  0  0  0  0  0  0  0  0
  151.4826  144.0613  157.0448 H   0  0  0  0  0  0  0  0  0  0  0  0
  153.1135  143.5322  157.4234 H   0  0  0  0  0  0  0  0  0  0  0  0
  149.4494  142.4403  156.5560 H   0  0  0  0  0  0  0  0  0  0  0  0
  148.9067  140.9010  154.7020 H   0  0  0  0  0  0  0  0  0  0  0  0
  149.7178  139.1249  153.1758 H   0  0  0  0  0  0  0  0  0  0  0  0
  151.3587  138.5407  153.2993 H   0  0  0  0  0  0  0  0  0  0  0  0
  148.9318  137.2123  154.1187 H   0  0  0  0  0  0  0  0  0  0  0  0
  150.5230  134.4478  155.7845 H   0  0  0  0  0  0  0  0  0  0  0  0
  149.1063  136.0304  157.1435 H   0  0  0  0  0  0  0  0  0  0  0  0
  148.1565  134.6726  156.5613 H   0  0  0  0  0  0  0  0  0  0  0  0
  148.0155  136.2411  155.7749 H   0  0  0  0  0  0  0  0  0  0  0  0
  148.8794  135.1495  153.4093 H   0  0  0  0  0  0  0  0  0  0  0  0
  148.5285  131.9556  152.4249 H   0  0  0  0  0  0  0  0  0  0  0  0
  148.2895  133.6641  152.1283 H   0  0  0  0  0  0  0  0  0  0  0  0
  152.5469  138.7525  155.6082 H   0  0  0  0  0  0  0  0  0  0  0  0
  151.9131  140.6955  159.5364 H   0  0  0  0  0  0  0  0  0  0  0  0
  153.3674  141.4802  158.9601 H   0  0  0  0  0  0  0  0  0  0  0  0
  151.2807  142.6803  160.8582 H   0  0  0  0  0  0  0  0  0  0  0  0
  152.8192  141.0660  161.9636 H   0  0  0  0  0  0  0  0  0  0  0  0
  153.1280  142.7134  162.5045 H   0  0  0  0  0  0  0  0  0  0  0  0
  154.2095  141.9529  161.3397 H   0  0  0  0  0  0  0  0  0  0  0  0
  1  2  1  0  0  0  0
  1 25  1  0  0  0  0
  1 26  1  0  0  0  0
  1 27  1  0  0  0  0
  2 24  1  0  0  0  0
  2  3  1  0  0  0  0
  2 28  1  0  0  0  0
  3  4  1  0  0  0  0
  3 29  1  0  0  0  0
  3 30  1  0  0  0  0
  4  5  1  0  0  0  0
  4 21  1  0  0  0  0
  5 20  1  0  0  0  0
  5  6  2  0  0  0  0
  6  7  1  0  0  0  0
  6 31  1  0  0  0  0
  7  8  2  0  0  0  0
  7 32  1  0  0  0  0
  8  9  1  0  0  0  0
  8 19  1  0  0  0  0
  9 10  1  0  0  0  0
  9 33  1  0  0  0  0
  9 34  1  0  0  0  0
 10 11  1  0  0  0  0
 10 35  1  0  0  0  0
 11 12  2  0  0  0  0
 11 13  1  0  0  0  0
 13 14  1  0  0  0  0
 13 15  1  0  0  0  0
 13 36  1  0  0  0  0
 14 37  1  0  0  0  0
 14 38  1  0  0  0  0
 14 39  1  0  0  0  0
 15 16  1  0  0  0  0
 15 40  1  0  0  0  0
 16 17  1  0  0  0  0
 16 18  2  0  0  0  0
 17 41  1  0  0  0  0
 17 42  1  0  0  0  0
 19 20  2  0  0  0  0
 19 43  1  0  0  0  0
 21 22  1  0  0  0  0
 21 44  1  0  0  0  0
 21 45  1  0  0  0  0
 22 23  1  0  0  0  0
 22 24  1  0  0  0  0
 22 46  1  0  0  0  0
 23 47  1  0  0  0  0
 23 48  1  0  0  0  0
 23 49  1  0  0  0  0
M  END
> <s_m_source_file>
AV-unprocessed.smi

> <i_m_source_file_index>
2121

> <i_lp_mmshare_version>
43012

> <i_f3d_flags>
0

> <s_epik_input>
W0NIM11bQ0BASF0xW0NIMl1OKFtDSDJdW0NASF0oTzEpW0NIM10pYzJbY0hdW2NIXWMoW2NIXW4yKVtDSDJdW05IXUMoPU8pW0NASF0oW0NIM10pW05IXUMoPU8pW05IMl0=

> <s_epik_cmdline>
J2VwaWtfcHl0aG9uJywgJy1waCcsICc3LjAnLCAnLXRuJywgJzgnLCAnLW1hJywgJzIwMCcsICctbWV0YWxfYmluZGluZycsICctaW1hZScsICc8aW5maWxlLm1hZT4nLCAnLW9tYWUnLCAnPG91dGZpbGUubWFlPic=

> <r_lp_tautomer_probability>
1

> <r_epik_Ionization_Penalty>
0.0063713

> <r_epik_Ionization_Penalty_Charging>
0

> <r_epik_Ionization_Penalty_Neutral>
0.0063713

> <r_epik_State_Penalty>
0.00467069

> <r_epik_Charging_Adjusted_Penalty>
0.00467069

> <i_epik_Tot_Q>
0

> <i_epik_Tot_abs_Q>
0

> <r_epik_Metal_State_Penalty>
-0

> <b_epik_Metal_Only>
0

> <s_lp_Force_Field>
OPLS_2005

> <r_lp_Energy>
11.3306

> <b_lp_Chiralities_Consistent>
1

> <s_lp_Variant>
AV-unprocessed.smi:2121-3

> <Gold.Version>
5.8.1

> <Gold.Id.Protein>
6NUR|6NUR_protein|mol2

> <Gold.PLP.Fitness>
52.8610

> <Gold.PLP.PLP>
-47.7006

> <Gold.PLP.part.hbond>
-4.0928

> <Gold.PLP.part.metal>
0.0000

> <Gold.PLP.part.buried>
-4.4554

> <Gold.PLP.part.nonpolar>
-38.4181

> <Gold.PLP.part.repulsive>
0.2190

> <Gold.PLP.ligand.clash>
0.0000

> <Gold.PLP.ligand.torsion>
1.1361

> <Gold.PLP.Chemscore.Hbond>
2.3544

> <Gold.PLP.Chemscore.CHOScore>
0.0000

> <Gold.PLP.Chemscore.Metal>
0.0000

> <Gold.Chemscore.Hbonds>
donor molecule, donor type, donor heavy atom, donor atom, acceptor molecule, acceptor atom, score
      L1  H    15    40       P1  7948  1.00
      P1  H  7997  8008       L1    20  0.32
      P1  H 10752 10765       L1    12  1.00

> <Gold.PLP.Chemscore.Internal.Correction>
0.3693

> <Gold.Rescore>
     Score         DG    S(hbond)    S(metal)    S(lipo)     H(rot)  DE(clash)    DE(int)     intcor
     16.66     -18.03       1.85        0.00     110.87       2.58       0.19       1.18       ----

> <Gold.Chemscore.Fitness>
16.6570

> <Gold.Chemscore.DG>
-18.0297

> <Gold.Chemscore.ZeroCoef>
-5.4800

> <Gold.Chemscore.Hbond>
1.8541

> <Gold.Chemscore.Metal>
0.0000

> <Gold.Chemscore.Lipo>
110.8676

> <Gold.Chemscore.Internal_Hbond>
0.0000

> <Gold.Chemscore.DEClash>
0.1923

> <Gold.Chemscore.DEInternal>
1.1804

> <Gold.Chemscore.Rot>
2.5838

> <Gold.Chemscore.Internal.Correction>
   9.000000E+99

> <Gold.Chemscore.Hbonds>
donor molecule, donor type, donor heavy atom, donor atom, acceptor molecule, acceptor atom, score
      L1  H    15    40       P1  7948  0.54
      L1  H    17    41       P1 10747  0.04
      P1  H  7997  8008       L1    20  0.04
      P1  H 10752 10765       L1    12  0.94

> <Gold.Chemscore.Hbond.Weighted>
-6.1926

> <Gold.Chemscore.Metal.Weighted>
-0.0000

> <Gold.Chemscore.Lipo.Weighted>
-12.9715

> <Gold.Chemscore.Internal_Hbond.Weighted>
0.0000

> <Gold.Chemscore.DEClash.Weighted>
0.1923

> <Gold.Chemscore.DEInternal.Weighted>
1.1804

> <Gold.Chemscore.Rot.Weighted>
6.6145

> <Gold.Chemscore.Internal.Correction.Weighted>
   9.000000E+99

> <Gold.Protein.RotatedTorsions>
[ 6907 6896 6895 6894 ] final  -59.03 input  -60.11 | X-H torsion
[ 7974 7965 7964 7962 ] final  -47.69 input  175.53 | X-H torsion
[ 8008 7997 7996 7995 ] final  -59.69 input   59.86 | X-H torsion
[ 10167 10162 10161 10158 ] final -166.62 input  -65.29 | X-H torsion
[ 10718 10713 10712 10709 ] final  -44.05 input   66.30 | X-H torsion
[ 10763 10752 10751 10750 ] final -177.90 input  -60.55 | X-H torsion
[ 11005 11000 10999 10996 ] final  -49.89 input  -57.11 | X-H torsion

> <Gold.Protein.ActiveResidues>
 VAL166  LYS551  ARG553  GLY616  TRP617  ASP618  TYR619  PRO620  LYS621  CYS622 
 ASP623  PHE694  ASN695  SER759  ASP760  ASP761  ALA762  ILE779  LEU786  VAL792 
 PHE793  MET794  SER795  GLU796  ALA797  LYS798  CYS799  TRP800  GLU811  SER814 

> <Gold.Protein.RotatedAtoms>
  150.7961  134.7021  159.6555 H   0  0  0  0  0  0  0  0  0  0  0  0  # atno 6907 bound_to 6896
  152.4073  134.6181  160.0053 H   0  0  0  0  0  0  0  0  0  0  0  0  # atno 6908 bound_to 6896
  151.6435  133.3288  159.3171 H   0  0  0  0  0  0  0  0  0  0  0  0  # atno 6909 bound_to 6896
  145.9590  140.7498  142.9467 H   0  0  0  0  0  0  0  0  0  0  0  0  # atno 7974 bound_to 7965
  154.4364  140.1056  156.6155 H   0  0  0  0  0  0  0  0  0  0  0  0  # atno 8008 bound_to 7997
  155.5764  140.3490  155.4510 H   0  0  0  0  0  0  0  0  0  0  0  0  # atno 8009 bound_to 7997
  156.0351  140.1269  157.0205 H   0  0  0  0  0  0  0  0  0  0  0  0  # atno 8010 bound_to 7997
  139.6103  144.0829  152.1835 H   0  0  0  0  0  0  0  0  0  0  0  0  # atno 10167 bound_to 10162
  156.2426  130.4181  149.8742 H   0  0  0  0  0  0  0  0  0  0  0  0  # atno 10718 bound_to 10713
  154.5544  135.2815  155.0978 H   0  0  0  0  0  0  0  0  0  0  0  0  # atno 10763 bound_to 10752
  154.2411  135.6356  153.5211 H   0  0  0  0  0  0  0  0  0  0  0  0  # atno 10764 bound_to 10752
  153.0011  135.5560  154.6119 H   0  0  0  0  0  0  0  0  0  0  0  0  # atno 10765 bound_to 10752
  141.0785  133.6659  156.3652 H   0  0  0  0  0  0  0  0  0  0  0  0  # atno 11005 bound_to 11000
  144.6811  140.2559  143.7325 LP  0  0  0  0  0  0  0  0  0  0  0  0  # atno 17320 bound_to 7965
  145.8066  139.1986  143.2017 LP  0  0  0  0  0  0  0  0  0  0  0  0  # atno 17321 bound_to 7965
  140.0446  144.5980  150.7384 LP  0  0  0  0  0  0  0  0  0  0  0  0  # atno 17342 bound_to 10162
  140.7314  143.2694  151.3938 LP  0  0  0  0  0  0  0  0  0  0  0  0  # atno 17343 bound_to 10162
  156.6319  130.8669  151.3497 LP  0  0  0  0  0  0  0  0  0  0  0  0  # atno 17370 bound_to 10713
  157.7182  130.9524  150.1334 LP  0  0  0  0  0  0  0  0  0  0  0  0  # atno 17371 bound_to 10713
  140.5520  134.6018  157.5410 LP  0  0  0  0  0  0  0  0  0  0  0  0  # atno 17394 bound_to 11000
  139.9598  134.7472  156.0262 LP  0  0  0  0  0  0  0  0  0  0  0  0  # atno 17395 bound_to 11000

$$$$
