AV-unprocessed.smi:1791|AV-procd|sdf|7220|dock1
  -GOLD-   22720 8463D 1   1.00000     0.00000
 Structure written by MMmdl.
 38 39  0  0  0  0  0  0  0  0  1 V2000
  152.5856  139.8468  159.0754 C   0  0  0  0  0  0  0  0  0  0  0  0
  152.7664  139.9603  157.6681 O   0  0  0  0  0  0  0  0  0  0  0  0
  152.1054  139.0687  156.8483 C   0  0  0  0  0  0  0  0  0  0  0  0
  152.2001  139.2379  155.4527 C   0  0  0  0  0  0  0  0  0  0  0  0
  151.5332  138.3291  154.6089 C   0  0  0  0  0  0  0  0  0  0  0  0
  150.7953  137.2709  155.1910 C   0  0  0  0  0  0  0  0  0  0  0  0
  150.0693  136.2980  154.4521 N   0  0  0  0  0  0  0  0  0  0  0  0
  149.5817  135.1186  154.8733 C   0  0  0  0  0  0  0  0  0  0  0  0
  149.6969  134.6674  156.0124 O   0  0  0  0  0  0  0  0  0  0  0  0
  148.9224  134.4921  153.8883 N   0  0  0  0  0  0  0  0  0  0  0  0
  148.2406  133.2024  153.9930 C   0  0  2  0  0  0  0  0  0  0  0  0
  149.2386  132.1303  154.4532 C   0  0  0  0  0  0  0  0  0  0  0  0
  147.5648  132.8300  152.6573 C   0  0  1  0  0  0  0  0  0  0  0  0
  146.7059  131.5629  152.6858 C   0  0  0  0  0  0  0  0  0  0  0  0
  145.7891  131.7979  151.5073 C   0  0  0  0  0  0  0  0  0  0  0  0
  145.5247  133.2975  151.6125 C   0  0  0  0  0  0  0  0  0  0  0  0
  146.6886  133.8633  152.2104 O   0  0  0  0  0  0  0  0  0  0  0  0
  150.7491  137.2002  156.5984 C   0  0  0  0  0  0  0  0  0  0  0  0
  151.3869  138.0670  157.4129 N   0  0  0  0  0  0  0  0  0  0  0  0
  153.1784  140.6108  159.5778 H   0  0  0  0  0  0  0  0  0  0  0  0
  152.9186  138.8751  159.4435 H   0  0  0  0  0  0  0  0  0  0  0  0
  151.5426  139.9988  159.3571 H   0  0  0  0  0  0  0  0  0  0  0  0
  152.7728  140.0532  155.0361 H   0  0  0  0  0  0  0  0  0  0  0  0
  151.5924  138.4704  153.5411 H   0  0  0  0  0  0  0  0  0  0  0  0
  149.8303  136.5631  153.5078 H   0  0  0  0  0  0  0  0  0  0  0  0
  148.8749  134.9485  152.9889 H   0  0  0  0  0  0  0  0  0  0  0  0
  147.4560  133.2540  154.7497 H   0  0  0  0  0  0  0  0  0  0  0  0
  148.7485  131.1635  154.5701 H   0  0  0  0  0  0  0  0  0  0  0  0
  149.6805  132.3929  155.4149 H   0  0  0  0  0  0  0  0  0  0  0  0
  150.0508  132.0070  153.7360 H   0  0  0  0  0  0  0  0  0  0  0  0
  148.3292  132.7030  151.8889 H   0  0  0  0  0  0  0  0  0  0  0  0
  147.2941  130.6493  152.5948 H   0  0  0  0  0  0  0  0  0  0  0  0
  146.1163  131.4979  153.6006 H   0  0  0  0  0  0  0  0  0  0  0  0
  146.3114  131.5721  150.5766 H   0  0  0  0  0  0  0  0  0  0  0  0
  144.8783  131.1998  151.5442 H   0  0  0  0  0  0  0  0  0  0  0  0
  145.3153  133.7505  150.6434 H   0  0  0  0  0  0  0  0  0  0  0  0
  144.6735  133.4889  152.2672 H   0  0  0  0  0  0  0  0  0  0  0  0
  150.1878  136.4188  157.0900 H   0  0  0  0  0  0  0  0  0  0  0  0
  1  2  1  0  0  0  0
  1 20  1  0  0  0  0
  1 21  1  0  0  0  0
  1 22  1  0  0  0  0
  2  3  1  0  0  0  0
  3 19  1  0  0  0  0
  3  4  2  0  0  0  0
  4  5  1  0  0  0  0
  4 23  1  0  0  0  0
  5  6  2  0  0  0  0
  5 24  1  0  0  0  0
  6  7  1  0  0  0  0
  6 18  1  0  0  0  0
  7  8  1  0  0  0  0
  7 25  1  0  0  0  0
  8  9  2  0  0  0  0
  8 10  1  0  0  0  0
 10 11  1  0  0  0  0
 10 26  1  0  0  0  0
 11 12  1  0  0  0  0
 11 13  1  0  0  0  0
 11 27  1  0  0  0  0
 12 28  1  0  0  0  0
 12 29  1  0  0  0  0
 12 30  1  0  0  0  0
 13 17  1  0  0  0  0
 13 14  1  0  0  0  0
 13 31  1  0  0  0  0
 14 15  1  0  0  0  0
 14 32  1  0  0  0  0
 14 33  1  0  0  0  0
 15 16  1  0  0  0  0
 15 34  1  0  0  0  0
 15 35  1  0  0  0  0
 16 17  1  0  0  0  0
 16 36  1  0  0  0  0
 16 37  1  0  0  0  0
 18 19  2  0  0  0  0
 18 38  1  0  0  0  0
M  END
> <s_m_source_file>
AV-unprocessed.smi

> <i_m_source_file_index>
1791

> <i_lp_mmshare_version>
43012

> <i_f3d_flags>
0

> <s_epik_input>
W0NIM11PYzFbY0hdW2NIXWMoW2NIXW4xKVtOSF1DKD1PKVtOSF1bQ0BIXShbQ0gzXSlbQ0BASF0yW0NIMl1bQ0gyXVtDSDJdTzI=

> <s_epik_cmdline>
J2VwaWtfcHl0aG9uJywgJy1waCcsICc3LjAnLCAnLXRuJywgJzgnLCAnLW1hJywgJzIwMCcsICctbWV0YWxfYmluZGluZycsICctaW1hZScsICc8aW5maWxlLm1hZT4nLCAnLW9tYWUnLCAnPG91dGZpbGUubWFlPic=

> <r_lp_tautomer_probability>
1

> <r_epik_Ionization_Penalty>
9.18737e-05

> <r_epik_Ionization_Penalty_Charging>
0

> <r_epik_Ionization_Penalty_Neutral>
9.18737e-05

> <r_epik_State_Penalty>
-0

> <r_epik_Charging_Adjusted_Penalty>
0

> <i_epik_Tot_Q>
0

> <i_epik_Tot_abs_Q>
0

> <r_epik_Metal_State_Penalty>
-0

> <b_epik_Metal_Only>
0

> <s_lp_Force_Field>
OPLS_2005

> <r_lp_Energy>
21.9226

> <b_lp_Chiralities_Consistent>
1

> <s_lp_Variant>
AV-unprocessed.smi:1791-3

> <Gold.Version>
5.8.1

> <Gold.Id.Protein>
6NUR|6NUR_protein|mol2

> <Gold.PLP.Fitness>
38.6041

> <Gold.PLP.PLP>
-30.1807

> <Gold.PLP.part.hbond>
-3.6729

> <Gold.PLP.part.metal>
0.0000

> <Gold.PLP.part.buried>
-2.6675

> <Gold.PLP.part.nonpolar>
-24.2726

> <Gold.PLP.part.repulsive>
0.2346

> <Gold.PLP.ligand.clash>
0.0000

> <Gold.PLP.ligand.torsion>
0.1044

> <Gold.PLP.Chemscore.Hbond>
2.8500

> <Gold.PLP.Chemscore.CHOScore>
0.0000

> <Gold.PLP.Chemscore.Metal>
0.0000

> <Gold.Chemscore.Hbonds>
donor molecule, donor type, donor heavy atom, donor atom, acceptor molecule, acceptor atom, score
      L1  H     7    25       P1  7948  1.00
      L1  H    10    26       P1  7948  0.90
      P1  H  7997  8008       L1     2  0.95

> <Gold.PLP.Chemscore.Internal.Correction>
0.0821

> <Gold.Rescore>
     Score         DG    S(hbond)    S(metal)    S(lipo)     H(rot)  DE(clash)    DE(int)     intcor
     15.32     -16.95       2.48        0.00      59.51       1.47       0.03       1.60       ----

> <Gold.Chemscore.Fitness>
15.3178

> <Gold.Chemscore.DG>
-16.9488

> <Gold.Chemscore.ZeroCoef>
-5.4800

> <Gold.Chemscore.Hbond>
2.4752

> <Gold.Chemscore.Metal>
0.0000

> <Gold.Chemscore.Lipo>
59.5120

> <Gold.Chemscore.Internal_Hbond>
0.0000

> <Gold.Chemscore.DEClash>
0.0311

> <Gold.Chemscore.DEInternal>
1.5999

> <Gold.Chemscore.Rot>
1.4693

> <Gold.Chemscore.Internal.Correction>
   9.000000E+99

> <Gold.Chemscore.Hbonds>
donor molecule, donor type, donor heavy atom, donor atom, acceptor molecule, acceptor atom, score
      L1  H     7    25       P1  7948  0.29
      L1  H    10    26       P1  7948  0.18
      P1  H  7997  8008       L1     2  0.21

> <Gold.Chemscore.Hbond.Weighted>
-8.2672

> <Gold.Chemscore.Metal.Weighted>
-0.0000

> <Gold.Chemscore.Lipo.Weighted>
-6.9629

> <Gold.Chemscore.Internal_Hbond.Weighted>
0.0000

> <Gold.Chemscore.DEClash.Weighted>
0.0311

> <Gold.Chemscore.DEInternal.Weighted>
1.5999

> <Gold.Chemscore.Rot.Weighted>
3.7613

> <Gold.Chemscore.Internal.Correction.Weighted>
   9.000000E+99

> <Gold.Protein.RotatedTorsions>
[ 6907 6896 6895 6894 ] final  -55.24 input  -60.11 | X-H torsion
[ 7974 7965 7964 7962 ] final  -74.73 input  175.53 | X-H torsion
[ 8008 7997 7996 7995 ] final  -64.66 input   59.86 | X-H torsion
[ 10167 10162 10161 10158 ] final  -30.68 input  -65.29 | X-H torsion
[ 10718 10713 10712 10709 ] final    1.52 input   66.30 | X-H torsion
[ 10763 10752 10751 10750 ] final -116.52 input  -60.55 | X-H torsion
[ 11005 11000 10999 10996 ] final  -11.12 input  -57.11 | X-H torsion

> <Gold.Protein.ActiveResidues>
 VAL166  LYS551  ARG553  GLY616  TRP617  ASP618  TYR619  PRO620  LYS621  CYS622 
 ASP623  PHE694  ASN695  SER759  ASP760  ASP761  ALA762  ILE779  LEU786  VAL792 
 PHE793  MET794  SER795  GLU796  ALA797  LYS798  CYS799  TRP800  GLU811  SER814 

> <Gold.Protein.RotatedAtoms>
  150.8269  134.7504  159.6819 H   0  0  0  0  0  0  0  0  0  0  0  0  # atno 6907 bound_to 6896
  152.4378  134.5647  159.9914 H   0  0  0  0  0  0  0  0  0  0  0  0  # atno 6908 bound_to 6896
  151.5818  133.3339  159.3046 H   0  0  0  0  0  0  0  0  0  0  0  0  # atno 6909 bound_to 6896
  145.6353  140.9326  143.1065 H   0  0  0  0  0  0  0  0  0  0  0  0  # atno 7974 bound_to 7965
  154.4625  140.0949  156.6931 H   0  0  0  0  0  0  0  0  0  0  0  0  # atno 8008 bound_to 7997
  155.4954  140.3472  155.4343 H   0  0  0  0  0  0  0  0  0  0  0  0  # atno 8009 bound_to 7997
  156.0896  140.1394  156.9598 H   0  0  0  0  0  0  0  0  0  0  0  0  # atno 8010 bound_to 7997
  140.7246  143.3830  151.1567 H   0  0  0  0  0  0  0  0  0  0  0  0  # atno 10167 bound_to 10162
  156.8494  130.5548  149.5671 H   0  0  0  0  0  0  0  0  0  0  0  0  # atno 10718 bound_to 10713
  154.8522  135.4342  154.1834 H   0  0  0  0  0  0  0  0  0  0  0  0  # atno 10763 bound_to 10752
  153.2919  135.6962  153.7290 H   0  0  0  0  0  0  0  0  0  0  0  0  # atno 10764 bound_to 10752
  153.6454  135.3460  155.3058 H   0  0  0  0  0  0  0  0  0  0  0  0  # atno 10765 bound_to 10752
  140.7519  133.8585  155.9052 H   0  0  0  0  0  0  0  0  0  0  0  0  # atno 11005 bound_to 11000
  144.7178  139.8135  143.7392 LP  0  0  0  0  0  0  0  0  0  0  0  0  # atno 17320 bound_to 7965
  146.1324  139.4363  143.0160 LP  0  0  0  0  0  0  0  0  0  0  0  0  # atno 17321 bound_to 7965
  139.7422  143.8907  152.3053 LP  0  0  0  0  0  0  0  0  0  0  0  0  # atno 17342 bound_to 10162
  139.8732  144.7057  150.8963 LP  0  0  0  0  0  0  0  0  0  0  0  0  # atno 17343 bound_to 10162
  156.0836  130.5840  150.9608 LP  0  0  0  0  0  0  0  0  0  0  0  0  # atno 17370 bound_to 10713
  157.6311  131.0921  150.8438 LP  0  0  0  0  0  0  0  0  0  0  0  0  # atno 17371 bound_to 10713
  140.9742  134.1490  157.4550 LP  0  0  0  0  0  0  0  0  0  0  0  0  # atno 17394 bound_to 11000
  139.8786  134.9989  156.5925 LP  0  0  0  0  0  0  0  0  0  0  0  0  # atno 17395 bound_to 11000

$$$$
