AV-unprocessed.smi:3093|AV-procd|sdf|11786|dock6
  -GOLD-   2272017163D 1   1.00000     0.00000
 Structure written by MMmdl.
 25 26  0  0  0  0  0  0  0  0  2 V2000
  148.1737  141.2917  155.2077 C   0  0  0  0  0  0  0  0  0  0  0  0
  149.2303  140.7336  154.4356 C   0  0  0  0  0  0  0  0  0  0  0  0
  150.3973  140.7854  155.0574 N   0  0  0  0  0  0  0  0  0  0  0  0
  150.1288  141.3861  156.2375 N   0  0  0  0  0  0  0  0  0  0  0  0
  151.1901  141.5914  157.2090 C   0  0  0  0  0  0  0  0  0  0  0  0
  151.4794  143.0797  157.4870 C   0  0  2  0  0  0  0  0  0  0  0  0
  152.5042  143.3088  158.6001 C   0  0  0  0  0  0  0  0  0  0  0  0
  152.1853  144.7238  159.0679 C   0  0  0  0  0  0  0  0  0  0  0  0
  150.6617  144.8047  158.9425 C   0  0  0  0  0  0  0  0  0  0  0  0
  150.2734  143.8206  157.9117 N   0  3  0  0  0  0  0  0  0  0  0  0
  148.7889  141.6903  156.3598 C   0  0  0  0  0  0  0  0  0  0  0  0
  147.1268  141.3788  154.9572 H   0  0  0  0  0  0  0  0  0  0  0  0
  149.1840  140.2926  153.4507 H   0  0  0  0  0  0  0  0  0  0  0  0
  150.9168  141.0804  158.1333 H   0  0  0  0  0  0  0  0  0  0  0  0
  152.0889  141.1003  156.8341 H   0  0  0  0  0  0  0  0  0  0  0  0
  151.8529  143.5640  156.5831 H   0  0  0  0  0  0  0  0  0  0  0  0
  152.3441  142.6056  159.4190 H   0  0  0  0  0  0  0  0  0  0  0  0
  153.5333  143.1977  158.2567 H   0  0  0  0  0  0  0  0  0  0  0  0
  152.5395  144.9282  160.0787 H   0  0  0  0  0  0  0  0  0  0  0  0
  152.6513  145.4463  158.3964 H   0  0  0  0  0  0  0  0  0  0  0  0
  150.1869  144.5222  159.8826 H   0  0  0  0  0  0  0  0  0  0  0  0
  150.3229  145.8076  158.6818 H   0  0  0  0  0  0  0  0  0  0  0  0
  149.8557  144.2799  157.1149 H   0  0  0  0  0  0  0  0  0  0  0  0
  148.3874  142.1603  157.2458 H   0  0  0  0  0  0  0  0  0  0  0  0
  149.6094  143.1760  158.3159 H   0  0  0  0  0  0  0  0  0  0  0  0
  1 11  2  0  0  0  0
  1  2  1  0  0  0  0
  1 12  1  0  0  0  0
  2  3  2  0  0  0  0
  2 13  1  0  0  0  0
  3  4  1  0  0  0  0
  4  5  1  0  0  0  0
  4 11  1  0  0  0  0
  5  6  1  0  0  0  0
  5 14  1  0  0  0  0
  5 15  1  0  0  0  0
  6 10  1  0  0  0  0
  6  7  1  0  0  0  0
  6 16  1  0  0  0  0
  7  8  1  0  0  0  0
  7 17  1  0  0  0  0
  7 18  1  0  0  0  0
  8  9  1  0  0  0  0
  8 19  1  0  0  0  0
  8 20  1  0  0  0  0
  9 10  1  0  0  0  0
  9 21  1  0  0  0  0
  9 22  1  0  0  0  0
 10 23  1  0  0  0  0
 10 25  1  0  0  0  0
 11 24  1  0  0  0  0
M  CHG  1  10   1
M  END
> <s_m_source_file>
AV-unprocessed.smi

> <i_m_source_file_index>
3093

> <i_lp_mmshare_version>
43012

> <i_f3d_flags>
0

> <s_epik_input>
W2NIXTFbY0hdW2NIXW5uMVtDSDJdW0NAQEhdMltDSDJdW0NIMl1bQ0gyXVtOSF0y

> <s_epik_cmdline>
J2VwaWtfcHl0aG9uJywgJy1waCcsICc3LjAnLCAnLXRuJywgJzgnLCAnLW1hJywgJzIwMCcsICctbWV0YWxfYmluZGluZycsICctaW1hZScsICc8aW5maWxlLm1hZT4nLCAnLW9tYWUnLCAnPG91dGZpbGUubWFlPic=

> <r_lp_tautomer_probability>
1

> <r_epik_Ionization_Penalty>
0.000867737

> <r_epik_Ionization_Penalty_Charging>
0.000863359

> <r_epik_Ionization_Penalty_Neutral>
4.37747e-06

> <r_epik_State_Penalty>
0.000557253

> <r_epik_Charging_Adjusted_Penalty>
0.00142061

> <i_epik_Tot_Q>
1

> <i_epik_Tot_abs_Q>
1

> <r_epik_Metal_State_Penalty>
-0

> <b_epik_Metal_Only>
0

> <s_lp_Force_Field>
OPLS_2005

> <r_lp_Energy>
25.0009

> <b_lp_Chiralities_Consistent>
1

> <s_lp_Variant>
AV-unprocessed.smi:3093-1

> <Gold.Version>
5.8.1

> <Gold.Id.Protein>
6NUR|6NUR_protein|mol2

> <Gold.PLP.Fitness>
37.9460

> <Gold.PLP.PLP>
-26.5235

> <Gold.PLP.part.hbond>
-2.3249

> <Gold.PLP.part.metal>
0.0000

> <Gold.PLP.part.buried>
-2.1999

> <Gold.PLP.part.nonpolar>
-22.1183

> <Gold.PLP.part.repulsive>
0.1165

> <Gold.PLP.ligand.clash>
0.0000

> <Gold.PLP.ligand.torsion>
0.0384

> <Gold.PLP.Chemscore.Hbond>
2.8320

> <Gold.PLP.Chemscore.CHOScore>
1.0000

> <Gold.PLP.Chemscore.Metal>
0.0000

> <Gold.Chemscore.Hbonds>
donor molecule, donor type, donor heavy atom, donor atom, acceptor molecule, acceptor atom, score
      L1  H    10    23       P1  8028  2.00
      P1  H  7989  7998       L1     3  0.83
      L1  C     2    13       P1  7957  1.00

> <Gold.PLP.Chemscore.Internal.Correction>
0.0034

> <Gold.Rescore>
     Score         DG    S(hbond)    S(metal)    S(lipo)     H(rot)  DE(clash)    DE(int)     intcor
     15.03     -15.47       1.49        0.00      69.13       1.21       0.22       0.21       ----

> <Gold.Chemscore.Fitness>
15.0324

> <Gold.Chemscore.DG>
-15.4667

> <Gold.Chemscore.ZeroCoef>
-5.4800

> <Gold.Chemscore.Hbond>
1.4923

> <Gold.Chemscore.Metal>
0.0000

> <Gold.Chemscore.Lipo>
69.1346

> <Gold.Chemscore.Internal_Hbond>
0.0000

> <Gold.Chemscore.DEClash>
0.2214

> <Gold.Chemscore.DEInternal>
0.2129

> <Gold.Chemscore.Rot>
1.2056

> <Gold.Chemscore.Internal.Correction>
   9.000000E+99

> <Gold.Chemscore.Hbonds>
donor molecule, donor type, donor heavy atom, donor atom, acceptor molecule, acceptor atom, score
      L1  H    10    23       P1  8028  0.60
      P1  H  7989  7998       L1     3  0.21

> <Gold.Chemscore.Hbond.Weighted>
-4.9844

> <Gold.Chemscore.Metal.Weighted>
-0.0000

> <Gold.Chemscore.Lipo.Weighted>
-8.0887

> <Gold.Chemscore.Internal_Hbond.Weighted>
0.0000

> <Gold.Chemscore.DEClash.Weighted>
0.2214

> <Gold.Chemscore.DEInternal.Weighted>
0.2129

> <Gold.Chemscore.Rot.Weighted>
3.0864

> <Gold.Chemscore.Internal.Correction.Weighted>
   9.000000E+99

> <Gold.Protein.RotatedTorsions>
[ 6907 6896 6895 6894 ] final   70.86 input  -60.11 | X-H torsion
[ 7974 7965 7964 7962 ] final  137.06 input  175.53 | X-H torsion
[ 8008 7997 7996 7995 ] final -134.09 input   59.86 | X-H torsion
[ 10167 10162 10161 10158 ] final  -43.41 input  -65.29 | X-H torsion
[ 10718 10713 10712 10709 ] final   87.68 input   66.30 | X-H torsion
[ 10763 10752 10751 10750 ] final  -92.74 input  -60.55 | X-H torsion
[ 11005 11000 10999 10996 ] final -174.04 input  -57.11 | X-H torsion

> <Gold.Protein.ActiveResidues>
 VAL166  LYS551  ARG553  GLY616  TRP617  ASP618  TYR619  PRO620  LYS621  CYS622 
 ASP623  PHE694  ASN695  SER759  ASP760  ASP761  ALA762  ILE779  LEU786  VAL792 
 PHE793  MET794  SER795  GLU796  ALA797  LYS798  CYS799  TRP800  GLU811  SER814 

> <Gold.Protein.RotatedAtoms>
  152.4775  134.4805  159.9663 H   0  0  0  0  0  0  0  0  0  0  0  0  # atno 6907 bound_to 6896
  151.4818  133.3539  159.2847 H   0  0  0  0  0  0  0  0  0  0  0  0  # atno 6908 bound_to 6896
  150.8824  134.8244  159.7296 H   0  0  0  0  0  0  0  0  0  0  0  0  # atno 6909 bound_to 6896
  144.9504  139.4825  143.5528 H   0  0  0  0  0  0  0  0  0  0  0  0  # atno 7974 bound_to 7965
  155.3563  140.0480  157.3046 H   0  0  0  0  0  0  0  0  0  0  0  0  # atno 8008 bound_to 7997
  154.5201  140.2222  155.8956 H   0  0  0  0  0  0  0  0  0  0  0  0  # atno 8009 bound_to 7997
  156.1680  140.3102  155.8928 H   0  0  0  0  0  0  0  0  0  0  0  0  # atno 8010 bound_to 7997
  140.6935  143.2984  151.3349 H   0  0  0  0  0  0  0  0  0  0  0  0  # atno 10167 bound_to 10162
  157.6942  131.0265  150.3160 H   0  0  0  0  0  0  0  0  0  0  0  0  # atno 10718 bound_to 10713
  154.6891  135.5220  153.8367 H   0  0  0  0  0  0  0  0  0  0  0  0  # atno 10763 bound_to 10752
  153.0619  135.6571  154.0453 H   0  0  0  0  0  0  0  0  0  0  0  0  # atno 10764 bound_to 10752
  154.0330  135.2983  155.3345 H   0  0  0  0  0  0  0  0  0  0  0  0  # atno 10765 bound_to 10752
  140.4789  134.6094  157.4912 H   0  0  0  0  0  0  0  0  0  0  0  0  # atno 11005 bound_to 11000
  146.3319  139.8585  142.8860 LP  0  0  0  0  0  0  0  0  0  0  0  0  # atno 17320 bound_to 7965
  145.2853  141.0151  143.3694 LP  0  0  0  0  0  0  0  0  0  0  0  0  # atno 17321 bound_to 7965
  139.6362  144.0625  152.2518 LP  0  0  0  0  0  0  0  0  0  0  0  0  # atno 17342 bound_to 10162
  140.0116  144.6220  150.7642 LP  0  0  0  0  0  0  0  0  0  0  0  0  # atno 17343 bound_to 10162
  156.3654  130.3854  149.7218 LP  0  0  0  0  0  0  0  0  0  0  0  0  # atno 17370 bound_to 10713
  156.4650  130.7970  151.2989 LP  0  0  0  0  0  0  0  0  0  0  0  0  # atno 17371 bound_to 10713
  139.9838  134.7094  155.9810 LP  0  0  0  0  0  0  0  0  0  0  0  0  # atno 17394 bound_to 11000
  141.1541  133.6545  156.4104 LP  0  0  0  0  0  0  0  0  0  0  0  0  # atno 17395 bound_to 11000

$$$$
