AV-unprocessed.smi:846|AV-procd|sdf|3936|dock10
  -GOLD-   22720 1403D 1   1.00000     0.00000
 Structure written by MMmdl.
 37 38  0  0  0  0  0  0  0  0  1 V2000
  145.0519  134.2345  151.4718 C   0  0  0  0  0  0  0  0  0  0  0  0
  145.7249  133.0011  152.0795 C   0  0  0  0  0  0  0  0  0  0  0  0
  146.9432  133.4124  152.6881 O   0  0  0  0  0  0  0  0  0  0  0  0
  147.7378  132.4645  153.3038 C   0  0  0  0  0  0  0  0  0  0  0  0
  147.3598  131.1631  153.2488 N   0  0  0  0  0  0  0  0  0  0  0  0
  148.1420  130.2441  153.8527 C   0  0  0  0  0  0  0  0  0  0  0  0
  149.3260  130.5706  154.5405 C   0  0  0  0  0  0  0  0  0  0  0  0
  149.7189  131.9208  154.5989 C   0  0  0  0  0  0  0  0  0  0  0  0
  148.9146  132.8929  153.9585 C   0  0  0  0  0  0  0  0  0  0  0  0
  149.1962  134.2841  153.9637 N   0  0  0  0  0  0  0  0  0  0  0  0
  149.9451  134.9952  154.8268 C   0  0  0  0  0  0  0  0  0  0  0  0
  150.4307  134.5522  155.8652 O   0  0  0  0  0  0  0  0  0  0  0  0
  150.1399  136.2729  154.4511 N   0  0  0  0  0  0  0  0  0  0  0  0
  150.8995  137.3113  155.1522 C   0  0  1  0  0  0  0  0  0  0  0  0
  151.9889  137.9120  154.2448 C   0  0  0  0  0  0  0  0  0  0  0  0
  152.5142  139.2021  154.8897 C   0  0  0  0  0  0  0  0  0  0  0  0
  151.1221  139.8938  155.8630 S   0  0  0  0  0  0  0  0  0  0  0  0
  151.5205  139.9664  157.2769 O   0  0  0  0  0  0  0  0  0  0  0  0
  150.5657  141.0661  155.1711 O   0  0  0  0  0  0  0  0  0  0  0  0
  150.0011  138.4671  155.6246 C   0  0  0  0  0  0  0  0  0  0  0  0
  144.1102  133.9684  150.9914 H   0  0  0  0  0  0  0  0  0  0  0  0
  145.6915  134.7001  150.7211 H   0  0  0  0  0  0  0  0  0  0  0  0
  144.8384  134.9812  152.2372 H   0  0  0  0  0  0  0  0  0  0  0  0
  145.0637  132.5470  152.8192 H   0  0  0  0  0  0  0  0  0  0  0  0
  145.9172  132.2649  151.2976 H   0  0  0  0  0  0  0  0  0  0  0  0
  147.8111  129.2180  153.7906 H   0  0  0  0  0  0  0  0  0  0  0  0
  149.9169  129.8026  155.0176 H   0  0  0  0  0  0  0  0  0  0  0  0
  150.6137  132.1843  155.1412 H   0  0  0  0  0  0  0  0  0  0  0  0
  148.9051  134.7785  153.1330 H   0  0  0  0  0  0  0  0  0  0  0  0
  149.7136  136.5539  153.5797 H   0  0  0  0  0  0  0  0  0  0  0  0
  151.4014  136.8781  156.0193 H   0  0  0  0  0  0  0  0  0  0  0  0
  152.7957  137.2033  154.0556 H   0  0  0  0  0  0  0  0  0  0  0  0
  151.5519  138.1610  153.2765 H   0  0  0  0  0  0  0  0  0  0  0  0
  153.3309  138.9865  155.5791 H   0  0  0  0  0  0  0  0  0  0  0  0
  152.8606  139.9312  154.1572 H   0  0  0  0  0  0  0  0  0  0  0  0
  149.2737  138.7387  154.8588 H   0  0  0  0  0  0  0  0  0  0  0  0
  149.4682  138.2546  156.5516 H   0  0  0  0  0  0  0  0  0  0  0  0
  1  2  1  0  0  0  0
  1 21  1  0  0  0  0
  1 22  1  0  0  0  0
  1 23  1  0  0  0  0
  2  3  1  0  0  0  0
  2 24  1  0  0  0  0
  2 25  1  0  0  0  0
  3  4  1  0  0  0  0
  4  9  1  0  0  0  0
  4  5  2  0  0  0  0
  5  6  1  0  0  0  0
  6  7  2  0  0  0  0
  6 26  1  0  0  0  0
  7  8  1  0  0  0  0
  7 27  1  0  0  0  0
  8  9  2  0  0  0  0
  8 28  1  0  0  0  0
  9 10  1  0  0  0  0
 10 11  1  0  0  0  0
 10 29  1  0  0  0  0
 11 12  2  0  0  0  0
 11 13  1  0  0  0  0
 13 14  1  0  0  0  0
 13 30  1  0  0  0  0
 14 20  1  0  0  0  0
 14 15  1  0  0  0  0
 14 31  1  0  0  0  0
 15 16  1  0  0  0  0
 15 32  1  0  0  0  0
 15 33  1  0  0  0  0
 16 17  1  0  0  0  0
 16 34  1  0  0  0  0
 16 35  1  0  0  0  0
 17 18  2  0  0  0  0
 17 19  2  0  0  0  0
 17 20  1  0  0  0  0
 20 36  1  0  0  0  0
 20 37  1  0  0  0  0
M  END
> <s_m_source_file>
AV-unprocessed.smi

> <i_m_source_file_index>
846

> <i_lp_mmshare_version>
43012

> <i_f3d_flags>
0

> <s_epik_input>
W0NIM11bQ0gyXU9jMW5bY0hdW2NIXVtjSF1jMVtOSF1DKD1PKVtOSF1bQ0BASF0oW0NIMl0yKVtDSDJdW0NIMl1TMig9Tyk9Tw==

> <s_epik_cmdline>
J2VwaWtfcHl0aG9uJywgJy1waCcsICc3LjAnLCAnLXRuJywgJzgnLCAnLW1hJywgJzIwMCcsICctbWV0YWxfYmluZGluZycsICctaW1hZScsICc8aW5maWxlLm1hZT4nLCAnLW9tYWUnLCAnPG91dGZpbGUubWFlPic=

> <r_lp_tautomer_probability>
1

> <r_epik_Ionization_Penalty>
9.45557e-05

> <r_epik_Ionization_Penalty_Charging>
0

> <r_epik_Ionization_Penalty_Neutral>
9.45557e-05

> <r_epik_State_Penalty>
-0

> <r_epik_Charging_Adjusted_Penalty>
0

> <i_epik_Tot_Q>
0

> <i_epik_Tot_abs_Q>
0

> <r_epik_Metal_State_Penalty>
-0

> <b_epik_Metal_Only>
0

> <s_lp_Force_Field>
OPLS_2005

> <r_lp_Energy>
17.3952

> <b_lp_Chiralities_Consistent>
1

> <s_lp_Variant>
AV-unprocessed.smi:846-2

> <Gold.Version>
5.8.1

> <Gold.Id.Protein>
6NUR|6NUR_protein|mol2

> <Gold.PLP.Fitness>
39.2726

> <Gold.PLP.PLP>
-32.5527

> <Gold.PLP.part.hbond>
-3.7797

> <Gold.PLP.part.metal>
0.0000

> <Gold.PLP.part.buried>
-2.4712

> <Gold.PLP.part.nonpolar>
-27.2405

> <Gold.PLP.part.repulsive>
0.8723

> <Gold.PLP.ligand.clash>
0.0000

> <Gold.PLP.ligand.torsion>
0.1450

> <Gold.PLP.Chemscore.Hbond>
2.3360

> <Gold.PLP.Chemscore.CHOScore>
0.0000

> <Gold.PLP.Chemscore.Metal>
0.0000

> <Gold.Chemscore.Hbonds>
donor molecule, donor type, donor heavy atom, donor atom, acceptor molecule, acceptor atom, score
      L1  H    10    29       P1  7948  0.85
      L1  H    13    30       P1  7948  1.00
      P1  H  7989  7998       L1    19  0.58

> <Gold.PLP.Chemscore.Internal.Correction>
0.0020

> <Gold.Rescore>
     Score         DG    S(hbond)    S(metal)    S(lipo)     H(rot)  DE(clash)    DE(int)     intcor
     14.22     -15.69       2.27        0.00      55.31       1.50       0.42       1.05       ----

> <Gold.Chemscore.Fitness>
14.2159

> <Gold.Chemscore.DG>
-15.6934

> <Gold.Chemscore.ZeroCoef>
-5.4800

> <Gold.Chemscore.Hbond>
2.2725

> <Gold.Chemscore.Metal>
0.0000

> <Gold.Chemscore.Lipo>
55.3135

> <Gold.Chemscore.Internal_Hbond>
0.0000

> <Gold.Chemscore.DEClash>
0.4237

> <Gold.Chemscore.DEInternal>
1.0538

> <Gold.Chemscore.Rot>
1.5033

> <Gold.Chemscore.Internal.Correction>
   9.000000E+99

> <Gold.Chemscore.Hbonds>
donor molecule, donor type, donor heavy atom, donor atom, acceptor molecule, acceptor atom, score
      L1  H    10    29       P1  7948  0.14
      L1  H    13    30       P1  7948  0.49
      P1  H  7989  7998       L1    19  0.10

> <Gold.Chemscore.Hbond.Weighted>
-7.5902

> <Gold.Chemscore.Metal.Weighted>
-0.0000

> <Gold.Chemscore.Lipo.Weighted>
-6.4717

> <Gold.Chemscore.Internal_Hbond.Weighted>
0.0000

> <Gold.Chemscore.DEClash.Weighted>
0.4237

> <Gold.Chemscore.DEInternal.Weighted>
1.0538

> <Gold.Chemscore.Rot.Weighted>
3.8484

> <Gold.Chemscore.Internal.Correction.Weighted>
   9.000000E+99

> <Gold.Protein.RotatedTorsions>
[ 6907 6896 6895 6894 ] final  -82.43 input  -60.11 | X-H torsion
[ 7974 7965 7964 7962 ] final  -91.82 input  175.53 | X-H torsion
[ 8008 7997 7996 7995 ] final  156.09 input   59.86 | X-H torsion
[ 10167 10162 10161 10158 ] final -175.08 input  -65.29 | X-H torsion
[ 10718 10713 10712 10709 ] final  -20.20 input   66.30 | X-H torsion
[ 10763 10752 10751 10750 ] final   20.10 input  -60.55 | X-H torsion
[ 11005 11000 10999 10996 ] final   67.06 input  -57.11 | X-H torsion

> <Gold.Protein.ActiveResidues>
 VAL166  LYS551  ARG553  GLY616  TRP617  ASP618  TYR619  PRO620  LYS621  CYS622 
 ASP623  PHE694  ASN695  SER759  ASP760  ASP761  ALA762  ILE779  LEU786  VAL792 
 PHE793  MET794  SER795  GLU796  ALA797  LYS798  CYS799  TRP800  GLU811  SER814 

> <Gold.Protein.RotatedAtoms>
  150.6897  134.3667  159.4973 H   0  0  0  0  0  0  0  0  0  0  0  0  # atno 6907 bound_to 6896
  152.1488  134.9002  160.0558 H   0  0  0  0  0  0  0  0  0  0  0  0  # atno 6908 bound_to 6896
  152.0107  133.3825  159.4255 H   0  0  0  0  0  0  0  0  0  0  0  0  # atno 6909 bound_to 6896
  145.4080  140.9543  143.2250 H   0  0  0  0  0  0  0  0  0  0  0  0  # atno 7974 bound_to 7965
  156.2442  140.1922  156.6902 H   0  0  0  0  0  0  0  0  0  0  0  0  # atno 8008 bound_to 7997
  154.6257  140.0602  156.9697 H   0  0  0  0  0  0  0  0  0  0  0  0  # atno 8009 bound_to 7997
  155.1790  140.3275  155.4381 H   0  0  0  0  0  0  0  0  0  0  0  0  # atno 8010 bound_to 7997
  139.5600  144.1894  152.1222 H   0  0  0  0  0  0  0  0  0  0  0  0  # atno 10167 bound_to 10162
  156.5351  130.4664  149.6527 H   0  0  0  0  0  0  0  0  0  0  0  0  # atno 10718 bound_to 10713
  153.1106  135.6695  153.9507 H   0  0  0  0  0  0  0  0  0  0  0  0  # atno 10763 bound_to 10752
  153.9051  135.3031  155.3450 H   0  0  0  0  0  0  0  0  0  0  0  0  # atno 10764 bound_to 10752
  154.7526  135.5027  153.9393 H   0  0  0  0  0  0  0  0  0  0  0  0  # atno 10765 bound_to 10752
  139.9793  134.6770  156.0292 H   0  0  0  0  0  0  0  0  0  0  0  0  # atno 11005 bound_to 11000
  144.8328  139.5599  143.6936 LP  0  0  0  0  0  0  0  0  0  0  0  0  # atno 17320 bound_to 7965
  146.2719  139.6656  142.9290 LP  0  0  0  0  0  0  0  0  0  0  0  0  # atno 17321 bound_to 7965
  140.1406  144.5206  150.6746 LP  0  0  0  0  0  0  0  0  0  0  0  0  # atno 17342 bound_to 10162
  140.6878  143.2359  151.5213 LP  0  0  0  0  0  0  0  0  0  0  0  0  # atno 17343 bound_to 10162
  156.3023  130.7184  151.2058 LP  0  0  0  0  0  0  0  0  0  0  0  0  # atno 17370 bound_to 10713
  157.7415  131.0503  150.5092 LP  0  0  0  0  0  0  0  0  0  0  0  0  # atno 17371 bound_to 10713
  141.1467  133.6555  156.3889 LP  0  0  0  0  0  0  0  0  0  0  0  0  # atno 17394 bound_to 11000
  140.5129  134.6378  157.5291 LP  0  0  0  0  0  0  0  0  0  0  0  0  # atno 17395 bound_to 11000

$$$$
