AV-unprocessed.smi:1771|AV-procd|sdf|7158|dock3
  -GOLD-   22720 8393D 1   1.00000     0.00000
 Structure written by MMmdl.
 31 32  0  0  0  0  0  0  0  0  1 V2000
  144.7746  137.6482  152.4939 O   0  0  0  0  0  0  0  0  0  0  0  0
  145.9349  137.2738  152.3229 C   0  0  0  0  0  0  0  0  0  0  0  0
  147.0044  137.9285  152.7976 N   0  0  0  0  0  0  0  0  0  0  0  0
  146.9657  139.1483  153.5990 C   0  0  0  0  0  0  0  0  0  0  0  0
  148.3749  139.7007  153.8898 C   0  0  1  0  0  0  0  0  0  0  0  0
  148.3803  141.0685  154.6060 C   0  0  0  0  0  0  0  0  0  0  0  0
  149.8019  141.3645  155.0965 C   0  0  0  0  0  0  0  0  0  0  0  0
  150.5377  139.7383  155.5058 S   0  0  0  0  0  0  0  0  0  0  0  0
  151.7816  139.5708  154.7391 O   0  0  0  0  0  0  0  0  0  0  0  0
  150.5129  139.5378  156.9625 O   0  0  0  0  0  0  0  0  0  0  0  0
  149.2100  138.7327  154.7417 C   0  0  0  0  0  0  0  0  0  0  0  0
  146.2992  136.1743  151.6428 N   0  0  0  0  0  0  0  0  0  0  0  0
  145.4491  135.2270  151.0181 C   0  0  0  0  0  0  0  0  0  0  0  0
  145.8039  133.8778  150.7456 C   0  0  0  0  0  0  0  0  0  0  0  0
  144.8103  133.2254  150.1595 N   0  0  0  0  0  0  0  0  0  0  0  0
  143.8248  134.1455  150.0547 N   0  0  0  0  0  0  0  0  0  0  0  0
  144.1686  135.3780  150.5647 C   0  0  0  0  0  0  0  0  0  0  0  0
  142.9325  133.9191  149.6386 H   0  0  0  0  0  0  0  0  0  0  0  0
  147.9179  137.5459  152.6017 H   0  0  0  0  0  0  0  0  0  0  0  0
  146.3461  139.9103  153.1228 H   0  0  0  0  0  0  0  0  0  0  0  0
  146.4720  138.9028  154.5396 H   0  0  0  0  0  0  0  0  0  0  0  0
  148.8981  139.8286  152.9407 H   0  0  0  0  0  0  0  0  0  0  0  0
  148.0146  141.8687  153.9620 H   0  0  0  0  0  0  0  0  0  0  0  0
  147.7121  141.0232  155.4672 H   0  0  0  0  0  0  0  0  0  0  0  0
  150.3999  141.8146  154.3038 H   0  0  0  0  0  0  0  0  0  0  0  0
  149.8246  142.0201  155.9672 H   0  0  0  0  0  0  0  0  0  0  0  0
  148.6130  138.3057  155.5483 H   0  0  0  0  0  0  0  0  0  0  0  0
  149.6425  137.9175  154.1616 H   0  0  0  0  0  0  0  0  0  0  0  0
  147.2891  135.9897  151.5713 H   0  0  0  0  0  0  0  0  0  0  0  0
  146.7300  133.3609  150.9502 H   0  0  0  0  0  0  0  0  0  0  0  0
  143.4888  136.2172  150.5567 H   0  0  0  0  0  0  0  0  0  0  0  0
  1  2  2  0  0  0  0
  2  3  1  0  0  0  0
  2 12  1  0  0  0  0
  3  4  1  0  0  0  0
  3 19  1  0  0  0  0
  4  5  1  0  0  0  0
  4 20  1  0  0  0  0
  4 21  1  0  0  0  0
  5 11  1  0  0  0  0
  5  6  1  0  0  0  0
  5 22  1  0  0  0  0
  6  7  1  0  0  0  0
  6 23  1  0  0  0  0
  6 24  1  0  0  0  0
  7  8  1  0  0  0  0
  7 25  1  0  0  0  0
  7 26  1  0  0  0  0
  8  9  2  0  0  0  0
  8 10  2  0  0  0  0
  8 11  1  0  0  0  0
 11 27  1  0  0  0  0
 11 28  1  0  0  0  0
 12 13  1  0  0  0  0
 12 29  1  0  0  0  0
 13 17  2  0  0  0  0
 13 14  1  0  0  0  0
 14 15  2  0  0  0  0
 14 30  1  0  0  0  0
 15 16  1  0  0  0  0
 16 18  1  0  0  0  0
 16 17  1  0  0  0  0
 17 31  1  0  0  0  0
M  END
> <s_m_source_file>
AV-unprocessed.smi

> <i_m_source_file_index>
1771

> <i_lp_mmshare_version>
43012

> <i_f3d_flags>
0

> <s_epik_input>
W2NIXTFbbkhdbltjSF1jMVtOSF1DKD1PKVtOSF1bQ0gyXVtDQEBIXShbQ0gyXTIpW0NIMl1bQ0gyXVMyKD1PKT1P

> <s_epik_cmdline>
J2VwaWtfcHl0aG9uJywgJy1waCcsICc3LjAnLCAnLXRuJywgJzgnLCAnLW1hJywgJzIwMCcsICctbWV0YWxfYmluZGluZycsICctaW1hZScsICc8aW5maWxlLm1hZT4nLCAnLW9tYWUnLCAnPG91dGZpbGUubWFlPic=

> <r_lp_tautomer_probability>
1

> <r_epik_Ionization_Penalty>
4.89708e-05

> <r_epik_Ionization_Penalty_Charging>
0

> <r_epik_Ionization_Penalty_Neutral>
4.89708e-05

> <r_epik_State_Penalty>
-0

> <r_epik_Charging_Adjusted_Penalty>
0

> <i_epik_Tot_Q>
0

> <i_epik_Tot_abs_Q>
0

> <r_epik_Metal_State_Penalty>
-0

> <b_epik_Metal_Only>
0

> <s_lp_Force_Field>
OPLS_2005

> <r_lp_Energy>
7.81667

> <b_lp_Chiralities_Consistent>
1

> <s_lp_Variant>
AV-unprocessed.smi:1771-2

> <Gold.Version>
5.8.1

> <Gold.Id.Protein>
6NUR|6NUR_protein|mol2

> <Gold.PLP.Fitness>
40.5551

> <Gold.PLP.PLP>
-26.1401

> <Gold.PLP.part.hbond>
-4.0000

> <Gold.PLP.part.metal>
0.0000

> <Gold.PLP.part.buried>
-3.5113

> <Gold.PLP.part.nonpolar>
-20.7044

> <Gold.PLP.part.repulsive>
1.9848

> <Gold.PLP.ligand.clash>
0.0000

> <Gold.PLP.ligand.torsion>
0.1462

> <Gold.PLP.Chemscore.Hbond>
3.9120

> <Gold.PLP.Chemscore.CHOScore>
0.9893

> <Gold.PLP.Chemscore.Metal>
0.0000

> <Gold.Chemscore.Hbonds>
donor molecule, donor type, donor heavy atom, donor atom, acceptor molecule, acceptor atom, score
      L1  H     3    19       P1  7948  0.99
      L1  H    12    29       P1  7948  1.00
      L1  H    16    18       P1 10186  0.90
      P1  H  7989  7998       L1     9  1.00
      L1  C    17    31       P1 10171  1.00

> <Gold.PLP.Chemscore.Internal.Correction>
0.0036

> <Gold.Rescore>
     Score         DG    S(hbond)    S(metal)    S(lipo)     H(rot)  DE(clash)    DE(int)     intcor
     18.55     -18.95       3.51        0.00      45.47       1.39       0.13       0.27       ----

> <Gold.Chemscore.Fitness>
18.5500

> <Gold.Chemscore.DG>
-18.9535

> <Gold.Chemscore.ZeroCoef>
-5.4800

> <Gold.Chemscore.Hbond>
3.5070

> <Gold.Chemscore.Metal>
0.0000

> <Gold.Chemscore.Lipo>
45.4733

> <Gold.Chemscore.Internal_Hbond>
0.0000

> <Gold.Chemscore.DEClash>
0.1306

> <Gold.Chemscore.DEInternal>
0.2728

> <Gold.Chemscore.Rot>
1.3908

> <Gold.Chemscore.Internal.Correction>
   9.000000E+99

> <Gold.Chemscore.Hbonds>
donor molecule, donor type, donor heavy atom, donor atom, acceptor molecule, acceptor atom, score
      L1  H     3    19       P1  7948  0.94
      L1  H    12    29       P1  7948  0.99
      L1  H    16    18       P1 10186  0.85
      P1  H  7989  7998       L1     9  0.38

> <Gold.Chemscore.Hbond.Weighted>
-11.7134

> <Gold.Chemscore.Metal.Weighted>
-0.0000

> <Gold.Chemscore.Lipo.Weighted>
-5.3204

> <Gold.Chemscore.Internal_Hbond.Weighted>
0.0000

> <Gold.Chemscore.DEClash.Weighted>
0.1306

> <Gold.Chemscore.DEInternal.Weighted>
0.2728

> <Gold.Chemscore.Rot.Weighted>
3.5603

> <Gold.Chemscore.Internal.Correction.Weighted>
   9.000000E+99

> <Gold.Protein.RotatedTorsions>
[ 6907 6896 6895 6894 ] final    4.52 input  -60.11 | X-H torsion
[ 7974 7965 7964 7962 ] final -163.14 input  175.53 | X-H torsion
[ 8008 7997 7996 7995 ] final  100.62 input   59.86 | X-H torsion
[ 10167 10162 10161 10158 ] final  -56.31 input  -65.29 | X-H torsion
[ 10718 10713 10712 10709 ] final  -92.47 input   66.30 | X-H torsion
[ 10763 10752 10751 10750 ] final  124.63 input  -60.55 | X-H torsion
[ 11005 11000 10999 10996 ] final  -90.53 input  -57.11 | X-H torsion

> <Gold.Protein.ActiveResidues>
 VAL166  LYS551  ARG553  GLY616  TRP617  ASP618  TYR619  PRO620  LYS621  CYS622 
 ASP623  PHE694  ASN695  SER759  ASP760  ASP761  ALA762  ILE779  LEU786  VAL792 
 PHE793  MET794  SER795  GLU796  ALA797  LYS798  CYS799  TRP800  GLU811  SER814 

> <Gold.Protein.RotatedAtoms>
  151.6426  135.1011  160.0144 H   0  0  0  0  0  0  0  0  0  0  0  0  # atno 6907 bound_to 6896
  152.4045  133.6864  159.6353 H   0  0  0  0  0  0  0  0  0  0  0  0  # atno 6908 bound_to 6896
  150.7941  133.8650  159.3283 H   0  0  0  0  0  0  0  0  0  0  0  0  # atno 6909 bound_to 6896
  144.7335  140.3150  143.6181 H   0  0  0  0  0  0  0  0  0  0  0  0  # atno 7974 bound_to 7965
  156.1220  140.3210  155.8223 H   0  0  0  0  0  0  0  0  0  0  0  0  # atno 8008 bound_to 7997
  155.4487  140.0531  157.3020 H   0  0  0  0  0  0  0  0  0  0  0  0  # atno 8009 bound_to 7997
  154.4835  140.2063  155.9723 H   0  0  0  0  0  0  0  0  0  0  0  0  # atno 8010 bound_to 7997
  140.6325  143.2466  151.5205 H   0  0  0  0  0  0  0  0  0  0  0  0  # atno 10167 bound_to 10162
  156.0003  130.4988  150.5631 H   0  0  0  0  0  0  0  0  0  0  0  0  # atno 10718 bound_to 10713
  153.6644  135.3341  155.3136 H   0  0  0  0  0  0  0  0  0  0  0  0  # atno 10763 bound_to 10752
  154.8507  135.4371  154.1771 H   0  0  0  0  0  0  0  0  0  0  0  0  # atno 10764 bound_to 10752
  153.2746  135.7003  153.7522 H   0  0  0  0  0  0  0  0  0  0  0  0  # atno 10765 bound_to 10752
  141.1564  133.7698  156.9750 H   0  0  0  0  0  0  0  0  0  0  0  0  # atno 11005 bound_to 11000
  145.7626  139.1830  143.2258 LP  0  0  0  0  0  0  0  0  0  0  0  0  # atno 17320 bound_to 7965
  146.0974  140.7584  142.9566 LP  0  0  0  0  0  0  0  0  0  0  0  0  # atno 17321 bound_to 7965
  139.5538  144.2329  152.1576 LP  0  0  0  0  0  0  0  0  0  0  0  0  # atno 17342 bound_to 10162
  140.1576  144.5056  150.6651 LP  0  0  0  0  0  0  0  0  0  0  0  0  # atno 17343 bound_to 10162
  157.3537  131.0738  151.1692 LP  0  0  0  0  0  0  0  0  0  0  0  0  # atno 17370 bound_to 10713
  157.2500  130.6609  149.5927 LP  0  0  0  0  0  0  0  0  0  0  0  0  # atno 17371 bound_to 10713
  140.1104  134.9480  157.2056 LP  0  0  0  0  0  0  0  0  0  0  0  0  # atno 17394 bound_to 11000
  140.3201  134.2925  155.7248 LP  0  0  0  0  0  0  0  0  0  0  0  0  # atno 17395 bound_to 11000

$$$$
