AV-unprocessed.smi:3046|AV-procd|sdf|11614|dock6
  -GOLD-   2272016593D 1   1.00000     0.00000
 Structure written by MMmdl.
 38 38  0  0  0  0  0  0  0  0  2 V2000
  152.1173  139.7729  155.3686 C   0  0  0  0  0  0  0  0  0  0  0  0
  151.1768  138.8261  155.2326 C   0  0  0  0  0  0  0  0  0  0  0  0
  151.3215  137.5918  154.3645 C   0  0  0  0  0  0  0  0  0  0  0  0
  150.0835  136.8233  154.3181 N   0  0  0  0  0  0  0  0  0  0  0  0
  149.5991  136.0761  155.3225 C   0  0  0  0  0  0  0  0  0  0  0  0
  150.1628  135.9599  156.4114 O   0  0  0  0  0  0  0  0  0  0  0  0
  148.2821  135.3354  155.0493 C   0  0  1  0  0  0  0  0  0  0  0  0
  147.1413  136.3492  154.8735 C   0  0  0  0  0  0  0  0  0  0  0  0
  148.3734  134.4753  153.8443 N   0  3  0  0  0  0  0  0  0  0  0  0
  147.1015  133.8894  153.3586 C   0  0  2  0  0  0  0  0  0  0  0  0
  146.6192  132.8254  154.3583 C   0  0  0  0  0  0  0  0  0  0  0  0
  147.2655  133.3197  151.9309 C   0  0  0  0  0  0  0  0  0  0  0  0
  145.9947  133.0554  151.2810 N   0  0  0  0  0  0  0  0  0  0  0  0
  145.6157  131.9497  150.5485 C   0  0  0  0  0  0  0  0  0  0  0  0
  144.3320  132.1592  150.1332 C   0  0  0  0  0  0  0  0  0  0  0  0
  144.0097  133.4405  150.6616 C   0  0  0  0  0  0  0  0  0  0  0  0
  145.0086  133.9757  151.3452 N   0  0  0  0  0  0  0  0  0  0  0  0
  153.0636  139.7035  154.8520 H   0  0  0  0  0  0  0  0  0  0  0  0
  151.9514  140.6329  156.0008 H   0  0  0  0  0  0  0  0  0  0  0  0
  150.2413  138.9351  155.7622 H   0  0  0  0  0  0  0  0  0  0  0  0
  151.6223  137.8924  153.3596 H   0  0  0  0  0  0  0  0  0  0  0  0
  152.1154  136.9530  154.7534 H   0  0  0  0  0  0  0  0  0  0  0  0
  149.5609  136.8586  153.4545 H   0  0  0  0  0  0  0  0  0  0  0  0
  148.0453  134.7131  155.9126 H   0  0  0  0  0  0  0  0  0  0  0  0
  147.0397  136.9904  155.7503 H   0  0  0  0  0  0  0  0  0  0  0  0
  146.1866  135.8418  154.7308 H   0  0  0  0  0  0  0  0  0  0  0  0
  147.3065  136.9934  154.0085 H   0  0  0  0  0  0  0  0  0  0  0  0
  148.7776  135.0108  153.0899 H   0  0  0  0  0  0  0  0  0  0  0  0
  146.3450  134.6750  153.3401 H   0  0  0  0  0  0  0  0  0  0  0  0
  145.6434  132.4261  154.0806 H   0  0  0  0  0  0  0  0  0  0  0  0
  146.5204  133.2465  155.3595 H   0  0  0  0  0  0  0  0  0  0  0  0
  147.3170  131.9894  154.4161 H   0  0  0  0  0  0  0  0  0  0  0  0
  147.8248  134.0062  151.2952 H   0  0  0  0  0  0  0  0  0  0  0  0
  147.8370  132.3909  151.9603 H   0  0  0  0  0  0  0  0  0  0  0  0
  146.2809  131.1141  150.3877 H   0  0  0  0  0  0  0  0  0  0  0  0
  143.7167  131.4988  149.5403 H   0  0  0  0  0  0  0  0  0  0  0  0
  143.0870  133.9941  150.5685 H   0  0  0  0  0  0  0  0  0  0  0  0
  149.0027  133.7181  154.0710 H   0  0  0  0  0  0  0  0  0  0  0  0
  1  2  2  0  0  0  0
  1 18  1  0  0  0  0
  1 19  1  0  0  0  0
  2  3  1  0  0  0  0
  2 20  1  0  0  0  0
  3  4  1  0  0  0  0
  3 21  1  0  0  0  0
  3 22  1  0  0  0  0
  4  5  1  0  0  0  0
  4 23  1  0  0  0  0
  5  6  2  0  0  0  0
  5  7  1  0  0  0  0
  7  8  1  0  0  0  0
  7  9  1  0  0  0  0
  7 24  1  0  0  0  0
  8 25  1  0  0  0  0
  8 26  1  0  0  0  0
  8 27  1  0  0  0  0
  9 10  1  0  0  0  0
  9 28  1  0  0  0  0
  9 38  1  0  0  0  0
 10 11  1  0  0  0  0
 10 12  1  0  0  0  0
 10 29  1  0  0  0  0
 11 30  1  0  0  0  0
 11 31  1  0  0  0  0
 11 32  1  0  0  0  0
 12 13  1  0  0  0  0
 12 33  1  0  0  0  0
 12 34  1  0  0  0  0
 13 17  1  0  0  0  0
 13 14  1  0  0  0  0
 14 15  2  0  0  0  0
 14 35  1  0  0  0  0
 15 16  1  0  0  0  0
 15 36  1  0  0  0  0
 16 17  2  0  0  0  0
 16 37  1  0  0  0  0
M  CHG  1   9   1
M  END
> <s_m_source_file>
AV-unprocessed.smi

> <i_m_source_file_index>
3046

> <i_lp_mmshare_version>
43012

> <i_f3d_flags>
0

> <s_epik_input>
W0NIMl09W0NIXVtDSDJdW05IXUMoPU8pW0NASF0oW0NIM10pW05IXVtDQEhdKFtDSDNdKVtDSDJdbjFbY0hdW2NIXVtjSF1uMQ==

> <s_epik_cmdline>
J2VwaWtfcHl0aG9uJywgJy1waCcsICc3LjAnLCAnLXRuJywgJzgnLCAnLW1hJywgJzIwMCcsICctbWV0YWxfYmluZGluZycsICctaW1hZScsICc8aW5maWxlLm1hZT4nLCAnLW9tYWUnLCAnPG91dGZpbGUubWFlPic=

> <r_lp_tautomer_probability>
1

> <r_epik_Ionization_Penalty>
0.132961

> <r_epik_Ionization_Penalty_Charging>
0.132956

> <r_epik_Ionization_Penalty_Neutral>
5.00268e-06

> <r_epik_State_Penalty>
0.122332

> <r_epik_Charging_Adjusted_Penalty>
0.255288

> <i_epik_Tot_Q>
1

> <i_epik_Tot_abs_Q>
1

> <r_epik_Metal_State_Penalty>
0.122338

> <b_epik_Metal_Only>
0

> <s_lp_Force_Field>
OPLS_2005

> <r_lp_Energy>
6.33671

> <b_lp_Chiralities_Consistent>
1

> <s_lp_Variant>
AV-unprocessed.smi:3046-2

> <Gold.Version>
5.8.1

> <Gold.Id.Protein>
6NUR|6NUR_protein|mol2

> <Gold.PLP.Fitness>
43.6108

> <Gold.PLP.PLP>
-29.6981

> <Gold.PLP.part.hbond>
-2.5437

> <Gold.PLP.part.metal>
0.0000

> <Gold.PLP.part.buried>
-4.0461

> <Gold.PLP.part.nonpolar>
-23.4005

> <Gold.PLP.part.repulsive>
0.1718

> <Gold.PLP.ligand.clash>
0.0000

> <Gold.PLP.ligand.torsion>
0.5635

> <Gold.PLP.Chemscore.Hbond>
3.0000

> <Gold.PLP.Chemscore.CHOScore>
2.0000

> <Gold.PLP.Chemscore.Metal>
0.0000

> <Gold.Chemscore.Hbonds>
donor molecule, donor type, donor heavy atom, donor atom, acceptor molecule, acceptor atom, score
      L1  H     4    23       P1  7948  1.00
      L1  H     9    28       P1  7948  2.00
      L1  C    14    35       P1 10747  0.58
      L1  C    16    37       P1 10186  1.00

> <Gold.PLP.Chemscore.Internal.Correction>
0.0397

> <Gold.Rescore>
     Score         DG    S(hbond)    S(metal)    S(lipo)     H(rot)  DE(clash)    DE(int)     intcor
     12.80     -13.40       1.78        0.00      66.41       2.26       0.00       0.60       ----

> <Gold.Chemscore.Fitness>
12.7957

> <Gold.Chemscore.DG>
-13.3989

> <Gold.Chemscore.ZeroCoef>
-5.4800

> <Gold.Chemscore.Hbond>
1.7787

> <Gold.Chemscore.Metal>
0.0000

> <Gold.Chemscore.Lipo>
66.4123

> <Gold.Chemscore.Internal_Hbond>
0.0000

> <Gold.Chemscore.DEClash>
0.0048

> <Gold.Chemscore.DEInternal>
0.5984

> <Gold.Chemscore.Rot>
2.2626

> <Gold.Chemscore.Internal.Correction>
   9.000000E+99

> <Gold.Chemscore.Hbonds>
donor molecule, donor type, donor heavy atom, donor atom, acceptor molecule, acceptor atom, score
      L1  H     4    23       P1  7948  0.77
      L1  H     9    28       P1  7948  0.40

> <Gold.Chemscore.Hbond.Weighted>
-5.9409

> <Gold.Chemscore.Metal.Weighted>
-0.0000

> <Gold.Chemscore.Lipo.Weighted>
-7.7702

> <Gold.Chemscore.Internal_Hbond.Weighted>
0.0000

> <Gold.Chemscore.DEClash.Weighted>
0.0048

> <Gold.Chemscore.DEInternal.Weighted>
0.5984

> <Gold.Chemscore.Rot.Weighted>
5.7922

> <Gold.Chemscore.Internal.Correction.Weighted>
   9.000000E+99

> <Gold.Protein.RotatedTorsions>
[ 6907 6896 6895 6894 ] final  -47.39 input  -60.11 | X-H torsion
[ 7974 7965 7964 7962 ] final -172.68 input  175.53 | X-H torsion
[ 8008 7997 7996 7995 ] final  167.63 input   59.86 | X-H torsion
[ 10167 10162 10161 10158 ] final   93.96 input  -65.29 | X-H torsion
[ 10718 10713 10712 10709 ] final -140.37 input   66.30 | X-H torsion
[ 10763 10752 10751 10750 ] final  140.51 input  -60.55 | X-H torsion
[ 11005 11000 10999 10996 ] final  169.79 input  -57.11 | X-H torsion

> <Gold.Protein.ActiveResidues>
 VAL166  LYS551  ARG553  GLY616  TRP617  ASP618  TYR619  PRO620  LYS621  CYS622 
 ASP623  PHE694  ASN695  SER759  ASP760  ASP761  ALA762  ILE779  LEU786  VAL792 
 PHE793  MET794  SER795  GLU796  ALA797  LYS798  CYS799  TRP800  GLU811  SER814 

> <Gold.Protein.RotatedAtoms>
  150.9012  134.8425  159.7361 H   0  0  0  0  0  0  0  0  0  0  0  0  # atno 6907 bound_to 6896
  152.4893  134.4499  159.9581 H   0  0  0  0  0  0  0  0  0  0  0  0  # atno 6908 bound_to 6896
  151.4551  133.3568  159.2836 H   0  0  0  0  0  0  0  0  0  0  0  0  # atno 6909 bound_to 6896
  144.7144  140.1736  143.6365 H   0  0  0  0  0  0  0  0  0  0  0  0  # atno 7974 bound_to 7965
  156.1617  140.1612  156.8601 H   0  0  0  0  0  0  0  0  0  0  0  0  # atno 8008 bound_to 7997
  154.5167  140.0788  156.8130 H   0  0  0  0  0  0  0  0  0  0  0  0  # atno 8009 bound_to 7997
  155.3694  140.3399  155.4245 H   0  0  0  0  0  0  0  0  0  0  0  0  # atno 8010 bound_to 7997
  139.8129  144.6765  150.9617 H   0  0  0  0  0  0  0  0  0  0  0  0  # atno 10167 bound_to 10162
  156.3215  130.7537  151.1635 H   0  0  0  0  0  0  0  0  0  0  0  0  # atno 10718 bound_to 10713
  153.9240  135.2997  155.3447 H   0  0  0  0  0  0  0  0  0  0  0  0  # atno 10763 bound_to 10752
  154.7561  135.4957  153.9380 H   0  0  0  0  0  0  0  0  0  0  0  0  # atno 10764 bound_to 10752
  153.1127  135.6763  153.9576 H   0  0  0  0  0  0  0  0  0  0  0  0  # atno 10765 bound_to 10752
  140.3015  134.7591  157.3920 H   0  0  0  0  0  0  0  0  0  0  0  0  # atno 11005 bound_to 11000
  145.8921  139.2381  143.1543 LP  0  0  0  0  0  0  0  0  0  0  0  0  # atno 17320 bound_to 7965
  145.9893  140.8616  143.0074 LP  0  0  0  0  0  0  0  0  0  0  0  0  # atno 17321 bound_to 7965
  140.7817  143.4167  151.0906 LP  0  0  0  0  0  0  0  0  0  0  0  0  # atno 17342 bound_to 10162
  139.7832  143.8325  152.3141 LP  0  0  0  0  0  0  0  0  0  0  0  0  # atno 17343 bound_to 10162
  157.7412  131.0506  150.5109 LP  0  0  0  0  0  0  0  0  0  0  0  0  # atno 17370 bound_to 10713
  156.5262  130.4174  149.6225 LP  0  0  0  0  0  0  0  0  0  0  0  0  # atno 17371 bound_to 10713
  140.1105  134.5352  155.8270 LP  0  0  0  0  0  0  0  0  0  0  0  0  # atno 17394 bound_to 11000
  141.2127  133.6723  156.6680 LP  0  0  0  0  0  0  0  0  0  0  0  0  # atno 17395 bound_to 11000

$$$$
