AV-unprocessed.smi:1686|AV-procd|sdf|6765|dock3
  -GOLD-   22720 7523D 1   1.00000     0.00000
 Structure written by MMmdl.
 41 43  0  0  0  0  0  0  0  0  1 V2000
  150.3631  130.9665  155.7636 C   0  0  0  0  0  0  0  0  0  0  0  0
  150.1044  132.3861  156.1792 C   0  0  0  0  0  0  0  0  0  0  0  0
  150.3083  132.7363  157.4424 N   0  0  0  0  0  0  0  0  0  0  0  0
  149.9785  134.0934  157.5337 O   0  0  0  0  0  0  0  0  0  0  0  0
  149.5904  134.4906  156.3002 C   0  0  0  0  0  0  0  0  0  0  0  0
  149.0881  136.1008  155.9675 Cl  0  0  0  0  0  0  0  0  0  0  0  0
  149.6448  133.4785  155.3858 C   0  0  0  0  0  0  0  0  0  0  0  0
  149.3017  133.4975  153.9155 C   0  0  0  0  0  0  0  0  0  0  0  0
  147.7862  133.4864  153.6827 C   0  0  0  0  0  0  0  0  0  0  0  0
  147.0434  132.7585  154.3436 O   0  0  0  0  0  0  0  0  0  0  0  0
  147.3457  134.3073  152.7165 N   0  0  0  0  0  0  0  0  0  0  0  0
  145.9574  134.4717  152.2870 C   0  0  1  0  0  0  0  0  0  0  0  0
  145.9474  135.1575  150.9123 C   0  0  0  0  0  0  0  0  0  0  0  0
  145.2515  133.0938  152.2676 C   0  0  1  0  0  0  0  0  0  0  0  0
  143.8578  133.0813  151.5965 C   0  0  0  0  0  0  0  0  0  0  0  0
  143.9456  131.8823  150.6344 C   0  0  1  0  0  0  0  0  0  0  0  0
  144.8295  132.2675  149.4342 C   0  0  0  0  0  0  0  0  0  0  0  0
  146.2418  132.2831  150.0468 C   0  0  0  0  0  0  0  0  0  0  0  0
  145.9770  131.9419  151.5278 C   0  0  2  0  0  0  0  0  0  0  0  0
  144.8505  130.9214  151.3969 C   0  0  0  0  0  0  0  0  0  0  0  0
  150.0082  130.7758  154.7509 H   0  0  0  0  0  0  0  0  0  0  0  0
  149.8551  130.2645  156.4252 H   0  0  0  0  0  0  0  0  0  0  0  0
  151.4289  130.7394  155.7907 H   0  0  0  0  0  0  0  0  0  0  0  0
  149.7189  134.3787  153.4270 H   0  0  0  0  0  0  0  0  0  0  0  0
  149.7349  132.6374  153.4038 H   0  0  0  0  0  0  0  0  0  0  0  0
  148.0333  134.8643  152.2301 H   0  0  0  0  0  0  0  0  0  0  0  0
  145.4396  135.1293  152.9853 H   0  0  0  0  0  0  0  0  0  0  0  0
  144.9303  135.3634  150.5788 H   0  0  0  0  0  0  0  0  0  0  0  0
  146.4281  134.5379  150.1546 H   0  0  0  0  0  0  0  0  0  0  0  0
  146.4747  136.1114  150.9472 H   0  0  0  0  0  0  0  0  0  0  0  0
  145.1236  132.7780  153.3051 H   0  0  0  0  0  0  0  0  0  0  0  0
  143.0762  132.9318  152.3421 H   0  0  0  0  0  0  0  0  0  0  0  0
  143.6301  134.0040  151.0616 H   0  0  0  0  0  0  0  0  0  0  0  0
  142.9742  131.4772  150.3496 H   0  0  0  0  0  0  0  0  0  0  0  0
  144.7623  131.5192  148.6435 H   0  0  0  0  0  0  0  0  0  0  0  0
  144.5508  133.2313  149.0066 H   0  0  0  0  0  0  0  0  0  0  0  0
  146.8595  131.5115  149.5854 H   0  0  0  0  0  0  0  0  0  0  0  0
  146.7558  133.2326  149.9040 H   0  0  0  0  0  0  0  0  0  0  0  0
  146.8571  131.5710  152.0537 H   0  0  0  0  0  0  0  0  0  0  0  0
  144.4356  130.6044  152.3554 H   0  0  0  0  0  0  0  0  0  0  0  0
  145.1287  130.0384  150.8186 H   0  0  0  0  0  0  0  0  0  0  0  0
  1  2  1  0  0  0  0
  1 21  1  0  0  0  0
  1 22  1  0  0  0  0
  1 23  1  0  0  0  0
  2  7  1  0  0  0  0
  2  3  2  0  0  0  0
  3  4  1  0  0  0  0
  4  5  1  0  0  0  0
  5  6  1  0  0  0  0
  5  7  2  0  0  0  0
  7  8  1  0  0  0  0
  8  9  1  0  0  0  0
  8 24  1  0  0  0  0
  8 25  1  0  0  0  0
  9 10  2  0  0  0  0
  9 11  1  0  0  0  0
 11 12  1  0  0  0  0
 11 26  1  0  0  0  0
 12 13  1  0  0  0  0
 12 14  1  0  0  0  0
 12 27  1  0  0  0  0
 13 28  1  0  0  0  0
 13 29  1  0  0  0  0
 13 30  1  0  0  0  0
 14 19  1  0  0  0  0
 14 15  1  0  0  0  0
 14 31  1  0  0  0  0
 15 16  1  0  0  0  0
 15 32  1  0  0  0  0
 15 33  1  0  0  0  0
 16 20  1  0  0  0  0
 16 17  1  0  0  0  0
 16 34  1  0  0  0  0
 17 18  1  0  0  0  0
 17 35  1  0  0  0  0
 17 36  1  0  0  0  0
 18 19  1  0  0  0  0
 18 37  1  0  0  0  0
 18 38  1  0  0  0  0
 19 20  1  0  0  0  0
 19 39  1  0  0  0  0
 20 40  1  0  0  0  0
 20 41  1  0  0  0  0
M  END
> <s_m_source_file>
AV-unprocessed.smi

> <i_m_source_file_index>
1686

> <i_lp_mmshare_version>
43012

> <i_f3d_flags>
0

> <s_epik_input>
W0NIM11jMW5vYyhDbCljMVtDSDJdQyg9TylbTkhdW0NASF0oW0NIM10pW0NASF0oW0NIMl1bQ0BIXTIzKVtDQEhdKFtDSDJdMylbQ0gyXVtDSDJdMg==

> <s_epik_cmdline>
J2VwaWtfcHl0aG9uJywgJy1waCcsICc3LjAnLCAnLXRuJywgJzgnLCAnLW1hJywgJzIwMCcsICctbWV0YWxfYmluZGluZycsICctaW1hZScsICc8aW5maWxlLm1hZT4nLCAnLW9tYWUnLCAnPG91dGZpbGUubWFlPic=

> <r_lp_tautomer_probability>
1

> <r_epik_Ionization_Penalty>
2.01576e-08

> <r_epik_Ionization_Penalty_Charging>
0

> <r_epik_Ionization_Penalty_Neutral>
2.01576e-08

> <r_epik_State_Penalty>
-0

> <r_epik_Charging_Adjusted_Penalty>
0

> <i_epik_Tot_Q>
0

> <i_epik_Tot_abs_Q>
0

> <r_epik_Metal_State_Penalty>
-0

> <b_epik_Metal_Only>
0

> <s_lp_Force_Field>
OPLS_2005

> <r_lp_Energy>
47.064

> <b_lp_Chiralities_Consistent>
1

> <s_lp_Variant>
AV-unprocessed.smi:1686-8

> <Gold.Version>
5.8.1

> <Gold.Id.Protein>
6NUR|6NUR_protein|mol2

> <Gold.PLP.Fitness>
43.0429

> <Gold.PLP.PLP>
-39.0628

> <Gold.PLP.part.hbond>
-2.0000

> <Gold.PLP.part.metal>
0.0000

> <Gold.PLP.part.buried>
-5.4694

> <Gold.PLP.part.nonpolar>
-31.8086

> <Gold.PLP.part.repulsive>
0.0583

> <Gold.PLP.ligand.clash>
0.0000

> <Gold.PLP.ligand.torsion>
0.8336

> <Gold.PLP.Chemscore.Hbond>
1.8744

> <Gold.PLP.Chemscore.CHOScore>
0.0000

> <Gold.PLP.Chemscore.Metal>
0.0000

> <Gold.Chemscore.Hbonds>
donor molecule, donor type, donor heavy atom, donor atom, acceptor molecule, acceptor atom, score
      L1  H    11    26       P1  7948  1.00

> <Gold.PLP.Chemscore.Internal.Correction>
0.0242

> <Gold.Rescore>
     Score         DG    S(hbond)    S(metal)    S(lipo)     H(rot)  DE(clash)    DE(int)     intcor
     16.62     -18.93       1.88        0.00      93.24       1.46       0.06       2.25       ----

> <Gold.Chemscore.Fitness>
16.6189

> <Gold.Chemscore.DG>
-18.9262

> <Gold.Chemscore.ZeroCoef>
-5.4800

> <Gold.Chemscore.Hbond>
1.8822

> <Gold.Chemscore.Metal>
0.0000

> <Gold.Chemscore.Lipo>
93.2434

> <Gold.Chemscore.Internal_Hbond>
0.0000

> <Gold.Chemscore.DEClash>
0.0589

> <Gold.Chemscore.DEInternal>
2.2484

> <Gold.Chemscore.Rot>
1.4648

> <Gold.Chemscore.Internal.Correction>
   9.000000E+99

> <Gold.Chemscore.Hbonds>
donor molecule, donor type, donor heavy atom, donor atom, acceptor molecule, acceptor atom, score
      L1  H    11    26       P1  7948  0.55

> <Gold.Chemscore.Hbond.Weighted>
-6.2867

> <Gold.Chemscore.Metal.Weighted>
-0.0000

> <Gold.Chemscore.Lipo.Weighted>
-10.9095

> <Gold.Chemscore.Internal_Hbond.Weighted>
0.0000

> <Gold.Chemscore.DEClash.Weighted>
0.0589

> <Gold.Chemscore.DEInternal.Weighted>
2.2484

> <Gold.Chemscore.Rot.Weighted>
3.7500

> <Gold.Chemscore.Internal.Correction.Weighted>
   9.000000E+99

> <Gold.Protein.RotatedTorsions>
[ 6907 6896 6895 6894 ] final  112.32 input  -60.11 | X-H torsion
[ 7974 7965 7964 7962 ] final  -80.85 input  175.53 | X-H torsion
[ 8008 7997 7996 7995 ] final  -41.57 input   59.86 | X-H torsion
[ 10167 10162 10161 10158 ] final   -4.31 input  -65.29 | X-H torsion
[ 10718 10713 10712 10709 ] final  138.08 input   66.30 | X-H torsion
[ 10763 10752 10751 10750 ] final   85.44 input  -60.55 | X-H torsion
[ 11005 11000 10999 10996 ] final   92.61 input  -57.11 | X-H torsion

> <Gold.Protein.ActiveResidues>
 VAL166  LYS551  ARG553  GLY616  TRP617  ASP618  TYR619  PRO620  LYS621  CYS622 
 ASP623  PHE694  ASN695  SER759  ASP760  ASP761  ALA762  ILE779  LEU786  VAL792 
 PHE793  MET794  SER795  GLU796  ALA797  LYS798  CYS799  TRP800  GLU811  SER814 

> <Gold.Protein.RotatedAtoms>
  152.4922  133.8532  159.7211 H   0  0  0  0  0  0  0  0  0  0  0  0  # atno 6907 bound_to 6896
  150.9063  133.7044  159.2872 H   0  0  0  0  0  0  0  0  0  0  0  0  # atno 6908 bound_to 6896
  151.4468  135.1030  159.9738 H   0  0  0  0  0  0  0  0  0  0  0  0  # atno 6909 bound_to 6896
  145.5545  140.9491  143.1481 H   0  0  0  0  0  0  0  0  0  0  0  0  # atno 7974 bound_to 7965
  154.4003  140.1496  156.3212 H   0  0  0  0  0  0  0  0  0  0  0  0  # atno 8008 bound_to 7997
  155.8527  140.3457  155.5683 H   0  0  0  0  0  0  0  0  0  0  0  0  # atno 8009 bound_to 7997
  155.7966  140.0864  157.1970 H   0  0  0  0  0  0  0  0  0  0  0  0  # atno 8010 bound_to 7997
  140.6923  143.6438  150.8411 H   0  0  0  0  0  0  0  0  0  0  0  0  # atno 10167 bound_to 10162
  157.4292  131.1046  151.0269 H   0  0  0  0  0  0  0  0  0  0  0  0  # atno 10718 bound_to 10713
  153.1475  135.4617  154.9587 H   0  0  0  0  0  0  0  0  0  0  0  0  # atno 10763 bound_to 10752
  154.7798  135.3184  154.8017 H   0  0  0  0  0  0  0  0  0  0  0  0  # atno 10764 bound_to 10752
  153.8528  135.6920  153.4845 H   0  0  0  0  0  0  0  0  0  0  0  0  # atno 10765 bound_to 10752
  139.8821  134.8742  156.3597 H   0  0  0  0  0  0  0  0  0  0  0  0  # atno 11005 bound_to 11000
  144.7513  139.7186  143.7272 LP  0  0  0  0  0  0  0  0  0  0  0  0  # atno 17320 bound_to 7965
  146.1894  139.5126  142.9815 LP  0  0  0  0  0  0  0  0  0  0  0  0  # atno 17321 bound_to 7965
  140.0152  143.5600  152.2823 LP  0  0  0  0  0  0  0  0  0  0  0  0  # atno 17342 bound_to 10162
  139.6338  144.7647  151.2480 LP  0  0  0  0  0  0  0  0  0  0  0  0  # atno 17343 bound_to 10162
  157.1172  130.6046  149.5496 LP  0  0  0  0  0  0  0  0  0  0  0  0  # atno 17370 bound_to 10713
  155.9907  130.4959  150.7268 LP  0  0  0  0  0  0  0  0  0  0  0  0  # atno 17371 bound_to 10713
  140.9538  133.7433  156.0307 LP  0  0  0  0  0  0  0  0  0  0  0  0  # atno 17394 bound_to 11000
  140.8073  134.3439  157.5422 LP  0  0  0  0  0  0  0  0  0  0  0  0  # atno 17395 bound_to 11000

$$$$
