AV-unprocessed.smi:92|AV-procd|sdf|843|dock4
  -GOLD-   2262017283D 1   1.00000     0.00000
 Structure written by MMmdl.
 61 64  0  0  0  0  0  0  0  0  2 V2000
  151.1736  141.7563  157.0484 C   0  0  0  0  0  0  0  0  0  0  0  0
  149.6712  141.9246  157.3149 C   0  0  0  0  0  0  0  0  0  0  0  0
  148.8637  141.8875  156.0661 N   0  3  2  0  0  0  0  0  0  0  0  0
  147.4008  141.8557  156.3043 C   0  0  0  0  0  0  0  0  0  0  0  0
  146.9534  140.4817  156.8208 C   0  0  0  0  0  0  0  0  0  0  0  0
  147.3343  139.3465  155.8412 C   0  0  2  0  0  0  0  0  0  0  0  0
  146.8649  138.0350  156.3192 N   0  0  0  0  0  0  0  0  0  0  0  0
  146.0015  137.9299  157.4890 C   0  0  0  0  0  0  0  0  0  0  0  0
  146.7467  137.0159  155.4366 C   0  0  0  0  0  0  0  0  0  0  0  0
  147.5207  135.9205  155.6401 N   0  0  0  0  0  0  0  0  0  0  0  0
  147.4520  134.8857  154.7975 C   0  0  0  0  0  0  0  0  0  0  0  0
  146.6925  134.7451  153.7094 N   0  0  0  0  0  0  0  0  0  0  0  0
  145.9048  135.8403  153.5077 C   0  0  0  0  0  0  0  0  0  0  0  0
  145.8605  137.0065  154.3229 C   0  0  0  0  0  0  0  0  0  0  0  0
  144.9251  137.9001  153.8165 N   0  0  0  0  0  0  0  0  0  0  0  0
  144.4406  137.2957  152.7665 C   0  0  0  0  0  0  0  0  0  0  0  0
  144.9994  136.0694  152.4860 N   0  0  0  0  0  0  0  0  0  0  0  0
  144.6380  135.1863  151.4159 C   0  0  0  0  0  0  0  0  0  0  0  0
  143.9333  133.8561  151.6977 C   0  0  0  0  0  0  0  0  0  0  0  0
  144.7254  133.1780  150.5584 C   0  0  0  0  0  0  0  0  0  0  0  0
  145.3454  131.8180  150.9150 C   0  0  0  0  0  0  0  0  0  0  0  0
  146.3139  131.4250  149.9636 O   0  0  0  0  0  0  0  0  0  0  0  0
  144.0022  133.0078  149.2039 C   0  0  0  0  0  0  0  0  0  0  0  0
  142.8715  132.1632  149.2761 O   0  0  0  0  0  0  0  0  0  0  0  0
  145.7002  134.3718  150.6696 C   0  0  0  0  0  0  0  0  0  0  0  0
  148.8554  139.4101  155.5099 C   0  0  1  0  0  0  0  0  0  0  0  0
  149.2833  138.4419  154.3912 C   0  0  0  0  0  0  0  0  0  0  0  0
  149.2673  140.8432  155.0887 C   0  0  0  0  0  0  0  0  0  0  0  0
  151.7419  141.8851  157.9699 H   0  0  0  0  0  0  0  0  0  0  0  0
  151.5329  142.4973  156.3338 H   0  0  0  0  0  0  0  0  0  0  0  0
  151.4128  140.7672  156.6590 H   0  0  0  0  0  0  0  0  0  0  0  0
  149.3267  141.1764  158.0284 H   0  0  0  0  0  0  0  0  0  0  0  0
  149.5283  142.8920  157.7981 H   0  0  0  0  0  0  0  0  0  0  0  0
  147.1140  142.6416  157.0043 H   0  0  0  0  0  0  0  0  0  0  0  0
  146.8883  142.0799  155.3678 H   0  0  0  0  0  0  0  0  0  0  0  0
  147.3992  140.3153  157.8015 H   0  0  0  0  0  0  0  0  0  0  0  0
  145.8734  140.4882  156.9730 H   0  0  0  0  0  0  0  0  0  0  0  0
  146.7931  139.5408  154.9142 H   0  0  0  0  0  0  0  0  0  0  0  0
  144.9690  137.7106  157.2184 H   0  0  0  0  0  0  0  0  0  0  0  0
  146.0121  138.8542  158.0669 H   0  0  0  0  0  0  0  0  0  0  0  0
  146.3552  137.1285  158.1380 H   0  0  0  0  0  0  0  0  0  0  0  0
  148.1011  134.0529  155.0252 H   0  0  0  0  0  0  0  0  0  0  0  0
  143.6640  137.7370  152.1588 H   0  0  0  0  0  0  0  0  0  0  0  0
  144.0547  135.7894  150.7190 H   0  0  0  0  0  0  0  0  0  0  0  0
  144.1829  133.4562  152.6820 H   0  0  0  0  0  0  0  0  0  0  0  0
  142.8529  133.8807  151.5517 H   0  0  0  0  0  0  0  0  0  0  0  0
  145.8078  131.8414  151.9024 H   0  0  0  0  0  0  0  0  0  0  0  0
  144.5823  131.0397  150.9507 H   0  0  0  0  0  0  0  0  0  0  0  0
  147.1387  131.3000  150.4076 H   0  0  0  0  0  0  0  0  0  0  0  0
  143.6707  133.9727  148.8189 H   0  0  0  0  0  0  0  0  0  0  0  0
  144.6728  132.5872  148.4542 H   0  0  0  0  0  0  0  0  0  0  0  0
  142.0951  132.7017  149.2953 H   0  0  0  0  0  0  0  0  0  0  0  0
  146.0088  134.8031  149.7168 H   0  0  0  0  0  0  0  0  0  0  0  0
  146.5683  134.1526  151.2935 H   0  0  0  0  0  0  0  0  0  0  0  0
  149.4190  139.1477  156.4048 H   0  0  0  0  0  0  0  0  0  0  0  0
  148.7042  138.6049  153.4817 H   0  0  0  0  0  0  0  0  0  0  0  0
  149.1667  137.3996  154.6789 H   0  0  0  0  0  0  0  0  0  0  0  0
  150.3358  138.5762  154.1403 H   0  0  0  0  0  0  0  0  0  0  0  0
  148.7965  141.0857  154.1348 H   0  0  0  0  0  0  0  0  0  0  0  0
  150.3402  140.8940  154.9070 H   0  0  0  0  0  0  0  0  0  0  0  0
  149.0414  142.7748  155.6168 H   0  0  0  0  0  0  0  0  0  0  0  0
  1  2  1  0  0  0  0
  1 29  1  0  0  0  0
  1 30  1  0  0  0  0
  1 31  1  0  0  0  0
  2  3  1  0  0  0  0
  2 32  1  0  0  0  0
  2 33  1  0  0  0  0
  3 28  1  0  0  0  0
  3  4  1  0  0  0  0
  3 61  1  0  0  0  0
  4  5  1  0  0  0  0
  4 34  1  0  0  0  0
  4 35  1  0  0  0  0
  5  6  1  0  0  0  0
  5 36  1  0  0  0  0
  5 37  1  0  0  0  0
  6  7  1  0  0  0  0
  6 26  1  0  0  0  0
  6 38  1  0  0  0  0
  7  8  1  0  0  0  0
  7  9  1  0  0  0  0
  8 39  1  0  0  0  0
  8 40  1  0  0  0  0
  8 41  1  0  0  0  0
  9 14  1  0  0  0  0
  9 10  2  0  0  0  0
 10 11  1  0  0  0  0
 11 12  2  0  0  0  0
 11 42  1  0  0  0  0
 12 13  1  0  0  0  0
 13 17  1  0  0  0  0
 13 14  2  0  0  0  0
 14 15  1  0  0  0  0
 15 16  2  0  0  0  0
 16 17  1  0  0  0  0
 16 43  1  0  0  0  0
 17 18  1  0  0  0  0
 18 25  1  0  0  0  0
 18 19  1  0  0  0  0
 18 44  1  0  0  0  0
 19 20  1  0  0  0  0
 19 45  1  0  0  0  0
 19 46  1  0  0  0  0
 20 21  1  0  0  0  0
 20 23  1  0  0  0  0
 20 25  1  0  0  0  0
 21 22  1  0  0  0  0
 21 47  1  0  0  0  0
 21 48  1  0  0  0  0
 22 49  1  0  0  0  0
 23 24  1  0  0  0  0
 23 50  1  0  0  0  0
 23 51  1  0  0  0  0
 24 52  1  0  0  0  0
 25 53  1  0  0  0  0
 25 54  1  0  0  0  0
 26 27  1  0  0  0  0
 26 28  1  0  0  0  0
 26 55  1  0  0  0  0
 27 56  1  0  0  0  0
 27 57  1  0  0  0  0
 27 58  1  0  0  0  0
 28 59  1  0  0  0  0
 28 60  1  0  0  0  0
M  CHG  1   3   1
M  END
> <s_m_source_file>
AV-unprocessed.smi

> <i_m_source_file_index>
92

> <i_lp_mmshare_version>
43012

> <i_f3d_flags>
0

> <s_epik_input>
W0NIM11bQ0gyXU4xW0NIMl1bQ0gyXVtDQEhdKFtDQEBIXShbQ0gzXSlbQ0gyXTEpTihbQ0gzXSljKG5bY0hdbjIpYyhjMjMpbltjSF1uM1tDSF0oW0NIMl00KVtDSDJdQzQoW0NIMl1bT0hdKVtDSDJdW09IXQ==

> <s_epik_cmdline>
J2VwaWtfcHl0aG9uJywgJy1waCcsICc3LjAnLCAnLXRuJywgJzgnLCAnLW1hJywgJzIwMCcsICctbWV0YWxfYmluZGluZycsICctaW1hZScsICc8aW5maWxlLm1hZT4nLCAnLW9tYWUnLCAnPG91dGZpbGUubWFlPic=

> <r_lp_tautomer_probability>
1

> <r_epik_Ionization_Penalty>
0.00235514

> <r_epik_Ionization_Penalty_Charging>
0.00137877

> <r_epik_Ionization_Penalty_Neutral>
0.000976366

> <r_epik_State_Penalty>
-0

> <r_epik_Charging_Adjusted_Penalty>
0.00137877

> <i_epik_Tot_Q>
1

> <i_epik_Tot_abs_Q>
1

> <r_epik_Metal_State_Penalty>
-0

> <b_epik_Metal_Only>
0

> <s_lp_Force_Field>
OPLS_2005

> <r_lp_Energy>
56.5643

> <b_lp_Chiralities_Consistent>
1

> <s_lp_Variant>
AV-unprocessed.smi:92-3

> <Gold.Version>
5.8.1

> <Gold.Id.Protein>
6NUR|6NUR_protein|mol2

> <Gold.PLP.Fitness>
49.5194

> <Gold.PLP.PLP>
-35.0195

> <Gold.PLP.part.hbond>
-4.9231

> <Gold.PLP.part.metal>
0.0000

> <Gold.PLP.part.buried>
-5.2977

> <Gold.PLP.part.nonpolar>
-25.5133

> <Gold.PLP.part.repulsive>
0.3603

> <Gold.PLP.ligand.clash>
0.0000

> <Gold.PLP.ligand.torsion>
2.2377

> <Gold.PLP.Chemscore.Hbond>
4.7148

> <Gold.PLP.Chemscore.CHOScore>
1.1925

> <Gold.PLP.Chemscore.Metal>
0.0000

> <Gold.Chemscore.Hbonds>
donor molecule, donor type, donor heavy atom, donor atom, acceptor molecule, acceptor atom, score
      L1  H     3    61       P1  8028  1.95
      L1  H    22    49       P1 10747  0.93
      L1  H    24    52       P1 10186  0.98
      P1  H 10785 10796       L1    24  0.80
      L1  C    16    43       P1 10171  0.96
      L1  C    16    43       P1 10175  0.34

> <Gold.PLP.Chemscore.Internal.Correction>
1.2535

> <Gold.Rescore>
     Score         DG    S(hbond)    S(metal)    S(lipo)     H(rot)  DE(clash)    DE(int)     intcor
     15.57     -17.77       3.61        0.00      72.47       3.22       0.01       2.19       ----

> <Gold.Chemscore.Fitness>
15.5737

> <Gold.Chemscore.DG>
-17.7677

> <Gold.Chemscore.ZeroCoef>
-5.4800

> <Gold.Chemscore.Hbond>
3.6097

> <Gold.Chemscore.Metal>
0.0000

> <Gold.Chemscore.Lipo>
72.4749

> <Gold.Chemscore.Internal_Hbond>
0.0000

> <Gold.Chemscore.DEClash>
0.0060

> <Gold.Chemscore.DEInternal>
2.1881

> <Gold.Chemscore.Rot>
3.2219

> <Gold.Chemscore.Internal.Correction>
   9.000000E+99

> <Gold.Chemscore.Hbonds>
donor molecule, donor type, donor heavy atom, donor atom, acceptor molecule, acceptor atom, score
      L1  H     3    61       P1  8028  0.92
      L1  H    22    49       P1 10747  0.91
      L1  H    24    52       P1 10186  0.91
      P1  H 10785 10796       L1    24  0.73

> <Gold.Chemscore.Hbond.Weighted>
-12.0564

> <Gold.Chemscore.Metal.Weighted>
-0.0000

> <Gold.Chemscore.Lipo.Weighted>
-8.4796

> <Gold.Chemscore.Internal_Hbond.Weighted>
0.0000

> <Gold.Chemscore.DEClash.Weighted>
0.0060

> <Gold.Chemscore.DEInternal.Weighted>
2.1881

> <Gold.Chemscore.Rot.Weighted>
8.2482

> <Gold.Chemscore.Internal.Correction.Weighted>
   9.000000E+99

> <Gold.Protein.RotatedTorsions>
[ 6907 6896 6895 6894 ] final -108.25 input  -60.11 | X-H torsion
[ 7974 7965 7964 7962 ] final  -77.79 input  175.53 | X-H torsion
[ 8008 7997 7996 7995 ] final  -30.52 input   59.86 | X-H torsion
[ 10167 10162 10161 10158 ] final -147.15 input  -65.29 | X-H torsion
[ 10718 10713 10712 10709 ] final -145.51 input   66.30 | X-H torsion
[ 10763 10752 10751 10750 ] final  -54.60 input  -60.55 | X-H torsion
[ 11005 11000 10999 10996 ] final  113.85 input  -57.11 | X-H torsion

> <Gold.Protein.ActiveResidues>
 VAL166  LYS551  ARG553  GLY616  TRP617  ASP618  TYR619  PRO620  LYS621  CYS622 
 ASP623  PHE694  ASN695  SER759  ASP760  ASP761  ALA762  ILE779  LEU786  VAL792 
 PHE793  MET794  SER795  GLU796  ALA797  LYS798  CYS799  TRP800  GLU811  SER814 

> <Gold.Protein.RotatedAtoms>
  150.7491  133.9705  159.3544 H   0  0  0  0  0  0  0  0  0  0  0  0  # atno 6907 bound_to 6896
  151.7638  135.0801  160.0359 H   0  0  0  0  0  0  0  0  0  0  0  0  # atno 6908 bound_to 6896
  152.3385  133.6002  159.5895 H   0  0  0  0  0  0  0  0  0  0  0  0  # atno 6909 bound_to 6896
  145.5951  140.9421  143.1271 H   0  0  0  0  0  0  0  0  0  0  0  0  # atno 7974 bound_to 7965
  154.4247  140.1789  156.1420 H   0  0  0  0  0  0  0  0  0  0  0  0  # atno 8008 bound_to 7997
  155.9984  140.3362  155.6796 H   0  0  0  0  0  0  0  0  0  0  0  0  # atno 8009 bound_to 7997
  155.6277  140.0666  157.2649 H   0  0  0  0  0  0  0  0  0  0  0  0  # atno 8010 bound_to 7997
  139.7648  143.8323  152.2614 H   0  0  0  0  0  0  0  0  0  0  0  0  # atno 10167 bound_to 10162
  156.3834  130.7848  151.2043 H   0  0  0  0  0  0  0  0  0  0  0  0  # atno 10718 bound_to 10713
  154.1774  135.6449  153.5025 H   0  0  0  0  0  0  0  0  0  0  0  0  # atno 10763 bound_to 10752
  153.0068  135.5398  154.6550 H   0  0  0  0  0  0  0  0  0  0  0  0  # atno 10764 bound_to 10752
  154.5905  135.2934  155.0612 H   0  0  0  0  0  0  0  0  0  0  0  0  # atno 10765 bound_to 10752
  139.8964  134.9557  156.6802 H   0  0  0  0  0  0  0  0  0  0  0  0  # atno 11005 bound_to 11000
  144.7334  139.7657  143.7338 LP  0  0  0  0  0  0  0  0  0  0  0  0  # atno 17320 bound_to 7965
  146.1618  139.4735  142.9983 LP  0  0  0  0  0  0  0  0  0  0  0  0  # atno 17321 bound_to 7965
  139.8340  144.7240  150.9414 LP  0  0  0  0  0  0  0  0  0  0  0  0  # atno 17342 bound_to 10162
  140.7810  143.4043  151.1096 LP  0  0  0  0  0  0  0  0  0  0  0  0  # atno 17343 bound_to 10162
  157.7494  131.0337  150.4285 LP  0  0  0  0  0  0  0  0  0  0  0  0  # atno 17370 bound_to 10713
  156.4533  130.4016  149.6622 LP  0  0  0  0  0  0  0  0  0  0  0  0  # atno 17371 bound_to 10713
  140.7305  133.9063  155.8208 LP  0  0  0  0  0  0  0  0  0  0  0  0  # atno 17394 bound_to 11000
  141.0157  134.0959  157.4174 LP  0  0  0  0  0  0  0  0  0  0  0  0  # atno 17395 bound_to 11000

$$$$
