AV-unprocessed.smi:1601|AV-procd|sdf|6437|dock10
  -GOLD-   22720 7 83D 1   1.00000     0.00000
 Structure written by MMmdl.
 42 43  0  0  0  0  0  0  0  0  2 V2000
  146.7702  138.9566  151.4559 C   0  0  0  0  0  0  0  0  0  0  0  0
  146.6951  138.7359  152.9866 C   0  0  2  0  0  0  0  0  0  0  0  0
  145.8488  137.4689  153.3039 C   0  0  0  0  0  0  0  0  0  0  0  0
  146.3983  136.2468  152.7226 N   0  0  0  0  0  0  0  0  0  0  0  0
  145.7948  135.0475  152.7399 C   0  0  0  0  0  0  0  0  0  0  0  0
  144.6915  134.8616  153.2546 O   0  0  0  0  0  0  0  0  0  0  0  0
  146.5611  133.8878  152.0845 C   0  0  1  0  0  0  0  0  0  0  0  0
  147.0252  132.8323  153.1091 C   0  0  0  0  0  0  0  0  0  0  0  0
  145.7736  133.3032  151.0049 N   0  0  0  0  0  0  0  0  0  0  0  0
  146.1655  132.3445  150.0926 C   0  0  0  0  0  0  0  0  0  0  0  0
  145.1153  132.1264  149.2478 C   0  0  0  0  0  0  0  0  0  0  0  0
  144.1128  133.0191  149.7179 C   0  0  0  0  0  0  0  0  0  0  0  0
  144.5116  133.7279  150.7609 N   0  0  0  0  0  0  0  0  0  0  0  0
  146.1944  139.9670  153.6856 N   0  3  0  0  0  0  0  0  0  0  0  0
  145.9191  139.7866  155.1391 C   0  0  0  0  0  0  0  0  0  0  0  0
  145.4174  141.0886  155.7871 C   0  0  0  0  0  0  0  0  0  0  0  0
  146.3596  142.1278  155.5773 O   0  0  0  0  0  0  0  0  0  0  0  0
  146.5268  142.3964  154.1947 C   0  0  0  0  0  0  0  0  0  0  0  0
  147.0824  141.1480  153.4906 C   0  0  0  0  0  0  0  0  0  0  0  0
  147.0808  138.0569  150.9257 H   0  0  0  0  0  0  0  0  0  0  0  0
  147.4998  139.7150  151.1775 H   0  0  0  0  0  0  0  0  0  0  0  0
  145.8021  139.2552  151.0525 H   0  0  0  0  0  0  0  0  0  0  0  0
  147.7077  138.5526  153.3494 H   0  0  0  0  0  0  0  0  0  0  0  0
  145.7692  137.2945  154.3769 H   0  0  0  0  0  0  0  0  0  0  0  0
  144.8322  137.5944  152.9302 H   0  0  0  0  0  0  0  0  0  0  0  0
  147.3030  136.3168  152.2793 H   0  0  0  0  0  0  0  0  0  0  0  0
  147.4611  134.3076  151.6316 H   0  0  0  0  0  0  0  0  0  0  0  0
  147.6570  133.2809  153.8766 H   0  0  0  0  0  0  0  0  0  0  0  0
  147.6088  132.0502  152.6228 H   0  0  0  0  0  0  0  0  0  0  0  0
  146.1862  132.3515  153.6139 H   0  0  0  0  0  0  0  0  0  0  0  0
  147.1494  131.8998  150.1210 H   0  0  0  0  0  0  0  0  0  0  0  0
  145.0704  131.4366  148.4183 H   0  0  0  0  0  0  0  0  0  0  0  0
  143.1160  133.1745  149.3327 H   0  0  0  0  0  0  0  0  0  0  0  0
  145.1464  139.0367  155.3004 H   0  0  0  0  0  0  0  0  0  0  0  0
  146.8234  139.4411  155.6426 H   0  0  0  0  0  0  0  0  0  0  0  0
  144.4444  141.3750  155.3840 H   0  0  0  0  0  0  0  0  0  0  0  0
  145.2851  140.9462  156.8598 H   0  0  0  0  0  0  0  0  0  0  0  0
  145.5798  142.7074  153.7504 H   0  0  0  0  0  0  0  0  0  0  0  0
  147.2199  143.2300  154.0802 H   0  0  0  0  0  0  0  0  0  0  0  0
  148.0796  140.9216  153.8717 H   0  0  0  0  0  0  0  0  0  0  0  0
  147.1904  141.3907  152.4356 H   0  0  0  0  0  0  0  0  0  0  0  0
  145.3079  140.1970  153.2598 H   0  0  0  0  0  0  0  0  0  0  0  0
  1  2  1  0  0  0  0
  1 20  1  0  0  0  0
  1 21  1  0  0  0  0
  1 22  1  0  0  0  0
  2  3  1  0  0  0  0
  2 14  1  0  0  0  0
  2 23  1  0  0  0  0
  3  4  1  0  0  0  0
  3 24  1  0  0  0  0
  3 25  1  0  0  0  0
  4  5  1  0  0  0  0
  4 26  1  0  0  0  0
  5  6  2  0  0  0  0
  5  7  1  0  0  0  0
  7  8  1  0  0  0  0
  7  9  1  0  0  0  0
  7 27  1  0  0  0  0
  8 28  1  0  0  0  0
  8 29  1  0  0  0  0
  8 30  1  0  0  0  0
  9 13  1  0  0  0  0
  9 10  1  0  0  0  0
 10 11  2  0  0  0  0
 10 31  1  0  0  0  0
 11 12  1  0  0  0  0
 11 32  1  0  0  0  0
 12 13  2  0  0  0  0
 12 33  1  0  0  0  0
 14 19  1  0  0  0  0
 14 15  1  0  0  0  0
 14 42  1  0  0  0  0
 15 16  1  0  0  0  0
 15 34  1  0  0  0  0
 15 35  1  0  0  0  0
 16 17  1  0  0  0  0
 16 36  1  0  0  0  0
 16 37  1  0  0  0  0
 17 18  1  0  0  0  0
 18 19  1  0  0  0  0
 18 38  1  0  0  0  0
 18 39  1  0  0  0  0
 19 40  1  0  0  0  0
 19 41  1  0  0  0  0
M  CHG  1  14   1
M  END
> <s_m_source_file>
AV-unprocessed.smi

> <i_m_source_file_index>
1601

> <i_lp_mmshare_version>
43012

> <i_f3d_flags>
0

> <s_epik_input>
W0NIMl0xW0NIMl1PW0NIMl1bQ0gyXU4xW0NASF0oW0NIM10pW0NIMl1bTkhdQyg9TylbQ0BIXShbQ0gzXSluMltjSF1bY0hdW2NIXW4y

> <s_epik_cmdline>
J2VwaWtfcHl0aG9uJywgJy1waCcsICc3LjAnLCAnLXRuJywgJzgnLCAnLW1hJywgJzIwMCcsICctbWV0YWxfYmluZGluZycsICctaW1hZScsICc8aW5maWxlLm1hZT4nLCAnLW9tYWUnLCAnPG91dGZpbGUubWFlPic=

> <r_lp_tautomer_probability>
1

> <r_epik_Ionization_Penalty>
0.732551

> <r_epik_Ionization_Penalty_Charging>
0.732531

> <r_epik_Ionization_Penalty_Neutral>
2.04647e-05

> <r_epik_State_Penalty>
0.757939

> <r_epik_Charging_Adjusted_Penalty>
1.49047

> <i_epik_Tot_Q>
1

> <i_epik_Tot_abs_Q>
1

> <r_epik_Metal_State_Penalty>
0.757952

> <b_epik_Metal_Only>
0

> <s_lp_Force_Field>
OPLS_2005

> <r_lp_Energy>
24.7345

> <b_lp_Chiralities_Consistent>
1

> <s_lp_Variant>
AV-unprocessed.smi:1601-7

> <Gold.Version>
5.8.1

> <Gold.Id.Protein>
6NUR|6NUR_protein|mol2

> <Gold.PLP.Fitness>
47.9024

> <Gold.PLP.PLP>
-33.1286

> <Gold.PLP.part.hbond>
-2.0000

> <Gold.PLP.part.metal>
0.0000

> <Gold.PLP.part.buried>
-2.7603

> <Gold.PLP.part.nonpolar>
-28.9073

> <Gold.PLP.part.repulsive>
0.3596

> <Gold.PLP.ligand.clash>
0.0000

> <Gold.PLP.ligand.torsion>
0.1866

> <Gold.PLP.Chemscore.Hbond>
3.0000

> <Gold.PLP.Chemscore.CHOScore>
2.0000

> <Gold.PLP.Chemscore.Metal>
0.0000

> <Gold.Chemscore.Hbonds>
donor molecule, donor type, donor heavy atom, donor atom, acceptor molecule, acceptor atom, score
      L1  H     4    26       P1  7948  1.00
      L1  H    14    42       P1 10175  2.00
      L1  C    10    31       P1 10747  1.00
      L1  C    12    33       P1 10186  1.00

> <Gold.PLP.Chemscore.Internal.Correction>
0.1470

> <Gold.Rescore>
     Score         DG    S(hbond)    S(metal)    S(lipo)     H(rot)  DE(clash)    DE(int)     intcor
     15.66     -17.28       2.00        0.00      84.56       1.86       0.09       1.52       ----

> <Gold.Chemscore.Fitness>
15.6612

> <Gold.Chemscore.DG>
-17.2758

> <Gold.Chemscore.ZeroCoef>
-5.4800

> <Gold.Chemscore.Hbond>
1.9975

> <Gold.Chemscore.Metal>
0.0000

> <Gold.Chemscore.Lipo>
84.5616

> <Gold.Chemscore.Internal_Hbond>
0.0000

> <Gold.Chemscore.DEClash>
0.0926

> <Gold.Chemscore.DEInternal>
1.5219

> <Gold.Chemscore.Rot>
1.8631

> <Gold.Chemscore.Internal.Correction>
   9.000000E+99

> <Gold.Chemscore.Hbonds>
donor molecule, donor type, donor heavy atom, donor atom, acceptor molecule, acceptor atom, score
      L1  H     4    26       P1  7948  1.00
      L1  H    14    42       P1 10175  1.00

> <Gold.Chemscore.Hbond.Weighted>
-6.6717

> <Gold.Chemscore.Metal.Weighted>
-0.0000

> <Gold.Chemscore.Lipo.Weighted>
-9.8937

> <Gold.Chemscore.Internal_Hbond.Weighted>
0.0000

> <Gold.Chemscore.DEClash.Weighted>
0.0926

> <Gold.Chemscore.DEInternal.Weighted>
1.5219

> <Gold.Chemscore.Rot.Weighted>
4.7697

> <Gold.Chemscore.Internal.Correction.Weighted>
   9.000000E+99

> <Gold.Protein.RotatedTorsions>
[ 6907 6896 6895 6894 ] final -179.02 input  -60.11 | X-H torsion
[ 7974 7965 7964 7962 ] final   77.84 input  175.53 | X-H torsion
[ 8008 7997 7996 7995 ] final  124.59 input   59.86 | X-H torsion
[ 10167 10162 10161 10158 ] final -151.44 input  -65.29 | X-H torsion
[ 10718 10713 10712 10709 ] final  172.00 input   66.30 | X-H torsion
[ 10763 10752 10751 10750 ] final  132.25 input  -60.55 | X-H torsion
[ 11005 11000 10999 10996 ] final   41.88 input  -57.11 | X-H torsion

> <Gold.Protein.ActiveResidues>
 VAL166  LYS551  ARG553  GLY616  TRP617  ASP618  TYR619  PRO620  LYS621  CYS622 
 ASP623  PHE694  ASN695  SER759  ASP760  ASP761  ALA762  ILE779  LEU786  VAL792 
 PHE793  MET794  SER795  GLU796  ALA797  LYS798  CYS799  TRP800  GLU811  SER814 

> <Gold.Protein.RotatedAtoms>
  151.6466  133.3323  159.3142 H   0  0  0  0  0  0  0  0  0  0  0  0  # atno 6907 bound_to 6896
  150.7981  134.7059  159.6586 H   0  0  0  0  0  0  0  0  0  0  0  0  # atno 6908 bound_to 6896
  152.4070  134.6193  160.0098 H   0  0  0  0  0  0  0  0  0  0  0  0  # atno 6909 bound_to 6896
  145.6848  139.2534  143.1793 H   0  0  0  0  0  0  0  0  0  0  0  0  # atno 7974 bound_to 7965
  156.2806  140.2736  156.1812 H   0  0  0  0  0  0  0  0  0  0  0  0  # atno 8008 bound_to 7997
  155.0554  140.0386  157.2576 H   0  0  0  0  0  0  0  0  0  0  0  0  # atno 8009 bound_to 7997
  154.7161  140.2678  155.6590 H   0  0  0  0  0  0  0  0  0  0  0  0  # atno 8010 bound_to 7997
  139.7267  143.8872  152.2521 H   0  0  0  0  0  0  0  0  0  0  0  0  # atno 10167 bound_to 10162
  156.9853  131.0131  151.2871 H   0  0  0  0  0  0  0  0  0  0  0  0  # atno 10718 bound_to 10713
  153.7876  135.3159  155.3374 H   0  0  0  0  0  0  0  0  0  0  0  0  # atno 10763 bound_to 10752
  154.8138  135.4650  154.0590 H   0  0  0  0  0  0  0  0  0  0  0  0  # atno 10764 bound_to 10752
  153.1898  135.6906  153.8453 H   0  0  0  0  0  0  0  0  0  0  0  0  # atno 10765 bound_to 10752
  140.1792  134.4125  155.8210 H   0  0  0  0  0  0  0  0  0  0  0  0  # atno 11005 bound_to 11000
  146.0933  140.7630  142.9585 LP  0  0  0  0  0  0  0  0  0  0  0  0  # atno 17320 bound_to 7965
  144.7015  140.3671  143.7152 LP  0  0  0  0  0  0  0  0  0  0  0  0  # atno 17321 bound_to 7965
  139.8784  144.7031  150.8906 LP  0  0  0  0  0  0  0  0  0  0  0  0  # atno 17342 bound_to 10162
  140.7764  143.3681  151.1700 LP  0  0  0  0  0  0  0  0  0  0  0  0  # atno 17343 bound_to 10162
  157.5497  130.8174  149.8130 LP  0  0  0  0  0  0  0  0  0  0  0  0  # atno 17370 bound_to 10713
  156.0228  130.3789  150.1911 LP  0  0  0  0  0  0  0  0  0  0  0  0  # atno 17371 bound_to 10713
  141.2222  133.6992  156.7901 LP  0  0  0  0  0  0  0  0  0  0  0  0  # atno 17394 bound_to 11000
  140.2287  134.8702  157.3453 LP  0  0  0  0  0  0  0  0  0  0  0  0  # atno 17395 bound_to 11000

$$$$
