AV-unprocessed.smi:3157|AV-procd|sdf|12040|dock8
  -GOLD-   2272017463D 1   1.00000     0.00000
 Structure written by MMmdl.
 40 41  0  0  0  0  0  0  0  0  2 V2000
  150.1595  139.9269  154.8785 C   0  0  0  0  0  0  0  0  0  0  0  0
  149.1970  141.0438  155.3138 C   0  0  1  0  0  0  0  0  0  0  0  0
  149.9899  142.1351  155.9272 N   0  3  0  0  0  0  0  0  0  0  0  0
  150.6819  141.7750  157.1820 C   0  0  0  0  0  0  0  0  0  0  0  0
  150.9225  143.0127  158.0600 C   0  0  0  0  0  0  0  0  0  0  0  0
  151.7663  144.0905  157.3741 C   0  0  0  0  0  0  0  0  0  0  0  0
  152.3309  144.9495  158.5126 C   0  0  0  0  0  0  0  0  0  0  0  0
  152.2458  144.0918  159.7841 C   0  0  0  0  0  0  0  0  0  0  0  0
  151.7123  142.7270  159.3407 C   0  0  0  0  0  0  0  0  0  0  0  0
  148.3402  141.5886  154.1394 C   0  0  1  0  0  0  0  0  0  0  0  0
  147.9398  140.5064  153.1189 C   0  0  0  0  0  0  0  0  0  0  0  0
  147.1473  142.2707  154.6294 N   0  0  0  0  0  0  0  0  0  0  0  0
  146.1892  142.9639  153.9157 C   0  0  0  0  0  0  0  0  0  0  0  0
  145.2463  143.3915  154.8056 C   0  0  0  0  0  0  0  0  0  0  0  0
  145.7140  142.9005  156.0558 C   0  0  0  0  0  0  0  0  0  0  0  0
  146.8444  142.2218  155.9457 N   0  0  0  0  0  0  0  0  0  0  0  0
  149.6231  139.0434  154.5327 H   0  0  0  0  0  0  0  0  0  0  0  0
  150.7897  139.6090  155.7099 H   0  0  0  0  0  0  0  0  0  0  0  0
  150.8154  140.2583  154.0726 H   0  0  0  0  0  0  0  0  0  0  0  0
  148.5297  140.6221  156.0677 H   0  0  0  0  0  0  0  0  0  0  0  0
  150.6858  142.4386  155.2613 H   0  0  0  0  0  0  0  0  0  0  0  0
  150.0995  141.0346  157.7313 H   0  0  0  0  0  0  0  0  0  0  0  0
  151.6349  141.3078  156.9305 H   0  0  0  0  0  0  0  0  0  0  0  0
  149.9629  143.4567  158.3315 H   0  0  0  0  0  0  0  0  0  0  0  0
  152.5909  143.6262  156.8307 H   0  0  0  0  0  0  0  0  0  0  0  0
  151.1909  144.6774  156.6570 H   0  0  0  0  0  0  0  0  0  0  0  0
  153.3551  145.2583  158.3004 H   0  0  0  0  0  0  0  0  0  0  0  0
  151.7371  145.8559  158.6363 H   0  0  0  0  0  0  0  0  0  0  0  0
  153.2103  144.0027  160.2855 H   0  0  0  0  0  0  0  0  0  0  0  0
  151.5524  144.5509  160.4900 H   0  0  0  0  0  0  0  0  0  0  0  0
  151.1087  142.2456  160.1109 H   0  0  0  0  0  0  0  0  0  0  0  0
  152.5528  142.0678  159.1200 H   0  0  0  0  0  0  0  0  0  0  0  0
  148.9381  142.3263  153.6003 H   0  0  0  0  0  0  0  0  0  0  0  0
  148.8076  140.1055  152.5959 H   0  0  0  0  0  0  0  0  0  0  0  0
  147.2740  140.9159  152.3582 H   0  0  0  0  0  0  0  0  0  0  0  0
  147.4244  139.6729  153.5972 H   0  0  0  0  0  0  0  0  0  0  0  0
  146.2547  143.0926  152.8454 H   0  0  0  0  0  0  0  0  0  0  0  0
  144.3562  143.9661  154.5956 H   0  0  0  0  0  0  0  0  0  0  0  0
  145.2645  143.0092  157.0318 H   0  0  0  0  0  0  0  0  0  0  0  0
  149.3667  142.9083  156.1137 H   0  0  0  0  0  0  0  0  0  0  0  0
  1  2  1  0  0  0  0
  1 17  1  0  0  0  0
  1 18  1  0  0  0  0
  1 19  1  0  0  0  0
  2  3  1  0  0  0  0
  2 10  1  0  0  0  0
  2 20  1  0  0  0  0
  3  4  1  0  0  0  0
  3 21  1  0  0  0  0
  3 40  1  0  0  0  0
  4  5  1  0  0  0  0
  4 22  1  0  0  0  0
  4 23  1  0  0  0  0
  5  9  1  0  0  0  0
  5  6  1  0  0  0  0
  5 24  1  0  0  0  0
  6  7  1  0  0  0  0
  6 25  1  0  0  0  0
  6 26  1  0  0  0  0
  7  8  1  0  0  0  0
  7 27  1  0  0  0  0
  7 28  1  0  0  0  0
  8  9  1  0  0  0  0
  8 29  1  0  0  0  0
  8 30  1  0  0  0  0
  9 31  1  0  0  0  0
  9 32  1  0  0  0  0
 10 11  1  0  0  0  0
 10 12  1  0  0  0  0
 10 33  1  0  0  0  0
 11 34  1  0  0  0  0
 11 35  1  0  0  0  0
 11 36  1  0  0  0  0
 12 16  1  0  0  0  0
 12 13  1  0  0  0  0
 13 14  2  0  0  0  0
 13 37  1  0  0  0  0
 14 15  1  0  0  0  0
 14 38  1  0  0  0  0
 15 16  2  0  0  0  0
 15 39  1  0  0  0  0
M  CHG  1   3   1
M  END
> <s_m_source_file>
AV-unprocessed.smi

> <i_m_source_file_index>
3157

> <i_lp_mmshare_version>
43012

> <i_f3d_flags>
0

> <s_epik_input>
bjFbY0hdW2NIXVtjSF1uMVtDQEBIXShbQ0gzXSlbQ0BIXShbQ0gzXSlbTkhdW0NIMl1bQ0hdMltDSDJdW0NIMl1bQ0gyXVtDSDJdMg==

> <s_epik_cmdline>
J2VwaWtfcHl0aG9uJywgJy1waCcsICc3LjAnLCAnLXRuJywgJzgnLCAnLW1hJywgJzIwMCcsICctbWV0YWxfYmluZGluZycsICctaW1hZScsICc8aW5maWxlLm1hZT4nLCAnLW9tYWUnLCAnPG91dGZpbGUubWFlPic=

> <r_lp_tautomer_probability>
1

> <r_epik_Ionization_Penalty>
0.00132192

> <r_epik_Ionization_Penalty_Charging>
0.0013111

> <r_epik_Ionization_Penalty_Neutral>
1.08112e-05

> <r_epik_State_Penalty>
-0

> <r_epik_Charging_Adjusted_Penalty>
0.0013111

> <i_epik_Tot_Q>
1

> <i_epik_Tot_abs_Q>
1

> <r_epik_Metal_State_Penalty>
-0

> <b_epik_Metal_Only>
0

> <s_lp_Force_Field>
OPLS_2005

> <r_lp_Energy>
31.1459

> <b_lp_Chiralities_Consistent>
1

> <s_lp_Variant>
AV-unprocessed.smi:3157-4

> <Gold.Version>
5.8.1

> <Gold.Id.Protein>
6NUR|6NUR_protein|mol2

> <Gold.PLP.Fitness>
44.2330

> <Gold.PLP.PLP>
-39.5063

> <Gold.PLP.part.hbond>
-1.0000

> <Gold.PLP.part.metal>
0.0000

> <Gold.PLP.part.buried>
0.1323

> <Gold.PLP.part.nonpolar>
-38.3147

> <Gold.PLP.part.repulsive>
0.2809

> <Gold.PLP.ligand.clash>
0.0000

> <Gold.PLP.ligand.torsion>
0.6537

> <Gold.PLP.Chemscore.Hbond>
1.9840

> <Gold.PLP.Chemscore.CHOScore>
0.0000

> <Gold.PLP.Chemscore.Metal>
0.0000

> <Gold.Chemscore.Hbonds>
donor molecule, donor type, donor heavy atom, donor atom, acceptor molecule, acceptor atom, score
      L1  H     3    40       P1  8028  1.86

> <Gold.PLP.Chemscore.Internal.Correction>
0.0822

> <Gold.Rescore>
     Score         DG    S(hbond)    S(metal)    S(lipo)     H(rot)  DE(clash)    DE(int)     intcor
     15.70     -17.74       0.92        0.00     111.30       1.50       1.38       0.65       ----

> <Gold.Chemscore.Fitness>
15.7008

> <Gold.Chemscore.DG>
-17.7358

> <Gold.Chemscore.ZeroCoef>
-5.4800

> <Gold.Chemscore.Hbond>
0.9238

> <Gold.Chemscore.Metal>
0.0000

> <Gold.Chemscore.Lipo>
111.3026

> <Gold.Chemscore.Internal_Hbond>
0.0000

> <Gold.Chemscore.DEClash>
1.3837

> <Gold.Chemscore.DEInternal>
0.6513

> <Gold.Chemscore.Rot>
1.5047

> <Gold.Chemscore.Internal.Correction>
   9.000000E+99

> <Gold.Chemscore.Hbonds>
donor molecule, donor type, donor heavy atom, donor atom, acceptor molecule, acceptor atom, score
      L1  H     3    40       P1  8028  0.89

> <Gold.Chemscore.Hbond.Weighted>
-3.0854

> <Gold.Chemscore.Metal.Weighted>
-0.0000

> <Gold.Chemscore.Lipo.Weighted>
-13.0224

> <Gold.Chemscore.Internal_Hbond.Weighted>
0.0000

> <Gold.Chemscore.DEClash.Weighted>
1.3837

> <Gold.Chemscore.DEInternal.Weighted>
0.6513

> <Gold.Chemscore.Rot.Weighted>
3.8520

> <Gold.Chemscore.Internal.Correction.Weighted>
   9.000000E+99

> <Gold.Protein.RotatedTorsions>
[ 6907 6896 6895 6894 ] final  116.31 input  -60.11 | X-H torsion
[ 7974 7965 7964 7962 ] final   72.47 input  175.53 | X-H torsion
[ 8008 7997 7996 7995 ] final  -17.65 input   59.86 | X-H torsion
[ 10167 10162 10161 10158 ] final   37.15 input  -65.29 | X-H torsion
[ 10718 10713 10712 10709 ] final  -72.66 input   66.30 | X-H torsion
[ 10763 10752 10751 10750 ] final   82.82 input  -60.55 | X-H torsion
[ 11005 11000 10999 10996 ] final    5.99 input  -57.11 | X-H torsion

> <Gold.Protein.ActiveResidues>
 VAL166  LYS551  ARG553  GLY616  TRP617  ASP618  TYR619  PRO620  LYS621  CYS622 
 ASP623  PHE694  ASN695  SER759  ASP760  ASP761  ALA762  ILE779  LEU786  VAL792 
 PHE793  MET794  SER795  GLU796  ALA797  LYS798  CYS799  TRP800  GLU811  SER814 

> <Gold.Protein.RotatedAtoms>
  152.4686  133.7978  159.6936 H   0  0  0  0  0  0  0  0  0  0  0  0  # atno 6907 bound_to 6896
  150.8663  133.7560  159.2982 H   0  0  0  0  0  0  0  0  0  0  0  0  # atno 6908 bound_to 6896
  151.5110  135.1068  159.9906 H   0  0  0  0  0  0  0  0  0  0  0  0  # atno 6909 bound_to 6896
  145.7529  139.2768  143.1420 H   0  0  0  0  0  0  0  0  0  0  0  0  # atno 7974 bound_to 7965
  154.4963  140.2137  155.9440 H   0  0  0  0  0  0  0  0  0  0  0  0  # atno 8008 bound_to 7997
  156.1374  140.3186  155.8410 H   0  0  0  0  0  0  0  0  0  0  0  0  # atno 8009 bound_to 7997
  155.4184  140.0495  157.3018 H   0  0  0  0  0  0  0  0  0  0  0  0  # atno 8010 bound_to 7997
  140.4060  144.1658  150.6136 H   0  0  0  0  0  0  0  0  0  0  0  0  # atno 10167 bound_to 10162
  156.0311  130.4377  150.2625 H   0  0  0  0  0  0  0  0  0  0  0  0  # atno 10718 bound_to 10713
  153.1236  135.4714  154.9235 H   0  0  0  0  0  0  0  0  0  0  0  0  # atno 10763 bound_to 10752
  154.7599  135.3128  154.8401 H   0  0  0  0  0  0  0  0  0  0  0  0  # atno 10764 bound_to 10752
  153.8960  135.6880  153.4811 H   0  0  0  0  0  0  0  0  0  0  0  0  # atno 10765 bound_to 10752
  140.5646  134.0160  155.7984 H   0  0  0  0  0  0  0  0  0  0  0  0  # atno 11005 bound_to 11000
  146.0339  140.8231  142.9862 LP  0  0  0  0  0  0  0  0  0  0  0  0  # atno 17320 bound_to 7965
  144.6846  140.2809  143.7292 LP  0  0  0  0  0  0  0  0  0  0  0  0  # atno 17321 bound_to 7965
  140.4689  143.2420  151.9117 LP  0  0  0  0  0  0  0  0  0  0  0  0  # atno 17342 bound_to 10162
  139.4783  144.5391  151.8555 LP  0  0  0  0  0  0  0  0  0  0  0  0  # atno 17343 bound_to 10162
  157.0727  131.0121  151.3184 LP  0  0  0  0  0  0  0  0  0  0  0  0  # atno 17370 bound_to 10713
  157.4987  130.7866  149.7582 LP  0  0  0  0  0  0  0  0  0  0  0  0  # atno 17371 bound_to 10713
  141.1094  133.9641  157.2938 LP  0  0  0  0  0  0  0  0  0  0  0  0  # atno 17394 bound_to 11000
  139.9391  135.0193  156.8652 LP  0  0  0  0  0  0  0  0  0  0  0  0  # atno 17395 bound_to 11000

$$$$
