AV-unprocessed.smi:1423|AV-procd|sdf|5794|dock1
  -GOLD-   22720 5443D 1   1.00000     0.00000
 Structure written by MMmdl.
 43 44  0  0  0  0  0  0  0  0  1 V2000
  146.3436  128.7470  151.9805 C   0  0  0  0  0  0  0  0  0  0  0  0
  147.0575  129.0126  153.1831 O   0  0  0  0  0  0  0  0  0  0  0  0
  147.5555  130.2841  153.3818 C   0  0  0  0  0  0  0  0  0  0  0  0
  148.6367  130.4550  154.2685 C   0  0  0  0  0  0  0  0  0  0  0  0
  149.1515  131.7494  154.4767 C   0  0  0  0  0  0  0  0  0  0  0  0
  148.5671  132.8383  153.7848 C   0  0  0  0  0  0  0  0  0  0  0  0
  148.9823  134.1952  153.8912 N   0  0  0  0  0  0  0  0  0  0  0  0
  149.7365  134.7914  154.8310 C   0  0  0  0  0  0  0  0  0  0  0  0
  150.1859  134.2519  155.8412 O   0  0  0  0  0  0  0  0  0  0  0  0
  149.9468  136.0806  154.5289 N   0  0  0  0  0  0  0  0  0  0  0  0
  150.7407  137.0135  155.3226 C   0  0  0  0  0  0  0  0  0  0  0  0
  150.1590  137.1695  156.7365 C   0  0  0  0  0  0  0  0  0  0  0  0
  150.9192  138.2474  157.5289 C   0  0  0  0  0  0  0  0  0  0  0  0
  150.8745  139.5374  156.8317 N   0  0  0  0  0  0  0  0  0  0  0  0
  151.5133  140.5688  157.6813 C   0  0  0  0  0  0  0  0  0  0  0  0
  150.7973  141.9255  157.6896 C   0  0  0  0  0  0  0  0  0  0  0  0
  150.5814  142.5080  156.5077 N   0  0  0  0  0  0  0  0  0  0  0  0
  150.4413  142.4378  158.7487 O   0  0  0  0  0  0  0  0  0  0  0  0
  151.5065  139.4246  155.5087 C   0  0  0  0  0  0  0  0  0  0  0  0
  150.7672  138.3891  154.6428 C   0  0  0  0  0  0  0  0  0  0  0  0
  147.4868  132.5586  152.9222 C   0  0  0  0  0  0  0  0  0  0  0  0
  146.9880  131.3215  152.7191 N   0  0  0  0  0  0  0  0  0  0  0  0
  146.0194  127.7065  151.9752 H   0  0  0  0  0  0  0  0  0  0  0  0
  146.9698  128.9020  151.1008 H   0  0  0  0  0  0  0  0  0  0  0  0
  145.4526  129.3715  151.9004 H   0  0  0  0  0  0  0  0  0  0  0  0
  149.0645  129.6068  154.7822 H   0  0  0  0  0  0  0  0  0  0  0  0
  149.9767  131.8671  155.1598 H   0  0  0  0  0  0  0  0  0  0  0  0
  148.6894  134.7885  153.1287 H   0  0  0  0  0  0  0  0  0  0  0  0
  149.5369  136.4430  153.6806 H   0  0  0  0  0  0  0  0  0  0  0  0
  151.7665  136.6467  155.3954 H   0  0  0  0  0  0  0  0  0  0  0  0
  149.1028  137.4376  156.6796 H   0  0  0  0  0  0  0  0  0  0  0  0
  150.2084  136.2198  157.2704 H   0  0  0  0  0  0  0  0  0  0  0  0
  150.4630  138.3449  158.5148 H   0  0  0  0  0  0  0  0  0  0  0  0
  151.9537  137.9373  157.6878 H   0  0  0  0  0  0  0  0  0  0  0  0
  151.5398  140.2194  158.7145 H   0  0  0  0  0  0  0  0  0  0  0  0
  152.5526  140.7034  157.3744 H   0  0  0  0  0  0  0  0  0  0  0  0
  150.1125  143.4008  156.4627 H   0  0  0  0  0  0  0  0  0  0  0  0
  150.8880  142.0507  155.6611 H   0  0  0  0  0  0  0  0  0  0  0  0
  151.4836  140.3791  154.9829 H   0  0  0  0  0  0  0  0  0  0  0  0
  152.5569  139.1482  155.6160 H   0  0  0  0  0  0  0  0  0  0  0  0
  151.2499  138.3134  153.6676 H   0  0  0  0  0  0  0  0  0  0  0  0
  149.7488  138.7352  154.4575 H   0  0  0  0  0  0  0  0  0  0  0  0
  147.0054  133.3544  152.3723 H   0  0  0  0  0  0  0  0  0  0  0  0
  1  2  1  0  0  0  0
  1 23  1  0  0  0  0
  1 24  1  0  0  0  0
  1 25  1  0  0  0  0
  2  3  1  0  0  0  0
  3 22  1  0  0  0  0
  3  4  2  0  0  0  0
  4  5  1  0  0  0  0
  4 26  1  0  0  0  0
  5  6  2  0  0  0  0
  5 27  1  0  0  0  0
  6  7  1  0  0  0  0
  6 21  1  0  0  0  0
  7  8  1  0  0  0  0
  7 28  1  0  0  0  0
  8  9  2  0  0  0  0
  8 10  1  0  0  0  0
 10 11  1  0  0  0  0
 10 29  1  0  0  0  0
 11 20  1  0  0  0  0
 11 12  1  0  0  0  0
 11 30  1  0  0  0  0
 12 13  1  0  0  0  0
 12 31  1  0  0  0  0
 12 32  1  0  0  0  0
 13 14  1  0  0  0  0
 13 33  1  0  0  0  0
 13 34  1  0  0  0  0
 14 15  1  0  0  0  0
 14 19  1  0  0  0  0
 15 16  1  0  0  0  0
 15 35  1  0  0  0  0
 15 36  1  0  0  0  0
 16 17  1  0  0  0  0
 16 18  2  0  0  0  0
 17 37  1  0  0  0  0
 17 38  1  0  0  0  0
 19 20  1  0  0  0  0
 19 39  1  0  0  0  0
 19 40  1  0  0  0  0
 20 41  1  0  0  0  0
 20 42  1  0  0  0  0
 21 22  2  0  0  0  0
 21 43  1  0  0  0  0
M  END
> <s_m_source_file>
AV-unprocessed.smi

> <i_m_source_file_index>
1423

> <i_lp_mmshare_version>
43012

> <i_f3d_flags>
0

> <s_epik_input>
W0NIM11PYzFbY0hdW2NIXWMoW2NIXW4xKVtOSF1DKD1PKVtOSF1bQ0hdMltDSDJdW0NIMl1OKFtDSDJdW0NIMl0yKVtDSDJdQyg9TylbTkgyXQ==

> <s_epik_cmdline>
J2VwaWtfcHl0aG9uJywgJy1waCcsICc3LjAnLCAnLXRuJywgJzgnLCAnLW1hJywgJzIwMCcsICctbWV0YWxfYmluZGluZycsICctaW1hZScsICc8aW5maWxlLm1hZT4nLCAnLW9tYWUnLCAnPG91dGZpbGUubWFlPic=

> <r_lp_tautomer_probability>
1

> <r_epik_Ionization_Penalty>
0.16483

> <r_epik_Ionization_Penalty_Charging>
0

> <r_epik_Ionization_Penalty_Neutral>
0.16483

> <r_epik_State_Penalty>
0.154069

> <r_epik_Charging_Adjusted_Penalty>
0.154069

> <i_epik_Tot_Q>
0

> <i_epik_Tot_abs_Q>
0

> <r_epik_Metal_State_Penalty>
0.171364

> <b_epik_Metal_Only>
0

> <s_lp_Force_Field>
OPLS_2005

> <r_lp_Energy>
14.563

> <b_lp_Chiralities_Consistent>
1

> <s_lp_Variant>
AV-unprocessed.smi:1423-1

> <Gold.Version>
5.8.1

> <Gold.Id.Protein>
6NUR|6NUR_protein|mol2

> <Gold.PLP.Fitness>
41.5766

> <Gold.PLP.PLP>
-34.5168

> <Gold.PLP.part.hbond>
-3.6503

> <Gold.PLP.part.metal>
0.0000

> <Gold.PLP.part.buried>
-4.4585

> <Gold.PLP.part.nonpolar>
-27.0313

> <Gold.PLP.part.repulsive>
0.7751

> <Gold.PLP.ligand.clash>
0.0000

> <Gold.PLP.ligand.torsion>
0.9633

> <Gold.PLP.Chemscore.Hbond>
2.9760

> <Gold.PLP.Chemscore.CHOScore>
0.0000

> <Gold.PLP.Chemscore.Metal>
0.0000

> <Gold.Chemscore.Hbonds>
donor molecule, donor type, donor heavy atom, donor atom, acceptor molecule, acceptor atom, score
      L1  H     7    28       P1  7948  1.00
      L1  H    10    29       P1  7948  1.00
      L1  H    17    37       P1  8028  1.00

> <Gold.PLP.Chemscore.Internal.Correction>
0.0583

> <Gold.Rescore>
     Score         DG    S(hbond)    S(metal)    S(lipo)     H(rot)  DE(clash)    DE(int)     intcor
     12.61     -14.58       2.22        0.00      64.50       2.29       0.01       1.96       ----

> <Gold.Chemscore.Fitness>
12.6114

> <Gold.Chemscore.DG>
-14.5803

> <Gold.Chemscore.ZeroCoef>
-5.4800

> <Gold.Chemscore.Hbond>
2.2242

> <Gold.Chemscore.Metal>
0.0000

> <Gold.Chemscore.Lipo>
64.5000

> <Gold.Chemscore.Internal_Hbond>
0.0000

> <Gold.Chemscore.DEClash>
0.0121

> <Gold.Chemscore.DEInternal>
1.9568

> <Gold.Chemscore.Rot>
2.2949

> <Gold.Chemscore.Internal.Correction>
   9.000000E+99

> <Gold.Chemscore.Hbonds>
donor molecule, donor type, donor heavy atom, donor atom, acceptor molecule, acceptor atom, score
      L1  H     7    28       P1  7948  0.34
      L1  H    10    29       P1  7948  0.67
      L1  H    17    37       P1  8028  0.96

> <Gold.Chemscore.Hbond.Weighted>
-7.4288

> <Gold.Chemscore.Metal.Weighted>
-0.0000

> <Gold.Chemscore.Lipo.Weighted>
-7.5465

> <Gold.Chemscore.Internal_Hbond.Weighted>
0.0000

> <Gold.Chemscore.DEClash.Weighted>
0.0121

> <Gold.Chemscore.DEInternal.Weighted>
1.9568

> <Gold.Chemscore.Rot.Weighted>
5.8750

> <Gold.Chemscore.Internal.Correction.Weighted>
   9.000000E+99

> <Gold.Protein.RotatedTorsions>
[ 6907 6896 6895 6894 ] final  167.80 input  -60.11 | X-H torsion
[ 7974 7965 7964 7962 ] final -158.34 input  175.53 | X-H torsion
[ 8008 7997 7996 7995 ] final -149.28 input   59.86 | X-H torsion
[ 10167 10162 10161 10158 ] final  141.55 input  -65.29 | X-H torsion
[ 10718 10713 10712 10709 ] final  -15.85 input   66.30 | X-H torsion
[ 10763 10752 10751 10750 ] final   23.09 input  -60.55 | X-H torsion
[ 11005 11000 10999 10996 ] final  102.89 input  -57.11 | X-H torsion

> <Gold.Protein.ActiveResidues>
 VAL166  LYS551  ARG553  GLY616  TRP617  ASP618  TYR619  PRO620  LYS621  CYS622 
 ASP623  PHE694  ASN695  SER759  ASP760  ASP761  ALA762  ILE779  LEU786  VAL792 
 PHE793  MET794  SER795  GLU796  ALA797  LYS798  CYS799  TRP800  GLU811  SER814 

> <Gold.Protein.RotatedAtoms>
  151.8576  133.3451  159.3693 H   0  0  0  0  0  0  0  0  0  0  0  0  # atno 6907 bound_to 6896
  150.7188  134.5238  159.5676 H   0  0  0  0  0  0  0  0  0  0  0  0  # atno 6908 bound_to 6896
  152.2744  134.7898  160.0459 H   0  0  0  0  0  0  0  0  0  0  0  0  # atno 6909 bound_to 6896
  144.7510  140.3841  143.6048 H   0  0  0  0  0  0  0  0  0  0  0  0  # atno 7974 bound_to 7965
  155.6051  140.0666  157.2722 H   0  0  0  0  0  0  0  0  0  0  0  0  # atno 8008 bound_to 7997
  154.4268  140.1811  156.1261 H   0  0  0  0  0  0  0  0  0  0  0  0  # atno 8009 bound_to 7997
  156.0129  140.3325  155.6962 H   0  0  0  0  0  0  0  0  0  0  0  0  # atno 8010 bound_to 7997
  139.5017  144.6164  151.6154 H   0  0  0  0  0  0  0  0  0  0  0  0  # atno 10167 bound_to 10162
  156.5959  130.4811  149.6260 H   0  0  0  0  0  0  0  0  0  0  0  0  # atno 10718 bound_to 10713
  153.0865  135.6634  153.9940 H   0  0  0  0  0  0  0  0  0  0  0  0  # atno 10763 bound_to 10752
  153.9548  135.2980  155.3438 H   0  0  0  0  0  0  0  0  0  0  0  0  # atno 10764 bound_to 10752
  154.7273  135.5138  153.8979 H   0  0  0  0  0  0  0  0  0  0  0  0  # atno 10765 bound_to 10752
  139.8780  134.9242  156.5126 H   0  0  0  0  0  0  0  0  0  0  0  0  # atno 11005 bound_to 11000
  145.6946  139.1647  143.2627 LP  0  0  0  0  0  0  0  0  0  0  0  0  # atno 17320 bound_to 7965
  146.1459  140.6993  142.9345 LP  0  0  0  0  0  0  0  0  0  0  0  0  # atno 17321 bound_to 7965
  140.5853  143.9875  150.6292 LP  0  0  0  0  0  0  0  0  0  0  0  0  # atno 17342 bound_to 10162
  140.3037  143.3243  152.0946 LP  0  0  0  0  0  0  0  0  0  0  0  0  # atno 17343 bound_to 10162
  156.2510  130.6907  151.1645 LP  0  0  0  0  0  0  0  0  0  0  0  0  # atno 17370 bound_to 10713
  157.7292  131.0626  150.5785 LP  0  0  0  0  0  0  0  0  0  0  0  0  # atno 17371 bound_to 10713
  140.8509  133.8133  155.9168 LP  0  0  0  0  0  0  0  0  0  0  0  0  # atno 17394 bound_to 11000
  140.9145  134.2219  157.4965 LP  0  0  0  0  0  0  0  0  0  0  0  0  # atno 17395 bound_to 11000

$$$$
