AV-unprocessed.smi:2861|AV-procd|sdf|11007|dock1
  -GOLD-   2272015463D 1   1.00000     0.00000
 Structure written by MMmdl.
 33 35  0  0  0  0  0  0  0  0  1 V2000
  148.3200  138.8673  155.6707 O   0  0  0  0  0  0  0  0  0  0  0  0
  148.9704  139.4067  154.7743 C   0  0  0  0  0  0  0  0  0  0  0  0
  150.4611  139.7080  154.9668 C   0  0  0  0  0  0  0  0  0  0  0  0
  150.6893  140.5770  156.1712 C   0  0  0  0  0  0  0  0  0  0  0  0
  150.0960  141.7862  156.4422 C   0  0  0  0  0  0  0  0  0  0  0  0
  150.6510  142.4634  157.9487 S   0  0  0  0  0  0  0  0  0  0  0  0
  151.6803  141.0494  158.1671 C   0  0  0  0  0  0  0  0  0  0  0  0
  152.5360  140.8669  159.2945 N   0  0  0  0  0  0  0  0  0  0  0  0
  152.3566  141.6459  160.5137 C   0  0  0  0  0  0  0  0  0  0  0  0
  153.5745  141.3399  161.3923 C   0  0  0  0  0  0  0  0  0  0  0  0
  154.2156  140.0972  160.7780 C   0  0  0  0  0  0  0  0  0  0  0  0
  153.5517  139.9911  159.4152 C   0  0  0  0  0  0  0  0  0  0  0  0
  153.9369  139.1807  158.5728 O   0  0  0  0  0  0  0  0  0  0  0  0
  151.5836  140.1671  157.1655 N   0  0  0  0  0  0  0  0  0  0  0  0
  148.4410  139.7702  153.5964 N   0  0  0  0  0  0  0  0  0  0  0  0
  147.0798  139.5880  153.2072 C   0  0  0  0  0  0  0  0  0  0  0  0
  146.6028  138.1725  152.9637 C   0  0  0  0  0  0  0  0  0  0  0  0
  146.8099  139.1016  151.7997 C   0  0  0  0  0  0  0  0  0  0  0  0
  151.0189  138.7757  155.0675 H   0  0  0  0  0  0  0  0  0  0  0  0
  150.8327  140.1922  154.0627 H   0  0  0  0  0  0  0  0  0  0  0  0
  149.3735  142.3212  155.8442 H   0  0  0  0  0  0  0  0  0  0  0  0
  152.2836  142.7133  160.3004 H   0  0  0  0  0  0  0  0  0  0  0  0
  151.4350  141.3330  161.0067 H   0  0  0  0  0  0  0  0  0  0  0  0
  154.2784  142.1726  161.3611 H   0  0  0  0  0  0  0  0  0  0  0  0
  153.2940  141.1851  162.4348 H   0  0  0  0  0  0  0  0  0  0  0  0
  155.2982  140.1932  160.6885 H   0  0  0  0  0  0  0  0  0  0  0  0
  153.9896  139.2035  161.3606 H   0  0  0  0  0  0  0  0  0  0  0  0
  149.0491  140.2129  152.9225 H   0  0  0  0  0  0  0  0  0  0  0  0
  146.3433  140.2726  153.6262 H   0  0  0  0  0  0  0  0  0  0  0  0
  147.3192  137.3631  153.0925 H   0  0  0  0  0  0  0  0  0  0  0  0
  145.5776  137.9347  153.2403 H   0  0  0  0  0  0  0  0  0  0  0  0
  145.9234  139.4851  151.2986 H   0  0  0  0  0  0  0  0  0  0  0  0
  147.6647  138.9130  151.1528 H   0  0  0  0  0  0  0  0  0  0  0  0
  1  2  2  0  0  0  0
  2  3  1  0  0  0  0
  2 15  1  0  0  0  0
  3  4  1  0  0  0  0
  3 19  1  0  0  0  0
  3 20  1  0  0  0  0
  4 14  1  0  0  0  0
  4  5  2  0  0  0  0
  5  6  1  0  0  0  0
  5 21  1  0  0  0  0
  6  7  1  0  0  0  0
  7  8  1  0  0  0  0
  7 14  2  0  0  0  0
  8 12  1  0  0  0  0
  8  9  1  0  0  0  0
  9 10  1  0  0  0  0
  9 22  1  0  0  0  0
  9 23  1  0  0  0  0
 10 11  1  0  0  0  0
 10 24  1  0  0  0  0
 10 25  1  0  0  0  0
 11 12  1  0  0  0  0
 11 26  1  0  0  0  0
 11 27  1  0  0  0  0
 12 13  2  0  0  0  0
 15 16  1  0  0  0  0
 15 28  1  0  0  0  0
 16 18  1  0  0  0  0
 16 17  1  0  0  0  0
 16 29  1  0  0  0  0
 17 18  1  0  0  0  0
 17 30  1  0  0  0  0
 17 31  1  0  0  0  0
 18 32  1  0  0  0  0
 18 33  1  0  0  0  0
M  END
> <s_m_source_file>
AV-unprocessed.smi

> <i_m_source_file_index>
2861

> <i_lp_mmshare_version>
43012

> <i_f3d_flags>
0

> <s_epik_input>
W0NIMl0xW0NIMl1bQ0hdMVtOSF1DKD1PKVtDSDJdYzJbY0hdc2MobjIpTjNbQ0gyXVtDSDJdW0NIMl1DMz1P

> <s_epik_cmdline>
J2VwaWtfcHl0aG9uJywgJy1waCcsICc3LjAnLCAnLXRuJywgJzgnLCAnLW1hJywgJzIwMCcsICctbWV0YWxfYmluZGluZycsICctaW1hZScsICc8aW5maWxlLm1hZT4nLCAnLW9tYWUnLCAnPG91dGZpbGUubWFlPic=

> <r_lp_tautomer_probability>
1

> <r_epik_Ionization_Penalty>
2.96745e-05

> <r_epik_Ionization_Penalty_Charging>
0

> <r_epik_Ionization_Penalty_Neutral>
2.96745e-05

> <r_epik_State_Penalty>
-0

> <r_epik_Charging_Adjusted_Penalty>
0

> <i_epik_Tot_Q>
0

> <i_epik_Tot_abs_Q>
0

> <r_epik_Metal_State_Penalty>
-0

> <b_epik_Metal_Only>
0

> <s_lp_Force_Field>
OPLS_2005

> <r_lp_Energy>
30.3521

> <b_lp_Chiralities_Consistent>
1

> <s_lp_Variant>
AV-unprocessed.smi:2861-1

> <Gold.Version>
5.8.1

> <Gold.Id.Protein>
6NUR|6NUR_protein|mol2

> <Gold.PLP.Fitness>
46.1141

> <Gold.PLP.PLP>
-37.9620

> <Gold.PLP.part.hbond>
-2.0000

> <Gold.PLP.part.metal>
0.0000

> <Gold.PLP.part.buried>
-0.7105

> <Gold.PLP.part.nonpolar>
-34.8277

> <Gold.PLP.part.repulsive>
0.1258

> <Gold.PLP.ligand.clash>
0.0000

> <Gold.PLP.ligand.torsion>
0.3143

> <Gold.PLP.Chemscore.Hbond>
2.0000

> <Gold.PLP.Chemscore.CHOScore>
0.9121

> <Gold.PLP.Chemscore.Metal>
0.0000

> <Gold.Chemscore.Hbonds>
donor molecule, donor type, donor heavy atom, donor atom, acceptor molecule, acceptor atom, score
      L1  H    15    28       P1  7957  0.82
      P1  H  7997  8010       L1    13  1.00
      L1  C     5    21       P1  8028  1.00

> <Gold.PLP.Chemscore.Internal.Correction>
0.0444

> <Gold.Rescore>
     Score         DG    S(hbond)    S(metal)    S(lipo)     H(rot)  DE(clash)    DE(int)     intcor
     16.07     -17.82       1.94        0.00      82.64       1.49       0.07       1.67       ----

> <Gold.Chemscore.Fitness>
16.0730

> <Gold.Chemscore.DG>
-17.8195

> <Gold.Chemscore.ZeroCoef>
-5.4800

> <Gold.Chemscore.Hbond>
1.9433

> <Gold.Chemscore.Metal>
0.0000

> <Gold.Chemscore.Lipo>
82.6356

> <Gold.Chemscore.Internal_Hbond>
0.0000

> <Gold.Chemscore.DEClash>
0.0745

> <Gold.Chemscore.DEInternal>
1.6721

> <Gold.Chemscore.Rot>
1.4920

> <Gold.Chemscore.Internal.Correction>
   9.000000E+99

> <Gold.Chemscore.Hbonds>
donor molecule, donor type, donor heavy atom, donor atom, acceptor molecule, acceptor atom, score
      L1  H    15    28       P1  7957  0.81
      P1  H  7997  8010       L1    13  0.81

> <Gold.Chemscore.Hbond.Weighted>
-6.4906

> <Gold.Chemscore.Metal.Weighted>
-0.0000

> <Gold.Chemscore.Lipo.Weighted>
-9.6684

> <Gold.Chemscore.Internal_Hbond.Weighted>
0.0000

> <Gold.Chemscore.DEClash.Weighted>
0.0745

> <Gold.Chemscore.DEInternal.Weighted>
1.6721

> <Gold.Chemscore.Rot.Weighted>
3.8194

> <Gold.Chemscore.Internal.Correction.Weighted>
   9.000000E+99

> <Gold.Protein.RotatedTorsions>
[ 6907 6896 6895 6894 ] final  134.05 input  -60.11 | X-H torsion
[ 7974 7965 7964 7962 ] final  167.35 input  175.53 | X-H torsion
[ 8008 7997 7996 7995 ] final   35.21 input   59.86 | X-H torsion
[ 10167 10162 10161 10158 ] final  106.75 input  -65.29 | X-H torsion
[ 10718 10713 10712 10709 ] final -144.72 input   66.30 | X-H torsion
[ 10763 10752 10751 10750 ] final  -69.42 input  -60.55 | X-H torsion
[ 11005 11000 10999 10996 ] final  148.83 input  -57.11 | X-H torsion

> <Gold.Protein.ActiveResidues>
 VAL166  LYS551  ARG553  GLY616  TRP617  ASP618  TYR619  PRO620  LYS621  CYS622 
 ASP623  PHE694  ASN695  SER759  ASP760  ASP761  ALA762  ILE779  LEU786  VAL792 
 PHE793  MET794  SER795  GLU796  ALA797  LYS798  CYS799  TRP800  GLU811  SER814 

> <Gold.Protein.RotatedAtoms>
  152.3155  133.5798  159.5708 H   0  0  0  0  0  0  0  0  0  0  0  0  # atno 6907 bound_to 6896
  150.7344  134.0089  159.3672 H   0  0  0  0  0  0  0  0  0  0  0  0  # atno 6908 bound_to 6896
  151.7978  135.0718  160.0447 H   0  0  0  0  0  0  0  0  0  0  0  0  # atno 6909 bound_to 6896
  144.7428  139.8748  143.6391 H   0  0  0  0  0  0  0  0  0  0  0  0  # atno 7974 bound_to 7965
  155.1673  140.3288  155.4399 H   0  0  0  0  0  0  0  0  0  0  0  0  # atno 8008 bound_to 7997
  156.2522  140.1949  156.6729 H   0  0  0  0  0  0  0  0  0  0  0  0  # atno 8009 bound_to 7997
  154.6362  140.0576  156.9778 H   0  0  0  0  0  0  0  0  0  0  0  0  # atno 8010 bound_to 7997
  139.6983  144.7098  151.1228 H   0  0  0  0  0  0  0  0  0  0  0  0  # atno 10167 bound_to 10162
  156.3735  130.7800  151.1984 H   0  0  0  0  0  0  0  0  0  0  0  0  # atno 10718 bound_to 10713
  154.4032  135.6026  153.5909 H   0  0  0  0  0  0  0  0  0  0  0  0  # atno 10763 bound_to 10752
  152.9788  135.5911  154.4160 H   0  0  0  0  0  0  0  0  0  0  0  0  # atno 10764 bound_to 10752
  154.3961  135.2842  155.2103 H   0  0  0  0  0  0  0  0  0  0  0  0  # atno 10765 bound_to 10752
  140.0992  134.8993  157.1770 H   0  0  0  0  0  0  0  0  0  0  0  0  # atno 11005 bound_to 11000
  146.1254  139.4279  143.0202 LP  0  0  0  0  0  0  0  0  0  0  0  0  # atno 17320 bound_to 7965
  145.7242  141.0064  143.1386 LP  0  0  0  0  0  0  0  0  0  0  0  0  # atno 17321 bound_to 7965
  140.7702  143.5459  150.9259 LP  0  0  0  0  0  0  0  0  0  0  0  0  # atno 17342 bound_to 10162
  139.9140  143.6686  152.3110 LP  0  0  0  0  0  0  0  0  0  0  0  0  # atno 17343 bound_to 10162
  157.7486  131.0365  150.4412 LP  0  0  0  0  0  0  0  0  0  0  0  0  # atno 17370 bound_to 10713
  156.4644  130.4039  149.6556 LP  0  0  0  0  0  0  0  0  0  0  0  0  # atno 17371 bound_to 10713
  140.3243  134.2881  155.7240 LP  0  0  0  0  0  0  0  0  0  0  0  0  # atno 17394 bound_to 11000
  141.2101  133.7730  156.9955 LP  0  0  0  0  0  0  0  0  0  0  0  0  # atno 17395 bound_to 11000

$$$$
