AV-unprocessed.smi:1240|AV-procd|sdf|5207|dock6
  -GOLD-   22720 4293D 1   1.00000     0.00000
 Structure written by MMmdl.
 49 51  0  0  0  0  0  0  0  0  3 V2000
  145.4855  138.0851  153.9713 O   0  0  0  0  0  0  0  0  0  0  0  0
  146.5122  137.7373  153.3894 C   0  0  0  0  0  0  0  0  0  0  0  0
  146.6146  136.5998  152.6893 N   0  0  0  0  0  0  0  0  0  0  0  0
  145.5329  135.6442  152.4803 C   0  0  0  0  0  0  0  0  0  0  0  0
  146.0552  134.2262  152.1236 C   0  0  2  0  0  0  0  0  0  0  0  0
  144.9272  133.2148  151.7699 C   0  0  2  0  0  0  0  0  0  0  0  0
  145.4294  131.8357  151.3725 C   0  0  0  0  0  0  0  0  0  0  0  0
  144.2127  131.2390  150.6778 C   0  0  0  0  0  0  0  0  0  0  0  0
  143.6109  132.3293  149.9943 O   0  0  0  0  0  0  0  0  0  0  0  0
  144.0740  133.5605  150.5406 C   0  0  0  0  0  0  0  0  0  0  0  0
  146.9193  133.6629  153.2051 N   0  3  0  0  0  0  0  0  0  0  0  0
  146.1678  133.1431  154.3738 C   0  0  0  0  0  0  0  0  0  0  0  0
  147.1415  132.7708  155.5052 C   0  0  0  0  0  0  0  0  0  0  0  0
  148.0958  131.8288  155.0292 O   0  0  0  0  0  0  0  0  0  0  0  0
  148.8759  132.3497  153.9595 C   0  0  0  0  0  0  0  0  0  0  0  0
  147.9574  132.6916  152.7748 C   0  0  0  0  0  0  0  0  0  0  0  0
  147.6700  138.4205  153.3756 N   0  0  0  0  0  0  0  0  0  0  0  0
  147.9629  139.6891  153.9470 C   0  0  0  0  0  0  0  0  0  0  0  0
  146.9385  140.6617  153.9316 C   0  0  0  0  0  0  0  0  0  0  0  0
  147.1726  141.9287  154.5038 C   0  0  0  0  0  0  0  0  0  0  0  0
  148.3679  142.2005  155.0694 N   0  3  0  0  0  0  0  0  0  0  0  0
  149.3729  141.3002  155.1200 C   0  0  0  0  0  0  0  0  0  0  0  0
  149.1978  140.0166  154.5640 C   0  0  0  0  0  0  0  0  0  0  0  0
  147.5007  136.3863  152.2549 H   0  0  0  0  0  0  0  0  0  0  0  0
  144.9401  135.6214  153.3947 H   0  0  0  0  0  0  0  0  0  0  0  0
  144.8761  136.0055  151.6875 H   0  0  0  0  0  0  0  0  0  0  0  0
  146.6853  134.3165  151.2370 H   0  0  0  0  0  0  0  0  0  0  0  0
  144.2550  133.0998  152.6213 H   0  0  0  0  0  0  0  0  0  0  0  0
  146.2591  131.9175  150.6686 H   0  0  0  0  0  0  0  0  0  0  0  0
  145.7581  131.2349  152.2211 H   0  0  0  0  0  0  0  0  0  0  0  0
  144.4714  130.4301  149.9944 H   0  0  0  0  0  0  0  0  0  0  0  0
  143.5052  130.8521  151.4124 H   0  0  0  0  0  0  0  0  0  0  0  0
  143.2312  134.2049  150.7912 H   0  0  0  0  0  0  0  0  0  0  0  0
  144.6698  134.0633  149.7780 H   0  0  0  0  0  0  0  0  0  0  0  0
  145.4648  133.8955  154.7328 H   0  0  0  0  0  0  0  0  0  0  0  0
  145.5842  132.2675  154.0881 H   0  0  0  0  0  0  0  0  0  0  0  0
  147.6493  133.6571  155.8894 H   0  0  0  0  0  0  0  0  0  0  0  0
  146.5961  132.3299  156.3399 H   0  0  0  0  0  0  0  0  0  0  0  0
  149.4300  133.2296  154.2905 H   0  0  0  0  0  0  0  0  0  0  0  0
  149.6118  131.6026  153.6621 H   0  0  0  0  0  0  0  0  0  0  0  0
  147.4922  131.7765  152.4068 H   0  0  0  0  0  0  0  0  0  0  0  0
  148.5536  133.1021  151.9604 H   0  0  0  0  0  0  0  0  0  0  0  0
  148.4486  137.9609  152.9262 H   0  0  0  0  0  0  0  0  0  0  0  0
  145.9801  140.4443  153.4825 H   0  0  0  0  0  0  0  0  0  0  0  0
  146.4434  142.7253  154.5283 H   0  0  0  0  0  0  0  0  0  0  0  0
  150.2796  141.6289  155.6067 H   0  0  0  0  0  0  0  0  0  0  0  0
  150.0088  139.3084  154.6352 H   0  0  0  0  0  0  0  0  0  0  0  0
  147.4284  134.4588  153.5625 H   0  0  0  0  0  0  0  0  0  0  0  0
  148.5165  143.1229  155.4799 H   0  0  0  0  0  0  0  0  0  0  0  0
  1  2  2  0  0  0  0
  2  3  1  0  0  0  0
  2 17  1  0  0  0  0
  3  4  1  0  0  0  0
  3 24  1  0  0  0  0
  4  5  1  0  0  0  0
  4 25  1  0  0  0  0
  4 26  1  0  0  0  0
  5  6  1  0  0  0  0
  5 11  1  0  0  0  0
  5 27  1  0  0  0  0
  6 10  1  0  0  0  0
  6  7  1  0  0  0  0
  6 28  1  0  0  0  0
  7  8  1  0  0  0  0
  7 29  1  0  0  0  0
  7 30  1  0  0  0  0
  8  9  1  0  0  0  0
  8 31  1  0  0  0  0
  8 32  1  0  0  0  0
  9 10  1  0  0  0  0
 10 33  1  0  0  0  0
 10 34  1  0  0  0  0
 11 16  1  0  0  0  0
 11 12  1  0  0  0  0
 11 48  1  0  0  0  0
 12 13  1  0  0  0  0
 12 35  1  0  0  0  0
 12 36  1  0  0  0  0
 13 14  1  0  0  0  0
 13 37  1  0  0  0  0
 13 38  1  0  0  0  0
 14 15  1  0  0  0  0
 15 16  1  0  0  0  0
 15 39  1  0  0  0  0
 15 40  1  0  0  0  0
 16 41  1  0  0  0  0
 16 42  1  0  0  0  0
 17 18  1  0  0  0  0
 17 43  1  0  0  0  0
 18 23  1  0  0  0  0
 18 19  2  0  0  0  0
 19 20  1  0  0  0  0
 19 44  1  0  0  0  0
 20 21  2  0  0  0  0
 20 45  1  0  0  0  0
 21 22  1  0  0  0  0
 21 49  1  0  0  0  0
 22 23  2  0  0  0  0
 22 46  1  0  0  0  0
 23 47  1  0  0  0  0
M  CHG  1  11   1
M  CHG  1  21   1
M  END
> <s_m_source_file>
AV-unprocessed.smi

> <i_m_source_file_index>
1240

> <i_lp_mmshare_version>
43012

> <i_f3d_flags>
0

> <s_epik_input>
W2NIXTFbY0hdbltjSF1bY0hdYzFbTkhdQyg9TylbTkhdW0NIMl1bQ0BIXShbQ0BASF0yW0NIMl1bQ0gyXU9bQ0gyXTIpTjNbQ0gyXVtDSDJdT1tDSDJdW0NIMl0z

> <s_epik_cmdline>
J2VwaWtfcHl0aG9uJywgJy1waCcsICc3LjAnLCAnLXRuJywgJzgnLCAnLW1hJywgJzIwMCcsICctbWV0YWxfYmluZGluZycsICctaW1hZScsICc8aW5maWxlLm1hZT4nLCAnLW9tYWUnLCAnPG91dGZpbGUubWFlPic=

> <r_epik_Ionization_Penalty>
2.08105

> <r_epik_Ionization_Penalty_Charging>
2.08103

> <r_epik_Ionization_Penalty_Neutral>
2.04144e-05

> <r_epik_State_Penalty>
2.15598

> <r_epik_Charging_Adjusted_Penalty>
4.23701

> <i_epik_Tot_Q>
2

> <i_epik_Tot_abs_Q>
2

> <r_epik_Metal_State_Penalty>
2.25158

> <b_epik_Metal_Only>
0

> <s_lp_Force_Field>
OPLS_2005

> <r_lp_Energy>
50.7828

> <b_lp_Chiralities_Consistent>
1

> <s_lp_Variant>
AV-unprocessed.smi:1240-13

> <Gold.Version>
5.8.1

> <Gold.Id.Protein>
6NUR|6NUR_protein|mol2

> <Gold.PLP.Fitness>
44.9300

> <Gold.PLP.PLP>
-35.1494

> <Gold.PLP.part.hbond>
-3.1301

> <Gold.PLP.part.metal>
0.0000

> <Gold.PLP.part.buried>
-5.5717

> <Gold.PLP.part.nonpolar>
-29.6064

> <Gold.PLP.part.repulsive>
0.6328

> <Gold.PLP.ligand.clash>
0.0000

> <Gold.PLP.ligand.torsion>
0.8204

> <Gold.PLP.Chemscore.Hbond>
3.7177

> <Gold.PLP.Chemscore.CHOScore>
0.0000

> <Gold.PLP.Chemscore.Metal>
0.0000

> <Gold.Chemscore.Hbonds>
donor molecule, donor type, donor heavy atom, donor atom, acceptor molecule, acceptor atom, score
      L1  H     3    24       P1  7948  0.93
      L1  H    17    43       P1  7948  0.77
      L1  H    21    49       P1  8028  2.00

> <Gold.PLP.Chemscore.Internal.Correction>
0.2684

> <Gold.Rescore>
     Score         DG    S(hbond)    S(metal)    S(lipo)     H(rot)  DE(clash)    DE(int)     intcor
     18.64     -20.80       2.82        0.00      88.66       1.74       0.03       2.13       ----

> <Gold.Chemscore.Fitness>
18.6413

> <Gold.Chemscore.DG>
-20.8015

> <Gold.Chemscore.ZeroCoef>
-5.4800

> <Gold.Chemscore.Hbond>
2.8168

> <Gold.Chemscore.Metal>
0.0000

> <Gold.Chemscore.Lipo>
88.6598

> <Gold.Chemscore.Internal_Hbond>
0.0000

> <Gold.Chemscore.DEClash>
0.0287

> <Gold.Chemscore.DEInternal>
2.1316

> <Gold.Chemscore.Rot>
1.7421

> <Gold.Chemscore.Internal.Correction>
   9.000000E+99

> <Gold.Chemscore.Hbonds>
donor molecule, donor type, donor heavy atom, donor atom, acceptor molecule, acceptor atom, score
      L1  H     3    24       P1  7948  0.89
      L1  H    17    43       P1  7948  0.74
      L1  H    21    49       P1  8028  0.99

> <Gold.Chemscore.Hbond.Weighted>
-9.4080

> <Gold.Chemscore.Metal.Weighted>
-0.0000

> <Gold.Chemscore.Lipo.Weighted>
-10.3732

> <Gold.Chemscore.Internal_Hbond.Weighted>
0.0000

> <Gold.Chemscore.DEClash.Weighted>
0.0287

> <Gold.Chemscore.DEInternal.Weighted>
2.1316

> <Gold.Chemscore.Rot.Weighted>
4.4597

> <Gold.Chemscore.Internal.Correction.Weighted>
   9.000000E+99

> <Gold.Protein.RotatedTorsions>
[ 6907 6896 6895 6894 ] final  -18.09 input  -60.11 | X-H torsion
[ 7974 7965 7964 7962 ] final   86.61 input  175.53 | X-H torsion
[ 8008 7997 7996 7995 ] final -142.19 input   59.86 | X-H torsion
[ 10167 10162 10161 10158 ] final -165.77 input  -65.29 | X-H torsion
[ 10718 10713 10712 10709 ] final  111.16 input   66.30 | X-H torsion
[ 10763 10752 10751 10750 ] final  135.39 input  -60.55 | X-H torsion
[ 11005 11000 10999 10996 ] final -164.06 input  -57.11 | X-H torsion

> <Gold.Protein.ActiveResidues>
 VAL166  LYS551  ARG553  GLY616  TRP617  ASP618  TYR619  PRO620  LYS621  CYS622 
 ASP623  PHE694  ASN695  SER759  ASP760  ASP761  ALA762  ILE779  LEU786  VAL792 
 PHE793  MET794  SER795  GLU796  ALA797  LYS798  CYS799  TRP800  GLU811  SER814 

> <Gold.Protein.RotatedAtoms>
  151.2834  135.0720  159.9177 H   0  0  0  0  0  0  0  0  0  0  0  0  # atno 6907 bound_to 6896
  152.5330  134.0007  159.7904 H   0  0  0  0  0  0  0  0  0  0  0  0  # atno 6908 bound_to 6896
  151.0265  133.5778  159.2696 H   0  0  0  0  0  0  0  0  0  0  0  0  # atno 6909 bound_to 6896
  145.5700  139.2313  143.2411 H   0  0  0  0  0  0  0  0  0  0  0  0  # atno 7974 bound_to 7965
  155.4902  140.0567  157.2955 H   0  0  0  0  0  0  0  0  0  0  0  0  # atno 8008 bound_to 7997
  154.4626  140.2003  156.0154 H   0  0  0  0  0  0  0  0  0  0  0  0  # atno 8009 bound_to 7997
  156.0918  140.3232  155.7830 H   0  0  0  0  0  0  0  0  0  0  0  0  # atno 8010 bound_to 7997
  139.6160  144.0719  152.1888 H   0  0  0  0  0  0  0  0  0  0  0  0  # atno 10167 bound_to 10162
  157.6459  131.0946  150.6707 H   0  0  0  0  0  0  0  0  0  0  0  0  # atno 10718 bound_to 10713
  153.8393  135.3093  155.3425 H   0  0  0  0  0  0  0  0  0  0  0  0  # atno 10763 bound_to 10752
  154.7939  135.4766  154.0120 H   0  0  0  0  0  0  0  0  0  0  0  0  # atno 10764 bound_to 10752
  153.1586  135.6856  153.8868 H   0  0  0  0  0  0  0  0  0  0  0  0  # atno 10765 bound_to 10752
  140.5912  134.5043  157.5193 H   0  0  0  0  0  0  0  0  0  0  0  0  # atno 11005 bound_to 11000
  146.1791  140.6526  142.9197 LP  0  0  0  0  0  0  0  0  0  0  0  0  # atno 17320 bound_to 7965
  144.7442  140.5024  143.6847 LP  0  0  0  0  0  0  0  0  0  0  0  0  # atno 17321 bound_to 7965
  140.0350  144.6052  150.7457 LP  0  0  0  0  0  0  0  0  0  0  0  0  # atno 17342 bound_to 10162
  140.7351  143.2737  151.3809 LP  0  0  0  0  0  0  0  0  0  0  0  0  # atno 17343 bound_to 10162
  156.7025  130.4627  149.5569 LP  0  0  0  0  0  0  0  0  0  0  0  0  # atno 17370 bound_to 10713
  156.1786  130.6484  151.0924 LP  0  0  0  0  0  0  0  0  0  0  0  0  # atno 17371 bound_to 10713
  139.9273  134.8030  156.1030 LP  0  0  0  0  0  0  0  0  0  0  0  0  # atno 17394 bound_to 11000
  141.0934  133.6705  156.2590 LP  0  0  0  0  0  0  0  0  0  0  0  0  # atno 17395 bound_to 11000

$$$$
