#       Name:                AV-unprocessed.smi:525
#       Creating user name   scv26
#       Creation time:       Thu Mar 26 23:28:36 2020


#       File generated by GOLD software.
#

@<TRIPOS>MOLECULE
AV-unprocessed.smi:525
    48    50     1
SMALL
NO_CHARGES


@<TRIPOS>ATOM
      1 ****        -3.2183   0.9864   0.1869 C.3            1 S1                 0.0000
      2 ****        -2.3041   1.5914  -0.7144 O.3            1 S1                 0.0000
      3 ****        -2.5047   1.2113  -2.0681 C.3            1 S1                 0.0000
      4 ****        -1.8029  -0.1158  -2.4064 C.3            1 S1                 0.0000
      5 ****        -0.3601  -0.0355  -2.2228 N.pl3          1 S1                 0.0000
      6 ****         0.3853  -0.4559  -1.1695 C.2            1 S1                 0.0000
      7 ****        -0.3509  -1.2277   0.2419 S.3            1 S1                 0.0000
      8 ****         0.7782  -0.6659   1.5631 C.3            1 S1                 0.0000
      9 ****         0.8080   0.8588   1.7552 C.2            1 S1                 0.0000
     10 ****         1.9902   1.4089   2.0439 N.am           1 S1                 0.0000
     11 ****        -0.2138   1.5331   1.6431 O.2            1 S1                 0.0000
     12 ****         0.4007  -1.3457   2.8750 C.ar           1 S1                 0.0000
     13 ****        -0.9018  -1.2188   3.4114 C.ar           1 S1                 0.0000
     14 ****        -1.2384  -1.8538   4.6224 C.ar           1 S1                 0.0000
     15 ****        -0.2767  -2.6210   5.3065 C.ar           1 S1                 0.0000
     16 ****         1.0222  -2.7517   4.7793 C.ar           1 S1                 0.0000
     17 ****         1.3595  -2.1169   3.5681 C.ar           1 S1                 0.0000
     18 ****         1.7011  -0.2630  -1.2864 N.2            1 S1                 0.0000
     19 ****         1.8162   0.3538  -2.5153 C.ar           1 S1                 0.0000
     20 ****         2.9573   0.8216  -3.2057 C.ar           1 S1                 0.0000
     21 ****         2.8256   1.4285  -4.4720 C.ar           1 S1                 0.0000
     22 ****         1.5546   1.5746  -5.0647 C.ar           1 S1                 0.0000
     23 ****         0.4056   1.1142  -4.3934 C.ar           1 S1                 0.0000
     24 ****         0.5428   0.5106  -3.1291 C.ar           1 S1                 0.0000
     25 ****        -2.9876   1.2972   1.2057 H              1 S1                 0.0000
     26 ****        -3.1652  -0.1015   0.1513 H              1 S1                 0.0000
     27 ****        -4.2425   1.2909  -0.0310 H              1 S1                 0.0000
     28 ****        -3.5683   1.1608  -2.3063 H              1 S1                 0.0000
     29 ****        -2.0922   2.0010  -2.6965 H              1 S1                 0.0000
     30 ****        -2.2083  -0.9388  -1.8193 H              1 S1                 0.0000
     31 ****        -1.9965  -0.3724  -3.4483 H              1 S1                 0.0000
     32 ****         1.7799  -0.9996   1.2885 H              1 S1                 0.0000
     33 ****         2.0621   2.4063   2.1826 H              1 S1                 0.0000
     34 ****         2.8082   0.8226   2.1253 H              1 S1                 0.0000
     35 ****        -1.6475  -0.6320   2.8949 H              1 S1                 0.0000
     36 ****        -2.2350  -1.7520   5.0261 H              1 S1                 0.0000
     37 ****        -0.5348  -3.1081   6.2351 H              1 S1                 0.0000
     38 ****         1.7608  -3.3391   5.3048 H              1 S1                 0.0000
     39 ****         2.3596  -2.2243   3.1746 H              1 S1                 0.0000
     40 ****         3.9352   0.7139  -2.7603 H              1 S1                 0.0000
     41 ****         3.7038   1.7836  -4.9909 H              1 S1                 0.0000
     42 ****         1.4618   2.0406  -6.0348 H              1 S1                 0.0000
     43 ****        -0.5695   1.2253  -4.8437 H              1 S1                 0.0000
     44 ****        -1.3766   1.3302  -0.4468 LP             1 S1                 0.0000
     45 ****        -2.4035   2.5841  -0.6467 LP             1 S1                 0.0000
     46 ****        -1.0832   1.0906   1.4234 LP             1 S1                 0.0000
     47 ****        -0.1755   2.5240   1.7715 LP             1 S1                 0.0000
     48 ****         2.4257  -0.5060  -0.6415 LP             1 S1                 0.0000
@<TRIPOS>BOND
    1    1    2 1     
    2    1   25 1     
    3    1   26 1     
    4    1   27 1     
    5    2    3 1     
    6    3    4 1     
    7    3   28 1     
    8    3   29 1     
    9    4    5 1     
   10    4   30 1     
   11    4   31 1     
   12    5   24 1     
   13    5    6 1     
   14    6    7 1     
   15    6   18 2     
   16    7    8 1     
   17    8    9 1     
   18    8   12 1     
   19    8   32 1     
   20    9   10 am    
   21    9   11 2     
   22   10   33 1     
   23   10   34 1     
   24   12   17 ar    
   25   12   13 ar    
   26   13   14 ar    
   27   13   35 1     
   28   14   15 ar    
   29   14   36 1     
   30   15   16 ar    
   31   15   37 1     
   32   16   17 ar    
   33   16   38 1     
   34   17   39 1     
   35   18   19 1     
   36   19   24 ar    
   37   19   20 ar    
   38   20   21 ar    
   39   20   40 1     
   40   21   22 ar    
   41   21   41 1     
   42   22   23 ar    
   43   22   42 1     
   44   23   24 ar    
   45   23   43 1     
   46    2   44 1     
   47    2   45 1     
   48   11   46 1     
   49   11   47 1     
   50   18   48 1     
@<TRIPOS>SUBSTRUCTURE
      1 S1             1
@<TRIPOS>SET
LONE_PAIRS      STATIC     ATOMS    <user>   **** ""
5 44 45 46 47 48
DONOR_HYDROGENS      STATIC     ATOMS    <user>   **** ""
2 33 34
ATOM$BLUE        STATIC     ATOMS    COLORGROUP SYSTEM
5 44 45 46 47 48
ATOM$RED        STATIC     ATOMS    COLORGROUP SYSTEM
2 33 34
