AV-unprocessed.smi:1125|AV-procd|sdf|4834|dock7
  -GOLD-   22720 3393D 1   1.00000     0.00000
 Structure written by MMmdl.
 46 47  0  0  0  0  0  0  0  0  2 V2000
  145.2480  135.8364  151.6999 C   0  0  0  0  0  0  0  0  0  0  0  0
  146.2331  136.8933  152.0147 N   0  3  2  0  0  0  0  0  0  0  0  0
  146.1686  137.3199  153.4349 C   0  0  0  0  0  0  0  0  0  0  0  0
  147.2815  138.3303  153.7613 C   0  0  0  0  0  0  0  0  0  0  0  0
  147.2161  139.5467  152.8232 C   0  0  1  0  0  0  0  0  0  0  0  0
  148.3198  140.4562  153.1121 N   0  0  0  0  0  0  0  0  0  0  0  0
  148.5543  141.0365  154.3002 C   0  0  0  0  0  0  0  0  0  0  0  0
  147.8210  140.8969  155.2788 O   0  0  0  0  0  0  0  0  0  0  0  0
  149.8084  141.9063  154.4007 C   0  0  0  0  0  0  0  0  0  0  0  0
  150.4199  141.7743  155.7654 C   0  0  0  0  0  0  0  0  0  0  0  0
  150.7289  140.6094  156.4211 C   0  0  0  0  0  0  0  0  0  0  0  0
  151.4467  140.9127  157.9774 S   0  0  0  0  0  0  0  0  0  0  0  0
  151.2980  142.6497  157.6862 C   0  0  0  0  0  0  0  0  0  0  0  0
  151.7265  143.7292  158.6508 C   0  0  0  0  0  0  0  0  0  0  0  0
  152.3213  143.0898  159.9208 C   0  0  0  0  0  0  0  0  0  0  0  0
  150.5284  144.5996  159.0875 C   0  0  0  0  0  0  0  0  0  0  0  0
  152.7562  144.6543  157.9745 C   0  0  0  0  0  0  0  0  0  0  0  0
  150.7402  142.9201  156.5002 N   0  0  0  0  0  0  0  0  0  0  0  0
  147.2560  139.0698  151.3594 C   0  0  0  0  0  0  0  0  0  0  0  0
  146.1434  138.0448  151.0827 C   0  0  0  0  0  0  0  0  0  0  0  0
  144.2281  136.2016  151.8269 H   0  0  0  0  0  0  0  0  0  0  0  0
  145.3867  134.9738  152.3525 H   0  0  0  0  0  0  0  0  0  0  0  0
  145.3637  135.4955  150.6704 H   0  0  0  0  0  0  0  0  0  0  0  0
  145.1912  137.7597  153.6404 H   0  0  0  0  0  0  0  0  0  0  0  0
  146.2667  136.4483  154.0831 H   0  0  0  0  0  0  0  0  0  0  0  0
  147.1936  138.6524  154.7998 H   0  0  0  0  0  0  0  0  0  0  0  0
  148.2528  137.8415  153.6710 H   0  0  0  0  0  0  0  0  0  0  0  0
  146.2737  140.0676  153.0038 H   0  0  0  0  0  0  0  0  0  0  0  0
  148.9796  140.6295  152.3671 H   0  0  0  0  0  0  0  0  0  0  0  0
  150.5139  141.6087  153.6236 H   0  0  0  0  0  0  0  0  0  0  0  0
  149.5467  142.9455  154.1981 H   0  0  0  0  0  0  0  0  0  0  0  0
  150.5852  139.5946  156.0802 H   0  0  0  0  0  0  0  0  0  0  0  0
  152.6231  143.8482  160.6442 H   0  0  0  0  0  0  0  0  0  0  0  0
  153.2040  142.4915  159.6923 H   0  0  0  0  0  0  0  0  0  0  0  0
  151.5991  142.4357  160.4109 H   0  0  0  0  0  0  0  0  0  0  0  0
  149.7608  144.0063  159.5860 H   0  0  0  0  0  0  0  0  0  0  0  0
  150.0633  145.1013  158.2381 H   0  0  0  0  0  0  0  0  0  0  0  0
  150.8379  145.3767  159.7872 H   0  0  0  0  0  0  0  0  0  0  0  0
  153.0740  145.4544  158.6439 H   0  0  0  0  0  0  0  0  0  0  0  0
  152.3424  145.1191  157.0788 H   0  0  0  0  0  0  0  0  0  0  0  0
  153.6507  144.1062  157.6765 H   0  0  0  0  0  0  0  0  0  0  0  0
  147.1477  139.9172  150.6816 H   0  0  0  0  0  0  0  0  0  0  0  0
  148.2264  138.6216  151.1405 H   0  0  0  0  0  0  0  0  0  0  0  0
  146.2234  137.6906  150.0542 H   0  0  0  0  0  0  0  0  0  0  0  0
  145.1650  138.5183  151.1800 H   0  0  0  0  0  0  0  0  0  0  0  0
  147.1460  136.4832  151.8778 H   0  0  0  0  0  0  0  0  0  0  0  0
  1  2  1  0  0  0  0
  1 21  1  0  0  0  0
  1 22  1  0  0  0  0
  1 23  1  0  0  0  0
  2 20  1  0  0  0  0
  2  3  1  0  0  0  0
  2 46  1  0  0  0  0
  3  4  1  0  0  0  0
  3 24  1  0  0  0  0
  3 25  1  0  0  0  0
  4  5  1  0  0  0  0
  4 26  1  0  0  0  0
  4 27  1  0  0  0  0
  5  6  1  0  0  0  0
  5 19  1  0  0  0  0
  5 28  1  0  0  0  0
  6  7  1  0  0  0  0
  6 29  1  0  0  0  0
  7  8  2  0  0  0  0
  7  9  1  0  0  0  0
  9 10  1  0  0  0  0
  9 30  1  0  0  0  0
  9 31  1  0  0  0  0
 10 18  1  0  0  0  0
 10 11  2  0  0  0  0
 11 12  1  0  0  0  0
 11 32  1  0  0  0  0
 12 13  1  0  0  0  0
 13 14  1  0  0  0  0
 13 18  2  0  0  0  0
 14 15  1  0  0  0  0
 14 16  1  0  0  0  0
 14 17  1  0  0  0  0
 15 33  1  0  0  0  0
 15 34  1  0  0  0  0
 15 35  1  0  0  0  0
 16 36  1  0  0  0  0
 16 37  1  0  0  0  0
 16 38  1  0  0  0  0
 17 39  1  0  0  0  0
 17 40  1  0  0  0  0
 17 41  1  0  0  0  0
 19 20  1  0  0  0  0
 19 42  1  0  0  0  0
 19 43  1  0  0  0  0
 20 44  1  0  0  0  0
 20 45  1  0  0  0  0
M  CHG  1   2   1
M  END
> <s_m_source_file>
AV-unprocessed.smi

> <i_m_source_file_index>
1125

> <i_lp_mmshare_version>
43012

> <i_f3d_flags>
0

> <s_epik_input>
W0NIM11OMVtDSDJdW0NIMl1bQ0hdKFtDSDJdW0NIMl0xKVtOSF1DKD1PKVtDSDJdYzJbY0hdc2MobjIpQyhbQ0gzXSkoW0NIM10pW0NIM10=

> <s_epik_cmdline>
J2VwaWtfcHl0aG9uJywgJy1waCcsICc3LjAnLCAnLXRuJywgJzgnLCAnLW1hJywgJzIwMCcsICctbWV0YWxfYmluZGluZycsICctaW1hZScsICc8aW5maWxlLm1hZT4nLCAnLW9tYWUnLCAnPG91dGZpbGUubWFlPic=

> <r_epik_Ionization_Penalty>
0.00829478

> <r_epik_Ionization_Penalty_Charging>
0.0082618

> <r_epik_Ionization_Penalty_Neutral>
3.29858e-05

> <r_epik_State_Penalty>
0.00621662

> <r_epik_Charging_Adjusted_Penalty>
0.0144784

> <i_epik_Tot_Q>
1

> <i_epik_Tot_abs_Q>
1

> <r_epik_Metal_State_Penalty>
0.00621672

> <b_epik_Metal_Only>
0

> <s_lp_Force_Field>
OPLS_2005

> <r_lp_Energy>
7.4161

> <b_lp_Chiralities_Consistent>
1

> <s_lp_Variant>
AV-unprocessed.smi:1125-1

> <Gold.Version>
5.8.1

> <Gold.Id.Protein>
6NUR|6NUR_protein|mol2

> <Gold.PLP.Fitness>
45.8527

> <Gold.PLP.PLP>
-37.7075

> <Gold.PLP.part.hbond>
-2.0000

> <Gold.PLP.part.metal>
0.0000

> <Gold.PLP.part.buried>
0.6299

> <Gold.PLP.part.nonpolar>
-37.3995

> <Gold.PLP.part.repulsive>
1.4465

> <Gold.PLP.ligand.clash>
0.0000

> <Gold.PLP.ligand.torsion>
0.4346

> <Gold.PLP.Chemscore.Hbond>
3.0000

> <Gold.PLP.Chemscore.CHOScore>
0.0000

> <Gold.PLP.Chemscore.Metal>
0.0000

> <Gold.Chemscore.Hbonds>
donor molecule, donor type, donor heavy atom, donor atom, acceptor molecule, acceptor atom, score
      L1  H     2    46       P1  7948  2.00
      L1  H     6    29       P1  7957  0.77

> <Gold.PLP.Chemscore.Internal.Correction>
0.0144

> <Gold.Rescore>
     Score         DG    S(hbond)    S(metal)    S(lipo)     H(rot)  DE(clash)    DE(int)     intcor
     19.99     -21.32       1.96        0.00     110.10       1.40       0.87       0.45       ----

> <Gold.Chemscore.Fitness>
19.9926

> <Gold.Chemscore.DG>
-21.3170

> <Gold.Chemscore.ZeroCoef>
-5.4800

> <Gold.Chemscore.Hbond>
1.9603

> <Gold.Chemscore.Metal>
0.0000

> <Gold.Chemscore.Lipo>
110.0958

> <Gold.Chemscore.Internal_Hbond>
0.0000

> <Gold.Chemscore.DEClash>
0.8710

> <Gold.Chemscore.DEInternal>
0.4534

> <Gold.Chemscore.Rot>
1.4030

> <Gold.Chemscore.Internal.Correction>
   9.000000E+99

> <Gold.Chemscore.Hbonds>
donor molecule, donor type, donor heavy atom, donor atom, acceptor molecule, acceptor atom, score
      L1  H     2    46       P1  7948  1.00
      L1  H     6    29       P1  7957  0.74

> <Gold.Chemscore.Hbond.Weighted>
-6.5475

> <Gold.Chemscore.Metal.Weighted>
-0.0000

> <Gold.Chemscore.Lipo.Weighted>
-12.8812

> <Gold.Chemscore.Internal_Hbond.Weighted>
0.0000

> <Gold.Chemscore.DEClash.Weighted>
0.8710

> <Gold.Chemscore.DEInternal.Weighted>
0.4534

> <Gold.Chemscore.Rot.Weighted>
3.5917

> <Gold.Chemscore.Internal.Correction.Weighted>
   9.000000E+99

> <Gold.Protein.RotatedTorsions>
[ 6907 6896 6895 6894 ] final   60.57 input  -60.11 | X-H torsion
[ 7974 7965 7964 7962 ] final   27.92 input  175.53 | X-H torsion
[ 8008 7997 7996 7995 ] final  160.99 input   59.86 | X-H torsion
[ 10167 10162 10161 10158 ] final  168.23 input  -65.29 | X-H torsion
[ 10718 10713 10712 10709 ] final -115.50 input   66.30 | X-H torsion
[ 10763 10752 10751 10750 ] final -178.47 input  -60.55 | X-H torsion
[ 11005 11000 10999 10996 ] final   94.08 input  -57.11 | X-H torsion

> <Gold.Protein.ActiveResidues>
 VAL166  LYS551  ARG553  GLY616  TRP617  ASP618  TYR619  PRO620  LYS621  CYS622 
 ASP623  PHE694  ASN695  SER759  ASP760  ASP761  ALA762  ILE779  LEU786  VAL792 
 PHE793  MET794  SER795  GLU796  ALA797  LYS798  CYS799  TRP800  GLU811  SER814 

> <Gold.Protein.RotatedAtoms>
  152.4015  134.6279  160.0067 H   0  0  0  0  0  0  0  0  0  0  0  0  # atno 6907 bound_to 6896
  151.6483  133.3316  159.3154 H   0  0  0  0  0  0  0  0  0  0  0  0  # atno 6908 bound_to 6896
  150.7914  134.6984  159.6581 H   0  0  0  0  0  0  0  0  0  0  0  0  # atno 6909 bound_to 6896
  146.1758  139.7126  142.8936 H   0  0  0  0  0  0  0  0  0  0  0  0  # atno 7974 bound_to 7965
  156.2134  140.1789  156.7643 H   0  0  0  0  0  0  0  0  0  0  0  0  # atno 8008 bound_to 7997
  154.5756  140.0675  156.9058 H   0  0  0  0  0  0  0  0  0  0  0  0  # atno 8009 bound_to 7997
  155.2594  140.3334  155.4277 H   0  0  0  0  0  0  0  0  0  0  0  0  # atno 8010 bound_to 7997
  139.4963  144.3837  151.9594 H   0  0  0  0  0  0  0  0  0  0  0  0  # atno 10167 bound_to 10162
  156.0899  130.6084  150.8913 H   0  0  0  0  0  0  0  0  0  0  0  0  # atno 10718 bound_to 10713
  154.5472  135.2810  155.1041 H   0  0  0  0  0  0  0  0  0  0  0  0  # atno 10763 bound_to 10752
  154.2501  135.6341  153.5241 H   0  0  0  0  0  0  0  0  0  0  0  0  # atno 10764 bound_to 10752
  152.9993  135.5580  154.6028 H   0  0  0  0  0  0  0  0  0  0  0  0  # atno 10765 bound_to 10752
  139.8802  134.8825  156.3812 H   0  0  0  0  0  0  0  0  0  0  0  0  # atno 11005 bound_to 11000
  145.4216  141.0407  143.2960 LP  0  0  0  0  0  0  0  0  0  0  0  0  # atno 17320 bound_to 7965
  144.8233  139.5753  143.6977 LP  0  0  0  0  0  0  0  0  0  0  0  0  # atno 17321 bound_to 7965
  140.3274  144.3357  150.5995 LP  0  0  0  0  0  0  0  0  0  0  0  0  # atno 17342 bound_to 10162
  140.5673  143.2185  151.7661 LP  0  0  0  0  0  0  0  0  0  0  0  0  # atno 17343 bound_to 10162
  157.6046  131.0939  150.8902 LP  0  0  0  0  0  0  0  0  0  0  0  0  # atno 17370 bound_to 10713
  156.9053  130.5261  149.5281 LP  0  0  0  0  0  0  0  0  0  0  0  0  # atno 17371 bound_to 10713
  140.9398  133.7522  156.0131 LP  0  0  0  0  0  0  0  0  0  0  0  0  # atno 17394 bound_to 11000
  140.8233  134.3264  157.5374 LP  0  0  0  0  0  0  0  0  0  0  0  0  # atno 17395 bound_to 11000

$$$$
