#       Name:                AV-unprocessed.smi:236
#       Creating user name   scv26
#       Creation time:       Thu Mar 26 20:40:42 2020


#       File generated by GOLD software.
#

@<TRIPOS>MOLECULE
AV-unprocessed.smi:236
    70    74     1
SMALL
NO_CHARGES


@<TRIPOS>ATOM
      1 ****        -7.2857  -1.3377   1.1482 C.3            1 S1                 0.0000
      2 ****        -6.2494  -1.7734   2.1944 C.3            1 S1                 0.0000
      3 ****        -6.0472  -3.1834   2.1487 O.3            1 S1                 0.0000
      4 ****        -4.6954  -3.4965   2.4725 C.3            1 S1                 0.0000
      5 ****        -4.0514  -2.1756   2.8842 C.3            1 S1                 0.0000
      6 ****        -4.8443  -1.1521   2.0807 C.3            1 S1                 0.0000
      7 ****        -4.8004   0.0911   2.7552 O.3            1 S1                 0.0000
      8 ****        -4.3440  -0.9756   0.6200 C.3            1 S1                 0.0000
      9 ****        -2.9659  -0.5214   0.5187 N.pl3          1 S1                 0.0000
     10 ****        -1.8451  -1.3086   0.3801 C.2            1 S1                 0.0000
     11 ****        -0.7141  -0.6604   0.3200 N.2            1 S1                 0.0000
     12 ****        -1.0827   0.6778   0.4011 C.ar           1 S1                 0.0000
     13 ****        -0.3642   1.9078   0.3994 C.ar           1 S1                 0.0000
     14 ****         0.9880   1.9718   0.2902 N.3            1 S1                 0.0000
     15 ****         1.6509   3.2047   0.7089 C.3            1 S1                 0.0000
     16 ****         3.1714   2.9936   0.7710 C.3            1 S1                 0.0000
     17 ****         3.6328   2.5126  -0.4867 O.3            1 S1                 0.0000
     18 ****         3.0649   1.2486  -0.8222 C.3            1 S1                 0.0000
     19 ****         3.6921   0.7741  -2.1389 C.3            1 S1                 0.0000
     20 ****         5.0448   0.4198  -1.9031 O.3            1 S1                 0.0000
     21 ****         5.7014  -0.0418  -3.0705 C.3            1 S1                 0.0000
     22 ****         7.1454  -0.3481  -2.7349 C.3            1 S1                 0.0000
     23 ****         7.9353  -1.3291  -3.5711 C.3            1 S1                 0.0000
     24 ****         7.5359  -1.6921  -2.1633 C.3            1 S1                 0.0000
     25 ****         1.5373   1.4148  -0.9425 C.3            1 S1                 0.0000
     26 ****        -1.0898   3.0526   0.5180 N.ar           1 S1                 0.0000
     27 ****        -2.4212   3.0037   0.6186 C.ar           1 S1                 0.0000
     28 ****        -3.2181   1.9342   0.6287 N.ar           1 S1                 0.0000
     29 ****        -2.4978   0.7811   0.5239 C.ar           1 S1                 0.0000
     30 ****        -7.4177  -0.2555   1.1549 H              1 S1                 0.0000
     31 ****        -8.2552  -1.7906   1.3563 H              1 S1                 0.0000
     32 ****        -6.9956  -1.6387   0.1415 H              1 S1                 0.0000
     33 ****        -6.6489  -1.5579   3.1874 H              1 S1                 0.0000
     34 ****        -4.6392  -4.2464   3.2618 H              1 S1                 0.0000
     35 ****        -4.2086  -3.9021   1.5850 H              1 S1                 0.0000
     36 ****        -4.2155  -2.0241   3.9526 H              1 S1                 0.0000
     37 ****        -2.9750  -2.1522   2.7205 H              1 S1                 0.0000
     38 ****        -5.3347   0.7096   2.2808 H              1 S1                 0.0000
     39 ****        -4.4307  -1.9144   0.0717 H              1 S1                 0.0000
     40 ****        -4.9691  -0.2569   0.0887 H              1 S1                 0.0000
     41 ****        -1.8922  -2.3872   0.3376 H              1 S1                 0.0000
     42 ****         1.4166   4.0029   0.0030 H              1 S1                 0.0000
     43 ****         1.2848   3.5156   1.6883 H              1 S1                 0.0000
     44 ****         3.6723   3.9346   0.9982 H              1 S1                 0.0000
     45 ****         3.4369   2.2915   1.5629 H              1 S1                 0.0000
     46 ****         3.2908   0.5217  -0.0395 H              1 S1                 0.0000
     47 ****         3.1536  -0.0990  -2.5115 H              1 S1                 0.0000
     48 ****         3.6210   1.5534  -2.8995 H              1 S1                 0.0000
     49 ****         5.2112  -0.9377  -3.4551 H              1 S1                 0.0000
     50 ****         5.6743   0.7192  -3.8517 H              1 S1                 0.0000
     51 ****         7.6999   0.5100  -2.3595 H              1 S1                 0.0000
     52 ****         7.4193  -1.8362  -4.3840 H              1 S1                 0.0000
     53 ****         8.9837  -1.1020  -3.7543 H              1 S1                 0.0000
     54 ****         8.3171  -1.7072  -1.4060 H              1 S1                 0.0000
     55 ****         6.7521  -2.4368  -2.0390 H              1 S1                 0.0000
     56 ****         1.0877   0.4512  -1.1783 H              1 S1                 0.0000
     57 ****         1.2967   2.0857  -1.7685 H              1 S1                 0.0000
     58 ****        -2.9183   3.9587   0.7048 H              1 S1                 0.0000
     59 ****        -6.2524  -3.5171   1.2286 LP             1 S1                 0.0000
     60 ****        -6.6558  -3.6261   2.8073 LP             1 S1                 0.0000
     61 ****        -3.8570   0.4205   2.7938 LP             1 S1                 0.0000
     62 ****        -5.1540  -0.0168   3.6844 LP             1 S1                 0.0000
     63 ****         0.2073  -1.0396   0.2350 LP             1 S1                 0.0000
     64 ****         1.2414   1.3369   1.0201 LP             1 S1                 0.0000
     65 ****         4.6277   2.4189  -0.4501 LP             1 S1                 0.0000
     66 ****         3.3861   3.1744  -1.1946 LP             1 S1                 0.0000
     67 ****         5.0702  -0.3047  -1.2143 LP             1 S1                 0.0000
     68 ****         5.5306   1.2235  -1.5595 LP             1 S1                 0.0000
     69 ****        -0.6233   3.9370   0.5300 LP             1 S1                 0.0000
     70 ****        -4.2146   1.9729   0.7035 LP             1 S1                 0.0000
@<TRIPOS>BOND
    1    1    2 1     
    2    1   30 1     
    3    1   31 1     
    4    1   32 1     
    5    2    6 1     
    6    2    3 1     
    7    2   33 1     
    8    3    4 1     
    9    4    5 1     
   10    4   34 1     
   11    4   35 1     
   12    5    6 1     
   13    5   36 1     
   14    5   37 1     
   15    6    7 1     
   16    6    8 1     
   17    7   38 1     
   18    8    9 1     
   19    8   39 1     
   20    8   40 1     
   21    9   29 1     
   22    9   10 1     
   23   10   11 2     
   24   10   41 1     
   25   11   12 1     
   26   12   29 ar    
   27   12   13 ar    
   28   13   14 1     
   29   13   26 ar    
   30   14   25 1     
   31   14   15 1     
   32   15   16 1     
   33   15   42 1     
   34   15   43 1     
   35   16   17 1     
   36   16   44 1     
   37   16   45 1     
   38   17   18 1     
   39   18   19 1     
   40   18   25 1     
   41   18   46 1     
   42   19   20 1     
   43   19   47 1     
   44   19   48 1     
   45   20   21 1     
   46   21   22 1     
   47   21   49 1     
   48   21   50 1     
   49   22   24 1     
   50   22   23 1     
   51   22   51 1     
   52   23   24 1     
   53   23   52 1     
   54   23   53 1     
   55   24   54 1     
   56   24   55 1     
   57   25   56 1     
   58   25   57 1     
   59   26   27 ar    
   60   27   28 ar    
   61   27   58 1     
   62   28   29 ar    
   63    3   59 1     
   64    3   60 1     
   65    7   61 1     
   66    7   62 1     
   67   11   63 1     
   68   14   64 1     
   69   17   65 1     
   70   17   66 1     
   71   20   67 1     
   72   20   68 1     
   73   26   69 1     
   74   28   70 1     
@<TRIPOS>SUBSTRUCTURE
      1 S1             1
@<TRIPOS>SET
LONE_PAIRS      STATIC     ATOMS    <user>   **** ""
12 59 60 61 62 63 64 65 66 67 68 69 70
DONOR_HYDROGENS      STATIC     ATOMS    <user>   **** ""
1 38
ATOM$BLUE        STATIC     ATOMS    COLORGROUP SYSTEM
12 59 60 61 62 63 64 65 66 67 68 69 70
ATOM$RED        STATIC     ATOMS    COLORGROUP SYSTEM
1 38
