AV-unprocessed.smi:1506|AV-procd|sdf|6077|dock10
  -GOLD-   22720 6203D 1   1.00000     0.00000
 Structure written by MMmdl.
 39 41  0  0  0  0  0  0  0  0  1 V2000
  146.3607  138.4154  152.3564 C   0  0  0  0  0  0  0  0  0  0  0  0
  147.1162  139.4747  153.1324 C   0  0  0  0  0  0  0  0  0  0  0  0
  146.4824  140.6790  153.4970 C   0  0  0  0  0  0  0  0  0  0  0  0
  147.1933  141.6560  154.2183 C   0  0  0  0  0  0  0  0  0  0  0  0
  148.5361  141.4334  154.5793 C   0  0  0  0  0  0  0  0  0  0  0  0
  149.1836  140.2237  154.2215 C   0  0  0  0  0  0  0  0  0  0  0  0
  150.4910  139.9213  154.5366 O   0  0  0  0  0  0  0  0  0  0  0  0
  150.8505  138.5529  154.6746 C   0  0  0  0  0  0  0  0  0  0  0  0
  151.9659  138.4321  155.7231 C   0  0  1  0  0  0  0  0  0  0  0  0
  152.9179  139.4488  155.4795 O   0  0  0  0  0  0  0  0  0  0  0  0
  151.4316  138.5485  157.1642 C   0  0  0  0  0  0  0  0  0  0  0  0
  151.3373  139.9259  157.6140 N   0  0  0  0  0  0  0  0  0  0  0  0
  150.5395  140.8884  157.1130 C   0  0  0  0  0  0  0  0  0  0  0  0
  150.6093  142.0917  157.6753 N   0  0  0  0  0  0  0  0  0  0  0  0
  151.5657  141.8876  158.6551 C   0  0  0  0  0  0  0  0  0  0  0  0
  152.1042  142.7779  159.6118 C   0  0  0  0  0  0  0  0  0  0  0  0
  153.0855  142.3380  160.5245 C   0  0  0  0  0  0  0  0  0  0  0  0
  153.5413  141.0039  160.4967 C   0  0  0  0  0  0  0  0  0  0  0  0
  153.0193  140.0984  159.5531 C   0  0  0  0  0  0  0  0  0  0  0  0
  152.0420  140.5417  158.6428 C   0  0  0  0  0  0  0  0  0  0  0  0
  148.4599  139.2539  153.4971 C   0  0  0  0  0  0  0  0  0  0  0  0
  145.4223  138.8063  151.9619 H   0  0  0  0  0  0  0  0  0  0  0  0
  146.1341  137.5665  153.0020 H   0  0  0  0  0  0  0  0  0  0  0  0
  146.9584  138.0590  151.5170 H   0  0  0  0  0  0  0  0  0  0  0  0
  145.4520  140.8582  153.2267 H   0  0  0  0  0  0  0  0  0  0  0  0
  146.7076  142.5796  154.4966 H   0  0  0  0  0  0  0  0  0  0  0  0
  149.0468  142.2070  155.1317 H   0  0  0  0  0  0  0  0  0  0  0  0
  149.9779  137.9824  154.9980 H   0  0  0  0  0  0  0  0  0  0  0  0
  151.1894  138.1422  153.7220 H   0  0  0  0  0  0  0  0  0  0  0  0
  152.4713  137.4738  155.5967 H   0  0  0  0  0  0  0  0  0  0  0  0
  152.5265  140.0944  154.9108 H   0  0  0  0  0  0  0  0  0  0  0  0
  150.4469  138.0864  157.2462 H   0  0  0  0  0  0  0  0  0  0  0  0
  152.0839  138.0102  157.8529 H   0  0  0  0  0  0  0  0  0  0  0  0
  149.8682  140.6933  156.2895 H   0  0  0  0  0  0  0  0  0  0  0  0
  151.7617  143.8015  159.6436 H   0  0  0  0  0  0  0  0  0  0  0  0
  153.4907  143.0277  161.2505 H   0  0  0  0  0  0  0  0  0  0  0  0
  154.2925  140.6763  161.2006 H   0  0  0  0  0  0  0  0  0  0  0  0
  153.3647  139.0755  159.5296 H   0  0  0  0  0  0  0  0  0  0  0  0
  148.9435  138.3287  153.2194 H   0  0  0  0  0  0  0  0  0  0  0  0
  1  2  1  0  0  0  0
  1 22  1  0  0  0  0
  1 23  1  0  0  0  0
  1 24  1  0  0  0  0
  2 21  1  0  0  0  0
  2  3  2  0  0  0  0
  3  4  1  0  0  0  0
  3 25  1  0  0  0  0
  4  5  2  0  0  0  0
  4 26  1  0  0  0  0
  5  6  1  0  0  0  0
  5 27  1  0  0  0  0
  6  7  1  0  0  0  0
  6 21  2  0  0  0  0
  7  8  1  0  0  0  0
  8  9  1  0  0  0  0
  8 28  1  0  0  0  0
  8 29  1  0  0  0  0
  9 10  1  0  0  0  0
  9 11  1  0  0  0  0
  9 30  1  0  0  0  0
 10 31  1  0  0  0  0
 11 12  1  0  0  0  0
 11 32  1  0  0  0  0
 11 33  1  0  0  0  0
 12 20  1  0  0  0  0
 12 13  1  0  0  0  0
 13 14  2  0  0  0  0
 13 34  1  0  0  0  0
 14 15  1  0  0  0  0
 15 20  2  0  0  0  0
 15 16  1  0  0  0  0
 16 17  2  0  0  0  0
 16 35  1  0  0  0  0
 17 18  1  0  0  0  0
 17 36  1  0  0  0  0
 18 19  2  0  0  0  0
 18 37  1  0  0  0  0
 19 20  1  0  0  0  0
 19 38  1  0  0  0  0
 21 39  1  0  0  0  0
M  END
> <s_m_source_file>
AV-unprocessed.smi

> <i_m_source_file_index>
1506

> <i_lp_mmshare_version>
43012

> <i_f3d_flags>
0

> <s_epik_input>
W0NIM11jMVtjSF1bY0hdW2NIXWMoW2NIXTEpT1tDSDJdW0NASF0oW09IXSlbQ0gyXW4oW2NIXW4yKWMoYzIzKVtjSF1bY0hdW2NIXVtjSF0z

> <s_epik_cmdline>
J2VwaWtfcHl0aG9uJywgJy1waCcsICc3LjAnLCAnLXRuJywgJzgnLCAnLW1hJywgJzIwMCcsICctbWV0YWxfYmluZGluZycsICctaW1hZScsICc8aW5maWxlLm1hZT4nLCAnLW9tYWUnLCAnPG91dGZpbGUubWFlPic=

> <r_lp_tautomer_probability>
1

> <r_epik_Ionization_Penalty>
0.0608485

> <r_epik_Ionization_Penalty_Charging>
0

> <r_epik_Ionization_Penalty_Neutral>
0.0608485

> <r_epik_State_Penalty>
0.0527778

> <r_epik_Charging_Adjusted_Penalty>
0.0527778

> <i_epik_Tot_Q>
0

> <i_epik_Tot_abs_Q>
0

> <r_epik_Metal_State_Penalty>
5.51973e-05

> <b_epik_Metal_Only>
0

> <s_lp_Force_Field>
OPLS_2005

> <r_lp_Energy>
14.3046

> <b_lp_Chiralities_Consistent>
1

> <s_lp_Variant>
AV-unprocessed.smi:1506-2

> <Gold.Version>
5.8.1

> <Gold.Id.Protein>
6NUR|6NUR_protein|mol2

> <Gold.PLP.Fitness>
49.0257

> <Gold.PLP.PLP>
-44.9813

> <Gold.PLP.part.hbond>
-2.0000

> <Gold.PLP.part.metal>
0.0000

> <Gold.PLP.part.buried>
0.6653

> <Gold.PLP.part.nonpolar>
-43.4876

> <Gold.PLP.part.repulsive>
0.1821

> <Gold.PLP.ligand.clash>
0.0000

> <Gold.PLP.ligand.torsion>
1.0194

> <Gold.PLP.Chemscore.Hbond>
2.0000

> <Gold.PLP.Chemscore.CHOScore>
0.0000

> <Gold.PLP.Chemscore.Metal>
0.0000

> <Gold.Chemscore.Hbonds>
donor molecule, donor type, donor heavy atom, donor atom, acceptor molecule, acceptor atom, score
      P1  H  7989  7998       L1     7  1.00
      P1  H  7997  8009       L1    10  1.00

> <Gold.PLP.Chemscore.Internal.Correction>
0.0832

> <Gold.Rescore>
     Score         DG    S(hbond)    S(metal)    S(lipo)     H(rot)  DE(clash)    DE(int)     intcor
     17.99     -20.57       1.88        0.00     123.10       2.19       0.11       2.46       ----

> <Gold.Chemscore.Fitness>
17.9907

> <Gold.Chemscore.DG>
-20.5671

> <Gold.Chemscore.ZeroCoef>
-5.4800

> <Gold.Chemscore.Hbond>
1.8816

> <Gold.Chemscore.Metal>
0.0000

> <Gold.Chemscore.Lipo>
123.1040

> <Gold.Chemscore.Internal_Hbond>
0.0000

> <Gold.Chemscore.DEClash>
0.1132

> <Gold.Chemscore.DEInternal>
2.4632

> <Gold.Chemscore.Rot>
2.1877

> <Gold.Chemscore.Internal.Correction>
   9.000000E+99

> <Gold.Chemscore.Hbonds>
donor molecule, donor type, donor heavy atom, donor atom, acceptor molecule, acceptor atom, score
      P1  H  7989  7998       L1     7  0.66
      P1  H  7997  8009       L1    10  0.50

> <Gold.Chemscore.Hbond.Weighted>
-6.2844

> <Gold.Chemscore.Metal.Weighted>
-0.0000

> <Gold.Chemscore.Lipo.Weighted>
-14.4032

> <Gold.Chemscore.Internal_Hbond.Weighted>
0.0000

> <Gold.Chemscore.DEClash.Weighted>
0.1132

> <Gold.Chemscore.DEInternal.Weighted>
2.4632

> <Gold.Chemscore.Rot.Weighted>
5.6005

> <Gold.Chemscore.Internal.Correction.Weighted>
   9.000000E+99

> <Gold.Protein.RotatedTorsions>
[ 6907 6896 6895 6894 ] final   55.61 input  -60.11 | X-H torsion
[ 7974 7965 7964 7962 ] final  109.79 input  175.53 | X-H torsion
[ 8008 7997 7996 7995 ] final -143.89 input   59.86 | X-H torsion
[ 10167 10162 10161 10158 ] final  170.57 input  -65.29 | X-H torsion
[ 10718 10713 10712 10709 ] final   86.67 input   66.30 | X-H torsion
[ 10763 10752 10751 10750 ] final   -8.53 input  -60.55 | X-H torsion
[ 11005 11000 10999 10996 ] final  -51.55 input  -57.11 | X-H torsion

> <Gold.Protein.ActiveResidues>
 VAL166  LYS551  ARG553  GLY616  TRP617  ASP618  TYR619  PRO620  LYS621  CYS622 
 ASP623  PHE694  ASN695  SER759  ASP760  ASP761  ALA762  ILE779  LEU786  VAL792 
 PHE793  MET794  SER795  GLU796  ALA797  LYS798  CYS799  TRP800  GLU811  SER814 

> <Gold.Protein.RotatedAtoms>
  152.3555  134.6946  160.0223 H   0  0  0  0  0  0  0  0  0  0  0  0  # atno 6907 bound_to 6896
  151.7286  133.3311  159.3342 H   0  0  0  0  0  0  0  0  0  0  0  0  # atno 6908 bound_to 6896
  150.7569  134.6317  159.6234 H   0  0  0  0  0  0  0  0  0  0  0  0  # atno 6909 bound_to 6896
  145.2633  139.2694  143.4005 H   0  0  0  0  0  0  0  0  0  0  0  0  # atno 7974 bound_to 7965
  155.5179  140.0589  157.2912 H   0  0  0  0  0  0  0  0  0  0  0  0  # atno 8008 bound_to 7997
  154.4528  140.1957  156.0415 H   0  0  0  0  0  0  0  0  0  0  0  0  # atno 8009 bound_to 7997
  156.0739  140.3256  155.7613 H   0  0  0  0  0  0  0  0  0  0  0  0  # atno 8010 bound_to 7997
  139.5022  144.3582  151.9852 H   0  0  0  0  0  0  0  0  0  0  0  0  # atno 10167 bound_to 10162
  157.6931  131.0225  150.3008 H   0  0  0  0  0  0  0  0  0  0  0  0  # atno 10718 bound_to 10713
  153.4417  135.7014  153.6164 H   0  0  0  0  0  0  0  0  0  0  0  0  # atno 10763 bound_to 10752
  153.4536  135.3752  155.2298 H   0  0  0  0  0  0  0  0  0  0  0  0  # atno 10764 bound_to 10752
  154.8727  135.4003  154.3817 H   0  0  0  0  0  0  0  0  0  0  0  0  # atno 10765 bound_to 10752
  141.0877  133.6639  156.3894 H   0  0  0  0  0  0  0  0  0  0  0  0  # atno 11005 bound_to 11000
  146.3269  140.3056  142.8623 LP  0  0  0  0  0  0  0  0  0  0  0  0  # atno 17320 bound_to 7965
  144.9399  140.8067  143.5637 LP  0  0  0  0  0  0  0  0  0  0  0  0  # atno 17321 bound_to 7965
  140.3018  144.3638  150.6058 LP  0  0  0  0  0  0  0  0  0  0  0  0  # atno 17342 bound_to 10162
  140.5867  143.2169  151.7329 LP  0  0  0  0  0  0  0  0  0  0  0  0  # atno 17343 bound_to 10162
  156.3524  130.3833  149.7318 LP  0  0  0  0  0  0  0  0  0  0  0  0  # atno 17370 bound_to 10713
  156.4791  130.8032  151.3047 LP  0  0  0  0  0  0  0  0  0  0  0  0  # atno 17371 bound_to 10713
  140.5325  134.6199  157.5354 LP  0  0  0  0  0  0  0  0  0  0  0  0  # atno 17394 bound_to 11000
  139.9697  134.7313  156.0065 LP  0  0  0  0  0  0  0  0  0  0  0  0  # atno 17395 bound_to 11000

$$$$
