AV-unprocessed.smi:1873|AV-procd|sdf|7608|dock8
  -GOLD-   22720 9323D 1   1.00000     0.00000
 Structure written by MMmdl.
 36 38  0  0  0  0  0  0  0  0  1 V2000
  149.6519  140.8024  153.4567 O   0  0  0  0  0  0  0  0  0  0  0  0
  150.4708  140.2458  154.4673 C   0  0  1  0  0  0  0  0  0  0  0  0
  150.3232  141.0611  155.7672 C   0  0  0  0  0  0  0  0  0  0  0  0
  151.3422  140.7341  156.7483 N   0  0  0  0  0  0  0  0  0  0  0  0
  152.1915  139.6890  156.7218 C   0  0  0  0  0  0  0  0  0  0  0  0
  153.0508  139.5764  157.7308 N   0  0  0  0  0  0  0  0  0  0  0  0
  152.7213  140.6777  158.5022 C   0  0  0  0  0  0  0  0  0  0  0  0
  153.2639  141.1382  159.7233 C   0  0  0  0  0  0  0  0  0  0  0  0
  152.7592  142.3050  160.3345 C   0  0  0  0  0  0  0  0  0  0  0  0
  151.7072  143.0283  159.7357 C   0  0  0  0  0  0  0  0  0  0  0  0
  151.1499  142.5891  158.5193 C   0  0  0  0  0  0  0  0  0  0  0  0
  151.6562  141.4241  157.9134 C   0  0  0  0  0  0  0  0  0  0  0  0
  150.1695  138.7734  154.6994 C   0  0  0  0  0  0  0  0  0  0  0  0
  148.8886  138.3716  155.1317 C   0  0  0  0  0  0  0  0  0  0  0  0
  148.6055  137.0080  155.3400 C   0  0  0  0  0  0  0  0  0  0  0  0
  149.5948  136.0272  155.1251 C   0  0  0  0  0  0  0  0  0  0  0  0
  149.2509  134.7103  155.3327 O   0  0  0  0  0  0  0  0  0  0  0  0
  150.1312  133.7289  154.9994 C   0  0  0  0  0  0  0  0  0  0  0  0
  150.3393  132.9191  156.0656 F   0  0  0  0  0  0  0  0  0  0  0  0
  149.6321  132.9646  153.9970 F   0  0  0  0  0  0  0  0  0  0  0  0
  150.8754  136.4314  154.6773 C   0  0  0  0  0  0  0  0  0  0  0  0
  151.1599  137.7947  154.4702 C   0  0  0  0  0  0  0  0  0  0  0  0
  149.5414  140.1594  152.7731 H   0  0  0  0  0  0  0  0  0  0  0  0
  151.5000  140.3325  154.1158 H   0  0  0  0  0  0  0  0  0  0  0  0
  150.3722  142.1307  155.5574 H   0  0  0  0  0  0  0  0  0  0  0  0
  149.3473  140.8762  156.2184 H   0  0  0  0  0  0  0  0  0  0  0  0
  152.1759  138.9679  155.9175 H   0  0  0  0  0  0  0  0  0  0  0  0
  154.0701  140.5926  160.1910 H   0  0  0  0  0  0  0  0  0  0  0  0
  153.1818  142.6472  161.2678 H   0  0  0  0  0  0  0  0  0  0  0  0
  151.3281  143.9211  160.2112 H   0  0  0  0  0  0  0  0  0  0  0  0
  150.3437  143.1397  158.0580 H   0  0  0  0  0  0  0  0  0  0  0  0
  148.1163  139.1069  155.3038 H   0  0  0  0  0  0  0  0  0  0  0  0
  147.6201  136.7124  155.6698 H   0  0  0  0  0  0  0  0  0  0  0  0
  151.0967  134.1370  154.6993 H   0  0  0  0  0  0  0  0  0  0  0  0
  151.6496  135.7047  154.4813 H   0  0  0  0  0  0  0  0  0  0  0  0
  152.1417  138.0874  154.1278 H   0  0  0  0  0  0  0  0  0  0  0  0
  1  2  1  0  0  0  0
  1 23  1  0  0  0  0
  2  3  1  0  0  0  0
  2 13  1  0  0  0  0
  2 24  1  0  0  0  0
  3  4  1  0  0  0  0
  3 25  1  0  0  0  0
  3 26  1  0  0  0  0
  4 12  1  0  0  0  0
  4  5  1  0  0  0  0
  5  6  2  0  0  0  0
  5 27  1  0  0  0  0
  6  7  1  0  0  0  0
  7 12  2  0  0  0  0
  7  8  1  0  0  0  0
  8  9  2  0  0  0  0
  8 28  1  0  0  0  0
  9 10  1  0  0  0  0
  9 29  1  0  0  0  0
 10 11  2  0  0  0  0
 10 30  1  0  0  0  0
 11 12  1  0  0  0  0
 11 31  1  0  0  0  0
 13 22  1  0  0  0  0
 13 14  2  0  0  0  0
 14 15  1  0  0  0  0
 14 32  1  0  0  0  0
 15 16  2  0  0  0  0
 15 33  1  0  0  0  0
 16 17  1  0  0  0  0
 16 21  1  0  0  0  0
 17 18  1  0  0  0  0
 18 19  1  0  0  0  0
 18 20  1  0  0  0  0
 18 34  1  0  0  0  0
 21 22  2  0  0  0  0
 21 35  1  0  0  0  0
 22 36  1  0  0  0  0
M  END
> <s_m_source_file>
AV-unprocessed.smi

> <i_m_source_file_index>
1873

> <i_lp_mmshare_version>
43012

> <i_f3d_flags>
0

> <s_epik_input>
RltDSF0oRilPYyhbY0hdW2NIXTEpW2NIXVtjSF1jMVtDQEhdKFtPSF0pW0NIMl1uKFtjSF1uMiljKGMyMylbY0hdW2NIXVtjSF1bY0hdMw==

> <s_epik_cmdline>
J2VwaWtfcHl0aG9uJywgJy1waCcsICc3LjAnLCAnLXRuJywgJzgnLCAnLW1hJywgJzIwMCcsICctbWV0YWxfYmluZGluZycsICctaW1hZScsICc8aW5maWxlLm1hZT4nLCAnLW9tYWUnLCAnPG91dGZpbGUubWFlPic=

> <r_lp_tautomer_probability>
1

> <r_epik_Ionization_Penalty>
0.0696507

> <r_epik_Ionization_Penalty_Charging>
0

> <r_epik_Ionization_Penalty_Neutral>
0.0696507

> <r_epik_State_Penalty>
0.0610247

> <r_epik_Charging_Adjusted_Penalty>
0.0610247

> <i_epik_Tot_Q>
0

> <i_epik_Tot_abs_Q>
0

> <r_epik_Metal_State_Penalty>
6.42746e-05

> <b_epik_Metal_Only>
0

> <s_lp_Force_Field>
OPLS_2005

> <r_lp_Energy>
11.6076

> <b_lp_Chiralities_Consistent>
1

> <s_lp_Variant>
AV-unprocessed.smi:1873-2

> <Gold.Version>
5.8.1

> <Gold.Id.Protein>
6NUR|6NUR_protein|mol2

> <Gold.PLP.Fitness>
48.6992

> <Gold.PLP.PLP>
-42.2555

> <Gold.PLP.part.hbond>
-3.5957

> <Gold.PLP.part.metal>
0.0000

> <Gold.PLP.part.buried>
-0.0057

> <Gold.PLP.part.nonpolar>
-37.9690

> <Gold.PLP.part.repulsive>
0.0807

> <Gold.PLP.ligand.clash>
0.0000

> <Gold.PLP.ligand.torsion>
0.9733

> <Gold.PLP.Chemscore.Hbond>
2.7680

> <Gold.PLP.Chemscore.CHOScore>
0.0000

> <Gold.PLP.Chemscore.Metal>
0.0000

> <Gold.Chemscore.Hbonds>
donor molecule, donor type, donor heavy atom, donor atom, acceptor molecule, acceptor atom, score
      L1  H     1    23       P1  7957  0.80
      P1  H  7997  8010       L1     6  1.00
      P1  H  8011  8017       L1     1  0.90

> <Gold.PLP.Chemscore.Internal.Correction>
0.0863

> <Gold.Rescore>
     Score         DG    S(hbond)    S(metal)    S(lipo)     H(rot)  DE(clash)    DE(int)     intcor
     15.03     -17.52       1.95        0.00      99.78       2.40       1.61       0.88       ----

> <Gold.Chemscore.Fitness>
15.0338

> <Gold.Chemscore.DG>
-17.5160

> <Gold.Chemscore.ZeroCoef>
-5.4800

> <Gold.Chemscore.Hbond>
1.9469

> <Gold.Chemscore.Metal>
0.0000

> <Gold.Chemscore.Lipo>
99.7758

> <Gold.Chemscore.Internal_Hbond>
0.0000

> <Gold.Chemscore.DEClash>
1.6055

> <Gold.Chemscore.DEInternal>
0.8766

> <Gold.Chemscore.Rot>
2.3986

> <Gold.Chemscore.Internal.Correction>
   9.000000E+99

> <Gold.Chemscore.Hbonds>
donor molecule, donor type, donor heavy atom, donor atom, acceptor molecule, acceptor atom, score
      L1  H     1    23       P1  7957  0.79
      P1  H  7997  8010       L1     6  0.18
      P1  H  8011  8017       L1     1  0.17

> <Gold.Chemscore.Hbond.Weighted>
-6.5027

> <Gold.Chemscore.Metal.Weighted>
-0.0000

> <Gold.Chemscore.Lipo.Weighted>
-11.6738

> <Gold.Chemscore.Internal_Hbond.Weighted>
0.0000

> <Gold.Chemscore.DEClash.Weighted>
1.6055

> <Gold.Chemscore.DEInternal.Weighted>
0.8766

> <Gold.Chemscore.Rot.Weighted>
6.1405

> <Gold.Chemscore.Internal.Correction.Weighted>
   9.000000E+99

> <Gold.Protein.RotatedTorsions>
[ 6907 6896 6895 6894 ] final  109.47 input  -60.11 | X-H torsion
[ 7974 7965 7964 7962 ] final -123.28 input  175.53 | X-H torsion
[ 8008 7997 7996 7995 ] final   33.48 input   59.86 | X-H torsion
[ 10167 10162 10161 10158 ] final   40.79 input  -65.29 | X-H torsion
[ 10718 10713 10712 10709 ] final   54.58 input   66.30 | X-H torsion
[ 10763 10752 10751 10750 ] final  148.17 input  -60.55 | X-H torsion
[ 11005 11000 10999 10996 ] final   29.48 input  -57.11 | X-H torsion

> <Gold.Protein.ActiveResidues>
 VAL166  LYS551  ARG553  GLY616  TRP617  ASP618  TYR619  PRO620  LYS621  CYS622 
 ASP623  PHE694  ASN695  SER759  ASP760  ASP761  ALA762  ILE779  LEU786  VAL792 
 PHE793  MET794  SER795  GLU796  ALA797  LYS798  CYS799  TRP800  GLU811  SER814 

> <Gold.Protein.RotatedAtoms>
  152.5065  133.8939  159.7407 H   0  0  0  0  0  0  0  0  0  0  0  0  # atno 6907 bound_to 6896
  150.9371  133.6690  159.2805 H   0  0  0  0  0  0  0  0  0  0  0  0  # atno 6908 bound_to 6896
  151.4015  135.0976  159.9610 H   0  0  0  0  0  0  0  0  0  0  0  0  # atno 6909 bound_to 6896
  145.0203  140.7982  143.4385 H   0  0  0  0  0  0  0  0  0  0  0  0  # atno 7974 bound_to 7965
  155.1393  140.3264  155.4456 H   0  0  0  0  0  0  0  0  0  0  0  0  # atno 8008 bound_to 7997
  156.2610  140.1996  156.6459 H   0  0  0  0  0  0  0  0  0  0  0  0  # atno 8009 bound_to 7997
  154.6554  140.0553  156.9989 H   0  0  0  0  0  0  0  0  0  0  0  0  # atno 8010 bound_to 7997
  140.3707  144.2108  150.6133 H   0  0  0  0  0  0  0  0  0  0  0  0  # atno 10167 bound_to 10162
  157.5269  130.8604  149.8635 H   0  0  0  0  0  0  0  0  0  0  0  0  # atno 10718 bound_to 10713
  154.0504  135.2882  155.3341 H   0  0  0  0  0  0  0  0  0  0  0  0  # atno 10763 bound_to 10752
  154.6873  135.5240  153.8347 H   0  0  0  0  0  0  0  0  0  0  0  0  # atno 10764 bound_to 10752
  153.0563  135.6596  154.0700 H   0  0  0  0  0  0  0  0  0  0  0  0  # atno 10765 bound_to 10752
  140.3045  134.2719  155.7747 H   0  0  0  0  0  0  0  0  0  0  0  0  # atno 11005 bound_to 11000
  145.1904  139.2304  143.5245 LP  0  0  0  0  0  0  0  0  0  0  0  0  # atno 17320 bound_to 7965
  146.3484  140.1699  142.8590 LP  0  0  0  0  0  0  0  0  0  0  0  0  # atno 17321 bound_to 7965
  140.5036  143.2311  151.8642 LP  0  0  0  0  0  0  0  0  0  0  0  0  # atno 17342 bound_to 10162
  139.4804  144.5031  151.9033 LP  0  0  0  0  0  0  0  0  0  0  0  0  # atno 17343 bound_to 10162
  156.0394  130.3743  150.1475 LP  0  0  0  0  0  0  0  0  0  0  0  0  # atno 17370 bound_to 10713
  156.9661  130.9820  151.3469 LP  0  0  0  0  0  0  0  0  0  0  0  0  # atno 17371 bound_to 10713
  141.2121  133.7668  156.9816 LP  0  0  0  0  0  0  0  0  0  0  0  0  # atno 17394 bound_to 11000
  140.1079  134.9495  157.2022 LP  0  0  0  0  0  0  0  0  0  0  0  0  # atno 17395 bound_to 11000

$$$$
