AV-unprocessed.smi:480|AV-procd|sdf|2678|dock8
  -GOLD-   2262023103D 1   1.00000     0.00000
 Structure written by MMmdl.
 47 49  0  0  0  0  0  0  0  0  2 V2000
  149.1614  141.3150  154.4414 C   0  0  0  0  0  0  0  0  0  0  0  0
  150.1233  140.4782  155.2960 C   0  0  0  0  0  0  0  0  0  0  0  0
  150.7029  141.2514  156.4411 C   0  0  0  0  0  0  0  0  0  0  0  0
  150.4674  142.5656  156.7215 N   0  3  0  0  0  0  0  0  0  0  0  0
  151.1880  142.9477  157.8528 C   0  0  0  0  0  0  0  0  0  0  0  0
  151.2570  144.1660  158.5213 C   0  0  0  0  0  0  0  0  0  0  0  0
  152.0986  144.2202  159.6517 C   0  0  0  0  0  0  0  0  0  0  0  0
  152.8320  143.0930  160.0760 C   0  0  0  0  0  0  0  0  0  0  0  0
  152.7543  141.8636  159.3888 C   0  0  0  0  0  0  0  0  0  0  0  0
  151.9170  141.8180  158.2747 C   0  0  0  0  0  0  0  0  0  0  0  0
  151.5892  140.7964  157.3768 N   0  0  0  0  0  0  0  0  0  0  0  0
  152.1912  139.4663  157.5657 C   0  0  0  0  0  0  0  0  0  0  0  0
  151.6716  138.7231  158.8182 C   0  0  2  0  0  0  0  0  0  0  0  0
  152.7738  138.1103  159.4528 O   0  0  0  0  0  0  0  0  0  0  0  0
  150.6057  137.6495  158.5302 C   0  0  0  0  0  0  0  0  0  0  0  0
  149.5811  137.7443  159.5119 O   0  0  0  0  0  0  0  0  0  0  0  0
  148.8869  136.6037  159.8459 C   0  0  0  0  0  0  0  0  0  0  0  0
  148.2830  136.5737  161.1193 C   0  0  0  0  0  0  0  0  0  0  0  0
  147.5392  135.4539  161.5367 C   0  0  0  0  0  0  0  0  0  0  0  0
  147.3975  134.3427  160.6828 C   0  0  0  0  0  0  0  0  0  0  0  0
  146.5993  133.1366  161.1332 C   0  0  0  0  0  0  0  0  0  0  0  0
  145.7642  133.4340  162.3070 C   0  0  0  0  0  0  0  0  0  0  0  0
  145.1067  133.6679  163.2298 N   0  0  0  0  0  0  0  0  0  0  0  0
  148.0063  134.3581  159.4123 C   0  0  0  0  0  0  0  0  0  0  0  0
  148.7482  135.4798  158.9944 C   0  0  0  0  0  0  0  0  0  0  0  0
  148.7435  140.7149  153.6331 H   0  0  0  0  0  0  0  0  0  0  0  0
  149.6661  142.1690  153.9891 H   0  0  0  0  0  0  0  0  0  0  0  0
  148.3294  141.6915  155.0367 H   0  0  0  0  0  0  0  0  0  0  0  0
  149.5920  139.6068  155.6769 H   0  0  0  0  0  0  0  0  0  0  0  0
  150.9405  140.1038  154.6792 H   0  0  0  0  0  0  0  0  0  0  0  0
  150.6970  145.0310  158.1973 H   0  0  0  0  0  0  0  0  0  0  0  0
  152.1842  145.1450  160.2037 H   0  0  0  0  0  0  0  0  0  0  0  0
  153.4670  143.1721  160.9465 H   0  0  0  0  0  0  0  0  0  0  0  0
  153.3195  141.0056  159.7215 H   0  0  0  0  0  0  0  0  0  0  0  0
  151.9830  138.8819  156.6691 H   0  0  0  0  0  0  0  0  0  0  0  0
  153.2754  139.5813  157.6039 H   0  0  0  0  0  0  0  0  0  0  0  0
  151.2596  139.4419  159.5271 H   0  0  0  0  0  0  0  0  0  0  0  0
  152.5445  137.2169  159.6586 H   0  0  0  0  0  0  0  0  0  0  0  0
  150.2175  137.7821  157.5193 H   0  0  0  0  0  0  0  0  0  0  0  0
  151.0461  136.6530  158.5909 H   0  0  0  0  0  0  0  0  0  0  0  0
  148.3839  137.4228  161.7795 H   0  0  0  0  0  0  0  0  0  0  0  0
  147.0792  135.4482  162.5140 H   0  0  0  0  0  0  0  0  0  0  0  0
  145.9502  132.7992  160.3245 H   0  0  0  0  0  0  0  0  0  0  0  0
  147.2666  132.3117  161.3847 H   0  0  0  0  0  0  0  0  0  0  0  0
  147.9080  133.5073  158.7537 H   0  0  0  0  0  0  0  0  0  0  0  0
  149.2065  135.4537  158.0173 H   0  0  0  0  0  0  0  0  0  0  0  0
  149.8500  143.1544  156.1775 H   0  0  0  0  0  0  0  0  0  0  0  0
  1  2  1  0  0  0  0
  1 26  1  0  0  0  0
  1 27  1  0  0  0  0
  1 28  1  0  0  0  0
  2  3  1  0  0  0  0
  2 29  1  0  0  0  0
  2 30  1  0  0  0  0
  3 11  1  0  0  0  0
  3  4  2  0  0  0  0
  4  5  1  0  0  0  0
  4 47  1  0  0  0  0
  5 10  2  0  0  0  0
  5  6  1  0  0  0  0
  6  7  2  0  0  0  0
  6 31  1  0  0  0  0
  7  8  1  0  0  0  0
  7 32  1  0  0  0  0
  8  9  2  0  0  0  0
  8 33  1  0  0  0  0
  9 10  1  0  0  0  0
  9 34  1  0  0  0  0
 10 11  1  0  0  0  0
 11 12  1  0  0  0  0
 12 13  1  0  0  0  0
 12 35  1  0  0  0  0
 12 36  1  0  0  0  0
 13 14  1  0  0  0  0
 13 15  1  0  0  0  0
 13 37  1  0  0  0  0
 14 38  1  0  0  0  0
 15 16  1  0  0  0  0
 15 39  1  0  0  0  0
 15 40  1  0  0  0  0
 16 17  1  0  0  0  0
 17 25  1  0  0  0  0
 17 18  2  0  0  0  0
 18 19  1  0  0  0  0
 18 41  1  0  0  0  0
 19 20  2  0  0  0  0
 19 42  1  0  0  0  0
 20 21  1  0  0  0  0
 20 24  1  0  0  0  0
 21 22  1  0  0  0  0
 21 43  1  0  0  0  0
 21 44  1  0  0  0  0
 22 23  3  0  0  0  0
 24 25  2  0  0  0  0
 24 45  1  0  0  0  0
 25 46  1  0  0  0  0
M  CHG  1   4   1
M  END
> <s_m_source_file>
AV-unprocessed.smi

> <i_m_source_file_index>
480

> <i_lp_mmshare_version>
43012

> <i_f3d_flags>
0

> <s_epik_input>
W2NIXTFbY0hdW2NIXVtjSF1jKGMxMiluKGMobjIpW0NIMl1bQ0gzXSlbQ0gyXVtDQEhdKFtPSF0pW0NIMl1PYzNbY0hdW2NIXWMoW0NIMl1DI04pW2NIXVtjSF0z

> <s_epik_cmdline>
J2VwaWtfcHl0aG9uJywgJy1waCcsICc3LjAnLCAnLXRuJywgJzgnLCAnLW1hJywgJzIwMCcsICctbWV0YWxfYmluZGluZycsICctaW1hZScsICc8aW5maWxlLm1hZT4nLCAnLW9tYWUnLCAnPG91dGZpbGUubWFlPic=

> <r_lp_tautomer_probability>
1

> <r_epik_Ionization_Penalty>
1.03158

> <r_epik_Ionization_Penalty_Charging>
1.03158

> <r_epik_Ionization_Penalty_Neutral>
2.3994e-06

> <r_epik_State_Penalty>
1.08278

> <r_epik_Charging_Adjusted_Penalty>
2.11436

> <i_epik_Tot_Q>
1

> <i_epik_Tot_abs_Q>
1

> <r_epik_Metal_State_Penalty>
5.07177

> <b_epik_Metal_Only>
0

> <s_lp_Force_Field>
OPLS_2005

> <r_lp_Energy>
18.4444

> <b_lp_Chiralities_Consistent>
1

> <s_lp_Variant>
AV-unprocessed.smi:480-3

> <Gold.Version>
5.8.1

> <Gold.Id.Protein>
6NUR|6NUR_protein|mol2

> <Gold.PLP.Fitness>
53.5345

> <Gold.PLP.PLP>
-51.3803

> <Gold.PLP.part.hbond>
-3.0000

> <Gold.PLP.part.metal>
0.0000

> <Gold.PLP.part.buried>
-3.6931

> <Gold.PLP.part.nonpolar>
-43.9476

> <Gold.PLP.part.repulsive>
0.1264

> <Gold.PLP.ligand.clash>
0.0000

> <Gold.PLP.ligand.torsion>
1.9796

> <Gold.PLP.Chemscore.Hbond>
2.0000

> <Gold.PLP.Chemscore.CHOScore>
0.0000

> <Gold.PLP.Chemscore.Metal>
0.0000

> <Gold.Chemscore.Hbonds>
donor molecule, donor type, donor heavy atom, donor atom, acceptor molecule, acceptor atom, score
      L1  H     4    47       P1  8028  2.00

> <Gold.PLP.Chemscore.Internal.Correction>
0.1134

> <Gold.Rescore>
     Score         DG    S(hbond)    S(metal)    S(lipo)     H(rot)  DE(clash)    DE(int)     intcor
     14.80     -16.99       1.00        0.00     128.31       2.67       0.20       1.98       ----

> <Gold.Chemscore.Fitness>
14.8016

> <Gold.Chemscore.DG>
-16.9902

> <Gold.Chemscore.ZeroCoef>
-5.4800

> <Gold.Chemscore.Hbond>
0.9988

> <Gold.Chemscore.Metal>
0.0000

> <Gold.Chemscore.Lipo>
128.3063

> <Gold.Chemscore.Internal_Hbond>
0.0000

> <Gold.Chemscore.DEClash>
0.2042

> <Gold.Chemscore.DEInternal>
1.9844

> <Gold.Chemscore.Rot>
2.6710

> <Gold.Chemscore.Internal.Correction>
   9.000000E+99

> <Gold.Chemscore.Hbonds>
donor molecule, donor type, donor heavy atom, donor atom, acceptor molecule, acceptor atom, score
      L1  H     4    47       P1  8028  0.99

> <Gold.Chemscore.Hbond.Weighted>
-3.3361

> <Gold.Chemscore.Metal.Weighted>
-0.0000

> <Gold.Chemscore.Lipo.Weighted>
-15.0118

> <Gold.Chemscore.Internal_Hbond.Weighted>
0.0000

> <Gold.Chemscore.DEClash.Weighted>
0.2042

> <Gold.Chemscore.DEInternal.Weighted>
1.9844

> <Gold.Chemscore.Rot.Weighted>
6.8377

> <Gold.Chemscore.Internal.Correction.Weighted>
   9.000000E+99

> <Gold.Protein.RotatedTorsions>
[ 6907 6896 6895 6894 ] final  123.40 input  -60.11 | X-H torsion
[ 7974 7965 7964 7962 ] final -177.76 input  175.53 | X-H torsion
[ 8008 7997 7996 7995 ] final -166.69 input   59.86 | X-H torsion
[ 10167 10162 10161 10158 ] final -163.60 input  -65.29 | X-H torsion
[ 10718 10713 10712 10709 ] final -167.25 input   66.30 | X-H torsion
[ 10763 10752 10751 10750 ] final  -68.20 input  -60.55 | X-H torsion
[ 11005 11000 10999 10996 ] final -117.43 input  -57.11 | X-H torsion

> <Gold.Protein.ActiveResidues>
 VAL166  LYS551  ARG553  GLY616  TRP617  ASP618  TYR619  PRO620  LYS621  CYS622 
 ASP623  PHE694  ASN695  SER759  ASP760  ASP761  ALA762  ILE779  LEU786  VAL792 
 PHE793  MET794  SER795  GLU796  ALA797  LYS798  CYS799  TRP800  GLU811  SER814 

> <Gold.Protein.RotatedAtoms>
  152.4165  133.7046  159.6443 H   0  0  0  0  0  0  0  0  0  0  0  0  # atno 6907 bound_to 6896
  150.8042  133.8531  159.3219 H   0  0  0  0  0  0  0  0  0  0  0  0  # atno 6908 bound_to 6896
  151.6259  135.1029  160.0163 H   0  0  0  0  0  0  0  0  0  0  0  0  # atno 6909 bound_to 6896
  144.7128  140.0970  143.6418 H   0  0  0  0  0  0  0  0  0  0  0  0  # atno 7974 bound_to 7965
  155.8673  140.0987  157.1574 H   0  0  0  0  0  0  0  0  0  0  0  0  # atno 8008 bound_to 7997
  154.3994  140.1354  156.4097 H   0  0  0  0  0  0  0  0  0  0  0  0  # atno 8009 bound_to 7997
  155.7790  140.3459  155.5290 H   0  0  0  0  0  0  0  0  0  0  0  0  # atno 8010 bound_to 7997
  139.6309  144.0441  152.2015 H   0  0  0  0  0  0  0  0  0  0  0  0  # atno 10167 bound_to 10162
  156.6797  130.9117  151.3055 H   0  0  0  0  0  0  0  0  0  0  0  0  # atno 10718 bound_to 10713
  154.3856  135.6064  153.5815 H   0  0  0  0  0  0  0  0  0  0  0  0  # atno 10763 bound_to 10752
  152.9788  135.5871  154.4358 H   0  0  0  0  0  0  0  0  0  0  0  0  # atno 10764 bound_to 10752
  154.4134  135.2844  155.2000 H   0  0  0  0  0  0  0  0  0  0  0  0  # atno 10765 bound_to 10752
  141.0355  133.9916  157.3077 H   0  0  0  0  0  0  0  0  0  0  0  0  # atno 11005 bound_to 11000
  145.9571  139.2774  143.1178 LP  0  0  0  0  0  0  0  0  0  0  0  0  # atno 17320 bound_to 7965
  145.9261  140.9081  143.0380 LP  0  0  0  0  0  0  0  0  0  0  0  0  # atno 17321 bound_to 7965
  140.0106  144.6226  150.7650 LP  0  0  0  0  0  0  0  0  0  0  0  0  # atno 17342 bound_to 10162
  140.7438  143.2852  151.3484 LP  0  0  0  0  0  0  0  0  0  0  0  0  # atno 17343 bound_to 10162
  157.7048  130.9373  150.0896 LP  0  0  0  0  0  0  0  0  0  0  0  0  # atno 17370 bound_to 10713
  156.1877  130.3653  149.8951 LP  0  0  0  0  0  0  0  0  0  0  0  0  # atno 17371 bound_to 10713
  139.9238  135.0201  156.8160 LP  0  0  0  0  0  0  0  0  0  0  0  0  # atno 17394 bound_to 11000
  140.6329  133.9889  155.7671 LP  0  0  0  0  0  0  0  0  0  0  0  0  # atno 17395 bound_to 11000

$$$$
