AV-unprocessed.smi:92|AV-procd|sdf|846|dock10
  -GOLD-   2262017283D 1   1.00000     0.00000
 Structure written by MMmdl.
 61 64  0  0  0  0  0  0  0  0  2 V2000
  152.7626  143.3765  162.7508 C   0  0  0  0  0  0  0  0  0  0  0  0
  152.9874  142.1487  161.8569 C   0  0  0  0  0  0  0  0  0  0  0  0
  153.6860  142.4878  160.5882 N   0  3  1  0  0  0  0  0  0  0  0  0
  154.2443  141.3045  159.8859 C   0  0  0  0  0  0  0  0  0  0  0  0
  153.1436  140.4799  159.2002 C   0  0  0  0  0  0  0  0  0  0  0  0
  152.3322  141.3491  158.2174 C   0  0  1  0  0  0  0  0  0  0  0  0
  151.2823  140.5703  157.5447 N   0  0  0  0  0  0  0  0  0  0  0  0
  149.8907  140.6751  157.9774 C   0  0  0  0  0  0  0  0  0  0  0  0
  151.6143  139.4843  156.7924 C   0  0  0  0  0  0  0  0  0  0  0  0
  152.9032  139.3211  156.3900 N   0  0  0  0  0  0  0  0  0  0  0  0
  153.2599  138.2611  155.6601 C   0  0  0  0  0  0  0  0  0  0  0  0
  152.4996  137.2574  155.2232 N   0  0  0  0  0  0  0  0  0  0  0  0
  151.2016  137.4113  155.6109 C   0  0  0  0  0  0  0  0  0  0  0  0
  150.6787  138.4850  156.3893 C   0  0  0  0  0  0  0  0  0  0  0  0
  149.3118  138.3067  156.5706 N   0  0  0  0  0  0  0  0  0  0  0  0
  149.0453  137.1921  155.9476 C   0  0  0  0  0  0  0  0  0  0  0  0
  150.1216  136.5845  155.3423 N   0  0  0  0  0  0  0  0  0  0  0  0
  150.0951  135.3571  154.5950 C   0  0  0  0  0  0  0  0  0  0  0  0
  148.7787  134.6322  154.2954 C   0  0  0  0  0  0  0  0  0  0  0  0
  149.4851  133.2672  154.4749 C   0  0  0  0  0  0  0  0  0  0  0  0
  148.7355  132.2155  155.3144 C   0  0  0  0  0  0  0  0  0  0  0  0
  149.5780  131.1800  155.7795 O   0  0  0  0  0  0  0  0  0  0  0  0
  149.8855  132.5316  153.1781 C   0  0  0  0  0  0  0  0  0  0  0  0
  148.7812  132.1449  152.3848 O   0  0  0  0  0  0  0  0  0  0  0  0
  150.6125  134.0452  155.1947 C   0  0  0  0  0  0  0  0  0  0  0  0
  151.7749  142.6056  158.9326 C   0  0  2  0  0  0  0  0  0  0  0  0
  151.0593  143.5538  157.9543 C   0  0  0  0  0  0  0  0  0  0  0  0
  152.9142  143.3582  159.6598 C   0  0  0  0  0  0  0  0  0  0  0  0
  152.3393  143.0776  163.7100 H   0  0  0  0  0  0  0  0  0  0  0  0
  152.0717  144.0900  162.3034 H   0  0  0  0  0  0  0  0  0  0  0  0
  153.7007  143.8944  162.9524 H   0  0  0  0  0  0  0  0  0  0  0  0
  153.5990  141.4417  162.4186 H   0  0  0  0  0  0  0  0  0  0  0  0
  152.0426  141.6419  161.6613 H   0  0  0  0  0  0  0  0  0  0  0  0
  154.9578  141.6514  159.1370 H   0  0  0  0  0  0  0  0  0  0  0  0
  154.8123  140.6842  160.5800 H   0  0  0  0  0  0  0  0  0  0  0  0
  153.5987  139.6425  158.6708 H   0  0  0  0  0  0  0  0  0  0  0  0
  152.4917  140.0410  159.9558 H   0  0  0  0  0  0  0  0  0  0  0  0
  153.0235  141.7235  157.4612 H   0  0  0  0  0  0  0  0  0  0  0  0
  149.4484  139.6898  158.1299 H   0  0  0  0  0  0  0  0  0  0  0  0
  149.3029  141.2056  157.2282 H   0  0  0  0  0  0  0  0  0  0  0  0
  149.7992  141.2202  158.9159 H   0  0  0  0  0  0  0  0  0  0  0  0
  154.3035  138.2087  155.3876 H   0  0  0  0  0  0  0  0  0  0  0  0
  148.0462  136.7825  155.9124 H   0  0  0  0  0  0  0  0  0  0  0  0
  150.6184  135.5625  153.6600 H   0  0  0  0  0  0  0  0  0  0  0  0
  148.0100  134.8287  155.0434 H   0  0  0  0  0  0  0  0  0  0  0  0
  148.3896  134.8145  153.2933 H   0  0  0  0  0  0  0  0  0  0  0  0
  148.2677  132.6767  156.1849 H   0  0  0  0  0  0  0  0  0  0  0  0
  147.9349  131.7552  154.7342 H   0  0  0  0  0  0  0  0  0  0  0  0
  149.6397  131.2413  156.7204 H   0  0  0  0  0  0  0  0  0  0  0  0
  150.5291  133.1596  152.5610 H   0  0  0  0  0  0  0  0  0  0  0  0
  150.4561  131.6308  153.4068 H   0  0  0  0  0  0  0  0  0  0  0  0
  149.0814  131.5353  151.7279 H   0  0  0  0  0  0  0  0  0  0  0  0
  151.6218  133.7803  154.8780 H   0  0  0  0  0  0  0  0  0  0  0  0
  150.5362  134.0203  156.2820 H   0  0  0  0  0  0  0  0  0  0  0  0
  151.0423  142.2996  159.6786 H   0  0  0  0  0  0  0  0  0  0  0  0
  151.7279  143.8810  157.1574 H   0  0  0  0  0  0  0  0  0  0  0  0
  150.6933  144.4437  158.4672 H   0  0  0  0  0  0  0  0  0  0  0  0
  150.1984  143.0741  157.4882 H   0  0  0  0  0  0  0  0  0  0  0  0
  152.5215  144.2254  160.1892 H   0  0  0  0  0  0  0  0  0  0  0  0
  153.6115  143.7557  158.9209 H   0  0  0  0  0  0  0  0  0  0  0  0
  154.4891  143.0297  160.8740 H   0  0  0  0  0  0  0  0  0  0  0  0
  1  2  1  0  0  0  0
  1 29  1  0  0  0  0
  1 30  1  0  0  0  0
  1 31  1  0  0  0  0
  2  3  1  0  0  0  0
  2 32  1  0  0  0  0
  2 33  1  0  0  0  0
  3 28  1  0  0  0  0
  3  4  1  0  0  0  0
  3 61  1  0  0  0  0
  4  5  1  0  0  0  0
  4 34  1  0  0  0  0
  4 35  1  0  0  0  0
  5  6  1  0  0  0  0
  5 36  1  0  0  0  0
  5 37  1  0  0  0  0
  6  7  1  0  0  0  0
  6 26  1  0  0  0  0
  6 38  1  0  0  0  0
  7  8  1  0  0  0  0
  7  9  1  0  0  0  0
  8 39  1  0  0  0  0
  8 40  1  0  0  0  0
  8 41  1  0  0  0  0
  9 14  1  0  0  0  0
  9 10  2  0  0  0  0
 10 11  1  0  0  0  0
 11 12  2  0  0  0  0
 11 42  1  0  0  0  0
 12 13  1  0  0  0  0
 13 17  1  0  0  0  0
 13 14  2  0  0  0  0
 14 15  1  0  0  0  0
 15 16  2  0  0  0  0
 16 17  1  0  0  0  0
 16 43  1  0  0  0  0
 17 18  1  0  0  0  0
 18 25  1  0  0  0  0
 18 19  1  0  0  0  0
 18 44  1  0  0  0  0
 19 20  1  0  0  0  0
 19 45  1  0  0  0  0
 19 46  1  0  0  0  0
 20 21  1  0  0  0  0
 20 23  1  0  0  0  0
 20 25  1  0  0  0  0
 21 22  1  0  0  0  0
 21 47  1  0  0  0  0
 21 48  1  0  0  0  0
 22 49  1  0  0  0  0
 23 24  1  0  0  0  0
 23 50  1  0  0  0  0
 23 51  1  0  0  0  0
 24 52  1  0  0  0  0
 25 53  1  0  0  0  0
 25 54  1  0  0  0  0
 26 27  1  0  0  0  0
 26 28  1  0  0  0  0
 26 55  1  0  0  0  0
 27 56  1  0  0  0  0
 27 57  1  0  0  0  0
 27 58  1  0  0  0  0
 28 59  1  0  0  0  0
 28 60  1  0  0  0  0
M  CHG  1   3   1
M  END
> <s_m_source_file>
AV-unprocessed.smi

> <i_m_source_file_index>
92

> <i_lp_mmshare_version>
43012

> <i_f3d_flags>
0

> <s_epik_input>
W0NIM11bQ0gyXU4xW0NIMl1bQ0gyXVtDQEhdKFtDQEBIXShbQ0gzXSlbQ0gyXTEpTihbQ0gzXSljKG5bY0hdbjIpYyhjMjMpbltjSF1uM1tDSF0oW0NIMl00KVtDSDJdQzQoW0NIMl1bT0hdKVtDSDJdW09IXQ==

> <s_epik_cmdline>
J2VwaWtfcHl0aG9uJywgJy1waCcsICc3LjAnLCAnLXRuJywgJzgnLCAnLW1hJywgJzIwMCcsICctbWV0YWxfYmluZGluZycsICctaW1hZScsICc8aW5maWxlLm1hZT4nLCAnLW9tYWUnLCAnPG91dGZpbGUubWFlPic=

> <r_lp_tautomer_probability>
1

> <r_epik_Ionization_Penalty>
0.00235514

> <r_epik_Ionization_Penalty_Charging>
0.00137877

> <r_epik_Ionization_Penalty_Neutral>
0.000976366

> <r_epik_State_Penalty>
-0

> <r_epik_Charging_Adjusted_Penalty>
0.00137877

> <i_epik_Tot_Q>
1

> <i_epik_Tot_abs_Q>
1

> <r_epik_Metal_State_Penalty>
-0

> <b_epik_Metal_Only>
0

> <s_lp_Force_Field>
OPLS_2005

> <r_lp_Energy>
55.2069

> <b_lp_Chiralities_Consistent>
1

> <s_lp_Variant>
AV-unprocessed.smi:92-6

> <Gold.Version>
5.8.1

> <Gold.Id.Protein>
6NUR|6NUR_protein|mol2

> <Gold.PLP.Fitness>
50.7988

> <Gold.PLP.PLP>
-43.2187

> <Gold.PLP.part.hbond>
-3.0000

> <Gold.PLP.part.metal>
0.0000

> <Gold.PLP.part.buried>
-3.0413

> <Gold.PLP.part.nonpolar>
-36.2409

> <Gold.PLP.part.repulsive>
0.0464

> <Gold.PLP.ligand.clash>
0.0000

> <Gold.PLP.ligand.torsion>
0.8404

> <Gold.PLP.Chemscore.Hbond>
2.8068

> <Gold.PLP.Chemscore.CHOScore>
0.0000

> <Gold.PLP.Chemscore.Metal>
0.0000

> <Gold.Chemscore.Hbonds>
donor molecule, donor type, donor heavy atom, donor atom, acceptor molecule, acceptor atom, score
      L1  H    24    52       P1 10747  1.00
      P1  H  7997  8008       L1    10  1.00
      P1  H 10752 10765       L1    12  0.64

> <Gold.PLP.Chemscore.Internal.Correction>
0.8407

> <Gold.Rescore>
     Score         DG    S(hbond)    S(metal)    S(lipo)     H(rot)  DE(clash)    DE(int)     intcor
     16.16     -18.87       2.29        0.00     119.52       3.22       0.51       2.21       ----

> <Gold.Chemscore.Fitness>
16.1555

> <Gold.Chemscore.DG>
-18.8745

> <Gold.Chemscore.ZeroCoef>
-5.4800

> <Gold.Chemscore.Hbond>
2.2930

> <Gold.Chemscore.Metal>
0.0000

> <Gold.Chemscore.Lipo>
119.5207

> <Gold.Chemscore.Internal_Hbond>
0.0000

> <Gold.Chemscore.DEClash>
0.5131

> <Gold.Chemscore.DEInternal>
2.2059

> <Gold.Chemscore.Rot>
3.2219

> <Gold.Chemscore.Internal.Correction>
   9.000000E+99

> <Gold.Chemscore.Hbonds>
donor molecule, donor type, donor heavy atom, donor atom, acceptor molecule, acceptor atom, score
      L1  H    24    52       P1 10747  0.62
      P1  H  7997  8008       L1    10  0.34
      P1  H 10752 10765       L1    12  0.60

> <Gold.Chemscore.Hbond.Weighted>
-7.6587

> <Gold.Chemscore.Metal.Weighted>
-0.0000

> <Gold.Chemscore.Lipo.Weighted>
-13.9839

> <Gold.Chemscore.Internal_Hbond.Weighted>
0.0000

> <Gold.Chemscore.DEClash.Weighted>
0.5131

> <Gold.Chemscore.DEInternal.Weighted>
2.2059

> <Gold.Chemscore.Rot.Weighted>
8.2482

> <Gold.Chemscore.Internal.Correction.Weighted>
   9.000000E+99

> <Gold.Protein.RotatedTorsions>
[ 6907 6896 6895 6894 ] final  -74.44 input  -60.11 | X-H torsion
[ 7974 7965 7964 7962 ] final  153.36 input  175.53 | X-H torsion
[ 8008 7997 7996 7995 ] final  -63.18 input   59.86 | X-H torsion
[ 10167 10162 10161 10158 ] final    0.05 input  -65.29 | X-H torsion
[ 10718 10713 10712 10709 ] final   46.73 input   66.30 | X-H torsion
[ 10763 10752 10751 10750 ] final -164.83 input  -60.55 | X-H torsion
[ 11005 11000 10999 10996 ] final  -17.69 input  -57.11 | X-H torsion

> <Gold.Protein.ActiveResidues>
 VAL166  LYS551  ARG553  GLY616  TRP617  ASP618  TYR619  PRO620  LYS621  CYS622 
 ASP623  PHE694  ASN695  SER759  ASP760  ASP761  ALA762  ILE779  LEU786  VAL792 
 PHE793  MET794  SER795  GLU796  ALA797  LYS798  CYS799  TRP800  GLU811  SER814 

> <Gold.Protein.RotatedAtoms>
  150.7093  134.4869  159.5496 H   0  0  0  0  0  0  0  0  0  0  0  0  # atno 6907 bound_to 6896
  152.2494  134.8145  160.0457 H   0  0  0  0  0  0  0  0  0  0  0  0  # atno 6908 bound_to 6896
  151.8898  133.3478  159.3831 H   0  0  0  0  0  0  0  0  0  0  0  0  # atno 6909 bound_to 6896
  144.8160  139.6790  143.6121 H   0  0  0  0  0  0  0  0  0  0  0  0  # atno 7974 bound_to 7965
  154.4540  140.0980  156.6703 H   0  0  0  0  0  0  0  0  0  0  0  0  # atno 8008 bound_to 7997
  155.5196  140.3478  155.4385 H   0  0  0  0  0  0  0  0  0  0  0  0  # atno 8009 bound_to 7997
  156.0740  140.1356  156.9783 H   0  0  0  0  0  0  0  0  0  0  0  0  # atno 8010 bound_to 7997
  140.6746  143.6952  150.7995 H   0  0  0  0  0  0  0  0  0  0  0  0  # atno 10167 bound_to 10162
  157.4512  130.8139  149.7790 H   0  0  0  0  0  0  0  0  0  0  0  0  # atno 10718 bound_to 10713
  154.6990  135.2984  154.9368 H   0  0  0  0  0  0  0  0  0  0  0  0  # atno 10763 bound_to 10752
  154.0306  135.6670  153.4784 H   0  0  0  0  0  0  0  0  0  0  0  0  # atno 10764 bound_to 10752
  153.0667  135.5084  154.8124 H   0  0  0  0  0  0  0  0  0  0  0  0  # atno 10765 bound_to 10752
  140.8193  133.8080  155.9643 H   0  0  0  0  0  0  0  0  0  0  0  0  # atno 11005 bound_to 11000
  146.2463  139.6104  142.9457 LP  0  0  0  0  0  0  0  0  0  0  0  0  # atno 17320 bound_to 7965
  145.5214  141.0431  143.2433 LP  0  0  0  0  0  0  0  0  0  0  0  0  # atno 17321 bound_to 7965
  140.0643  143.5123  152.2612 LP  0  0  0  0  0  0  0  0  0  0  0  0  # atno 17342 bound_to 10162
  139.6031  144.7588  151.3124 LP  0  0  0  0  0  0  0  0  0  0  0  0  # atno 17343 bound_to 10162
  155.9988  130.3892  150.2689 LP  0  0  0  0  0  0  0  0  0  0  0  0  # atno 17370 bound_to 10713
  157.0861  131.0157  151.3139 LP  0  0  0  0  0  0  0  0  0  0  0  0  # atno 17371 bound_to 10713
  140.9115  134.2254  157.4982 LP  0  0  0  0  0  0  0  0  0  0  0  0  # atno 17394 bound_to 11000
  139.8709  134.9752  156.4875 LP  0  0  0  0  0  0  0  0  0  0  0  0  # atno 17395 bound_to 11000

$$$$
