AV-unprocessed.smi:3268|AV-procd|sdf|12509|dock8
  -GOLD-   2272018413D 1   1.00000     0.00000
 Structure written by MMmdl.
 40 41  0  0  0  0  0  0  0  0  2 V2000
  149.6235  137.2760  158.0699 C   0  0  0  0  0  0  0  0  0  0  0  0
  150.5808  138.4808  158.1768 C   0  0  1  0  0  0  0  0  0  0  0  0
  151.7210  138.2556  159.1857 C   0  0  0  0  0  0  0  0  0  0  0  0
  151.8304  137.1864  159.7875 O   0  0  0  0  0  0  0  0  0  0  0  0
  152.5681  139.2816  159.3696 N   0  0  0  0  0  0  0  0  0  0  0  0
  153.7302  139.2553  160.2496 C   0  0  0  0  0  0  0  0  0  0  0  0
  154.6557  140.4627  160.0037 C   0  0  0  0  0  0  0  0  0  0  0  0
  154.0292  141.7502  160.3976 N   0  3  0  0  0  0  0  0  0  0  0  0
  153.4441  141.6926  161.7633 C   0  0  0  0  0  0  0  0  0  0  0  0
  152.9292  143.0717  162.2092 C   0  0  0  0  0  0  0  0  0  0  0  0
  151.9131  143.6306  161.2054 C   0  0  0  0  0  0  0  0  0  0  0  0
  152.5249  143.6504  159.7991 C   0  0  0  0  0  0  0  0  0  0  0  0
  153.0445  142.2576  159.4040 C   0  0  0  0  0  0  0  0  0  0  0  0
  151.1136  138.8613  156.8738 N   0  0  0  0  0  0  0  0  0  0  0  0
  151.0023  140.0093  156.2021 C   0  0  0  0  0  0  0  0  0  0  0  0
  151.6506  140.0222  155.0461 N   0  0  0  0  0  0  0  0  0  0  0  0
  152.1806  138.7634  155.0676 C   0  0  0  0  0  0  0  0  0  0  0  0
  151.8972  138.0291  156.1434 N   0  0  0  0  0  0  0  0  0  0  0  0
  149.1686  137.0458  159.0339 H   0  0  0  0  0  0  0  0  0  0  0  0
  150.1351  136.3775  157.7223 H   0  0  0  0  0  0  0  0  0  0  0  0
  148.8139  137.4849  157.3699 H   0  0  0  0  0  0  0  0  0  0  0  0
  149.9970  139.3264  158.5440 H   0  0  0  0  0  0  0  0  0  0  0  0
  152.4112  140.1278  158.8413 H   0  0  0  0  0  0  0  0  0  0  0  0
  153.4082  139.2257  161.2920 H   0  0  0  0  0  0  0  0  0  0  0  0
  154.2527  138.3187  160.0600 H   0  0  0  0  0  0  0  0  0  0  0  0
  155.6049  140.3370  160.5271 H   0  0  0  0  0  0  0  0  0  0  0  0
  154.8937  140.5000  158.9396 H   0  0  0  0  0  0  0  0  0  0  0  0
  152.6324  140.9634  161.7816 H   0  0  0  0  0  0  0  0  0  0  0  0
  154.1960  141.3476  162.4743 H   0  0  0  0  0  0  0  0  0  0  0  0
  152.4743  142.9984  163.1977 H   0  0  0  0  0  0  0  0  0  0  0  0
  153.7680  143.7623  162.3049 H   0  0  0  0  0  0  0  0  0  0  0  0
  151.0132  143.0141  161.2081 H   0  0  0  0  0  0  0  0  0  0  0  0
  151.6056  144.6352  161.4979 H   0  0  0  0  0  0  0  0  0  0  0  0
  151.7839  143.9916  159.0757 H   0  0  0  0  0  0  0  0  0  0  0  0
  153.3441  144.3701  159.7654 H   0  0  0  0  0  0  0  0  0  0  0  0
  153.4970  142.3228  158.4156 H   0  0  0  0  0  0  0  0  0  0  0  0
  152.2125  141.5562  159.3240 H   0  0  0  0  0  0  0  0  0  0  0  0
  150.4385  140.8550  156.5679 H   0  0  0  0  0  0  0  0  0  0  0  0
  152.7984  138.3792  154.2695 H   0  0  0  0  0  0  0  0  0  0  0  0
  154.7772  142.4277  160.4432 H   0  0  0  0  0  0  0  0  0  0  0  0
  1  2  1  0  0  0  0
  1 19  1  0  0  0  0
  1 20  1  0  0  0  0
  1 21  1  0  0  0  0
  2  3  1  0  0  0  0
  2 14  1  0  0  0  0
  2 22  1  0  0  0  0
  3  4  2  0  0  0  0
  3  5  1  0  0  0  0
  5  6  1  0  0  0  0
  5 23  1  0  0  0  0
  6  7  1  0  0  0  0
  6 24  1  0  0  0  0
  6 25  1  0  0  0  0
  7  8  1  0  0  0  0
  7 26  1  0  0  0  0
  7 27  1  0  0  0  0
  8 13  1  0  0  0  0
  8  9  1  0  0  0  0
  8 40  1  0  0  0  0
  9 10  1  0  0  0  0
  9 28  1  0  0  0  0
  9 29  1  0  0  0  0
 10 11  1  0  0  0  0
 10 30  1  0  0  0  0
 10 31  1  0  0  0  0
 11 12  1  0  0  0  0
 11 32  1  0  0  0  0
 11 33  1  0  0  0  0
 12 13  1  0  0  0  0
 12 34  1  0  0  0  0
 12 35  1  0  0  0  0
 13 36  1  0  0  0  0
 13 37  1  0  0  0  0
 14 18  1  0  0  0  0
 14 15  1  0  0  0  0
 15 16  2  0  0  0  0
 15 38  1  0  0  0  0
 16 17  1  0  0  0  0
 17 18  2  0  0  0  0
 17 39  1  0  0  0  0
M  CHG  1   8   1
M  END
> <s_m_source_file>
AV-unprocessed.smi

> <i_m_source_file_index>
3268

> <i_lp_mmshare_version>
43012

> <i_f3d_flags>
0

> <s_epik_input>
bjFbY0hdbltjSF1uMVtDQEhdKFtDSDNdKUMoPU8pW05IXVtDSDJdW0NIMl1OMltDSDJdW0NIMl1bQ0gyXVtDSDJdW0NIMl0y

> <s_epik_cmdline>
J2VwaWtfcHl0aG9uJywgJy1waCcsICc3LjAnLCAnLXRuJywgJzgnLCAnLW1hJywgJzIwMCcsICctbWV0YWxfYmluZGluZycsICctaW1hZScsICc8aW5maWxlLm1hZT4nLCAnLW9tYWUnLCAnPG91dGZpbGUubWFlPic=

> <r_lp_tautomer_probability>
1

> <r_epik_Ionization_Penalty>
0.00266407

> <r_epik_Ionization_Penalty_Charging>
0.00265606

> <r_epik_Ionization_Penalty_Neutral>
8.01095e-06

> <r_epik_State_Penalty>
0.00184955

> <r_epik_Charging_Adjusted_Penalty>
0.00450561

> <i_epik_Tot_Q>
1

> <i_epik_Tot_abs_Q>
1

> <r_epik_Metal_State_Penalty>
-0

> <b_epik_Metal_Only>
0

> <s_lp_Force_Field>
OPLS_2005

> <r_lp_Energy>
21.812

> <b_lp_Chiralities_Consistent>
1

> <s_lp_Variant>
AV-unprocessed.smi:3268-2

> <Gold.Version>
5.8.1

> <Gold.Id.Protein>
6NUR|6NUR_protein|mol2

> <Gold.PLP.Fitness>
42.2552

> <Gold.PLP.PLP>
-36.9651

> <Gold.PLP.part.hbond>
-1.9171

> <Gold.PLP.part.metal>
0.0000

> <Gold.PLP.part.buried>
-6.7819

> <Gold.PLP.part.nonpolar>
-29.2021

> <Gold.PLP.part.repulsive>
0.1823

> <Gold.PLP.ligand.clash>
0.0000

> <Gold.PLP.ligand.torsion>
0.2376

> <Gold.PLP.Chemscore.Hbond>
1.8775

> <Gold.PLP.Chemscore.CHOScore>
0.0000

> <Gold.PLP.Chemscore.Metal>
0.0000

> <Gold.Chemscore.Hbonds>
donor molecule, donor type, donor heavy atom, donor atom, acceptor molecule, acceptor atom, score
      P1  H  6896  6909       L1     4  0.93
      P1  H  7989  7998       L1    16  1.00

> <Gold.PLP.Chemscore.Internal.Correction>
0.1328

> <Gold.Rescore>
     Score         DG    S(hbond)    S(metal)    S(lipo)     H(rot)  DE(clash)    DE(int)     intcor
     14.36     -14.66       1.99        0.00      77.99       2.57       0.01       0.30       ----

> <Gold.Chemscore.Fitness>
14.3585

> <Gold.Chemscore.DG>
-14.6616

> <Gold.Chemscore.ZeroCoef>
-5.4800

> <Gold.Chemscore.Hbond>
1.9860

> <Gold.Chemscore.Metal>
0.0000

> <Gold.Chemscore.Lipo>
77.9916

> <Gold.Chemscore.Internal_Hbond>
0.0000

> <Gold.Chemscore.DEClash>
0.0073

> <Gold.Chemscore.DEInternal>
0.2958

> <Gold.Chemscore.Rot>
2.5690

> <Gold.Chemscore.Internal.Correction>
   9.000000E+99

> <Gold.Chemscore.Hbonds>
donor molecule, donor type, donor heavy atom, donor atom, acceptor molecule, acceptor atom, score
      P1  H  6896  6909       L1     4  0.88
      P1  H  7989  7998       L1    16  0.90

> <Gold.Chemscore.Hbond.Weighted>
-6.6331

> <Gold.Chemscore.Metal.Weighted>
-0.0000

> <Gold.Chemscore.Lipo.Weighted>
-9.1250

> <Gold.Chemscore.Internal_Hbond.Weighted>
0.0000

> <Gold.Chemscore.DEClash.Weighted>
0.0073

> <Gold.Chemscore.DEInternal.Weighted>
0.2958

> <Gold.Chemscore.Rot.Weighted>
6.5766

> <Gold.Chemscore.Internal.Correction.Weighted>
   9.000000E+99

> <Gold.Protein.RotatedTorsions>
[ 6907 6896 6895 6894 ] final  111.66 input  -60.11 | X-H torsion
[ 7974 7965 7964 7962 ] final  105.05 input  175.53 | X-H torsion
[ 8008 7997 7996 7995 ] final  -38.05 input   59.86 | X-H torsion
[ 10167 10162 10161 10158 ] final -110.39 input  -65.29 | X-H torsion
[ 10718 10713 10712 10709 ] final   51.72 input   66.30 | X-H torsion
[ 10763 10752 10751 10750 ] final  138.03 input  -60.55 | X-H torsion
[ 11005 11000 10999 10996 ] final  -17.93 input  -57.11 | X-H torsion

> <Gold.Protein.ActiveResidues>
 VAL166  LYS551  ARG553  GLY616  TRP617  ASP618  TYR619  PRO620  LYS621  CYS622 
 ASP623  PHE694  ASN695  SER759  ASP760  ASP761  ALA762  ILE779  LEU786  VAL792 
 PHE793  MET794  SER795  GLU796  ALA797  LYS798  CYS799  TRP800  GLU811  SER814 

> <Gold.Protein.RotatedAtoms>
  152.4957  133.8626  159.7257 H   0  0  0  0  0  0  0  0  0  0  0  0  # atno 6907 bound_to 6896
  150.9133  133.6961  159.2856 H   0  0  0  0  0  0  0  0  0  0  0  0  # atno 6908 bound_to 6896
  151.4363  135.1019  159.9709 H   0  0  0  0  0  0  0  0  0  0  0  0  # atno 6909 bound_to 6896
  145.3247  139.2503  143.3693 H   0  0  0  0  0  0  0  0  0  0  0  0  # atno 7974 bound_to 7965
  154.4043  140.1588  156.2636 H   0  0  0  0  0  0  0  0  0  0  0  0  # atno 8008 bound_to 7997
  155.9015  140.3433  155.6007 H   0  0  0  0  0  0  0  0  0  0  0  0  # atno 8009 bound_to 7997
  155.7442  140.0796  157.2222 H   0  0  0  0  0  0  0  0  0  0  0  0  # atno 8010 bound_to 7997
  140.1449  143.4247  152.1536 H   0  0  0  0  0  0  0  0  0  0  0  0  # atno 10167 bound_to 10162
  157.5007  130.8436  149.8313 H   0  0  0  0  0  0  0  0  0  0  0  0  # atno 10718 bound_to 10713
  153.8828  135.3042  155.3445 H   0  0  0  0  0  0  0  0  0  0  0  0  # atno 10763 bound_to 10752
  154.7753  135.4864  153.9735 H   0  0  0  0  0  0  0  0  0  0  0  0  # atno 10764 bound_to 10752
  153.1342  135.6810  153.9227 H   0  0  0  0  0  0  0  0  0  0  0  0  # atno 10765 bound_to 10752
  140.8217  133.8063  155.9666 H   0  0  0  0  0  0  0  0  0  0  0  0  # atno 11005 bound_to 11000
  146.3069  140.3812  142.8684 LP  0  0  0  0  0  0  0  0  0  0  0  0  # atno 17320 bound_to 7965
  144.8911  140.7525  143.5926 LP  0  0  0  0  0  0  0  0  0  0  0  0  # atno 17321 bound_to 7965
  139.5454  144.7293  151.4601 LP  0  0  0  0  0  0  0  0  0  0  0  0  # atno 17342 bound_to 10162
  140.6738  143.8236  150.7032 LP  0  0  0  0  0  0  0  0  0  0  0  0  # atno 17343 bound_to 10162
  156.0228  130.3790  150.1912 LP  0  0  0  0  0  0  0  0  0  0  0  0  # atno 17370 bound_to 10713
  157.0102  130.9948  151.3368 LP  0  0  0  0  0  0  0  0  0  0  0  0  # atno 17371 bound_to 10713
  140.9092  134.2282  157.4996 LP  0  0  0  0  0  0  0  0  0  0  0  0  # atno 17394 bound_to 11000
  139.8708  134.9742  156.4837 LP  0  0  0  0  0  0  0  0  0  0  0  0  # atno 17395 bound_to 11000

$$$$
