AV-unprocessed.smi:1525|AV-procd|sdf|6145|dock3
  -GOLD-   22720 6293D 1   1.00000     0.00000
 Structure written by MMmdl.
 49 51  0  0  0  0  0  0  0  0  4 V2000
  147.2197  132.3062  152.9866 O   0  0  0  0  0  0  0  0  0  0  0  0
  146.8639  133.4757  153.1720 C   0  0  0  0  0  0  0  0  0  0  0  0
  147.2496  134.3155  154.1692 N   0  5  0  0  0  0  0  0  0  0  0  0
  148.6235  134.4761  154.6418 C   0  0  0  0  0  0  0  0  0  0  0  0
  148.7512  135.7763  155.4617 C   0  0  0  0  0  0  0  0  0  0  0  0
  149.3565  136.8787  154.6690 N   0  3  0  0  0  0  0  0  0  0  0  0
  148.5872  138.1500  154.7194 C   0  0  0  0  0  0  0  0  0  0  0  0
  149.2466  139.2111  153.8235 C   0  0  0  0  0  0  0  0  0  0  0  0
  150.5950  139.4091  154.2308 O   0  0  0  0  0  0  0  0  0  0  0  0
  151.3674  138.2211  154.1105 C   0  0  0  0  0  0  0  0  0  0  0  0
  150.7776  137.1256  155.0142 C   0  0  0  0  0  0  0  0  0  0  0  0
  146.0045  134.0656  152.3251 N   0  0  0  0  0  0  0  0  0  0  0  0
  145.4343  133.5442  151.1315 C   0  0  0  0  0  0  0  0  0  0  0  0
  146.0121  132.4427  150.4519 C   0  0  0  0  0  0  0  0  0  0  0  0
  145.3934  131.9322  149.2940 C   0  0  0  0  0  0  0  0  0  0  0  0
  144.1993  132.5222  148.8406 C   0  0  0  0  0  0  0  0  0  0  0  0
  143.6646  133.5588  149.5194 N   0  3  0  0  0  0  0  0  0  0  0  0
  144.2184  134.0900  150.6329 C   0  0  0  0  0  0  0  0  0  0  0  0
  143.5213  135.1687  151.2037 N   0  0  0  0  0  0  0  0  0  0  0  0
  144.2945  136.3785  151.4691 C   0  0  0  0  0  0  0  0  0  0  0  0
  144.0296  136.7524  152.9307 C   0  0  0  0  0  0  0  0  0  0  0  0
  142.6727  136.1177  153.2152 C   0  0  0  0  0  0  0  0  0  0  0  0
  142.7085  134.8452  152.3698 C   0  0  0  0  0  0  0  0  0  0  0  0
  148.9547  133.6339  155.2511 H   0  0  0  0  0  0  0  0  0  0  0  0
  149.3199  134.5166  153.8041 H   0  0  0  0  0  0  0  0  0  0  0  0
  147.7829  136.0863  155.8581 H   0  0  0  0  0  0  0  0  0  0  0  0
  149.3778  135.5683  156.3306 H   0  0  0  0  0  0  0  0  0  0  0  0
  147.5597  137.9853  154.3933 H   0  0  0  0  0  0  0  0  0  0  0  0
  148.5410  138.5098  155.7485 H   0  0  0  0  0  0  0  0  0  0  0  0
  149.2093  138.9132  152.7743 H   0  0  0  0  0  0  0  0  0  0  0  0
  148.7106  140.1567  153.9053 H   0  0  0  0  0  0  0  0  0  0  0  0
  151.3945  137.8940  153.0697 H   0  0  0  0  0  0  0  0  0  0  0  0
  152.3950  138.4362  154.4034 H   0  0  0  0  0  0  0  0  0  0  0  0
  150.8545  137.4200  156.0621 H   0  0  0  0  0  0  0  0  0  0  0  0
  151.3524  136.2064  154.8940 H   0  0  0  0  0  0  0  0  0  0  0  0
  145.8422  135.0476  152.4939 H   0  0  0  0  0  0  0  0  0  0  0  0
  146.9146  131.9727  150.8127 H   0  0  0  0  0  0  0  0  0  0  0  0
  145.8265  131.0952  148.7662 H   0  0  0  0  0  0  0  0  0  0  0  0
  143.6558  132.1951  147.9662 H   0  0  0  0  0  0  0  0  0  0  0  0
  145.3604  136.2594  151.2703 H   0  0  0  0  0  0  0  0  0  0  0  0
  143.9264  137.1635  150.8081 H   0  0  0  0  0  0  0  0  0  0  0  0
  144.7877  136.3035  153.5736 H   0  0  0  0  0  0  0  0  0  0  0  0
  144.0422  137.8291  153.1015 H   0  0  0  0  0  0  0  0  0  0  0  0
  142.5064  135.9200  154.2745 H   0  0  0  0  0  0  0  0  0  0  0  0
  141.8765  136.7751  152.8632 H   0  0  0  0  0  0  0  0  0  0  0  0
  141.7060  134.5382  152.0710 H   0  0  0  0  0  0  0  0  0  0  0  0
  143.1499  134.0256  152.9378 H   0  0  0  0  0  0  0  0  0  0  0  0
  149.3516  136.5650  153.7087 H   0  0  0  0  0  0  0  0  0  0  0  0
  142.7954  133.9658  149.1733 H   0  0  0  0  0  0  0  0  0  0  0  0
  1  2  2  0  0  0  0
  2  3  1  0  0  0  0
  2 12  1  0  0  0  0
  3  4  1  0  0  0  0
  4  5  1  0  0  0  0
  4 24  1  0  0  0  0
  4 25  1  0  0  0  0
  5  6  1  0  0  0  0
  5 26  1  0  0  0  0
  5 27  1  0  0  0  0
  6 11  1  0  0  0  0
  6  7  1  0  0  0  0
  6 48  1  0  0  0  0
  7  8  1  0  0  0  0
  7 28  1  0  0  0  0
  7 29  1  0  0  0  0
  8  9  1  0  0  0  0
  8 30  1  0  0  0  0
  8 31  1  0  0  0  0
  9 10  1  0  0  0  0
 10 11  1  0  0  0  0
 10 32  1  0  0  0  0
 10 33  1  0  0  0  0
 11 34  1  0  0  0  0
 11 35  1  0  0  0  0
 12 13  1  0  0  0  0
 12 36  1  0  0  0  0
 13 18  1  0  0  0  0
 13 14  2  0  0  0  0
 14 15  1  0  0  0  0
 14 37  1  0  0  0  0
 15 16  2  0  0  0  0
 15 38  1  0  0  0  0
 16 17  1  0  0  0  0
 16 39  1  0  0  0  0
 17 18  2  0  0  0  0
 17 49  1  0  0  0  0
 18 19  1  0  0  0  0
 19 23  1  0  0  0  0
 19 20  1  0  0  0  0
 20 21  1  0  0  0  0
 20 40  1  0  0  0  0
 20 41  1  0  0  0  0
 21 22  1  0  0  0  0
 21 42  1  0  0  0  0
 21 43  1  0  0  0  0
 22 23  1  0  0  0  0
 22 44  1  0  0  0  0
 22 45  1  0  0  0  0
 23 46  1  0  0  0  0
 23 47  1  0  0  0  0
M  CHG  1   3  -1
M  CHG  1   6   1
M  CHG  1  17   1
M  END
> <s_m_source_file>
AV-unprocessed.smi

> <i_m_source_file_index>
1525

> <i_lp_mmshare_version>
43012

> <i_f3d_flags>
0

> <s_epik_input>
W0NIMl0xW0NIMl1PW0NIMl1bQ0gyXU4xW0NIMl1bQ0gyXVtOSF1DKD1PKVtOSF1jMltjSF1bY0hdW2NIXW5jMk4zW0NIMl1bQ0gyXVtDSDJdW0NIMl0z

> <s_epik_cmdline>
J2VwaWtfcHl0aG9uJywgJy1waCcsICc3LjAnLCAnLXRuJywgJzgnLCAnLW1hJywgJzIwMCcsICctbWV0YWxfYmluZGluZycsICctaW1hZScsICc8aW5maWxlLm1hZT4nLCAnLW9tYWUnLCAnPG91dGZpbGUubWFlPic=

> <r_lp_tautomer_probability>
0.999994

> <r_epik_Ionization_Penalty>
8.59159

> <r_epik_Ionization_Penalty_Charging>
8.59159

> <r_epik_Ionization_Penalty_Neutral>
3.55275e-06

> <r_epik_State_Penalty>
8.58545

> <r_epik_Charging_Adjusted_Penalty>
17.177

> <i_epik_Tot_Q>
1

> <i_epik_Tot_abs_Q>
3

> <r_epik_Metal_State_Penalty>
4.58086

> <b_epik_Metal_Only>
1

> <s_lp_Force_Field>
OPLS_2005

> <r_lp_Energy>
45.7376

> <b_lp_Chiralities_Consistent>
1

> <s_lp_Variant>
AV-unprocessed.smi:1525-5

> <Gold.Version>
5.8.1

> <Gold.Id.Protein>
6NUR|6NUR_protein|mol2

> <Gold.PLP.Fitness>
48.8022

> <Gold.PLP.PLP>
-37.2617

> <Gold.PLP.part.hbond>
-3.0000

> <Gold.PLP.part.metal>
0.0000

> <Gold.PLP.part.buried>
-5.7150

> <Gold.PLP.part.nonpolar>
-28.5834

> <Gold.PLP.part.repulsive>
0.6426

> <Gold.PLP.ligand.clash>
0.0000

> <Gold.PLP.ligand.torsion>
1.8540

> <Gold.PLP.Chemscore.Hbond>
5.0000

> <Gold.PLP.Chemscore.CHOScore>
0.0000

> <Gold.PLP.Chemscore.Metal>
0.0000

> <Gold.Chemscore.Hbonds>
donor molecule, donor type, donor heavy atom, donor atom, acceptor molecule, acceptor atom, score
      L1  H     6    48       P1  7948  2.00
      L1  H    17    49       P1 10186  1.92
      P1  H  7989  7998       L1     9  1.00

> <Gold.PLP.Chemscore.Internal.Correction>
0.2485

> <Gold.Rescore>
     Score         DG    S(hbond)    S(metal)    S(lipo)     H(rot)  DE(clash)    DE(int)     intcor
     14.99     -18.12       1.99        0.00      87.53       1.66       0.21       2.92       ----

> <Gold.Chemscore.Fitness>
14.9908

> <Gold.Chemscore.DG>
-18.1210

> <Gold.Chemscore.ZeroCoef>
-5.4800

> <Gold.Chemscore.Hbond>
1.9935

> <Gold.Chemscore.Metal>
0.0000

> <Gold.Chemscore.Lipo>
87.5267

> <Gold.Chemscore.Internal_Hbond>
0.0000

> <Gold.Chemscore.DEClash>
0.2129

> <Gold.Chemscore.DEInternal>
2.9174

> <Gold.Chemscore.Rot>
1.6632

> <Gold.Chemscore.Internal.Correction>
   9.000000E+99

> <Gold.Chemscore.Hbonds>
donor molecule, donor type, donor heavy atom, donor atom, acceptor molecule, acceptor atom, score
      L1  H     6    48       P1  7948  0.90
      L1  H    17    49       P1 10186  0.92
      P1  H  7989  7998       L1     9  0.63

> <Gold.Chemscore.Hbond.Weighted>
-6.6581

> <Gold.Chemscore.Metal.Weighted>
-0.0000

> <Gold.Chemscore.Lipo.Weighted>
-10.2406

> <Gold.Chemscore.Internal_Hbond.Weighted>
0.0000

> <Gold.Chemscore.DEClash.Weighted>
0.2129

> <Gold.Chemscore.DEInternal.Weighted>
2.9174

> <Gold.Chemscore.Rot.Weighted>
4.2577

> <Gold.Chemscore.Internal.Correction.Weighted>
   9.000000E+99

> <Gold.Protein.RotatedTorsions>
[ 6907 6896 6895 6894 ] final  152.64 input  -60.11 | X-H torsion
[ 7974 7965 7964 7962 ] final  109.79 input  175.53 | X-H torsion
[ 8008 7997 7996 7995 ] final -155.95 input   59.86 | X-H torsion
[ 10167 10162 10161 10158 ] final   44.87 input  -65.29 | X-H torsion
[ 10718 10713 10712 10709 ] final   28.15 input   66.30 | X-H torsion
[ 10763 10752 10751 10750 ] final  107.88 input  -60.55 | X-H torsion
[ 11005 11000 10999 10996 ] final  -71.49 input  -57.11 | X-H torsion

> <Gold.Protein.ActiveResidues>
 VAL166  LYS551  ARG553  GLY616  TRP617  ASP618  TYR619  PRO620  LYS621  CYS622 
 ASP623  PHE694  ASN695  SER759  ASP760  ASP761  ALA762  ILE779  LEU786  VAL792 
 PHE793  MET794  SER795  GLU796  ALA797  LYS798  CYS799  TRP800  GLU811  SER814 

> <Gold.Protein.RotatedAtoms>
  152.0840  133.4167  159.4513 H   0  0  0  0  0  0  0  0  0  0  0  0  # atno 6907 bound_to 6896
  150.6862  134.2950  159.4691 H   0  0  0  0  0  0  0  0  0  0  0  0  # atno 6908 bound_to 6896
  152.0794  134.9480  160.0624 H   0  0  0  0  0  0  0  0  0  0  0  0  # atno 6909 bound_to 6896
  145.2633  139.2694  143.4005 H   0  0  0  0  0  0  0  0  0  0  0  0  # atno 7974 bound_to 7965
  155.7096  140.0776  157.2376 H   0  0  0  0  0  0  0  0  0  0  0  0  # atno 8008 bound_to 7997
  154.4060  140.1632  156.2335 H   0  0  0  0  0  0  0  0  0  0  0  0  # atno 8009 bound_to 7997
  155.9294  140.3392  155.6240 H   0  0  0  0  0  0  0  0  0  0  0  0  # atno 8010 bound_to 7997
  140.3299  144.2602  150.6169 H   0  0  0  0  0  0  0  0  0  0  0  0  # atno 10167 bound_to 10162
  157.2296  130.7017  149.6307 H   0  0  0  0  0  0  0  0  0  0  0  0  # atno 10718 bound_to 10713
  153.4128  135.3830  155.2061 H   0  0  0  0  0  0  0  0  0  0  0  0  # atno 10763 bound_to 10752
  154.8739  135.3798  154.4479 H   0  0  0  0  0  0  0  0  0  0  0  0  # atno 10764 bound_to 10752
  153.4990  135.7088  153.5904 H   0  0  0  0  0  0  0  0  0  0  0  0  # atno 10765 bound_to 10752
  141.1593  133.6819  156.6914 H   0  0  0  0  0  0  0  0  0  0  0  0  # atno 11005 bound_to 11000
  146.3268  140.3056  142.8623 LP  0  0  0  0  0  0  0  0  0  0  0  0  # atno 17320 bound_to 7965
  144.9399  140.8067  143.5637 LP  0  0  0  0  0  0  0  0  0  0  0  0  # atno 17321 bound_to 7965
  140.5407  143.2224  151.8089 LP  0  0  0  0  0  0  0  0  0  0  0  0  # atno 17342 bound_to 10162
  139.4858  144.4604  151.9548 LP  0  0  0  0  0  0  0  0  0  0  0  0  # atno 17343 bound_to 10162
  155.9676  130.4493  150.5653 LP  0  0  0  0  0  0  0  0  0  0  0  0  # atno 17370 bound_to 10713
  157.3492  131.0730  151.1727 LP  0  0  0  0  0  0  0  0  0  0  0  0  # atno 17371 bound_to 10713
  140.3028  134.8150  157.4111 LP  0  0  0  0  0  0  0  0  0  0  0  0  # atno 17394 bound_to 11000
  140.1247  134.5173  155.8154 LP  0  0  0  0  0  0  0  0  0  0  0  0  # atno 17395 bound_to 11000

$$$$
