#       Name:                AV-unprocessed.smi:334
#       Creating user name   scv26
#       Creation time:       Thu Mar 26 22:27:39 2020


#       File generated by GOLD software.
#

@<TRIPOS>MOLECULE
AV-unprocessed.smi:334
    50    52     1
SMALL
NO_CHARGES


@<TRIPOS>ATOM
      1 ****        -1.5693   0.7752  -3.0248 C.3            1 S1                 0.0000
      2 ****        -1.3272   0.4431  -1.5429 C.3            1 S1                 0.0000
      3 ****         0.0255  -0.0974  -1.4131 N.am           1 S1                 0.0000
      4 ****         0.9897   0.3703  -0.6049 C.2            1 S1                 0.0000
      5 ****         0.8332   1.3269   0.1551 O.2            1 S1                 0.0000
      6 ****         2.3252  -0.3855  -0.6555 C.3            1 S1                 0.0000
      7 ****         3.4367   0.3477  -0.0267 N.am           1 S1                 0.0000
      8 ****         3.7359   0.0299   1.3130 C.2            1 S1                 0.0000
      9 ****         4.7273   0.6420   1.9898 C.2            1 S1                 0.0000
     10 ****         5.0166   0.3073   3.3670 N.pl3          1 S1                 1.0000
     11 ****         5.9286   0.8976   3.9369 O.2            1 S1                 0.0000
     12 ****         4.3445  -0.5553   3.9243 O.2            1 S1                -1.0000
     13 ****         5.4952   1.6546   1.2913 C.2            1 S1                 0.0000
     14 ****         5.2113   1.9659   0.0113 C.2            1 S1                 0.0000
     15 ****         4.1283   1.3021  -0.7216 C.2            1 S1                 0.0000
     16 ****         3.8591   1.5875  -1.8887 O.2            1 S1                 0.0000
     17 ****        -2.3680  -0.5626  -0.9880 C.3            1 S1                 0.0000
     18 ****        -3.8133  -0.0061  -0.9700 C.3            1 S1                 0.0000
     19 ****        -4.2577  -0.2132   0.4887 C.3            1 S1                 0.0000
     20 ****        -4.4390  -1.7167   0.7644 C.3            1 S1                 0.0000
     21 ****        -2.9877  -2.2302   0.7953 C.3            1 S1                 0.0000
     22 ****        -2.1699  -0.9583   0.4993 C.3            1 S1                 0.0000
     23 ****        -2.9744   0.0998   1.2465 C.3            1 S1                 0.0000
     24 ****        -2.5463   1.2319  -3.1819 H              1 S1                 0.0000
     25 ****        -1.5186  -0.1197  -3.6461 H              1 S1                 0.0000
     26 ****        -0.8219   1.4783  -3.3941 H              1 S1                 0.0000
     27 ****        -1.4092   1.3754  -0.9821 H              1 S1                 0.0000
     28 ****         0.2475  -0.8940  -1.9927 H              1 S1                 0.0000
     29 ****         2.1861  -1.3541  -0.1729 H              1 S1                 0.0000
     30 ****         2.5666  -0.6188  -1.6944 H              1 S1                 0.0000
     31 ****         3.1021  -0.7314   1.7451 H              1 S1                 0.0000
     32 ****         6.3025   2.1710   1.7890 H              1 S1                 0.0000
     33 ****         5.7953   2.7239  -0.4898 H              1 S1                 0.0000
     34 ****        -2.3283  -1.4611  -1.6060 H              1 S1                 0.0000
     35 ****        -3.8367   1.0574  -1.2105 H              1 S1                 0.0000
     36 ****        -4.4639  -0.5181  -1.6799 H              1 S1                 0.0000
     37 ****        -5.1198   0.3910   0.7725 H              1 S1                 0.0000
     38 ****        -4.9247  -1.8809   1.7271 H              1 S1                 0.0000
     39 ****        -5.0389  -2.2081  -0.0026 H              1 S1                 0.0000
     40 ****        -2.7438  -2.6249   1.7825 H              1 S1                 0.0000
     41 ****        -2.8087  -3.0227   0.0678 H              1 S1                 0.0000
     42 ****        -1.1314  -1.0475   0.8165 H              1 S1                 0.0000
     43 ****        -2.6118   1.1168   1.0882 H              1 S1                 0.0000
     44 ****        -3.0478  -0.0897   2.3190 H              1 S1                 0.0000
     45 ****        -0.0483   1.7976   0.1915 LP             1 S1                 0.0000
     46 ****         1.5877   1.6329   0.7357 LP             1 S1                 0.0000
     47 ****         6.4549   1.5944   3.4494 LP             1 S1                 0.0000
     48 ****         6.1458   0.6821   4.8889 LP             1 S1                 0.0000
     49 ****         3.1135   1.1160  -2.3595 LP             1 S1                 0.0000
     50 ****         4.3861   2.2908  -2.3658 LP             1 S1                 0.0000
@<TRIPOS>BOND
    1    1    2 1     
    2    1   24 1     
    3    1   25 1     
    4    1   26 1     
    5    2    3 1     
    6    2   17 1     
    7    2   27 1     
    8    3    4 am    
    9    3   28 1     
   10    4    5 2     
   11    4    6 1     
   12    6    7 1     
   13    6   29 1     
   14    6   30 1     
   15    7   15 am    
   16    7    8 1     
   17    8    9 2     
   18    8   31 1     
   19    9   10 1     
   20    9   13 1     
   21   10   11 2     
   22   10   12 1     
   23   13   14 2     
   24   13   32 1     
   25   14   15 1     
   26   14   33 1     
   27   15   16 2     
   28   17   22 1     
   29   17   18 1     
   30   17   34 1     
   31   18   19 1     
   32   18   35 1     
   33   18   36 1     
   34   19   23 1     
   35   19   20 1     
   36   19   37 1     
   37   20   21 1     
   38   20   38 1     
   39   20   39 1     
   40   21   22 1     
   41   21   40 1     
   42   21   41 1     
   43   22   23 1     
   44   22   42 1     
   45   23   43 1     
   46   23   44 1     
   47    5   45 1     
   48    5   46 1     
   49   11   47 1     
   50   11   48 1     
   51   16   49 1     
   52   16   50 1     
@<TRIPOS>SUBSTRUCTURE
      1 S1             1
@<TRIPOS>SET
LONE_PAIRS      STATIC     ATOMS    <user>   **** ""
7 45 46 47 48 12 49 50
DONOR_HYDROGENS      STATIC     ATOMS    <user>   **** ""
1 28
ATOM$BLUE        STATIC     ATOMS    COLORGROUP SYSTEM
7 45 46 47 48 12 49 50
ATOM$RED        STATIC     ATOMS    COLORGROUP SYSTEM
1 28
