AV-unprocessed.smi:1864|AV-procd|sdf|7552|dock9
  -GOLD-   22720 9273D 1   1.00000     0.00000
 Structure written by MMmdl.
 34 35  0  0  0  0  0  0  0  0  1 V2000
  145.8322  142.9874  154.0724 C   0  0  0  0  0  0  0  0  0  0  0  0
  147.1467  142.2863  154.1087 C   0  0  0  0  0  0  0  0  0  0  0  0
  148.2751  142.9328  153.8437 N   0  0  0  0  0  0  0  0  0  0  0  0
  149.2569  141.9421  153.9898 O   0  0  0  0  0  0  0  0  0  0  0  0
  148.5914  140.8064  154.3102 C   0  0  0  0  0  0  0  0  0  0  0  0
  149.3727  139.5650  154.5836 C   0  0  0  0  0  0  0  0  0  0  0  0
  150.8695  139.8492  154.7855 C   0  0  0  0  0  0  0  0  0  0  0  0
  151.1042  140.7154  155.9351 N   0  0  0  0  0  0  0  0  0  0  0  0
  151.9471  140.4462  156.9489 C   0  0  0  0  0  0  0  0  0  0  0  0
  152.6136  139.4125  157.0076 O   0  0  0  0  0  0  0  0  0  0  0  0
  152.0362  141.4795  158.0154 C   0  0  0  0  0  0  0  0  0  0  0  0
  152.6052  141.1985  159.1460 N   0  0  0  0  0  0  0  0  0  0  0  0
  152.7204  142.1287  160.1592 N   0  0  0  0  0  0  0  0  0  0  0  0
  153.6170  141.7430  161.2471 C   0  0  0  0  0  0  0  0  0  0  0  0
  152.0491  143.3066  160.2049 C   0  0  0  0  0  0  0  0  0  0  0  0
  152.1716  144.1294  161.1121 O   0  0  0  0  0  0  0  0  0  0  0  0
  151.0685  143.5777  159.0602 C   0  0  0  0  0  0  0  0  0  0  0  0
  151.4827  142.8667  157.7564 C   0  0  0  0  0  0  0  0  0  0  0  0
  147.2743  140.9660  154.4156 N   0  0  0  0  0  0  0  0  0  0  0  0
  145.6486  143.3945  153.0779 H   0  0  0  0  0  0  0  0  0  0  0  0
  145.8211  143.8067  154.7916 H   0  0  0  0  0  0  0  0  0  0  0  0
  145.0214  142.3012  154.3190 H   0  0  0  0  0  0  0  0  0  0  0  0
  148.9592  139.0815  155.4695 H   0  0  0  0  0  0  0  0  0  0  0  0
  149.2242  138.8746  153.7525 H   0  0  0  0  0  0  0  0  0  0  0  0
  151.4243  138.9164  154.9003 H   0  0  0  0  0  0  0  0  0  0  0  0
  151.2747  140.3446  153.9026 H   0  0  0  0  0  0  0  0  0  0  0  0
  150.5946  141.5871  155.9634 H   0  0  0  0  0  0  0  0  0  0  0  0
  154.4175  142.4752  161.3637 H   0  0  0  0  0  0  0  0  0  0  0  0
  154.0828  140.7720  161.0694 H   0  0  0  0  0  0  0  0  0  0  0  0
  153.0719  141.6784  162.1901 H   0  0  0  0  0  0  0  0  0  0  0  0
  150.0883  143.2203  159.3780 H   0  0  0  0  0  0  0  0  0  0  0  0
  150.9730  144.6512  158.8933 H   0  0  0  0  0  0  0  0  0  0  0  0
  152.2324  143.4597  157.2313 H   0  0  0  0  0  0  0  0  0  0  0  0
  150.6135  142.8181  157.0992 H   0  0  0  0  0  0  0  0  0  0  0  0
  1  2  1  0  0  0  0
  1 20  1  0  0  0  0
  1 21  1  0  0  0  0
  1 22  1  0  0  0  0
  2 19  1  0  0  0  0
  2  3  2  0  0  0  0
  3  4  1  0  0  0  0
  4  5  1  0  0  0  0
  5  6  1  0  0  0  0
  5 19  2  0  0  0  0
  6  7  1  0  0  0  0
  6 23  1  0  0  0  0
  6 24  1  0  0  0  0
  7  8  1  0  0  0  0
  7 25  1  0  0  0  0
  7 26  1  0  0  0  0
  8  9  1  0  0  0  0
  8 27  1  0  0  0  0
  9 10  2  0  0  0  0
  9 11  1  0  0  0  0
 11 18  1  0  0  0  0
 11 12  2  0  0  0  0
 12 13  1  0  0  0  0
 13 14  1  0  0  0  0
 13 15  1  0  0  0  0
 14 28  1  0  0  0  0
 14 29  1  0  0  0  0
 14 30  1  0  0  0  0
 15 16  2  0  0  0  0
 15 17  1  0  0  0  0
 17 18  1  0  0  0  0
 17 31  1  0  0  0  0
 17 32  1  0  0  0  0
 18 33  1  0  0  0  0
 18 34  1  0  0  0  0
M  END
> <s_m_source_file>
AV-unprocessed.smi

> <i_m_source_file_index>
1864

> <i_lp_mmshare_version>
43012

> <i_f3d_flags>
0

> <s_epik_input>
W0NIM11jMW5vYyhuMSlbQ0gyXVtDSDJdW05IXUMoPU8pQzI9Tk4oW0NIM10pQyg9TylbQ0gyXVtDSDJdMg==

> <s_epik_cmdline>
J2VwaWtfcHl0aG9uJywgJy1waCcsICc3LjAnLCAnLXRuJywgJzgnLCAnLW1hJywgJzIwMCcsICctbWV0YWxfYmluZGluZycsICctaW1hZScsICc8aW5maWxlLm1hZT4nLCAnLW9tYWUnLCAnPG91dGZpbGUubWFlPic=

> <r_lp_tautomer_probability>
1

> <r_epik_Ionization_Penalty>
0.00011851

> <r_epik_Ionization_Penalty_Charging>
0

> <r_epik_Ionization_Penalty_Neutral>
0.00011851

> <r_epik_State_Penalty>
-0

> <r_epik_Charging_Adjusted_Penalty>
0

> <i_epik_Tot_Q>
0

> <i_epik_Tot_abs_Q>
0

> <r_epik_Metal_State_Penalty>
0.091363

> <b_epik_Metal_Only>
0

> <s_epik_Chemistry_Notes>
This compound has an imine and may undergo hydrolysis.

> <s_lp_Force_Field>
OPLS_2005

> <r_lp_Energy>
12.468

> <b_lp_Chiralities_Consistent>
1

> <s_lp_Variant>
AV-unprocessed.smi:1864-1

> <Gold.Version>
5.8.1

> <Gold.Id.Protein>
6NUR|6NUR_protein|mol2

> <Gold.PLP.Fitness>
39.7825

> <Gold.PLP.PLP>
-33.8536

> <Gold.PLP.part.hbond>
-4.0583

> <Gold.PLP.part.metal>
0.0000

> <Gold.PLP.part.buried>
-3.4682

> <Gold.PLP.part.nonpolar>
-30.0052

> <Gold.PLP.part.repulsive>
4.2518

> <Gold.PLP.ligand.clash>
0.0000

> <Gold.PLP.ligand.torsion>
0.3243

> <Gold.PLP.Chemscore.Hbond>
2.1880

> <Gold.PLP.Chemscore.CHOScore>
0.0000

> <Gold.PLP.Chemscore.Metal>
0.0000

> <Gold.Chemscore.Hbonds>
donor molecule, donor type, donor heavy atom, donor atom, acceptor molecule, acceptor atom, score
      P1  H  7997  8008       L1    10  1.00
      P1  H  8011  8017       L1     4  0.11
      P1  H  8022  8030       L1     3  0.90

> <Gold.PLP.Chemscore.Internal.Correction>
0.0135

> <Gold.Rescore>
     Score         DG    S(hbond)    S(metal)    S(lipo)     H(rot)  DE(clash)    DE(int)     intcor
     10.03     -12.03       1.41        0.00      55.21       1.80       1.67       0.33       ----

> <Gold.Chemscore.Fitness>
10.0302

> <Gold.Chemscore.DG>
-12.0288

> <Gold.Chemscore.ZeroCoef>
-5.4800

> <Gold.Chemscore.Hbond>
1.4090

> <Gold.Chemscore.Metal>
0.0000

> <Gold.Chemscore.Lipo>
55.2081

> <Gold.Chemscore.Internal_Hbond>
0.0000

> <Gold.Chemscore.DEClash>
1.6716

> <Gold.Chemscore.DEInternal>
0.3270

> <Gold.Chemscore.Rot>
1.8034

> <Gold.Chemscore.Internal.Correction>
   9.000000E+99

> <Gold.Chemscore.Hbonds>
donor molecule, donor type, donor heavy atom, donor atom, acceptor molecule, acceptor atom, score
      P1  H  7997  8008       L1    10  0.30
      P1  H  8022  8030       L1     3  0.88

> <Gold.Chemscore.Hbond.Weighted>
-4.7062

> <Gold.Chemscore.Metal.Weighted>
-0.0000

> <Gold.Chemscore.Lipo.Weighted>
-6.4593

> <Gold.Chemscore.Internal_Hbond.Weighted>
0.0000

> <Gold.Chemscore.DEClash.Weighted>
1.6716

> <Gold.Chemscore.DEInternal.Weighted>
0.3270

> <Gold.Chemscore.Rot.Weighted>
4.6167

> <Gold.Chemscore.Internal.Correction.Weighted>
   9.000000E+99

> <Gold.Protein.RotatedTorsions>
[ 6907 6896 6895 6894 ] final  -62.79 input  -60.11 | X-H torsion
[ 7974 7965 7964 7962 ] final  -74.57 input  175.53 | X-H torsion
[ 8008 7997 7996 7995 ] final  -60.84 input   59.86 | X-H torsion
[ 10167 10162 10161 10158 ] final  -16.67 input  -65.29 | X-H torsion
[ 10718 10713 10712 10709 ] final  -98.90 input   66.30 | X-H torsion
[ 10763 10752 10751 10750 ] final  -54.22 input  -60.55 | X-H torsion
[ 11005 11000 10999 10996 ] final  -22.97 input  -57.11 | X-H torsion

> <Gold.Protein.ActiveResidues>
 VAL166  LYS551  ARG553  GLY616  TRP617  ASP618  TYR619  PRO620  LYS621  CYS622 
 ASP623  PHE694  ASN695  SER759  ASP760  ASP761  ALA762  ILE779  LEU786  VAL792 
 PHE793  MET794  SER795  GLU796  ALA797  LYS798  CYS799  TRP800  GLU811  SER814 

> <Gold.Protein.RotatedAtoms>
  150.7692  134.6523  159.6294 H   0  0  0  0  0  0  0  0  0  0  0  0  # atno 6907 bound_to 6896
  152.3737  134.6692  160.0176 H   0  0  0  0  0  0  0  0  0  0  0  0  # atno 6908 bound_to 6896
  151.7044  133.3275  159.3311 H   0  0  0  0  0  0  0  0  0  0  0  0  # atno 6909 bound_to 6896
  145.6373  140.9321  143.1055 H   0  0  0  0  0  0  0  0  0  0  0  0  # atno 7974 bound_to 7965
  154.4418  140.1031  156.6337 H   0  0  0  0  0  0  0  0  0  0  0  0  # atno 8008 bound_to 7997
  155.5577  140.3487  155.4465 H   0  0  0  0  0  0  0  0  0  0  0  0  # atno 8009 bound_to 7997
  156.0482  140.1298  157.0069 H   0  0  0  0  0  0  0  0  0  0  0  0  # atno 8010 bound_to 7997
  140.7237  143.5093  150.9770 H   0  0  0  0  0  0  0  0  0  0  0  0  # atno 10167 bound_to 10162
  156.0119  130.5258  150.6591 H   0  0  0  0  0  0  0  0  0  0  0  0  # atno 10718 bound_to 10713
  154.1714  135.6458  153.5010 H   0  0  0  0  0  0  0  0  0  0  0  0  # atno 10763 bound_to 10752
  153.0083  135.5384  154.6608 H   0  0  0  0  0  0  0  0  0  0  0  0  # atno 10764 bound_to 10752
  154.5949  135.2938  155.0569 H   0  0  0  0  0  0  0  0  0  0  0  0  # atno 10765 bound_to 10752
  140.8707  133.7722  156.0184 H   0  0  0  0  0  0  0  0  0  0  0  0  # atno 11005 bound_to 11000
  144.7171  139.8160  143.7395 LP  0  0  0  0  0  0  0  0  0  0  0  0  # atno 17320 bound_to 7965
  146.1309  139.4344  143.0169 LP  0  0  0  0  0  0  0  0  0  0  0  0  # atno 17321 bound_to 7965
  139.8806  143.7077  152.3157 LP  0  0  0  0  0  0  0  0  0  0  0  0  # atno 17342 bound_to 10162
  139.7358  144.7571  151.0730 LP  0  0  0  0  0  0  0  0  0  0  0  0  # atno 17343 bound_to 10162
  157.4337  131.0852  151.1013 LP  0  0  0  0  0  0  0  0  0  0  0  0  # atno 17370 bound_to 10713
  157.1578  130.6212  149.5601 LP  0  0  0  0  0  0  0  0  0  0  0  0  # atno 17371 bound_to 10713
  140.8576  134.2879  157.5248 LP  0  0  0  0  0  0  0  0  0  0  0  0  # atno 17394 bound_to 11000
  139.8712  134.9501  156.4045 LP  0  0  0  0  0  0  0  0  0  0  0  0  # atno 17395 bound_to 11000

$$$$
