#       Name:                AV-unprocessed.smi:1598
#       Creating user name   scv26
#       Creation time:       Fri Mar 27 07:06:11 2020


#       File generated by GOLD software.
#

@<TRIPOS>MOLECULE
AV-unprocessed.smi:1598
    47    47     1
SMALL
NO_CHARGES


@<TRIPOS>ATOM
      1 ****        -4.8860  -0.6025  -0.9361 C.3            1 S1                 0.0000
      2 ****        -4.1981  -0.5428   0.3010 O.3            1 S1                 0.0000
      3 ****        -2.8022  -0.3537   0.1380 C.3            1 S1                 0.0000
      4 ****        -2.1263  -0.3012   1.5170 C.3            1 S1                 0.0000
      5 ****        -2.2237  -1.6443   2.2599 C.3            1 S1                 0.0000
      6 ****        -0.7270   0.0740   1.3450 N.am           1 S1                 0.0000
      7 ****         0.0334   0.7154   2.2492 C.2            1 S1                 0.0000
      8 ****        -0.3874   1.0536   3.3547 O.2            1 S1                 0.0000
      9 ****         1.4951   1.0312   1.8772 C.3            1 S1                 0.0000
     10 ****         1.8894   0.6762   0.4881 N.am           1 S1                 0.0000
     11 ****         2.5855  -0.5470   0.2316 C.2            1 S1                 0.0000
     12 ****         2.8658  -1.5141   1.3912 C.3            1 S1                 0.0000
     13 ****         3.3347  -2.6797   0.9434 F              1 S1                 0.0000
     14 ****         3.7905  -1.0148   2.2117 F              1 S1                 0.0000
     15 ****         1.7641  -1.7923   2.0875 F              1 S1                 0.0000
     16 ****         2.9548  -0.8556  -1.0252 C.2            1 S1                 0.0000
     17 ****         2.6597   0.0425  -2.1072 C.2            1 S1                 0.0000
     18 ****         1.9977   1.2001  -1.8832 C.2            1 S1                 0.0000
     19 ****         1.6675   2.1555  -2.9656 C.2            1 S1                 0.0000
     20 ****         2.0308   1.7491  -4.1887 N.am           1 S1                 0.0000
     21 ****         1.1085   3.2456  -2.8467 O.2            1 S1                 0.0000
     22 ****         1.5677   1.5698  -0.5100 C.2            1 S1                 0.0000
     23 ****         0.9496   2.6035  -0.2379 O.2            1 S1                 0.0000
     24 ****        -5.9513  -0.7450  -0.7558 H              1 S1                 0.0000
     25 ****        -4.5329  -1.4370  -1.5434 H              1 S1                 0.0000
     26 ****        -4.7613   0.3214  -1.5023 H              1 S1                 0.0000
     27 ****        -2.3779  -1.1601  -0.4629 H              1 S1                 0.0000
     28 ****        -2.6256   0.5805  -0.3985 H              1 S1                 0.0000
     29 ****        -2.6278   0.4675   2.1079 H              1 S1                 0.0000
     30 ****        -3.2631  -1.9374   2.4084 H              1 S1                 0.0000
     31 ****        -1.7579  -1.5863   3.2441 H              1 S1                 0.0000
     32 ****        -1.7296  -2.4419   1.7042 H              1 S1                 0.0000
     33 ****        -0.3025  -0.1674   0.4616 H              1 S1                 0.0000
     34 ****         1.6580   2.0960   2.0548 H              1 S1                 0.0000
     35 ****         2.1363   0.5724   2.6237 H              1 S1                 0.0000
     36 ****         3.4716  -1.7784  -1.2435 H              1 S1                 0.0000
     37 ****         2.9877  -0.2501  -3.0936 H              1 S1                 0.0000
     38 ****         1.8480   2.3324  -4.9918 H              1 S1                 0.0000
     39 ****         2.4883   0.8561  -4.3019 H              1 S1                 0.0000
     40 ****        -4.3502  -1.3994   0.7941 LP             1 S1                 0.0000
     41 ****        -4.5646   0.2189   0.8352 LP             1 S1                 0.0000
     42 ****        -1.3324   0.8529   3.6128 LP             1 S1                 0.0000
     43 ****         0.2156   1.5292   3.9951 LP             1 S1                 0.0000
     44 ****         0.8267   3.5670  -1.9427 LP             1 S1                 0.0000
     45 ****         0.9361   3.8098  -3.6542 LP             1 S1                 0.0000
     46 ****         0.6824   2.7922   0.7070 LP             1 S1                 0.0000
     47 ****         0.7162   3.2519  -0.9626 LP             1 S1                 0.0000
@<TRIPOS>BOND
    1    1    2 1     
    2    1   24 1     
    3    1   25 1     
    4    1   26 1     
    5    2    3 1     
    6    3    4 1     
    7    3   27 1     
    8    3   28 1     
    9    4    5 1     
   10    4    6 1     
   11    4   29 1     
   12    5   30 1     
   13    5   31 1     
   14    5   32 1     
   15    6    7 am    
   16    6   33 1     
   17    7    8 2     
   18    7    9 1     
   19    9   10 1     
   20    9   34 1     
   21    9   35 1     
   22   10   22 am    
   23   10   11 1     
   24   11   12 1     
   25   11   16 2     
   26   12   13 1     
   27   12   14 1     
   28   12   15 1     
   29   16   17 1     
   30   16   36 1     
   31   17   18 2     
   32   17   37 1     
   33   18   19 1     
   34   18   22 1     
   35   19   20 am    
   36   19   21 2     
   37   20   38 1     
   38   20   39 1     
   39   22   23 2     
   40    2   40 1     
   41    2   41 1     
   42    8   42 1     
   43    8   43 1     
   44   21   44 1     
   45   21   45 1     
   46   23   46 1     
   47   23   47 1     
@<TRIPOS>SUBSTRUCTURE
      1 S1             1
@<TRIPOS>SET
LONE_PAIRS      STATIC     ATOMS    <user>   **** ""
8 40 41 42 43 44 45 46 47
DONOR_HYDROGENS      STATIC     ATOMS    <user>   **** ""
3 33 38 39
ATOM$BLUE        STATIC     ATOMS    COLORGROUP SYSTEM
8 40 41 42 43 44 45 46 47
ATOM$RED        STATIC     ATOMS    COLORGROUP SYSTEM
3 33 38 39
