#       Name:                AV-unprocessed.smi:3303
#       Creating user name   scv26
#       Creation time:       Fri Mar 27 18:59:47 2020


#       File generated by GOLD software.
#

@<TRIPOS>MOLECULE
AV-unprocessed.smi:3303
    46    47     1
SMALL
NO_CHARGES


@<TRIPOS>ATOM
      1 ****        -0.8446  -1.6291  -2.6956 C.3            1 S1                 0.0000
      2 ****        -1.1244  -1.8484  -1.1979 C.3            1 S1                 0.0000
      3 ****        -2.6394  -2.0361  -0.9673 C.3            1 S1                 0.0000
      4 ****        -2.9547  -2.2461   0.4680 N.4            1 S1                 1.0000
      5 ****        -4.3658  -2.6332   0.6961 C.3            1 S1                 0.0000
      6 ****        -2.4754  -1.1401   1.3444 C.3            1 S1                 0.0000
      7 ****        -3.2692   0.1740   1.1779 C.3            1 S1                 0.0000
      8 ****        -0.9594  -0.9362   1.1514 C.3            1 S1                 0.0000
      9 ****        -0.5732  -0.6966  -0.3247 C.3            1 S1                 0.0000
     10 ****         0.8980  -0.5913  -0.4712 N.4            1 S1                 1.0000
     11 ****         1.4842   0.6951  -0.0408 C.3            1 S1                 0.0000
     12 ****         2.9953   0.7269  -0.3063 C.3            1 S1                 0.0000
     13 ****         3.6231   2.0357   0.1332 C.ar           1 S1                 0.0000
     14 ****         3.9265   3.0430  -0.8073 C.ar           1 S1                 0.0000
     15 ****         4.4986   4.2431  -0.3424 C.ar           1 S1                 0.0000
     16 ****         4.7425   4.3885   1.0370 C.ar           1 S1                 0.0000
     17 ****         4.4021   3.3232   1.8943 C.ar           1 S1                 0.0000
     18 ****         3.8518   2.1689   1.4590 N.ar           1 S1                 0.0000
     19 ****        -1.2985  -0.7043  -3.0534 H              1 S1                 0.0000
     20 ****        -1.2480  -2.4474  -3.2930 H              1 S1                 0.0000
     21 ****         0.2241  -1.5776  -2.9044 H              1 S1                 0.0000
     22 ****        -0.6266  -2.7727  -0.8995 H              1 S1                 0.0000
     23 ****        -3.1963  -1.1800  -1.3502 H              1 S1                 0.0000
     24 ****        -2.9835  -2.9036  -1.5326 H              1 S1                 0.0000
     25 ****        -5.0555  -1.8677   0.3395 H              1 S1                 0.0000
     26 ****        -4.5554  -2.8031   1.7565 H              1 S1                 0.0000
     27 ****        -4.5944  -3.5595   0.1679 H              1 S1                 0.0000
     28 ****        -2.6216  -1.4684   2.3746 H              1 S1                 0.0000
     29 ****        -2.8706   0.9485   1.8336 H              1 S1                 0.0000
     30 ****        -4.3186   0.0490   1.4444 H              1 S1                 0.0000
     31 ****        -3.2290   0.5613   0.1606 H              1 S1                 0.0000
     32 ****        -0.6262  -0.1091   1.7783 H              1 S1                 0.0000
     33 ****        -0.4354  -1.8199   1.5192 H              1 S1                 0.0000
     34 ****        -1.0167   0.2383  -0.6704 H              1 S1                 0.0000
     35 ****         1.3371  -1.3442   0.0394 H              1 S1                 0.0000
     36 ****         0.9991   1.5108  -0.5787 H              1 S1                 0.0000
     37 ****         1.2944   0.8504   1.0212 H              1 S1                 0.0000
     38 ****         3.4864  -0.0937   0.2197 H              1 S1                 0.0000
     39 ****         3.1923   0.5726  -1.3684 H              1 S1                 0.0000
     40 ****         3.7267   2.9040  -1.8599 H              1 S1                 0.0000
     41 ****         4.7453   5.0376  -1.0310 H              1 S1                 0.0000
     42 ****         5.1801   5.2947   1.4292 H              1 S1                 0.0000
     43 ****         4.5749   3.4008   2.9577 H              1 S1                 0.0000
     44 ****         1.1156  -0.7021  -1.4515 H              1 S1                 0.0000
     45 ****        -2.4158  -3.0544   0.7448 H              1 S1                 0.0000
     46 ****         3.6206   1.4352   2.0979 LP             1 S1                 0.0000
@<TRIPOS>BOND
    1    1    2 1     
    2    1   19 1     
    3    1   20 1     
    4    1   21 1     
    5    2    9 1     
    6    2    3 1     
    7    2   22 1     
    8    3    4 1     
    9    3   23 1     
   10    3   24 1     
   11    4    5 1     
   12    4    6 1     
   13    4   45 1     
   14    5   25 1     
   15    5   26 1     
   16    5   27 1     
   17    6    7 1     
   18    6    8 1     
   19    6   28 1     
   20    7   29 1     
   21    7   30 1     
   22    7   31 1     
   23    8    9 1     
   24    8   32 1     
   25    8   33 1     
   26    9   10 1     
   27    9   34 1     
   28   10   11 1     
   29   10   35 1     
   30   10   44 1     
   31   11   12 1     
   32   11   36 1     
   33   11   37 1     
   34   12   13 1     
   35   12   38 1     
   36   12   39 1     
   37   13   18 ar    
   38   13   14 ar    
   39   14   15 ar    
   40   14   40 1     
   41   15   16 ar    
   42   15   41 1     
   43   16   17 ar    
   44   16   42 1     
   45   17   18 ar    
   46   17   43 1     
   47   18   46 1     
@<TRIPOS>SUBSTRUCTURE
      1 S1             1
@<TRIPOS>SET
LONE_PAIRS      STATIC     ATOMS    <user>   **** ""
1 46
DONOR_HYDROGENS      STATIC     ATOMS    <user>   **** ""
3 45 35 44
ATOM$BLUE        STATIC     ATOMS    COLORGROUP SYSTEM
1 46
ATOM$RED        STATIC     ATOMS    COLORGROUP SYSTEM
3 45 35 44
