AV-unprocessed.smi:62|AV-procd|sdf|605|dock8
  -GOLD-   2262016503D 1   1.00000     0.00000
 Structure written by MMmdl.
 30 31  0  0  0  0  0  0  0  0  2 V2000
  151.0829  144.6762  158.7553 C   0  0  0  0  0  0  0  0  0  0  0  0
  151.4030  143.3458  158.2849 N   0  0  0  0  0  0  0  0  0  0  0  0
  151.0748  142.7538  157.0871 C   0  0  0  0  0  0  0  0  0  0  0  0
  151.5866  141.4859  157.0880 C   0  0  0  0  0  0  0  0  0  0  0  0
  151.4505  140.4763  155.9728 C   0  0  0  0  0  0  0  0  0  0  0  0
  150.0635  140.2738  155.5658 N   0  0  0  0  0  0  0  0  0  0  0  0
  149.4794  141.4026  154.8602 C   0  0  0  0  0  0  0  0  0  0  0  0
  148.2718  140.8565  154.0849 C   0  0  0  0  0  0  0  0  0  0  0  0
  148.4762  139.3327  154.1004 C   0  0  1  0  0  0  0  0  0  0  0  0
  148.3319  138.7461  152.8238 O   0  0  0  0  0  0  0  0  0  0  0  0
  149.8930  139.1662  154.6502 C   0  0  0  0  0  0  0  0  0  0  0  0
  152.2327  141.3976  158.3685 C   0  0  0  0  0  0  0  0  0  0  0  0
  152.9578  140.1600  158.8288 C   0  0  0  0  0  0  0  0  0  0  0  0
  153.2132  139.2416  158.0195 O   0  0  0  0  0  0  0  0  0  0  0  0
  153.2932  140.0950  160.0326 O   0  5  0  0  0  0  0  0  0  0  0  0
  152.1120  142.5162  159.0722 N   0  0  0  0  0  0  0  0  0  0  0  0
  150.6042  145.2491  157.9607 H   0  0  0  0  0  0  0  0  0  0  0  0
  151.9945  145.1896  159.0627 H   0  0  0  0  0  0  0  0  0  0  0  0
  150.4036  144.6115  159.6057 H   0  0  0  0  0  0  0  0  0  0  0  0
  150.5024  143.2766  156.3352 H   0  0  0  0  0  0  0  0  0  0  0  0
  152.0391  140.7836  155.1073 H   0  0  0  0  0  0  0  0  0  0  0  0
  151.8783  139.5205  156.2756 H   0  0  0  0  0  0  0  0  0  0  0  0
  149.2015  142.2020  155.5478 H   0  0  0  0  0  0  0  0  0  0  0  0
  150.2005  141.8125  154.1511 H   0  0  0  0  0  0  0  0  0  0  0  0
  147.3337  141.1221  154.5733 H   0  0  0  0  0  0  0  0  0  0  0  0
  148.2500  141.2665  153.0742 H   0  0  0  0  0  0  0  0  0  0  0  0
  147.7628  138.8756  154.7876 H   0  0  0  0  0  0  0  0  0  0  0  0
  148.9621  139.1419  152.2412 H   0  0  0  0  0  0  0  0  0  0  0  0
  150.6209  139.2398  153.8401 H   0  0  0  0  0  0  0  0  0  0  0  0
  150.0382  138.2066  155.1476 H   0  0  0  0  0  0  0  0  0  0  0  0
  1  2  1  0  0  0  0
  1 17  1  0  0  0  0
  1 18  1  0  0  0  0
  1 19  1  0  0  0  0
  2 16  1  0  0  0  0
  2  3  1  0  0  0  0
  3  4  2  0  0  0  0
  3 20  1  0  0  0  0
  4  5  1  0  0  0  0
  4 12  1  0  0  0  0
  5  6  1  0  0  0  0
  5 21  1  0  0  0  0
  5 22  1  0  0  0  0
  6 11  1  0  0  0  0
  6  7  1  0  0  0  0
  7  8  1  0  0  0  0
  7 23  1  0  0  0  0
  7 24  1  0  0  0  0
  8  9  1  0  0  0  0
  8 25  1  0  0  0  0
  8 26  1  0  0  0  0
  9 10  1  0  0  0  0
  9 11  1  0  0  0  0
  9 27  1  0  0  0  0
 10 28  1  0  0  0  0
 11 29  1  0  0  0  0
 11 30  1  0  0  0  0
 12 13  1  0  0  0  0
 12 16  2  0  0  0  0
 13 14  2  0  0  0  0
 13 15  1  0  0  0  0
M  CHG  1  15  -1
M  END
> <s_m_source_file>
AV-unprocessed.smi

> <i_m_source_file_index>
62

> <i_lp_mmshare_version>
43012

> <i_f3d_flags>
0

> <s_epik_input>
W0NIM11uMVtjSF1jKGMobjEpQyg9TylbT0hdKVtDSDJdTjJbQ0gyXVtDSDJdW0NAQEhdKFtPSF0pW0NIMl0y

> <s_epik_cmdline>
J2VwaWtfcHl0aG9uJywgJy1waCcsICc3LjAnLCAnLXRuJywgJzgnLCAnLW1hJywgJzIwMCcsICctbWV0YWxfYmluZGluZycsICctaW1hZScsICc8aW5maWxlLm1hZT4nLCAnLW9tYWUnLCAnPG91dGZpbGUubWFlPic=

> <r_epik_Ionization_Penalty>
1.46526

> <r_epik_Ionization_Penalty_Charging>
0.000523675

> <r_epik_Ionization_Penalty_Neutral>
1.46474

> <r_epik_State_Penalty>
1.55202

> <r_epik_Charging_Adjusted_Penalty>
1.55254

> <i_epik_Tot_Q>
-1

> <i_epik_Tot_abs_Q>
1

> <r_epik_Metal_State_Penalty>
1.552

> <b_epik_Metal_Only>
0

> <s_lp_Force_Field>
OPLS_2005

> <r_lp_Energy>
37.4644

> <b_lp_Chiralities_Consistent>
1

> <s_lp_Variant>
AV-unprocessed.smi:62-5

> <Gold.Version>
5.8.1

> <Gold.Id.Protein>
6NUR|6NUR_protein|mol2

> <Gold.PLP.Fitness>
42.3654

> <Gold.PLP.PLP>
-30.6753

> <Gold.PLP.part.hbond>
-2.7287

> <Gold.PLP.part.metal>
0.0000

> <Gold.PLP.part.buried>
-4.6111

> <Gold.PLP.part.nonpolar>
-23.0710

> <Gold.PLP.part.repulsive>
0.0454

> <Gold.PLP.ligand.clash>
0.0000

> <Gold.PLP.ligand.torsion>
0.1583

> <Gold.PLP.Chemscore.Hbond>
3.0000

> <Gold.PLP.Chemscore.CHOScore>
1.0000

> <Gold.PLP.Chemscore.Metal>
0.0000

> <Gold.Chemscore.Hbonds>
donor molecule, donor type, donor heavy atom, donor atom, acceptor molecule, acceptor atom, score
      L1  H    10    28       P1  7957  1.00
      P1  H  7997  8009       L1    14  2.00
      L1  C     3    20       P1  8028  1.00

> <Gold.PLP.Chemscore.Internal.Correction>
0.0068

> <Gold.Rescore>
     Score         DG    S(hbond)    S(metal)    S(lipo)     H(rot)  DE(clash)    DE(int)     intcor
     14.50     -15.97       1.97        0.00      72.02       1.77       0.16       1.31       ----

> <Gold.Chemscore.Fitness>
14.5009

> <Gold.Chemscore.DG>
-15.9723

> <Gold.Chemscore.ZeroCoef>
-5.4800

> <Gold.Chemscore.Hbond>
1.9731

> <Gold.Chemscore.Metal>
0.0000

> <Gold.Chemscore.Lipo>
72.0238

> <Gold.Chemscore.Internal_Hbond>
0.0000

> <Gold.Chemscore.DEClash>
0.1619

> <Gold.Chemscore.DEInternal>
1.3095

> <Gold.Chemscore.Rot>
1.7674

> <Gold.Chemscore.Internal.Correction>
   9.000000E+99

> <Gold.Chemscore.Hbonds>
donor molecule, donor type, donor heavy atom, donor atom, acceptor molecule, acceptor atom, score
      L1  H    10    28       P1  7957  0.93
      P1  H  7997  8009       L1    14  0.26

> <Gold.Chemscore.Hbond.Weighted>
-6.5900

> <Gold.Chemscore.Metal.Weighted>
-0.0000

> <Gold.Chemscore.Lipo.Weighted>
-8.4268

> <Gold.Chemscore.Internal_Hbond.Weighted>
0.0000

> <Gold.Chemscore.DEClash.Weighted>
0.1619

> <Gold.Chemscore.DEInternal.Weighted>
1.3095

> <Gold.Chemscore.Rot.Weighted>
4.5245

> <Gold.Chemscore.Internal.Correction.Weighted>
   9.000000E+99

> <Gold.Protein.RotatedTorsions>
[ 6907 6896 6895 6894 ] final   75.82 input  -60.11 | X-H torsion
[ 7974 7965 7964 7962 ] final -131.89 input  175.53 | X-H torsion
[ 8008 7997 7996 7995 ] final  149.13 input   59.86 | X-H torsion
[ 10167 10162 10161 10158 ] final   59.66 input  -65.29 | X-H torsion
[ 10718 10713 10712 10709 ] final   61.32 input   66.30 | X-H torsion
[ 10763 10752 10751 10750 ] final -102.46 input  -60.55 | X-H torsion
[ 11005 11000 10999 10996 ] final  162.33 input  -57.11 | X-H torsion

> <Gold.Protein.ActiveResidues>
 VAL166  LYS551  ARG553  GLY616  TRP617  ASP618  TYR619  PRO620  LYS621  CYS622 
 ASP623  PHE694  ASN695  SER759  ASP760  ASP761  ALA762  ILE779  LEU786  VAL792 
 PHE793  MET794  SER795  GLU796  ALA797  LYS798  CYS799  TRP800  GLU811  SER814 

> <Gold.Protein.RotatedAtoms>
  152.5044  134.4062  159.9433 H   0  0  0  0  0  0  0  0  0  0  0  0  # atno 6907 bound_to 6896
  151.4028  133.3746  159.2742 H   0  0  0  0  0  0  0  0  0  0  0  0  # atno 6908 bound_to 6896
  150.9349  134.8783  159.7634 H   0  0  0  0  0  0  0  0  0  0  0  0  # atno 6909 bound_to 6896
  144.9336  140.7158  143.4890 H   0  0  0  0  0  0  0  0  0  0  0  0  # atno 7974 bound_to 7965
  156.2766  140.2110  156.5809 H   0  0  0  0  0  0  0  0  0  0  0  0  # atno 8008 bound_to 7997
  154.7059  140.0516  157.0527 H   0  0  0  0  0  0  0  0  0  0  0  0  # atno 8009 bound_to 7997
  155.0671  140.3173  155.4645 H   0  0  0  0  0  0  0  0  0  0  0  0  # atno 8010 bound_to 7997
  140.1740  144.4248  150.6647 H   0  0  0  0  0  0  0  0  0  0  0  0  # atno 10167 bound_to 10162
  157.5819  130.8988  149.9446 H   0  0  0  0  0  0  0  0  0  0  0  0  # atno 10718 bound_to 10713
  154.7735  135.4860  153.9697 H   0  0  0  0  0  0  0  0  0  0  0  0  # atno 10763 bound_to 10752
  153.1398  135.6770  153.9052 H   0  0  0  0  0  0  0  0  0  0  0  0  # atno 10764 bound_to 10752
  153.8730  135.3141  155.3421 H   0  0  0  0  0  0  0  0  0  0  0  0  # atno 10765 bound_to 10752
  140.2247  134.8169  157.3256 H   0  0  0  0  0  0  0  0  0  0  0  0  # atno 11005 bound_to 11000
  145.3102  139.1821  143.4643 LP  0  0  0  0  0  0  0  0  0  0  0  0  # atno 17320 bound_to 7965
  146.3257  140.3105  142.8626 LP  0  0  0  0  0  0  0  0  0  0  0  0  # atno 17321 bound_to 7965
  140.6563  143.2239  151.5960 LP  0  0  0  0  0  0  0  0  0  0  0  0  # atno 17342 bound_to 10162
  139.5325  144.2874  152.1180 LP  0  0  0  0  0  0  0  0  0  0  0  0  # atno 17343 bound_to 10162
  156.0865  130.3667  150.0477 LP  0  0  0  0  0  0  0  0  0  0  0  0  # atno 17370 bound_to 10713
  156.8615  130.9493  151.3617 LP  0  0  0  0  0  0  0  0  0  0  0  0  # atno 17371 bound_to 10713
  140.1813  134.4486  155.7770 LP  0  0  0  0  0  0  0  0  0  0  0  0  # atno 17394 bound_to 11000
  141.2221  133.6985  156.7873 LP  0  0  0  0  0  0  0  0  0  0  0  0  # atno 17395 bound_to 11000

$$$$
