AV-unprocessed.smi:3119|AV-procd|sdf|11891|dock8
  -GOLD-   2272017283D 1   1.00000     0.00000
 Structure written by MMmdl.
 32 33  0  0  0  0  0  0  0  0  2 V2000
  149.9363  140.0320  154.1982 O   0  0  0  0  0  0  0  0  0  0  0  0
  149.3439  141.0918  154.4048 C   0  0  0  0  0  0  0  0  0  0  0  0
  149.8227  142.0501  155.2106 N   0  0  0  0  0  0  0  0  0  0  0  0
  151.0782  141.9528  155.9425 C   0  0  0  0  0  0  0  0  0  0  0  0
  150.8215  141.7112  157.4359 C   0  0  0  0  0  0  0  0  0  0  0  0
  151.2865  142.8743  158.2909 C   0  0  0  0  0  0  0  0  0  0  0  0
  152.1675  142.6999  159.3803 C   0  0  0  0  0  0  0  0  0  0  0  0
  152.5695  143.8259  160.1287 C   0  0  0  0  0  0  0  0  0  0  0  0
  152.0840  145.1011  159.7720 C   0  0  0  0  0  0  0  0  0  0  0  0
  151.2073  145.2183  158.6741 C   0  0  0  0  0  0  0  0  0  0  0  0
  150.8456  144.1154  157.9816 N   0  3  0  0  0  0  0  0  0  0  0  0
  147.9953  141.3848  153.7334 C   0  0  0  0  0  0  0  0  0  0  0  0
  147.4793  142.8172  153.9544 C   0  0  0  0  0  0  0  0  0  0  0  0
  146.0890  142.2326  154.2198 C   0  0  0  0  0  0  0  0  0  0  0  0
  146.7607  140.8866  154.5069 C   0  0  0  0  0  0  0  0  0  0  0  0
  149.2806  142.8944  155.3258 H   0  0  0  0  0  0  0  0  0  0  0  0
  151.6761  141.1364  155.5335 H   0  0  0  0  0  0  0  0  0  0  0  0
  151.6470  142.8731  155.7998 H   0  0  0  0  0  0  0  0  0  0  0  0
  149.7576  141.5448  157.6122 H   0  0  0  0  0  0  0  0  0  0  0  0
  151.3332  140.8039  157.7606 H   0  0  0  0  0  0  0  0  0  0  0  0
  152.5341  141.7170  159.6391 H   0  0  0  0  0  0  0  0  0  0  0  0
  153.2432  143.7128  160.9655 H   0  0  0  0  0  0  0  0  0  0  0  0
  152.3804  145.9762  160.3319 H   0  0  0  0  0  0  0  0  0  0  0  0
  150.7889  146.1531  158.3303 H   0  0  0  0  0  0  0  0  0  0  0  0
  147.9602  141.0956  152.6810 H   0  0  0  0  0  0  0  0  0  0  0  0
  147.9013  143.3144  154.8297 H   0  0  0  0  0  0  0  0  0  0  0  0
  147.5309  143.4554  153.0719 H   0  0  0  0  0  0  0  0  0  0  0  0
  145.5655  142.6710  155.0698 H   0  0  0  0  0  0  0  0  0  0  0  0
  145.4637  142.2098  153.3260 H   0  0  0  0  0  0  0  0  0  0  0  0
  146.2569  140.0351  154.0491 H   0  0  0  0  0  0  0  0  0  0  0  0
  146.9285  140.7213  155.5726 H   0  0  0  0  0  0  0  0  0  0  0  0
  150.2120  144.2239  157.1892 H   0  0  0  0  0  0  0  0  0  0  0  0
  1  2  2  0  0  0  0
  2  3  1  0  0  0  0
  2 12  1  0  0  0  0
  3  4  1  0  0  0  0
  3 16  1  0  0  0  0
  4  5  1  0  0  0  0
  4 17  1  0  0  0  0
  4 18  1  0  0  0  0
  5  6  1  0  0  0  0
  5 19  1  0  0  0  0
  5 20  1  0  0  0  0
  6 11  1  0  0  0  0
  6  7  2  0  0  0  0
  7  8  1  0  0  0  0
  7 21  1  0  0  0  0
  8  9  2  0  0  0  0
  8 22  1  0  0  0  0
  9 10  1  0  0  0  0
  9 23  1  0  0  0  0
 10 11  2  0  0  0  0
 10 24  1  0  0  0  0
 11 32  1  0  0  0  0
 12 15  1  0  0  0  0
 12 13  1  0  0  0  0
 12 25  1  0  0  0  0
 13 14  1  0  0  0  0
 13 26  1  0  0  0  0
 13 27  1  0  0  0  0
 14 15  1  0  0  0  0
 14 28  1  0  0  0  0
 14 29  1  0  0  0  0
 15 30  1  0  0  0  0
 15 31  1  0  0  0  0
M  CHG  1  11   1
M  END
> <s_m_source_file>
AV-unprocessed.smi

> <i_m_source_file_index>
3119

> <i_lp_mmshare_version>
43012

> <i_f3d_flags>
0

> <s_epik_input>
W0NIMl0xW0NIMl1bQ0gyXVtDSF0xQyg9TylbTkhdW0NIMl1bQ0gyXWMyW2NIXVtjSF1bY0hdW2NIXW4y

> <s_epik_cmdline>
J2VwaWtfcHl0aG9uJywgJy1waCcsICc3LjAnLCAnLXRuJywgJzgnLCAnLW1hJywgJzIwMCcsICctbWV0YWxfYmluZGluZycsICctaW1hZScsICc8aW5maWxlLm1hZT4nLCAnLW9tYWUnLCAnPG91dGZpbGUubWFlPic=

> <r_epik_Ionization_Penalty>
1.82741

> <r_epik_Ionization_Penalty_Charging>
1.82741

> <r_epik_Ionization_Penalty_Neutral>
1.62845e-08

> <r_epik_State_Penalty>
1.94311

> <r_epik_Charging_Adjusted_Penalty>
3.77052

> <i_epik_Tot_Q>
1

> <i_epik_Tot_abs_Q>
1

> <r_epik_Metal_State_Penalty>
1.96982

> <b_epik_Metal_Only>
0

> <s_lp_Force_Field>
OPLS_2005

> <r_lp_Energy>
15.9357

> <b_lp_Chiralities_Consistent>
1

> <s_lp_Variant>
AV-unprocessed.smi:3119-2

> <Gold.Version>
5.8.1

> <Gold.Id.Protein>
6NUR|6NUR_protein|mol2

> <Gold.PLP.Fitness>
46.1049

> <Gold.PLP.PLP>
-35.6561

> <Gold.PLP.part.hbond>
-3.0000

> <Gold.PLP.part.metal>
0.0000

> <Gold.PLP.part.buried>
-3.0687

> <Gold.PLP.part.nonpolar>
-28.2483

> <Gold.PLP.part.repulsive>
0.8207

> <Gold.PLP.ligand.clash>
0.0000

> <Gold.PLP.ligand.torsion>
0.9202

> <Gold.PLP.Chemscore.Hbond>
3.9600

> <Gold.PLP.Chemscore.CHOScore>
0.0000

> <Gold.PLP.Chemscore.Metal>
0.0000

> <Gold.Chemscore.Hbonds>
donor molecule, donor type, donor heavy atom, donor atom, acceptor molecule, acceptor atom, score
      L1  H     3    16       P1  8028  1.00
      L1  H    11    32       P1  8028  1.85
      P1  H  7989  7998       L1     1  0.77

> <Gold.PLP.Chemscore.Internal.Correction>
0.4093

> <Gold.Rescore>
     Score         DG    S(hbond)    S(metal)    S(lipo)     H(rot)  DE(clash)    DE(int)     intcor
     17.38     -19.39       1.96        0.00      96.50       1.53       1.10       0.91       ----

> <Gold.Chemscore.Fitness>
17.3791

> <Gold.Chemscore.DG>
-19.3906

> <Gold.Chemscore.ZeroCoef>
-5.4800

> <Gold.Chemscore.Hbond>
1.9554

> <Gold.Chemscore.Metal>
0.0000

> <Gold.Chemscore.Lipo>
96.5020

> <Gold.Chemscore.Internal_Hbond>
0.0000

> <Gold.Chemscore.DEClash>
1.1002

> <Gold.Chemscore.DEInternal>
0.9114

> <Gold.Chemscore.Rot>
1.5278

> <Gold.Chemscore.Internal.Correction>
   9.000000E+99

> <Gold.Chemscore.Hbonds>
donor molecule, donor type, donor heavy atom, donor atom, acceptor molecule, acceptor atom, score
      L1  H     3    16       P1  8028  0.99
      L1  H    11    32       P1  8028  0.73
      P1  H  7989  7998       L1     1  0.10

> <Gold.Chemscore.Hbond.Weighted>
-6.5310

> <Gold.Chemscore.Metal.Weighted>
-0.0000

> <Gold.Chemscore.Lipo.Weighted>
-11.2907

> <Gold.Chemscore.Internal_Hbond.Weighted>
0.0000

> <Gold.Chemscore.DEClash.Weighted>
1.1002

> <Gold.Chemscore.DEInternal.Weighted>
0.9114

> <Gold.Chemscore.Rot.Weighted>
3.9111

> <Gold.Chemscore.Internal.Correction.Weighted>
   9.000000E+99

> <Gold.Protein.RotatedTorsions>
[ 6907 6896 6895 6894 ] final  -41.21 input  -60.11 | X-H torsion
[ 7974 7965 7964 7962 ] final  125.68 input  175.53 | X-H torsion
[ 8008 7997 7996 7995 ] final   22.39 input   59.86 | X-H torsion
[ 10167 10162 10161 10158 ] final   55.08 input  -65.29 | X-H torsion
[ 10718 10713 10712 10709 ] final   56.29 input   66.30 | X-H torsion
[ 10763 10752 10751 10750 ] final  -74.17 input  -60.55 | X-H torsion
[ 11005 11000 10999 10996 ] final -135.93 input  -57.11 | X-H torsion

> <Gold.Protein.ActiveResidues>
 VAL166  LYS551  ARG553  GLY616  TRP617  ASP618  TYR619  PRO620  LYS621  CYS622 
 ASP623  PHE694  ASN695  SER759  ASP760  ASP761  ALA762  ILE779  LEU786  VAL792 
 PHE793  MET794  SER795  GLU796  ALA797  LYS798  CYS799  TRP800  GLU811  SER814 

> <Gold.Protein.RotatedAtoms>
  150.9694  134.9070  159.7778 H   0  0  0  0  0  0  0  0  0  0  0  0  # atno 6907 bound_to 6896
  152.5185  134.3561  159.9278 H   0  0  0  0  0  0  0  0  0  0  0  0  # atno 6908 bound_to 6896
  151.3571  133.3863  159.2720 H   0  0  0  0  0  0  0  0  0  0  0  0  # atno 6909 bound_to 6896
  145.0702  139.3736  143.4961 H   0  0  0  0  0  0  0  0  0  0  0  0  # atno 7974 bound_to 7965
  154.9650  140.3083  155.5013 H   0  0  0  0  0  0  0  0  0  0  0  0  # atno 8008 bound_to 7997
  156.2972  140.2294  156.4677 H   0  0  0  0  0  0  0  0  0  0  0  0  # atno 8009 bound_to 7997
  154.7929  140.0438  157.1203 H   0  0  0  0  0  0  0  0  0  0  0  0  # atno 8010 bound_to 7997
  140.2232  144.3766  150.6442 H   0  0  0  0  0  0  0  0  0  0  0  0  # atno 10167 bound_to 10162
  157.5418  130.8703  149.8834 H   0  0  0  0  0  0  0  0  0  0  0  0  # atno 10718 bound_to 10713
  154.4694  135.5873  153.6311 H   0  0  0  0  0  0  0  0  0  0  0  0  # atno 10763 bound_to 10752
  152.9833  135.6063  154.3386 H   0  0  0  0  0  0  0  0  0  0  0  0  # atno 10764 bound_to 10752
  154.3266  135.2843  155.2472 H   0  0  0  0  0  0  0  0  0  0  0  0  # atno 10765 bound_to 10752
  140.8852  134.1881  157.4565 H   0  0  0  0  0  0  0  0  0  0  0  0  # atno 11005 bound_to 11000
  146.3528  140.0443  142.8640 LP  0  0  0  0  0  0  0  0  0  0  0  0  # atno 17320 bound_to 7965
  145.1302  140.9513  143.4549 LP  0  0  0  0  0  0  0  0  0  0  0  0  # atno 17321 bound_to 7965
  140.6239  143.2179  151.6636 LP  0  0  0  0  0  0  0  0  0  0  0  0  # atno 17342 bound_to 10162
  139.5136  144.3436  152.0717 LP  0  0  0  0  0  0  0  0  0  0  0  0  # atno 17343 bound_to 10162
  156.0503  130.3719  150.1217 LP  0  0  0  0  0  0  0  0  0  0  0  0  # atno 17370 bound_to 10713
  156.9396  130.9740  151.3518 LP  0  0  0  0  0  0  0  0  0  0  0  0  # atno 17371 bound_to 10713
  139.8723  134.9835  156.5199 LP  0  0  0  0  0  0  0  0  0  0  0  0  # atno 17394 bound_to 11000
  140.8413  133.8203  155.9078 LP  0  0  0  0  0  0  0  0  0  0  0  0  # atno 17395 bound_to 11000

$$$$
