AV-unprocessed.smi:1743|AV-procd|sdf|7023|dock2
  -GOLD-   22720 8243D 1   1.00000     0.00000
 Structure written by MMmdl.
 38 39  0  0  0  0  0  0  0  0  1 V2000
  146.1132  137.4846  152.2988 C   0  0  0  0  0  0  0  0  0  0  0  0
  146.3333  138.8533  151.9755 O   0  0  0  0  0  0  0  0  0  0  0  0
  147.0367  139.6328  152.8709 C   0  0  0  0  0  0  0  0  0  0  0  0
  148.0181  139.0184  153.6740 C   0  0  0  0  0  0  0  0  0  0  0  0
  148.7388  139.8062  154.5919 C   0  0  0  0  0  0  0  0  0  0  0  0
  148.4485  141.1882  154.6826 C   0  0  0  0  0  0  0  0  0  0  0  0
  149.1187  142.0896  155.5529 N   0  0  0  0  0  0  0  0  0  0  0  0
  150.1463  141.8407  156.3829 C   0  0  0  0  0  0  0  0  0  0  0  0
  150.6644  140.7383  156.5596 O   0  0  0  0  0  0  0  0  0  0  0  0
  150.5301  142.9553  157.0221 N   0  0  0  0  0  0  0  0  0  0  0  0
  151.6033  143.0511  158.0082 C   0  0  2  0  0  0  0  0  0  0  0  0
  151.5822  141.8143  158.9255 C   0  0  0  0  0  0  0  0  0  0  0  0
  152.6494  141.9101  160.0304 C   0  0  0  0  0  0  0  0  0  0  0  0
  152.5332  143.2126  160.8446 C   0  0  2  0  0  0  0  0  0  0  0  0
  151.3701  143.1799  161.6478 O   0  0  0  0  0  0  0  0  0  0  0  0
  152.5094  144.4522  159.9301 C   0  0  0  0  0  0  0  0  0  0  0  0
  151.4410  144.3442  158.8278 C   0  0  0  0  0  0  0  0  0  0  0  0
  147.4594  141.7087  153.8225 C   0  0  0  0  0  0  0  0  0  0  0  0
  146.7635  140.9592  152.9422 N   0  0  0  0  0  0  0  0  0  0  0  0
  145.5461  137.0109  151.4976 H   0  0  0  0  0  0  0  0  0  0  0  0
  145.5369  137.3788  153.2190 H   0  0  0  0  0  0  0  0  0  0  0  0
  147.0548  136.9435  152.4026 H   0  0  0  0  0  0  0  0  0  0  0  0
  148.2182  137.9609  153.5848 H   0  0  0  0  0  0  0  0  0  0  0  0
  149.5046  139.3405  155.1924 H   0  0  0  0  0  0  0  0  0  0  0  0
  148.7379  143.0239  155.5852 H   0  0  0  0  0  0  0  0  0  0  0  0
  150.0362  143.8106  156.8135 H   0  0  0  0  0  0  0  0  0  0  0  0
  152.5734  143.0901  157.5092 H   0  0  0  0  0  0  0  0  0  0  0  0
  150.5967  141.7079  159.3816 H   0  0  0  0  0  0  0  0  0  0  0  0
  151.7464  140.9111  158.3368 H   0  0  0  0  0  0  0  0  0  0  0  0
  152.5843  141.0443  160.6905 H   0  0  0  0  0  0  0  0  0  0  0  0
  153.6373  141.8669  159.5703 H   0  0  0  0  0  0  0  0  0  0  0  0
  153.3841  143.2858  161.5229 H   0  0  0  0  0  0  0  0  0  0  0  0
  151.0598  144.0649  161.7628 H   0  0  0  0  0  0  0  0  0  0  0  0
  152.3501  145.3555  160.5200 H   0  0  0  0  0  0  0  0  0  0  0  0
  153.4877  144.5653  159.4613 H   0  0  0  0  0  0  0  0  0  0  0  0
  151.5070  145.2118  158.1701 H   0  0  0  0  0  0  0  0  0  0  0  0
  150.4480  144.3755  159.2785 H   0  0  0  0  0  0  0  0  0  0  0  0
  147.2134  142.7604  153.8430 H   0  0  0  0  0  0  0  0  0  0  0  0
  1  2  1  0  0  0  0
  1 20  1  0  0  0  0
  1 21  1  0  0  0  0
  1 22  1  0  0  0  0
  2  3  1  0  0  0  0
  3 19  1  0  0  0  0
  3  4  2  0  0  0  0
  4  5  1  0  0  0  0
  4 23  1  0  0  0  0
  5  6  2  0  0  0  0
  5 24  1  0  0  0  0
  6  7  1  0  0  0  0
  6 18  1  0  0  0  0
  7  8  1  0  0  0  0
  7 25  1  0  0  0  0
  8  9  2  0  0  0  0
  8 10  1  0  0  0  0
 10 11  1  0  0  0  0
 10 26  1  0  0  0  0
 11 17  1  0  0  0  0
 11 12  1  0  0  0  0
 11 27  1  0  0  0  0
 12 13  1  0  0  0  0
 12 28  1  0  0  0  0
 12 29  1  0  0  0  0
 13 14  1  0  0  0  0
 13 30  1  0  0  0  0
 13 31  1  0  0  0  0
 14 15  1  0  0  0  0
 14 16  1  0  0  0  0
 14 32  1  0  0  0  0
 15 33  1  0  0  0  0
 16 17  1  0  0  0  0
 16 34  1  0  0  0  0
 16 35  1  0  0  0  0
 17 36  1  0  0  0  0
 17 37  1  0  0  0  0
 18 19  2  0  0  0  0
 18 38  1  0  0  0  0
M  END
> <s_m_source_file>
AV-unprocessed.smi

> <i_m_source_file_index>
1743

> <i_lp_mmshare_version>
43012

> <i_f3d_flags>
0

> <s_epik_input>
W0NIM11PYzFbY0hdW2NIXWMoW2NIXW4xKVtOSF1DKD1PKVtOSF1bQ0BASF0yW0NIMl1bQ0gyXVtDQEBIXShbT0hdKVtDSDJdW0NIMl0y

> <s_epik_cmdline>
J2VwaWtfcHl0aG9uJywgJy1waCcsICc3LjAnLCAnLXRuJywgJzgnLCAnLW1hJywgJzIwMCcsICctbWV0YWxfYmluZGluZycsICctaW1hZScsICc8aW5maWxlLm1hZT4nLCAnLW9tYWUnLCAnPG91dGZpbGUubWFlPic=

> <r_lp_tautomer_probability>
1

> <r_epik_Ionization_Penalty>
9.95686e-05

> <r_epik_Ionization_Penalty_Charging>
0

> <r_epik_Ionization_Penalty_Neutral>
9.95686e-05

> <r_epik_State_Penalty>
-0

> <r_epik_Charging_Adjusted_Penalty>
0

> <i_epik_Tot_Q>
0

> <i_epik_Tot_abs_Q>
0

> <r_epik_Metal_State_Penalty>
-0

> <b_epik_Metal_Only>
0

> <s_lp_Force_Field>
OPLS_2005

> <r_lp_Energy>
13.581

> <b_lp_Chiralities_Consistent>
1

> <s_lp_Variant>
AV-unprocessed.smi:1743-2

> <Gold.Version>
5.8.1

> <Gold.Id.Protein>
6NUR|6NUR_protein|mol2

> <Gold.PLP.Fitness>
45.1941

> <Gold.PLP.PLP>
-38.9734

> <Gold.PLP.part.hbond>
-4.0000

> <Gold.PLP.part.metal>
0.0000

> <Gold.PLP.part.buried>
-3.4144

> <Gold.PLP.part.nonpolar>
-32.0038

> <Gold.PLP.part.repulsive>
0.7441

> <Gold.PLP.ligand.clash>
0.0000

> <Gold.PLP.ligand.torsion>
0.6474

> <Gold.PLP.Chemscore.Hbond>
2.5040

> <Gold.PLP.Chemscore.CHOScore>
0.0000

> <Gold.PLP.Chemscore.Metal>
0.0000

> <Gold.Chemscore.Hbonds>
donor molecule, donor type, donor heavy atom, donor atom, acceptor molecule, acceptor atom, score
      L1  H     7    25       P1  8028  1.00
      L1  H    10    26       P1  8028  0.98
      P1  H  6933  6945       L1    15  0.51

> <Gold.PLP.Chemscore.Internal.Correction>
0.0036

> <Gold.Rescore>
     Score         DG    S(hbond)    S(metal)    S(lipo)     H(rot)  DE(clash)    DE(int)     intcor
     15.21     -19.61       2.30        0.00      93.91       1.77       1.02       3.38       ----

> <Gold.Chemscore.Fitness>
15.2096

> <Gold.Chemscore.DG>
-19.6063

> <Gold.Chemscore.ZeroCoef>
-5.4800

> <Gold.Chemscore.Hbond>
2.2975

> <Gold.Chemscore.Metal>
0.0000

> <Gold.Chemscore.Lipo>
93.9084

> <Gold.Chemscore.Internal_Hbond>
0.0000

> <Gold.Chemscore.DEClash>
1.0181

> <Gold.Chemscore.DEInternal>
3.3787

> <Gold.Chemscore.Rot>
1.7714

> <Gold.Chemscore.Internal.Correction>
   9.000000E+99

> <Gold.Chemscore.Hbonds>
donor molecule, donor type, donor heavy atom, donor atom, acceptor molecule, acceptor atom, score
      L1  H     7    25       P1  8028  0.98
      L1  H    10    26       P1  8028  0.93
      P1  H  6933  6945       L1    15  0.42

> <Gold.Chemscore.Hbond.Weighted>
-7.6737

> <Gold.Chemscore.Metal.Weighted>
-0.0000

> <Gold.Chemscore.Lipo.Weighted>
-10.9873

> <Gold.Chemscore.Internal_Hbond.Weighted>
0.0000

> <Gold.Chemscore.DEClash.Weighted>
1.0181

> <Gold.Chemscore.DEInternal.Weighted>
3.3787

> <Gold.Chemscore.Rot.Weighted>
4.5347

> <Gold.Chemscore.Internal.Correction.Weighted>
   9.000000E+99

> <Gold.Protein.RotatedTorsions>
[ 6907 6896 6895 6894 ] final   70.37 input  -60.11 | X-H torsion
[ 7974 7965 7964 7962 ] final  -57.30 input  175.53 | X-H torsion
[ 8008 7997 7996 7995 ] final -168.83 input   59.86 | X-H torsion
[ 10167 10162 10161 10158 ] final -127.39 input  -65.29 | X-H torsion
[ 10718 10713 10712 10709 ] final  103.80 input   66.30 | X-H torsion
[ 10763 10752 10751 10750 ] final   42.53 input  -60.55 | X-H torsion
[ 11005 11000 10999 10996 ] final  119.81 input  -57.11 | X-H torsion

> <Gold.Protein.ActiveResidues>
 VAL166  LYS551  ARG553  GLY616  TRP617  ASP618  TYR619  PRO620  LYS621  CYS622 
 ASP623  PHE694  ASN695  SER759  ASP760  ASP761  ALA762  ILE779  LEU786  VAL792 
 PHE793  MET794  SER795  GLU796  ALA797  LYS798  CYS799  TRP800  GLU811  SER814 

> <Gold.Protein.RotatedAtoms>
  152.4745  134.4879  159.9685 H   0  0  0  0  0  0  0  0  0  0  0  0  # atno 6907 bound_to 6896
  151.4898  133.3521  159.2859 H   0  0  0  0  0  0  0  0  0  0  0  0  # atno 6908 bound_to 6896
  150.8775  134.8187  159.7261 H   0  0  0  0  0  0  0  0  0  0  0  0  # atno 6909 bound_to 6896
  145.8526  140.8341  142.9977 H   0  0  0  0  0  0  0  0  0  0  0  0  # atno 7974 bound_to 7965
  155.8967  140.1034  157.1379 H   0  0  0  0  0  0  0  0  0  0  0  0  # atno 8008 bound_to 7997
  154.4021  140.1300  156.4449 H   0  0  0  0  0  0  0  0  0  0  0  0  # atno 8009 bound_to 7997
  155.7470  140.3466  155.5134 H   0  0  0  0  0  0  0  0  0  0  0  0  # atno 8010 bound_to 7997
  139.9614  143.5946  152.2444 H   0  0  0  0  0  0  0  0  0  0  0  0  # atno 10167 bound_to 10162
  157.6761  131.0788  150.5609 H   0  0  0  0  0  0  0  0  0  0  0  0  # atno 10718 bound_to 10713
  152.9881  135.6129  154.2964 H   0  0  0  0  0  0  0  0  0  0  0  0  # atno 10763 bound_to 10752
  154.2687  135.2780  155.2749 H   0  0  0  0  0  0  0  0  0  0  0  0  # atno 10764 bound_to 10752
  154.5142  135.5833  153.6686 H   0  0  0  0  0  0  0  0  0  0  0  0  # atno 10765 bound_to 10752
  139.9161  134.9631  156.7711 H   0  0  0  0  0  0  0  0  0  0  0  0  # atno 11005 bound_to 11000
  144.6728  140.0976  143.7462 LP  0  0  0  0  0  0  0  0  0  0  0  0  # atno 17320 bound_to 7965
  145.9340  139.2624  143.1308 LP  0  0  0  0  0  0  0  0  0  0  0  0  # atno 17321 bound_to 7965
  139.6551  144.7662  151.2071 LP  0  0  0  0  0  0  0  0  0  0  0  0  # atno 17342 bound_to 10162
  140.7552  143.6098  150.8616 LP  0  0  0  0  0  0  0  0  0  0  0  0  # atno 17343 bound_to 10162
  156.5912  130.4330  149.5936 LP  0  0  0  0  0  0  0  0  0  0  0  0  # atno 17370 bound_to 10713
  156.2582  130.6947  151.1706 LP  0  0  0  0  0  0  0  0  0  0  0  0  # atno 17371 bound_to 10713
  140.6620  133.9637  155.7810 LP  0  0  0  0  0  0  0  0  0  0  0  0  # atno 17394 bound_to 11000
  141.0637  134.0308  157.3623 LP  0  0  0  0  0  0  0  0  0  0  0  0  # atno 17395 bound_to 11000

$$$$
