#       Name:                AV-unprocessed.smi:1120
#       Creating user name   scv26
#       Creation time:       Fri Mar 27 03:37:16 2020


#       File generated by GOLD software.
#

@<TRIPOS>MOLECULE
AV-unprocessed.smi:1120
    52    53     1
SMALL
NO_CHARGES


@<TRIPOS>ATOM
      1 ****        -6.9614   0.6138  -1.4069 C.3            1 S1                 0.0000
      2 ****        -5.4357   0.4558  -1.3391 C.3            1 S1                 0.0000
      3 ****        -4.9020  -0.3766  -2.5207 C.3            1 S1                 0.0000
      4 ****        -3.3747  -0.5358  -2.4545 C.3            1 S1                 0.0000
      5 ****        -2.9294  -1.1529  -1.1168 C.3            1 S1                 0.0000
      6 ****        -1.4661  -1.2180  -1.0782 N.3            1 S1                 0.0000
      7 ****        -0.6908  -2.3114   0.0118 S.o2           1 S1                 0.0000
      8 ****        -0.7159  -1.7005   1.3502 O.2            1 S1                 0.0000
      9 ****        -1.2863  -3.6389  -0.2046 O.2            1 S1                 0.0000
     10 ****         1.0416  -2.3432  -0.6285 C.3            1 S1                 0.0000
     11 ****         1.7861  -1.0784  -0.2025 C.2            1 S1                 0.0000
     12 ****         1.6538  -0.0423  -0.8531 O.2            1 S1                 0.0000
     13 ****         2.5600  -1.1721   0.8900 N.am           1 S1                 0.0000
     14 ****         3.3284  -0.0749   1.4670 C.3            1 S1                 0.0000
     15 ****         4.6502   0.1528   0.7144 C.3            1 S1                 0.0000
     16 ****         5.4747   1.2699   1.3264 C.ar           1 S1                 0.0000
     17 ****         6.5504   0.9805   2.1931 C.ar           1 S1                 0.0000
     18 ****         7.2794   2.0548   2.7392 C.ar           1 S1                 0.0000
     19 ****         6.9066   3.3697   2.4008 C.ar           1 S1                 0.0000
     20 ****         5.8159   3.5530   1.5278 C.ar           1 S1                 0.0000
     21 ****         5.1099   2.5301   0.9990 N.ar           1 S1                 0.0000
     22 ****        -3.4650  -0.3300   0.0708 C.3            1 S1                 0.0000
     23 ****        -4.9919  -0.1678  -0.0020 C.3            1 S1                 0.0000
     24 ****        -7.4631  -0.3528  -1.3518 H              1 S1                 0.0000
     25 ****        -7.2654   1.0944  -2.3371 H              1 S1                 0.0000
     26 ****        -7.3294   1.2273  -0.5842 H              1 S1                 0.0000
     27 ****        -4.9992   1.4535  -1.4058 H              1 S1                 0.0000
     28 ****        -5.3700  -1.3620  -2.5199 H              1 S1                 0.0000
     29 ****        -5.1781   0.0951  -3.4644 H              1 S1                 0.0000
     30 ****        -3.0349  -1.1573  -3.2840 H              1 S1                 0.0000
     31 ****        -2.9052   0.4401  -2.5873 H              1 S1                 0.0000
     32 ****        -3.3256  -2.1674  -1.0567 H              1 S1                 0.0000
     33 ****        -1.0550  -0.2864  -1.0181 H              1 S1                 0.0000
     34 ****         1.5374  -3.2282  -0.2290 H              1 S1                 0.0000
     35 ****         1.0163  -2.4356  -1.7144 H              1 S1                 0.0000
     36 ****         2.6074  -2.0612   1.3661 H              1 S1                 0.0000
     37 ****         2.7282   0.8365   1.4751 H              1 S1                 0.0000
     38 ****         3.5340  -0.3198   2.5093 H              1 S1                 0.0000
     39 ****         5.2390  -0.7654   0.7087 H              1 S1                 0.0000
     40 ****         4.4536   0.3960  -0.3309 H              1 S1                 0.0000
     41 ****         6.8118  -0.0390   2.4364 H              1 S1                 0.0000
     42 ****         8.1092   1.8732   3.4060 H              1 S1                 0.0000
     43 ****         7.4424   4.2176   2.8007 H              1 S1                 0.0000
     44 ****         5.5018   4.5473   1.2469 H              1 S1                 0.0000
     45 ****        -3.2012  -0.8079   1.0143 H              1 S1                 0.0000
     46 ****        -2.9963   0.6551   0.0809 H              1 S1                 0.0000
     47 ****        -5.3319   0.4504   0.8294 H              1 S1                 0.0000
     48 ****        -5.4652  -1.1424   0.1253 H              1 S1                 0.0000
     49 ****        -1.2711  -1.6492  -1.9591 LP             1 S1                 0.0000
     50 ****         1.0605  -0.0296  -1.6579 LP             1 S1                 0.0000
     51 ****         2.1396   0.7870  -0.5769 LP             1 S1                 0.0000
     52 ****         4.3402   2.6998   0.3836 LP             1 S1                 0.0000
@<TRIPOS>BOND
    1    1    2 1     
    2    1   24 1     
    3    1   25 1     
    4    1   26 1     
    5    2   23 1     
    6    2    3 1     
    7    2   27 1     
    8    3    4 1     
    9    3   28 1     
   10    3   29 1     
   11    4    5 1     
   12    4   30 1     
   13    4   31 1     
   14    5    6 1     
   15    5   22 1     
   16    5   32 1     
   17    6    7 1     
   18    6   33 1     
   19    7    8 2     
   20    7    9 2     
   21    7   10 1     
   22   10   11 1     
   23   10   34 1     
   24   10   35 1     
   25   11   12 2     
   26   11   13 am    
   27   13   14 1     
   28   13   36 1     
   29   14   15 1     
   30   14   37 1     
   31   14   38 1     
   32   15   16 1     
   33   15   39 1     
   34   15   40 1     
   35   16   21 ar    
   36   16   17 ar    
   37   17   18 ar    
   38   17   41 1     
   39   18   19 ar    
   40   18   42 1     
   41   19   20 ar    
   42   19   43 1     
   43   20   21 ar    
   44   20   44 1     
   45   22   23 1     
   46   22   45 1     
   47   22   46 1     
   48   23   47 1     
   49   23   48 1     
   50    6   49 1     
   51   12   50 1     
   52   12   51 1     
   53   21   52 1     
@<TRIPOS>SUBSTRUCTURE
      1 S1             1
@<TRIPOS>SET
LONE_PAIRS      STATIC     ATOMS    <user>   **** ""
6 49 8 9 50 51 52
DONOR_HYDROGENS      STATIC     ATOMS    <user>   **** ""
2 33 36
ATOM$BLUE        STATIC     ATOMS    COLORGROUP SYSTEM
6 49 8 9 50 51 52
ATOM$RED        STATIC     ATOMS    COLORGROUP SYSTEM
2 33 36
