#       Name:                AV-unprocessed.smi:101
#       Creating user name   scv26
#       Creation time:       Thu Mar 26 17:45:54 2020


#       File generated by GOLD software.
#

@<TRIPOS>MOLECULE
AV-unprocessed.smi:101
    56    58     1
SMALL
NO_CHARGES


@<TRIPOS>ATOM
      1 ****        -1.4638   5.5774  -0.7304 C.3            1 S1                 0.0000
      2 ****        -2.4461   4.4461  -0.4828 C.2            1 S1                 0.0000
      3 ****        -2.0411   3.1849  -0.2145 C.2            1 S1                 0.0000
      4 ****        -2.9418   2.1590   0.0117 N.am           1 S1                 0.0000
      5 ****        -2.4590   0.7548   0.3044 C.3            1 S1                 0.0000
      6 ****        -1.2068   0.8267   0.9076 O.3            1 S1                 0.0000
      7 ****        -0.5028  -0.3667   0.6149 C.3            1 S1                 0.0000
      8 ****         0.9982  -0.1357   0.8273 C.3            1 S1                 0.0000
      9 ****         1.6878  -1.3721   0.7420 O.3            1 S1                 0.0000
     10 ****         3.0344  -1.3952   0.7659 C.2            1 S1                 0.0000
     11 ****         3.7323  -0.3829   0.8556 O.2            1 S1                 0.0000
     12 ****         3.5940  -2.7750   0.6767 C.ar           1 S1                 0.0000
     13 ****         4.9961  -2.9575   0.7185 C.ar           1 S1                 0.0000
     14 ****         5.5545  -4.2481   0.6401 C.ar           1 S1                 0.0000
     15 ****         4.7175  -5.3724   0.5179 C.ar           1 S1                 0.0000
     16 ****         3.3211  -5.2043   0.4736 C.ar           1 S1                 0.0000
     17 ****         2.7607  -3.9142   0.5520 C.ar           1 S1                 0.0000
     18 ****        -0.8962  -0.6795  -0.8340 C.3            1 S1                 0.0000
     19 ****        -0.8852  -2.0773  -1.0499 O.3            1 S1                 0.0000
     20 ****        -2.3160  -0.1264  -0.9580 C.3            1 S1                 0.0000
     21 ****        -2.4677   0.5774  -2.1779 O.3            1 S1                 0.0000
     22 ****        -4.3345   2.4144  -0.0690 C.2            1 S1                 0.0000
     23 ****        -5.1054   1.4679   0.0916 O.2            1 S1                 0.0000
     24 ****        -4.7533   3.6851  -0.3317 N.pl3          1 S1                -1.0000
     25 ****        -3.8877   4.7196  -0.5378 C.2            1 S1                 0.0000
     26 ****        -4.2792   5.8631  -0.7689 O.2            1 S1                 0.0000
     27 ****        -0.4329   5.2294  -0.6614 H              1 S1                 0.0000
     28 ****        -1.6029   6.3692   0.0064 H              1 S1                 0.0000
     29 ****        -1.6121   6.0006  -1.7243 H              1 S1                 0.0000
     30 ****        -0.9821   2.9754  -0.1835 H              1 S1                 0.0000
     31 ****        -3.1498   0.3341   1.0374 H              1 S1                 0.0000
     32 ****        -0.8730  -1.1371   1.2947 H              1 S1                 0.0000
     33 ****         1.3810   0.5721   0.0904 H              1 S1                 0.0000
     34 ****         1.1701   0.2957   1.8141 H              1 S1                 0.0000
     35 ****         5.6590  -2.1094   0.8124 H              1 S1                 0.0000
     36 ****         6.6267  -4.3747   0.6740 H              1 S1                 0.0000
     37 ****         5.1459  -6.3622   0.4582 H              1 S1                 0.0000
     38 ****         2.6777  -6.0665   0.3793 H              1 S1                 0.0000
     39 ****         1.6852  -3.8204   0.5140 H              1 S1                 0.0000
     40 ****        -0.2178  -0.1805  -1.5282 H              1 S1                 0.0000
     41 ****        -1.4966  -2.4775  -0.4508 H              1 S1                 0.0000
     42 ****        -3.0721  -0.9107  -0.9020 H              1 S1                 0.0000
     43 ****        -3.3170   0.9930  -2.1760 H              1 S1                 0.0000
     44 ****        -1.3132   0.9224   1.8973 LP             1 S1                 0.0000
     45 ****        -0.7034   1.6128   0.5490 LP             1 S1                 0.0000
     46 ****         3.3017   0.5176   0.9154 LP             1 S1                 0.0000
     47 ****         4.7291  -0.4623   0.8686 LP             1 S1                 0.0000
     48 ****         0.0332  -2.4370  -0.8852 LP             1 S1                 0.0000
     49 ****        -1.1568  -2.2754  -1.9917 LP             1 S1                 0.0000
     50 ****        -2.4043  -0.0595  -2.9462 LP             1 S1                 0.0000
     51 ****        -1.7518   1.2708  -2.2598 LP             1 S1                 0.0000
     52 ****        -4.7435   0.5534   0.2726 LP             1 S1                 0.0000
     53 ****        -6.0934   1.6136   0.0410 LP             1 S1                 0.0000
     54 ****        -5.7357   3.8665  -0.3751 LP             1 S1                 0.0000
     55 ****        -3.6172   6.5978  -0.9175 LP             1 S1                 0.0000
     56 ****        -5.2593   6.0577  -0.8080 LP             1 S1                 0.0000
@<TRIPOS>BOND
    1    1    2 1     
    2    1   27 1     
    3    1   28 1     
    4    1   29 1     
    5    2   25 1     
    6    2    3 2     
    7    3    4 1     
    8    3   30 1     
    9    4    5 1     
   10    4   22 am    
   11    5   20 1     
   12    5    6 1     
   13    5   31 1     
   14    6    7 1     
   15    7    8 1     
   16    7   18 1     
   17    7   32 1     
   18    8    9 1     
   19    8   33 1     
   20    8   34 1     
   21    9   10 1     
   22   10   11 2     
   23   10   12 1     
   24   12   17 ar    
   25   12   13 ar    
   26   13   14 ar    
   27   13   35 1     
   28   14   15 ar    
   29   14   36 1     
   30   15   16 ar    
   31   15   37 1     
   32   16   17 ar    
   33   16   38 1     
   34   17   39 1     
   35   18   19 1     
   36   18   20 1     
   37   18   40 1     
   38   19   41 1     
   39   20   21 1     
   40   20   42 1     
   41   21   43 1     
   42   22   23 2     
   43   22   24 1     
   44   24   25 1     
   45   25   26 2     
   46    6   44 1     
   47    6   45 1     
   48   11   46 1     
   49   11   47 1     
   50   19   48 1     
   51   19   49 1     
   52   21   50 1     
   53   21   51 1     
   54   23   52 1     
   55   23   53 1     
   56   24   54 1     
   57   26   55 1     
   58   26   56 1     
@<TRIPOS>SUBSTRUCTURE
      1 S1             1
@<TRIPOS>SET
LONE_PAIRS      STATIC     ATOMS    <user>   **** ""
13 44 45 46 47 48 49 50 51 52 53 54 55 56
DONOR_HYDROGENS      STATIC     ATOMS    <user>   **** ""
2 41 43
ATOM$BLUE        STATIC     ATOMS    COLORGROUP SYSTEM
13 44 45 46 47 48 49 50 51 52 53 54 55 56
ATOM$RED        STATIC     ATOMS    COLORGROUP SYSTEM
2 41 43
