#       Name:                AV-unprocessed.smi:1732
#       Creating user name   scv26
#       Creation time:       Fri Mar 27 08:18:56 2020


#       File generated by GOLD software.
#

@<TRIPOS>MOLECULE
AV-unprocessed.smi:1732
    42    43     1
SMALL
NO_CHARGES


@<TRIPOS>ATOM
      1 ****        -1.0702   2.2024   1.2557 O.2            1 S1                 0.0000
      2 ****        -0.4069   1.2174   0.9339 C.2            1 S1                 0.0000
      3 ****         1.1129   1.3387   0.8405 C.3            1 S1                 0.0000
      4 ****         1.5398   0.7903  -0.3983 O.3            1 S1                 0.0000
      5 ****         2.9466   0.8184  -0.5849 C.3            1 S1                 0.0000
      6 ****         3.2977   0.4425  -2.0226 C.3            1 S1                 0.0000
      7 ****         4.7630   0.0106  -1.9492 C.3            1 S1                 0.0000
      8 ****         4.9577  -0.5715  -0.5408 C.3            1 S1                 0.0000
      9 ****         3.6847  -0.2350   0.2494 C.3            1 S1                 0.0000
     10 ****        -0.9041  -0.0084   0.6745 N.am           1 S1                 0.0000
     11 ****        -2.2394  -0.4430   0.6379 C.2            1 S1                 0.0000
     12 ****        -3.3208   0.3753   0.5530 C.2            1 S1                 0.0000
     13 ****        -4.6775  -0.1429   0.4971 C.2            1 S1                 0.0000
     14 ****        -5.8830   0.7842   0.4833 C.3            1 S1                 0.0000
     15 ****        -6.9440   0.2082   1.0502 F              1 S1                 0.0000
     16 ****        -5.6224   1.9165   1.1369 F              1 S1                 0.0000
     17 ****        -6.2009   1.0945  -0.7728 F              1 S1                 0.0000
     18 ****        -4.8112  -1.4814   0.5405 C.2            1 S1                 0.0000
     19 ****        -3.7039  -2.3299   0.6055 N.am           1 S1                 0.0000
     20 ****        -2.4220  -1.9039   0.6567 C.2            1 S1                 0.0000
     21 ****        -1.4996  -2.7166   0.7149 O.2            1 S1                 0.0000
     22 ****        -3.8867  -3.3229   0.6184 H              1 S1                 0.0000
     23 ****         1.4074   2.3871   0.9117 H              1 S1                 0.0000
     24 ****         1.5608   0.8073   1.6809 H              1 S1                 0.0000
     25 ****         3.3451   1.8128  -0.3744 H              1 S1                 0.0000
     26 ****         2.6851  -0.4005  -2.3457 H              1 S1                 0.0000
     27 ****         3.1334   1.2612  -2.7240 H              1 S1                 0.0000
     28 ****         5.0200  -0.7020  -2.7336 H              1 S1                 0.0000
     29 ****         5.4067   0.8822  -2.0747 H              1 S1                 0.0000
     30 ****         5.1108  -1.6506  -0.5765 H              1 S1                 0.0000
     31 ****         5.8383  -0.1337  -0.0696 H              1 S1                 0.0000
     32 ****         3.9019   0.1110   1.2602 H              1 S1                 0.0000
     33 ****         3.0685  -1.1312   0.3351 H              1 S1                 0.0000
     34 ****        -0.2227  -0.7329   0.4976 H              1 S1                 0.0000
     35 ****        -3.2048   1.4454   0.4986 H              1 S1                 0.0000
     36 ****        -5.7594  -1.9986   0.5339 H              1 S1                 0.0000
     37 ****        -0.6137   3.0700   1.4527 LP             1 S1                 0.0000
     38 ****        -2.0659   2.1353   1.3203 LP             1 S1                 0.0000
     39 ****         1.1136   1.3121  -1.1373 LP             1 S1                 0.0000
     40 ****         1.2351  -0.1611  -0.4432 LP             1 S1                 0.0000
     41 ****        -0.5530  -2.3966   0.7531 LP             1 S1                 0.0000
     42 ****        -1.6968  -3.6970   0.7241 LP             1 S1                 0.0000
@<TRIPOS>BOND
    1    1    2 2     
    2    2    3 1     
    3    2   10 am    
    4    3    4 1     
    5    3   23 1     
    6    3   24 1     
    7    4    5 1     
    8    5    9 1     
    9    5    6 1     
   10    5   25 1     
   11    6    7 1     
   12    6   26 1     
   13    6   27 1     
   14    7    8 1     
   15    7   28 1     
   16    7   29 1     
   17    8    9 1     
   18    8   30 1     
   19    8   31 1     
   20    9   32 1     
   21    9   33 1     
   22   10   11 1     
   23   10   34 1     
   24   11   20 1     
   25   11   12 2     
   26   12   13 1     
   27   12   35 1     
   28   13   14 1     
   29   13   18 2     
   30   14   15 1     
   31   14   16 1     
   32   14   17 1     
   33   18   19 1     
   34   18   36 1     
   35   19   22 1     
   36   19   20 am    
   37   20   21 2     
   38    1   37 1     
   39    1   38 1     
   40    4   39 1     
   41    4   40 1     
   42   21   41 1     
   43   21   42 1     
@<TRIPOS>SUBSTRUCTURE
      1 S1             1
@<TRIPOS>SET
LONE_PAIRS      STATIC     ATOMS    <user>   **** ""
6 37 38 39 40 41 42
DONOR_HYDROGENS      STATIC     ATOMS    <user>   **** ""
2 34 22
ATOM$BLUE        STATIC     ATOMS    COLORGROUP SYSTEM
6 37 38 39 40 41 42
ATOM$RED        STATIC     ATOMS    COLORGROUP SYSTEM
2 34 22
