AV-unprocessed.smi:544|AV-procd|sdf|2878|dock7
  -GOLD-   2262023373D 1   1.00000     0.00000
 Structure written by MMmdl.
 49 51  0  0  0  0  0  0  0  0  1 V2000
  153.6008  136.9222  159.9143 C   0  0  0  0  0  0  0  0  0  0  0  0
  152.5867  137.6407  159.0214 C   0  0  0  0  0  0  0  0  0  0  0  0
  152.6751  137.1028  157.7144 O   0  0  0  0  0  0  0  0  0  0  0  0
  151.7365  137.6663  156.8139 C   0  0  0  0  0  0  0  0  0  0  0  0
  152.0770  139.1384  156.5144 C   0  0  0  0  0  0  0  0  0  0  0  0
  150.9149  139.9639  156.1872 N   0  0  0  0  0  0  0  0  0  0  0  0
  150.4895  141.1113  156.7840 C   0  0  0  0  0  0  0  0  0  0  0  0
  151.1450  141.6676  157.8822 N   0  0  0  0  0  0  0  0  0  0  0  0
  151.7837  140.9167  158.9611 C   0  0  0  0  0  0  0  0  0  0  0  0
  153.1877  141.4561  159.2815 C   0  0  0  0  0  0  0  0  0  0  0  0
  153.1181  142.9446  159.6481 C   0  0  0  0  0  0  0  0  0  0  0  0
  152.3611  143.7277  158.5610 C   0  0  2  0  0  0  0  0  0  0  0  0
  152.2003  145.2061  158.9394 C   0  0  0  0  0  0  0  0  0  0  0  0
  150.9960  143.0645  158.2859 C   0  0  0  0  0  0  0  0  0  0  0  0
  149.4290  141.6813  156.2057 N   0  0  0  0  0  0  0  0  0  0  0  0
  149.1396  140.8184  155.1607 C   0  0  0  0  0  0  0  0  0  0  0  0
  150.0254  139.7907  155.1229 C   0  0  0  0  0  0  0  0  0  0  0  0
  149.9759  138.7500  154.0852 C   0  0  0  0  0  0  0  0  0  0  0  0
  150.7886  137.8317  154.0025 O   0  0  0  0  0  0  0  0  0  0  0  0
  148.9425  138.9068  153.2231 N   0  0  0  0  0  0  0  0  0  0  0  0
  148.0090  139.9064  153.2168 C   0  0  0  0  0  0  0  0  0  0  0  0
  147.1163  139.9085  152.3693 O   0  0  0  0  0  0  0  0  0  0  0  0
  148.1143  140.8820  154.1746 N   0  0  0  0  0  0  0  0  0  0  0  0
  147.1553  141.9879  154.2071 C   0  0  0  0  0  0  0  0  0  0  0  0
  148.8539  138.2084  152.4995 H   0  0  0  0  0  0  0  0  0  0  0  0
  153.5652  137.3079  160.9333 H   0  0  0  0  0  0  0  0  0  0  0  0
  154.6160  137.0568  159.5398 H   0  0  0  0  0  0  0  0  0  0  0  0
  153.3976  135.8517  159.9533 H   0  0  0  0  0  0  0  0  0  0  0  0
  151.5796  137.5061  159.4184 H   0  0  0  0  0  0  0  0  0  0  0  0
  152.7970  138.7111  159.0033 H   0  0  0  0  0  0  0  0  0  0  0  0
  151.7198  137.0790  155.8980 H   0  0  0  0  0  0  0  0  0  0  0  0
  150.7333  137.6089  157.2385 H   0  0  0  0  0  0  0  0  0  0  0  0
  152.6116  139.5815  157.3531 H   0  0  0  0  0  0  0  0  0  0  0  0
  152.7747  139.1884  155.6795 H   0  0  0  0  0  0  0  0  0  0  0  0
  151.1548  140.9833  159.8499 H   0  0  0  0  0  0  0  0  0  0  0  0
  151.8217  139.8600  158.7099 H   0  0  0  0  0  0  0  0  0  0  0  0
  153.6263  140.8902  160.1035 H   0  0  0  0  0  0  0  0  0  0  0  0
  153.8471  141.3176  158.4251 H   0  0  0  0  0  0  0  0  0  0  0  0
  152.6087  143.0576  160.6062 H   0  0  0  0  0  0  0  0  0  0  0  0
  154.1236  143.3457  159.7791 H   0  0  0  0  0  0  0  0  0  0  0  0
  152.9474  143.6837  157.6416 H   0  0  0  0  0  0  0  0  0  0  0  0
  151.6150  145.3199  159.8525 H   0  0  0  0  0  0  0  0  0  0  0  0
  151.6943  145.7598  158.1483 H   0  0  0  0  0  0  0  0  0  0  0  0
  153.1699  145.6772  159.1038 H   0  0  0  0  0  0  0  0  0  0  0  0
  150.4773  143.6105  157.4969 H   0  0  0  0  0  0  0  0  0  0  0  0
  150.3592  143.1180  159.1700 H   0  0  0  0  0  0  0  0  0  0  0  0
  147.0221  142.4224  153.2153 H   0  0  0  0  0  0  0  0  0  0  0  0
  147.4744  142.7954  154.8662 H   0  0  0  0  0  0  0  0  0  0  0  0
  146.1852  141.6354  154.5590 H   0  0  0  0  0  0  0  0  0  0  0  0
  1  2  1  0  0  0  0
  1 26  1  0  0  0  0
  1 27  1  0  0  0  0
  1 28  1  0  0  0  0
  2  3  1  0  0  0  0
  2 29  1  0  0  0  0
  2 30  1  0  0  0  0
  3  4  1  0  0  0  0
  4  5  1  0  0  0  0
  4 31  1  0  0  0  0
  4 32  1  0  0  0  0
  5  6  1  0  0  0  0
  5 33  1  0  0  0  0
  5 34  1  0  0  0  0
  6 17  1  0  0  0  0
  6  7  1  0  0  0  0
  7  8  1  0  0  0  0
  7 15  2  0  0  0  0
  8 14  1  0  0  0  0
  8  9  1  0  0  0  0
  9 10  1  0  0  0  0
  9 35  1  0  0  0  0
  9 36  1  0  0  0  0
 10 11  1  0  0  0  0
 10 37  1  0  0  0  0
 10 38  1  0  0  0  0
 11 12  1  0  0  0  0
 11 39  1  0  0  0  0
 11 40  1  0  0  0  0
 12 13  1  0  0  0  0
 12 14  1  0  0  0  0
 12 41  1  0  0  0  0
 13 42  1  0  0  0  0
 13 43  1  0  0  0  0
 13 44  1  0  0  0  0
 14 45  1  0  0  0  0
 14 46  1  0  0  0  0
 15 16  1  0  0  0  0
 16 23  1  0  0  0  0
 16 17  2  0  0  0  0
 17 18  1  0  0  0  0
 18 19  2  0  0  0  0
 18 20  1  0  0  0  0
 20 25  1  0  0  0  0
 20 21  1  0  0  0  0
 21 22  2  0  0  0  0
 21 23  1  0  0  0  0
 23 24  1  0  0  0  0
 24 47  1  0  0  0  0
 24 48  1  0  0  0  0
 24 49  1  0  0  0  0
M  END
> <s_m_source_file>
AV-unprocessed.smi

> <i_m_source_file_index>
544

> <i_lp_mmshare_version>
43012

> <i_f3d_flags>
0

> <s_epik_input>
W0NIM11uMWMoPU8pW25IXWMoPU8pYyhjMTIpbihbQ0gyXVtDSDJdT1tDSDJdW0NIM10pYyhuMilOM1tDSDJdW0NIMl1bQ0gyXVtDQEBIXShbQ0gzXSlbQ0gyXTM=

> <s_epik_cmdline>
J2VwaWtfcHl0aG9uJywgJy1waCcsICc3LjAnLCAnLXRuJywgJzgnLCAnLW1hJywgJzIwMCcsICctbWV0YWxfYmluZGluZycsICctaW1hZScsICc8aW5maWxlLm1hZT4nLCAnLW9tYWUnLCAnPG91dGZpbGUubWFlPic=

> <r_lp_tautomer_probability>
1

> <r_epik_Ionization_Penalty>
0.000382477

> <r_epik_Ionization_Penalty_Charging>
0.000119472

> <r_epik_Ionization_Penalty_Neutral>
0.000263005

> <r_epik_State_Penalty>
-0

> <r_epik_Charging_Adjusted_Penalty>
0.000119472

> <i_epik_Tot_Q>
0

> <i_epik_Tot_abs_Q>
0

> <r_epik_Metal_State_Penalty>
0.0919313

> <b_epik_Metal_Only>
0

> <s_lp_Force_Field>
OPLS_2005

> <r_lp_Energy>
37.0872

> <b_lp_Chiralities_Consistent>
1

> <s_lp_Variant>
AV-unprocessed.smi:544-2

> <Gold.Version>
5.8.1

> <Gold.Id.Protein>
6NUR|6NUR_protein|mol2

> <Gold.PLP.Fitness>
47.3435

> <Gold.PLP.PLP>
-44.8374

> <Gold.PLP.part.hbond>
-1.9528

> <Gold.PLP.part.metal>
0.0000

> <Gold.PLP.part.buried>
-5.1747

> <Gold.PLP.part.nonpolar>
-41.2824

> <Gold.PLP.part.repulsive>
3.1041

> <Gold.PLP.ligand.clash>
0.0000

> <Gold.PLP.ligand.torsion>
0.5255

> <Gold.PLP.Chemscore.Hbond>
1.0000

> <Gold.PLP.Chemscore.CHOScore>
0.0000

> <Gold.PLP.Chemscore.Metal>
0.0000

> <Gold.Chemscore.Hbonds>
donor molecule, donor type, donor heavy atom, donor atom, acceptor molecule, acceptor atom, score
      L1  H    20    25       P1  7948  0.96

> <Gold.PLP.Chemscore.Internal.Correction>
0.5570

> <Gold.Rescore>
     Score         DG    S(hbond)    S(metal)    S(lipo)     H(rot)  DE(clash)    DE(int)     intcor
     15.35     -16.27       1.00        0.00      98.27       1.58       0.05       0.88       ----

> <Gold.Chemscore.Fitness>
15.3457

> <Gold.Chemscore.DG>
-16.2708

> <Gold.Chemscore.ZeroCoef>
-5.4800

> <Gold.Chemscore.Hbond>
0.9997

> <Gold.Chemscore.Metal>
0.0000

> <Gold.Chemscore.Lipo>
98.2745

> <Gold.Chemscore.Internal_Hbond>
0.0000

> <Gold.Chemscore.DEClash>
0.0451

> <Gold.Chemscore.DEInternal>
0.8800

> <Gold.Chemscore.Rot>
1.5806

> <Gold.Chemscore.Internal.Correction>
   9.000000E+99

> <Gold.Chemscore.Hbonds>
donor molecule, donor type, donor heavy atom, donor atom, acceptor molecule, acceptor atom, score
      L1  H    20    25       P1  7948  0.87

> <Gold.Chemscore.Hbond.Weighted>
-3.3390

> <Gold.Chemscore.Metal.Weighted>
-0.0000

> <Gold.Chemscore.Lipo.Weighted>
-11.4981

> <Gold.Chemscore.Internal_Hbond.Weighted>
0.0000

> <Gold.Chemscore.DEClash.Weighted>
0.0451

> <Gold.Chemscore.DEInternal.Weighted>
0.8800

> <Gold.Chemscore.Rot.Weighted>
4.0463

> <Gold.Chemscore.Internal.Correction.Weighted>
   9.000000E+99

> <Gold.Protein.RotatedTorsions>
[ 6907 6896 6895 6894 ] final  126.15 input  -60.11 | X-H torsion
[ 7974 7965 7964 7962 ] final  151.43 input  175.53 | X-H torsion
[ 8008 7997 7996 7995 ] final -159.32 input   59.86 | X-H torsion
[ 10167 10162 10161 10158 ] final   44.18 input  -65.29 | X-H torsion
[ 10718 10713 10712 10709 ] final  -53.27 input   66.30 | X-H torsion
[ 10763 10752 10751 10750 ] final  117.76 input  -60.55 | X-H torsion
[ 11005 11000 10999 10996 ] final  173.69 input  -57.11 | X-H torsion

> <Gold.Protein.ActiveResidues>
 VAL166  LYS551  ARG553  GLY616  TRP617  ASP618  TYR619  PRO620  LYS621  CYS622 
 ASP623  PHE694  ASN695  SER759  ASP760  ASP761  ALA762  ILE779  LEU786  VAL792 
 PHE793  MET794  SER795  GLU796  ALA797  LYS798  CYS799  TRP800  GLU811  SER814 

> <Gold.Protein.RotatedAtoms>
  152.3929  133.6705  159.6252 H   0  0  0  0  0  0  0  0  0  0  0  0  # atno 6907 bound_to 6896
  150.7834  133.8923  159.3326 H   0  0  0  0  0  0  0  0  0  0  0  0  # atno 6908 bound_to 6896
  151.6706  135.0978  160.0248 H   0  0  0  0  0  0  0  0  0  0  0  0  # atno 6909 bound_to 6896
  144.8293  139.6536  143.6066 H   0  0  0  0  0  0  0  0  0  0  0  0  # atno 7974 bound_to 7965
  155.7608  140.0839  157.2156 H   0  0  0  0  0  0  0  0  0  0  0  0  # atno 8008 bound_to 7997
  154.4004  140.1543  156.2886 H   0  0  0  0  0  0  0  0  0  0  0  0  # atno 8009 bound_to 7997
  155.8842  140.3419  155.5912 H   0  0  0  0  0  0  0  0  0  0  0  0  # atno 8010 bound_to 7997
  140.3369  144.2518  150.6160 H   0  0  0  0  0  0  0  0  0  0  0  0  # atno 10167 bound_to 10162
  156.1550  130.4150  149.9884 H   0  0  0  0  0  0  0  0  0  0  0  0  # atno 10718 bound_to 10713
  153.5573  135.3528  155.2784 H   0  0  0  0  0  0  0  0  0  0  0  0  # atno 10763 bound_to 10752
  154.8699  135.4128  154.2870 H   0  0  0  0  0  0  0  0  0  0  0  0  # atno 10764 bound_to 10752
  153.3608  135.7060  153.6782 H   0  0  0  0  0  0  0  0  0  0  0  0  # atno 10765 bound_to 10752
  140.3432  134.7258  157.4217 H   0  0  0  0  0  0  0  0  0  0  0  0  # atno 11005 bound_to 11000
  146.2597  139.6382  142.9370 LP  0  0  0  0  0  0  0  0  0  0  0  0  # atno 17320 bound_to 7965
  145.4931  141.0438  143.2582 LP  0  0  0  0  0  0  0  0  0  0  0  0  # atno 17321 bound_to 7965
  140.5345  143.2236  151.8185 LP  0  0  0  0  0  0  0  0  0  0  0  0  # atno 17342 bound_to 10162
  139.4847  144.4679  151.9462 LP  0  0  0  0  0  0  0  0  0  0  0  0  # atno 17343 bound_to 10162
  156.7730  130.9193  151.3644 LP  0  0  0  0  0  0  0  0  0  0  0  0  # atno 17370 bound_to 10713
  157.6687  130.9031  149.9991 LP  0  0  0  0  0  0  0  0  0  0  0  0  # atno 17371 bound_to 10713
  140.0764  134.5792  155.8587 LP  0  0  0  0  0  0  0  0  0  0  0  0  # atno 17394 bound_to 11000
  141.2033  133.6631  156.6053 LP  0  0  0  0  0  0  0  0  0  0  0  0  # atno 17395 bound_to 11000

$$$$
