AV-unprocessed.smi:1554|AV-procd|sdf|6258|dock5
  -GOLD-   22720 6443D 1   1.00000     0.00000
 Structure written by MMmdl.
 49 51  0  0  0  0  0  0  0  0  3 V2000
  152.5859  143.3949  160.4798 C   0  0  0  0  0  0  0  0  0  0  0  0
  152.1458  142.4940  159.3383 C   0  0  0  0  0  0  0  0  0  0  0  0
  152.3077  141.0972  159.4804 C   0  0  0  0  0  0  0  0  0  0  0  0
  151.8911  140.2994  158.4214 C   0  0  0  0  0  0  0  0  0  0  0  0
  151.9116  138.9128  158.2551 N   0  3  0  0  0  0  0  0  0  0  0  0
  151.3884  138.5924  157.0392 C   0  0  0  0  0  0  0  0  0  0  0  0
  151.0316  139.7549  156.4275 N   0  0  0  0  0  0  0  0  0  0  0  0
  150.4158  139.9851  155.1137 C   0  0  0  0  0  0  0  0  0  0  0  0
  150.0121  138.6749  154.4090 C   0  0  2  0  0  0  0  0  0  0  0  0
  149.3709  138.9854  153.1866 O   0  0  0  0  0  0  0  0  0  0  0  0
  149.0616  137.8217  155.2723 C   0  0  0  0  0  0  0  0  0  0  0  0
  148.7405  136.5128  154.6405 N   0  3  2  0  0  0  0  0  0  0  0  0
  147.4158  135.9709  155.0303 C   0  0  0  0  0  0  0  0  0  0  0  0
  147.4653  135.3346  156.4308 C   0  0  0  0  0  0  0  0  0  0  0  0
  148.4611  134.3190  156.4532 O   0  0  0  0  0  0  0  0  0  0  0  0
  149.7650  134.8272  156.1923 C   0  0  1  0  0  0  0  0  0  0  0  0
  150.7610  133.6684  156.3096 C   0  0  0  0  0  0  0  0  0  0  0  0
  149.7906  135.4714  154.7887 C   0  0  0  0  0  0  0  0  0  0  0  0
  151.3308  140.8456  157.2506 C   0  0  0  0  0  0  0  0  0  0  0  0
  151.1677  142.2196  157.0922 C   0  0  0  0  0  0  0  0  0  0  0  0
  151.5840  143.0479  158.1587 C   0  0  0  0  0  0  0  0  0  0  0  0
  151.4165  144.5512  158.0157 C   0  0  0  0  0  0  0  0  0  0  0  0
  153.0067  142.8183  161.3040 H   0  0  0  0  0  0  0  0  0  0  0  0
  151.7390  143.9612  160.8680 H   0  0  0  0  0  0  0  0  0  0  0  0
  153.3475  144.0979  160.1419 H   0  0  0  0  0  0  0  0  0  0  0  0
  152.7353  140.6688  160.3752 H   0  0  0  0  0  0  0  0  0  0  0  0
  151.2729  137.5961  156.6371 H   0  0  0  0  0  0  0  0  0  0  0  0
  149.5528  140.6379  155.2514 H   0  0  0  0  0  0  0  0  0  0  0  0
  151.1316  140.5416  154.5066 H   0  0  0  0  0  0  0  0  0  0  0  0
  150.9161  138.1132  154.1784 H   0  0  0  0  0  0  0  0  0  0  0  0
  148.8509  138.2428  152.9188 H   0  0  0  0  0  0  0  0  0  0  0  0
  149.4915  137.6615  156.2611 H   0  0  0  0  0  0  0  0  0  0  0  0
  148.1433  138.3881  155.4346 H   0  0  0  0  0  0  0  0  0  0  0  0
  146.6502  136.7459  154.9810 H   0  0  0  0  0  0  0  0  0  0  0  0
  147.1281  135.2120  154.3015 H   0  0  0  0  0  0  0  0  0  0  0  0
  147.6676  136.0817  157.1997 H   0  0  0  0  0  0  0  0  0  0  0  0
  146.5016  134.8857  156.6714 H   0  0  0  0  0  0  0  0  0  0  0  0
  150.0174  135.5671  156.9528 H   0  0  0  0  0  0  0  0  0  0  0  0
  151.7819  134.0091  156.1344 H   0  0  0  0  0  0  0  0  0  0  0  0
  150.5415  132.8825  155.5864 H   0  0  0  0  0  0  0  0  0  0  0  0
  150.7259  133.2242  157.3045 H   0  0  0  0  0  0  0  0  0  0  0  0
  149.6050  134.7032  154.0367 H   0  0  0  0  0  0  0  0  0  0  0  0
  150.7791  135.8730  154.5702 H   0  0  0  0  0  0  0  0  0  0  0  0
  150.7398  142.6409  156.1948 H   0  0  0  0  0  0  0  0  0  0  0  0
  150.9608  144.8132  157.0603 H   0  0  0  0  0  0  0  0  0  0  0  0
  152.3841  145.0507  158.0709 H   0  0  0  0  0  0  0  0  0  0  0  0
  150.7779  144.9434  158.8076 H   0  0  0  0  0  0  0  0  0  0  0  0
  148.6728  136.7147  153.6527 H   0  0  0  0  0  0  0  0  0  0  0  0
  152.2549  138.2328  158.9217 H   0  0  0  0  0  0  0  0  0  0  0  0
  1  2  1  0  0  0  0
  1 23  1  0  0  0  0
  1 24  1  0  0  0  0
  1 25  1  0  0  0  0
  2 21  1  0  0  0  0
  2  3  2  0  0  0  0
  3  4  1  0  0  0  0
  3 26  1  0  0  0  0
  4 19  2  0  0  0  0
  4  5  1  0  0  0  0
  5  6  2  0  0  0  0
  5 49  1  0  0  0  0
  6  7  1  0  0  0  0
  6 27  1  0  0  0  0
  7  8  1  0  0  0  0
  7 19  1  0  0  0  0
  8  9  1  0  0  0  0
  8 28  1  0  0  0  0
  8 29  1  0  0  0  0
  9 10  1  0  0  0  0
  9 11  1  0  0  0  0
  9 30  1  0  0  0  0
 10 31  1  0  0  0  0
 11 12  1  0  0  0  0
 11 32  1  0  0  0  0
 11 33  1  0  0  0  0
 12 18  1  0  0  0  0
 12 13  1  0  0  0  0
 12 48  1  0  0  0  0
 13 14  1  0  0  0  0
 13 34  1  0  0  0  0
 13 35  1  0  0  0  0
 14 15  1  0  0  0  0
 14 36  1  0  0  0  0
 14 37  1  0  0  0  0
 15 16  1  0  0  0  0
 16 17  1  0  0  0  0
 16 18  1  0  0  0  0
 16 38  1  0  0  0  0
 17 39  1  0  0  0  0
 17 40  1  0  0  0  0
 17 41  1  0  0  0  0
 18 42  1  0  0  0  0
 18 43  1  0  0  0  0
 19 20  1  0  0  0  0
 20 21  2  0  0  0  0
 20 44  1  0  0  0  0
 21 22  1  0  0  0  0
 22 45  1  0  0  0  0
 22 46  1  0  0  0  0
 22 47  1  0  0  0  0
M  CHG  1   5   1
M  CHG  1  12   1
M  END
> <s_m_source_file>
AV-unprocessed.smi

> <i_m_source_file_index>
1554

> <i_lp_mmshare_version>
43012

> <i_f3d_flags>
0

> <s_epik_input>
W0NIM11jKFtjSF0xKWMoW0NIM10pW2NIXWMoYzEyKW4oW2NIXW4yKVtDSDJdW0NASF0oW09IXSlbQ0gyXU4zW0NIMl1bQ0gyXU9bQ0BASF0oW0NIM10pW0NIMl0z

> <s_epik_cmdline>
J2VwaWtfcHl0aG9uJywgJy1waCcsICc3LjAnLCAnLXRuJywgJzgnLCAnLW1hJywgJzIwMCcsICctbWV0YWxfYmluZGluZycsICctaW1hZScsICc8aW5maWxlLm1hZT4nLCAnLW9tYWUnLCAnPG91dGZpbGUubWFlPic=

> <r_epik_Ionization_Penalty>
1.8848

> <r_epik_Ionization_Penalty_Charging>
1.88479

> <r_epik_Ionization_Penalty_Neutral>
1.42224e-05

> <r_epik_State_Penalty>
1.94551

> <r_epik_Charging_Adjusted_Penalty>
3.8303

> <i_epik_Tot_Q>
2

> <i_epik_Tot_abs_Q>
2

> <r_epik_Metal_State_Penalty>
5.95849

> <b_epik_Metal_Only>
0

> <s_lp_Force_Field>
OPLS_2005

> <r_lp_Energy>
31.481

> <b_lp_Chiralities_Consistent>
1

> <s_lp_Variant>
AV-unprocessed.smi:1554-19

> <Gold.Version>
5.8.1

> <Gold.Id.Protein>
6NUR|6NUR_protein|mol2

> <Gold.PLP.Fitness>
46.9336

> <Gold.PLP.PLP>
-38.5211

> <Gold.PLP.part.hbond>
-2.7331

> <Gold.PLP.part.metal>
0.0000

> <Gold.PLP.part.buried>
-3.4850

> <Gold.PLP.part.nonpolar>
-31.0277

> <Gold.PLP.part.repulsive>
0.0891

> <Gold.PLP.ligand.clash>
0.0000

> <Gold.PLP.ligand.torsion>
0.3085

> <Gold.PLP.Chemscore.Hbond>
3.0000

> <Gold.PLP.Chemscore.CHOScore>
0.0000

> <Gold.PLP.Chemscore.Metal>
0.0000

> <Gold.Chemscore.Hbonds>
donor molecule, donor type, donor heavy atom, donor atom, acceptor molecule, acceptor atom, score
      L1  H    10    31       P1  7948  0.39
      L1  H    12    48       P1  7948  2.00

> <Gold.PLP.Chemscore.Internal.Correction>
0.0295

> <Gold.Rescore>
     Score         DG    S(hbond)    S(metal)    S(lipo)     H(rot)  DE(clash)    DE(int)     intcor
     17.73     -19.12       1.90        0.00     108.60       2.11       0.04       1.35       ----

> <Gold.Chemscore.Fitness>
17.7315

> <Gold.Chemscore.DG>
-19.1226

> <Gold.Chemscore.ZeroCoef>
-5.4800

> <Gold.Chemscore.Hbond>
1.8992

> <Gold.Chemscore.Metal>
0.0000

> <Gold.Chemscore.Lipo>
108.6019

> <Gold.Chemscore.Internal_Hbond>
0.0000

> <Gold.Chemscore.DEClash>
0.0387

> <Gold.Chemscore.DEInternal>
1.3524

> <Gold.Chemscore.Rot>
2.1122

> <Gold.Chemscore.Internal.Correction>
   9.000000E+99

> <Gold.Chemscore.Hbonds>
donor molecule, donor type, donor heavy atom, donor atom, acceptor molecule, acceptor atom, score
      L1  H    10    31       P1  7948  0.38
      L1  H    12    48       P1  7948  0.94

> <Gold.Chemscore.Hbond.Weighted>
-6.3435

> <Gold.Chemscore.Metal.Weighted>
-0.0000

> <Gold.Chemscore.Lipo.Weighted>
-12.7064

> <Gold.Chemscore.Internal_Hbond.Weighted>
0.0000

> <Gold.Chemscore.DEClash.Weighted>
0.0387

> <Gold.Chemscore.DEInternal.Weighted>
1.3524

> <Gold.Chemscore.Rot.Weighted>
5.4073

> <Gold.Chemscore.Internal.Correction.Weighted>
   9.000000E+99

> <Gold.Protein.RotatedTorsions>
[ 6907 6896 6895 6894 ] final  104.59 input  -60.11 | X-H torsion
[ 7974 7965 7964 7962 ] final  -63.07 input  175.53 | X-H torsion
[ 8008 7997 7996 7995 ] final  -38.60 input   59.86 | X-H torsion
[ 10167 10162 10161 10158 ] final  122.21 input  -65.29 | X-H torsion
[ 10718 10713 10712 10709 ] final   71.61 input   66.30 | X-H torsion
[ 10763 10752 10751 10750 ] final   50.25 input  -60.55 | X-H torsion
[ 11005 11000 10999 10996 ] final   82.50 input  -57.11 | X-H torsion

> <Gold.Protein.ActiveResidues>
 VAL166  LYS551  ARG553  GLY616  TRP617  ASP618  TYR619  PRO620  LYS621  CYS622 
 ASP623  PHE694  ASN695  SER759  ASP760  ASP761  ALA762  ILE779  LEU786  VAL792 
 PHE793  MET794  SER795  GLU796  ALA797  LYS798  CYS799  TRP800  GLU811  SER814 

> <Gold.Protein.RotatedAtoms>
  152.5259  133.9654  159.7736 H   0  0  0  0  0  0  0  0  0  0  0  0  # atno 6907 bound_to 6896
  150.9936  133.6117  159.2712 H   0  0  0  0  0  0  0  0  0  0  0  0  # atno 6908 bound_to 6896
  151.3251  135.0834  159.9372 H   0  0  0  0  0  0  0  0  0  0  0  0  # atno 6909 bound_to 6896
  145.7835  140.8749  143.0318 H   0  0  0  0  0  0  0  0  0  0  0  0  # atno 7974 bound_to 7965
  154.4034  140.1573  156.2727 H   0  0  0  0  0  0  0  0  0  0  0  0  # atno 8008 bound_to 7997
  155.8939  140.3437  155.5954 H   0  0  0  0  0  0  0  0  0  0  0  0  # atno 8009 bound_to 7997
  155.7526  140.0807  157.2184 H   0  0  0  0  0  0  0  0  0  0  0  0  # atno 8010 bound_to 7997
  139.5872  144.7011  151.3378 H   0  0  0  0  0  0  0  0  0  0  0  0  # atno 10167 bound_to 10162
  157.6460  130.9537  150.0814 H   0  0  0  0  0  0  0  0  0  0  0  0  # atno 10718 bound_to 10713
  152.9785  135.5885  154.4222 H   0  0  0  0  0  0  0  0  0  0  0  0  # atno 10763 bound_to 10752
  154.3845  135.2767  155.2193 H   0  0  0  0  0  0  0  0  0  0  0  0  # atno 10764 bound_to 10752
  154.4092  135.6085  153.5997 H   0  0  0  0  0  0  0  0  0  0  0  0  # atno 10765 bound_to 10752
  139.9061  134.8076  156.2183 H   0  0  0  0  0  0  0  0  0  0  0  0  # atno 11005 bound_to 11000
  144.6792  140.0023  143.7484 LP  0  0  0  0  0  0  0  0  0  0  0  0  # atno 17320 bound_to 7965
  146.0049  139.3122  143.0905 LP  0  0  0  0  0  0  0  0  0  0  0  0  # atno 17321 bound_to 7965
  140.7142  143.7310  150.7623 LP  0  0  0  0  0  0  0  0  0  0  0  0  # atno 17342 bound_to 10162
  140.0858  143.4925  152.2506 LP  0  0  0  0  0  0  0  0  0  0  0  0  # atno 17343 bound_to 10162
  156.1789  130.3649  149.9062 LP  0  0  0  0  0  0  0  0  0  0  0  0  # atno 17370 bound_to 10713
  156.7020  130.8936  151.3600 LP  0  0  0  0  0  0  0  0  0  0  0  0  # atno 17371 bound_to 10713
  141.0422  133.6932  156.1618 LP  0  0  0  0  0  0  0  0  0  0  0  0  # atno 17394 bound_to 11000
  140.6939  134.4637  157.5588 LP  0  0  0  0  0  0  0  0  0  0  0  0  # atno 17395 bound_to 11000

$$$$
