AV-unprocessed.smi:72|AV-procd|sdf|671|dock8
  -GOLD-   2262016573D 1   1.00000     0.00000
 Structure written by MMmdl.
 29 30  0  0  0  0  0  0  0  0  1 V2000
  153.7320  138.7534  154.6213 N   0  0  0  0  0  0  0  0  0  0  0  0
  152.4595  138.9171  154.5459 C   0  0  0  0  0  0  0  0  0  0  0  0
  151.6142  138.2826  153.6230 N   0  0  0  0  0  0  0  0  0  0  0  0
  150.3433  138.5390  153.6660 C   0  0  0  0  0  0  0  0  0  0  0  0
  149.7696  139.4547  154.6402 N   0  0  0  0  0  0  0  0  0  0  0  0
  148.2791  139.7230  154.6655 C   0  0  2  0  0  0  0  0  0  0  0  0
  147.6501  138.7676  153.8681 O   0  0  0  0  0  0  0  0  0  0  0  0
  146.5967  139.3786  153.1392 C   0  0  2  0  0  0  0  0  0  0  0  0
  146.3032  138.5429  151.8833 C   0  0  0  0  0  0  0  0  0  0  0  0
  147.4215  138.5281  151.0222 O   0  0  0  0  0  0  0  0  0  0  0  0
  147.1145  140.7961  152.8677 C   0  0  1  0  0  0  0  0  0  0  0  0
  146.0385  141.6980  152.7024 O   0  0  0  0  0  0  0  0  0  0  0  0
  147.8963  141.1242  154.1344 C   0  0  2  0  0  0  0  0  0  0  0  0
  148.9963  141.9681  153.8447 O   0  0  0  0  0  0  0  0  0  0  0  0
  150.6103  140.1169  155.5675 C   0  0  0  0  0  0  0  0  0  0  0  0
  150.1831  140.9246  156.3918 O   0  0  0  0  0  0  0  0  0  0  0  0
  151.9236  139.8127  155.4818 N   0  0  0  0  0  0  0  0  0  0  0  0
  147.9463  139.5652  155.6922 H   0  0  0  0  0  0  0  0  0  0  0  0
  145.7249  139.4071  153.7963 H   0  0  0  0  0  0  0  0  0  0  0  0
  147.7665  140.8040  151.9926 H   0  0  0  0  0  0  0  0  0  0  0  0
  147.2571  141.5967  154.8818 H   0  0  0  0  0  0  0  0  0  0  0  0
  154.0476  138.0984  153.9209 H   0  0  0  0  0  0  0  0  0  0  0  0
  149.6252  138.0923  152.9767 H   0  0  0  0  0  0  0  0  0  0  0  0
  146.0251  137.5221  152.1465 H   0  0  0  0  0  0  0  0  0  0  0  0
  145.4639  138.9738  151.3370 H   0  0  0  0  0  0  0  0  0  0  0  0
  147.8892  139.3430  151.1226 H   0  0  0  0  0  0  0  0  0  0  0  0
  145.2309  141.2079  152.7123 H   0  0  0  0  0  0  0  0  0  0  0  0
  148.8444  142.8080  154.2499 H   0  0  0  0  0  0  0  0  0  0  0  0
  152.5492  140.2674  156.1306 H   0  0  0  0  0  0  0  0  0  0  0  0
  1  2  2  0  0  0  0
  1 22  1  0  0  0  0
  2 17  1  0  0  0  0
  2  3  1  0  0  0  0
  3  4  2  0  0  0  0
  4  5  1  0  0  0  0
  4 23  1  0  0  0  0
  5  6  1  0  0  0  0
  5 15  1  0  0  0  0
  6 18  1  0  0  0  0
  6 13  1  0  0  0  0
  6  7  1  0  0  0  0
  7  8  1  0  0  0  0
  8 19  1  0  0  0  0
  8  9  1  0  0  0  0
  8 11  1  0  0  0  0
  9 10  1  0  0  0  0
  9 24  1  0  0  0  0
  9 25  1  0  0  0  0
 10 26  1  0  0  0  0
 11 20  1  0  0  0  0
 11 12  1  0  0  0  0
 11 13  1  0  0  0  0
 12 27  1  0  0  0  0
 13 21  1  0  0  0  0
 13 14  1  0  0  0  0
 14 28  1  0  0  0  0
 15 16  2  0  0  0  0
 15 17  1  0  0  0  0
 17 29  1  0  0  0  0
M  END
> <s_m_source_file>
AV-unprocessed.smi

> <i_m_source_file_index>
72

> <i_lp_mmshare_version>
43012

> <i_f3d_flags>
0

> <s_epik_input>
W05IMl1jMW5bY0hdbihjKD1PKW4xKVtDQEBIXTJPW0NASF0oW0NIMl1bT0hdKVtDQEBIXShbT0hdKVtDQEhdMltPSF0=

> <s_epik_cmdline>
J2VwaWtfcHl0aG9uJywgJy1waCcsICc3LjAnLCAnLXRuJywgJzgnLCAnLW1hJywgJzIwMCcsICctbWV0YWxfYmluZGluZycsICctaW1hZScsICc8aW5maWxlLm1hZT4nLCAnLW9tYWUnLCAnPG91dGZpbGUubWFlPic=

> <r_lp_tautomer_probability>
7.17554e-07

> <r_epik_Ionization_Penalty>
0.0066451

> <r_epik_Ionization_Penalty_Charging>
0.00663793

> <r_epik_Ionization_Penalty_Neutral>
7.17052e-06

> <r_epik_State_Penalty>
0.419231

> <r_epik_Charging_Adjusted_Penalty>
0.425868

> <i_epik_Tot_Q>
0

> <i_epik_Tot_abs_Q>
0

> <r_epik_Metal_State_Penalty>
1.44144

> <b_epik_Metal_Only>
0

> <s_epik_Chemistry_Notes>
This compound contains an acetal/aminal-like group ( X-CH(R)-Y where X, Y are N, S, or O) that may be acid/base labile, releasing an aldehyde.

> <s_lp_Force_Field>
OPLS_2005

> <r_lp_Energy>
42.2993

> <b_lp_Chiralities_Consistent>
1

> <s_lp_Variant>
AV-unprocessed.smi:72-9

> <Gold.Version>
5.8.1

> <Gold.Id.Protein>
6NUR|6NUR_protein|mol2

> <Gold.PLP.Fitness>
43.8649

> <Gold.PLP.PLP>
-27.3246

> <Gold.PLP.part.hbond>
-7.4155

> <Gold.PLP.part.metal>
0.0000

> <Gold.PLP.part.buried>
-1.2706

> <Gold.PLP.part.nonpolar>
-19.1311

> <Gold.PLP.part.repulsive>
0.5325

> <Gold.PLP.ligand.clash>
0.0024

> <Gold.PLP.ligand.torsion>
0.2939

> <Gold.PLP.Chemscore.Hbond>
4.6747

> <Gold.PLP.Chemscore.CHOScore>
1.0000

> <Gold.PLP.Chemscore.Metal>
0.0000

> <Gold.Chemscore.Hbonds>
donor molecule, donor type, donor heavy atom, donor atom, acceptor molecule, acceptor atom, score
      L1  H    10    26       P1  7957  0.83
      L1  H    12    27       P1 10175  0.50
      L1  H    14    28       P1  8028  0.21
      P1  H  7954  7966       L1    10  0.90
      P1  H  7997  8009       L1     1  0.96
      P1  H  8011  8017       L1    14  0.46
      L1  C     4    23       P1  7948  1.00
      L1  C     4    23       P1  7957  0.27

> <Gold.PLP.Chemscore.Internal.Correction>
0.1065

> <Gold.Rescore>
     Score         DG    S(hbond)    S(metal)    S(lipo)     H(rot)  DE(clash)    DE(int)     intcor
      6.51      -8.65       3.11        0.00      27.21       4.06       1.60       0.54       ----

> <Gold.Chemscore.Fitness>
6.5056

> <Gold.Chemscore.DG>
-8.6474

> <Gold.Chemscore.ZeroCoef>
-5.4800

> <Gold.Chemscore.Hbond>
3.1069

> <Gold.Chemscore.Metal>
0.0000

> <Gold.Chemscore.Lipo>
27.2116

> <Gold.Chemscore.Internal_Hbond>
0.0000

> <Gold.Chemscore.DEClash>
1.5972

> <Gold.Chemscore.DEInternal>
0.5445

> <Gold.Chemscore.Rot>
4.0600

> <Gold.Chemscore.Internal.Correction>
   9.000000E+99

> <Gold.Chemscore.Hbonds>
donor molecule, donor type, donor heavy atom, donor atom, acceptor molecule, acceptor atom, score
      L1  H    10    26       P1  7957  0.57
      L1  H    12    27       P1 10175  0.02
      L1  H    14    28       P1  8028  0.21
      P1  H  7954  7966       L1    10  0.25
      P1  H  7997  8009       L1     1  0.65
      P1  H  8011  8017       L1    14  0.14

> <Gold.Chemscore.Hbond.Weighted>
-10.3772

> <Gold.Chemscore.Metal.Weighted>
-0.0000

> <Gold.Chemscore.Lipo.Weighted>
-3.1838

> <Gold.Chemscore.Internal_Hbond.Weighted>
0.0000

> <Gold.Chemscore.DEClash.Weighted>
1.5972

> <Gold.Chemscore.DEInternal.Weighted>
0.5445

> <Gold.Chemscore.Rot.Weighted>
10.3936

> <Gold.Chemscore.Internal.Correction.Weighted>
   9.000000E+99

> <Gold.Protein.RotatedTorsions>
[ 6907 6896 6895 6894 ] final  -79.83 input  -60.11 | X-H torsion
[ 7974 7965 7964 7962 ] final  -93.61 input  175.53 | X-H torsion
[ 8008 7997 7996 7995 ] final -128.99 input   59.86 | X-H torsion
[ 10167 10162 10161 10158 ] final   30.15 input  -65.29 | X-H torsion
[ 10718 10713 10712 10709 ] final -127.43 input   66.30 | X-H torsion
[ 10763 10752 10751 10750 ] final  118.11 input  -60.55 | X-H torsion
[ 11005 11000 10999 10996 ] final -112.89 input  -57.11 | X-H torsion

> <Gold.Protein.ActiveResidues>
 VAL166  LYS551  ARG553  GLY616  TRP617  ASP618  TYR619  PRO620  LYS621  CYS622 
 ASP623  PHE694  ASN695  SER759  ASP760  ASP761  ALA762  ILE779  LEU786  VAL792 
 PHE793  MET794  SER795  GLU796  ALA797  LYS798  CYS799  TRP800  GLU811  SER814 

> <Gold.Protein.RotatedAtoms>
  150.6941  134.4062  159.5140 H   0  0  0  0  0  0  0  0  0  0  0  0  # atno 6907 bound_to 6896
  152.1828  134.8737  160.0534 H   0  0  0  0  0  0  0  0  0  0  0  0  # atno 6908 bound_to 6896
  151.9721  133.3694  159.4112 H   0  0  0  0  0  0  0  0  0  0  0  0  # atno 6909 bound_to 6896
  145.3842  140.9521  143.2377 H   0  0  0  0  0  0  0  0  0  0  0  0  # atno 7974 bound_to 7965
  155.2718  140.0440  157.3007 H   0  0  0  0  0  0  0  0  0  0  0  0  # atno 8008 bound_to 7997
  154.5649  140.2357  155.8248 H   0  0  0  0  0  0  0  0  0  0  0  0  # atno 8009 bound_to 7997
  156.2077  140.3008  155.9670 H   0  0  0  0  0  0  0  0  0  0  0  0  # atno 8010 bound_to 7997
  140.4703  144.0772  150.6235 H   0  0  0  0  0  0  0  0  0  0  0  0  # atno 10167 bound_to 10162
  156.1857  130.6761  151.0361 H   0  0  0  0  0  0  0  0  0  0  0  0  # atno 10718 bound_to 10713
  153.5626  135.3518  155.2805 H   0  0  0  0  0  0  0  0  0  0  0  0  # atno 10763 bound_to 10752
  154.8693  135.4140  154.2814 H   0  0  0  0  0  0  0  0  0  0  0  0  # atno 10764 bound_to 10752
  153.3563  135.7057  153.6817 H   0  0  0  0  0  0  0  0  0  0  0  0  # atno 10765 bound_to 10752
  141.0648  133.9477  157.2600 H   0  0  0  0  0  0  0  0  0  0  0  0  # atno 11005 bound_to 11000
  144.8486  139.5357  143.6867 LP  0  0  0  0  0  0  0  0  0  0  0  0  # atno 17320 bound_to 7965
  146.2828  139.6922  142.9217 LP  0  0  0  0  0  0  0  0  0  0  0  0  # atno 17321 bound_to 7965
  140.3985  143.2716  151.9976 LP  0  0  0  0  0  0  0  0  0  0  0  0  # atno 17342 bound_to 10162
  139.4817  144.6018  151.7593 LP  0  0  0  0  0  0  0  0  0  0  0  0  # atno 17343 bound_to 10162
  157.6897  131.0814  150.7143 LP  0  0  0  0  0  0  0  0  0  0  0  0  # atno 17370 bound_to 10713
  156.7200  130.4677  149.5525 LP  0  0  0  0  0  0  0  0  0  0  0  0  # atno 17371 bound_to 10713
  139.9466  135.0183  156.8870 LP  0  0  0  0  0  0  0  0  0  0  0  0  # atno 17394 bound_to 11000
  140.5796  134.0365  155.7459 LP  0  0  0  0  0  0  0  0  0  0  0  0  # atno 17395 bound_to 11000

$$$$
