AV-unprocessed.smi:895|AV-procd|sdf|4073|dock2
  -GOLD-   22720 1553D 1   1.00000     0.00000
 Structure written by MMmdl.
 44 45  0  0  0  0  0  0  0  0  1 V2000
  149.6249  138.1169  154.6829 C   0  0  0  0  0  0  0  0  0  0  0  0
  150.7197  137.1013  155.0515 C   0  0  0  0  0  0  0  0  0  0  0  0
  150.1497  135.6691  155.0327 C   0  0  0  0  0  0  0  0  0  0  0  0
  151.6941  137.2110  154.0330 O   0  0  0  0  0  0  0  0  0  0  0  0
  151.3781  137.4998  156.3976 C   0  0  0  0  0  0  0  0  0  0  0  0
  151.5629  138.9390  156.5627 N   0  0  0  0  0  0  0  0  0  0  0  0
  151.3393  139.6203  157.6942 C   0  0  0  0  0  0  0  0  0  0  0  0
  150.9428  139.1070  158.7400 O   0  0  0  0  0  0  0  0  0  0  0  0
  151.6039  140.9261  157.5453 N   0  0  0  0  0  0  0  0  0  0  0  0
  151.4788  141.9486  158.5843 C   0  0  2  0  0  0  0  0  0  0  0  0
  150.7228  143.1542  157.9909 C   0  0  0  0  0  0  0  0  0  0  0  0
  150.6306  144.3217  158.9843 C   0  0  0  0  0  0  0  0  0  0  0  0
  152.0248  144.7470  159.4645 C   0  0  0  0  0  0  0  0  0  0  0  0
  152.7707  143.5610  160.0919 C   0  0  0  0  0  0  0  0  0  0  0  0
  152.8763  142.3707  159.1129 C   0  0  1  0  0  0  0  0  0  0  0  0
  153.5918  141.2548  159.7210 N   0  0  0  0  0  0  0  0  0  0  0  0
  154.1291  141.1800  160.9895 C   0  0  0  0  0  0  0  0  0  0  0  0
  154.7353  139.9623  161.1069 C   0  0  0  0  0  0  0  0  0  0  0  0
  154.5170  139.3533  159.8400 C   0  0  0  0  0  0  0  0  0  0  0  0
  153.8345  140.1278  159.0135 N   0  0  0  0  0  0  0  0  0  0  0  0
  148.8121  138.1009  155.4095 H   0  0  0  0  0  0  0  0  0  0  0  0
  149.1932  137.9021  153.7044 H   0  0  0  0  0  0  0  0  0  0  0  0
  150.0189  139.1336  154.6530 H   0  0  0  0  0  0  0  0  0  0  0  0
  149.4147  135.5299  155.8261 H   0  0  0  0  0  0  0  0  0  0  0  0
  150.9282  134.9168  155.1641 H   0  0  0  0  0  0  0  0  0  0  0  0
  149.6545  135.4538  154.0853 H   0  0  0  0  0  0  0  0  0  0  0  0
  151.2911  136.9879  153.2071 H   0  0  0  0  0  0  0  0  0  0  0  0
  150.8357  137.0764  157.2454 H   0  0  0  0  0  0  0  0  0  0  0  0
  152.3788  137.0690  156.4439 H   0  0  0  0  0  0  0  0  0  0  0  0
  151.8866  139.4506  155.7551 H   0  0  0  0  0  0  0  0  0  0  0  0
  151.9233  141.2409  156.6412 H   0  0  0  0  0  0  0  0  0  0  0  0
  150.8854  141.5658  159.4170 H   0  0  0  0  0  0  0  0  0  0  0  0
  151.2263  143.4962  157.0852 H   0  0  0  0  0  0  0  0  0  0  0  0
  149.7192  142.8522  157.6891 H   0  0  0  0  0  0  0  0  0  0  0  0
  150.1244  145.1672  158.5177 H   0  0  0  0  0  0  0  0  0  0  0  0
  150.0212  144.0286  159.8400 H   0  0  0  0  0  0  0  0  0  0  0  0
  152.5993  145.1417  158.6255 H   0  0  0  0  0  0  0  0  0  0  0  0
  151.9373  145.5567  160.1895 H   0  0  0  0  0  0  0  0  0  0  0  0
  153.7674  143.8774  160.4015 H   0  0  0  0  0  0  0  0  0  0  0  0
  152.2482  143.2570  160.9998 H   0  0  0  0  0  0  0  0  0  0  0  0
  153.4721  142.7031  158.2610 H   0  0  0  0  0  0  0  0  0  0  0  0
  154.0416  141.9937  161.6942 H   0  0  0  0  0  0  0  0  0  0  0  0
  155.2588  139.5681  161.9650 H   0  0  0  0  0  0  0  0  0  0  0  0
  154.8337  138.3791  159.4979 H   0  0  0  0  0  0  0  0  0  0  0  0
  1  2  1  0  0  0  0
  1 21  1  0  0  0  0
  1 22  1  0  0  0  0
  1 23  1  0  0  0  0
  2  3  1  0  0  0  0
  2  4  1  0  0  0  0
  2  5  1  0  0  0  0
  3 24  1  0  0  0  0
  3 25  1  0  0  0  0
  3 26  1  0  0  0  0
  4 27  1  0  0  0  0
  5  6  1  0  0  0  0
  5 28  1  0  0  0  0
  5 29  1  0  0  0  0
  6  7  1  0  0  0  0
  6 30  1  0  0  0  0
  7  8  2  0  0  0  0
  7  9  1  0  0  0  0
  9 10  1  0  0  0  0
  9 31  1  0  0  0  0
 10 15  1  0  0  0  0
 10 11  1  0  0  0  0
 10 32  1  0  0  0  0
 11 12  1  0  0  0  0
 11 33  1  0  0  0  0
 11 34  1  0  0  0  0
 12 13  1  0  0  0  0
 12 35  1  0  0  0  0
 12 36  1  0  0  0  0
 13 14  1  0  0  0  0
 13 37  1  0  0  0  0
 13 38  1  0  0  0  0
 14 15  1  0  0  0  0
 14 39  1  0  0  0  0
 14 40  1  0  0  0  0
 15 16  1  0  0  0  0
 15 41  1  0  0  0  0
 16 20  1  0  0  0  0
 16 17  1  0  0  0  0
 17 18  2  0  0  0  0
 17 42  1  0  0  0  0
 18 19  1  0  0  0  0
 18 43  1  0  0  0  0
 19 20  2  0  0  0  0
 19 44  1  0  0  0  0
M  END
> <s_m_source_file>
AV-unprocessed.smi

> <i_m_source_file_index>
895

> <i_lp_mmshare_version>
43012

> <i_f3d_flags>
0

> <s_epik_input>
W0NIM11DKFtDSDNdKShbT0hdKVtDSDJdW05IXUMoPU8pW05IXVtDQEBIXTFbQ0gyXVtDSDJdW0NIMl1bQ0gyXVtDQEhdMW4yW2NIXVtjSF1bY0hdbjI=

> <s_epik_cmdline>
J2VwaWtfcHl0aG9uJywgJy1waCcsICc3LjAnLCAnLXRuJywgJzgnLCAnLW1hJywgJzIwMCcsICctbWV0YWxfYmluZGluZycsICctaW1hZScsICc8aW5maWxlLm1hZT4nLCAnLW9tYWUnLCAnPG91dGZpbGUubWFlPic=

> <r_lp_tautomer_probability>
1

> <r_epik_Ionization_Penalty>
0.000440451

> <r_epik_Ionization_Penalty_Charging>
0

> <r_epik_Ionization_Penalty_Neutral>
0.000440451

> <r_epik_State_Penalty>
-0

> <r_epik_Charging_Adjusted_Penalty>
0

> <i_epik_Tot_Q>
0

> <i_epik_Tot_abs_Q>
0

> <r_epik_Metal_State_Penalty>
-0

> <b_epik_Metal_Only>
0

> <s_lp_Force_Field>
OPLS_2005

> <r_lp_Energy>
10.7008

> <b_lp_Chiralities_Consistent>
1

> <s_lp_Variant>
AV-unprocessed.smi:895-1

> <Gold.Version>
5.8.1

> <Gold.Id.Protein>
6NUR|6NUR_protein|mol2

> <Gold.PLP.Fitness>
46.7583

> <Gold.PLP.PLP>
-38.8866

> <Gold.PLP.part.hbond>
-3.0000

> <Gold.PLP.part.metal>
0.0000

> <Gold.PLP.part.buried>
-5.9875

> <Gold.PLP.part.nonpolar>
-31.2877

> <Gold.PLP.part.repulsive>
0.1503

> <Gold.PLP.ligand.clash>
0.0000

> <Gold.PLP.ligand.torsion>
0.5506

> <Gold.PLP.Chemscore.Hbond>
2.9760

> <Gold.PLP.Chemscore.CHOScore>
0.0000

> <Gold.PLP.Chemscore.Metal>
0.0000

> <Gold.Chemscore.Hbonds>
donor molecule, donor type, donor heavy atom, donor atom, acceptor molecule, acceptor atom, score
      L1  H     4    27       P1  7949  1.00
      P1  H  7997  8009       L1    20  0.95
      P1  H 10752 10763       L1     4  1.00

> <Gold.PLP.Chemscore.Internal.Correction>
0.0449

> <Gold.Rescore>
     Score         DG    S(hbond)    S(metal)    S(lipo)     H(rot)  DE(clash)    DE(int)     intcor
     17.05     -19.06       1.86        0.00     110.84       2.19       0.06       1.96       ----

> <Gold.Chemscore.Fitness>
17.0498

> <Gold.Chemscore.DG>
-19.0639

> <Gold.Chemscore.ZeroCoef>
-5.4800

> <Gold.Chemscore.Hbond>
1.8643

> <Gold.Chemscore.Metal>
0.0000

> <Gold.Chemscore.Lipo>
110.8404

> <Gold.Chemscore.Internal_Hbond>
0.0000

> <Gold.Chemscore.DEClash>
0.0589

> <Gold.Chemscore.DEInternal>
1.9551

> <Gold.Chemscore.Rot>
2.1919

> <Gold.Chemscore.Internal.Correction>
   9.000000E+99

> <Gold.Chemscore.Hbonds>
donor molecule, donor type, donor heavy atom, donor atom, acceptor molecule, acceptor atom, score
      L1  H     4    27       P1  7949  0.66
      P1  H  7997  8009       L1    20  0.42
      P1  H 10752 10763       L1     4  0.16

> <Gold.Chemscore.Hbond.Weighted>
-6.2268

> <Gold.Chemscore.Metal.Weighted>
-0.0000

> <Gold.Chemscore.Lipo.Weighted>
-12.9683

> <Gold.Chemscore.Internal_Hbond.Weighted>
0.0000

> <Gold.Chemscore.DEClash.Weighted>
0.0589

> <Gold.Chemscore.DEInternal.Weighted>
1.9551

> <Gold.Chemscore.Rot.Weighted>
5.6113

> <Gold.Chemscore.Internal.Correction.Weighted>
   9.000000E+99

> <Gold.Protein.RotatedTorsions>
[ 6907 6896 6895 6894 ] final -153.12 input  -60.11 | X-H torsion
[ 7974 7965 7964 7962 ] final  -10.55 input  175.53 | X-H torsion
[ 8008 7997 7996 7995 ] final  136.74 input   59.86 | X-H torsion
[ 10167 10162 10161 10158 ] final    3.33 input  -65.29 | X-H torsion
[ 10718 10713 10712 10709 ] final   70.42 input   66.30 | X-H torsion
[ 10763 10752 10751 10750 ] final   38.88 input  -60.55 | X-H torsion
[ 11005 11000 10999 10996 ] final   34.20 input  -57.11 | X-H torsion

> <Gold.Protein.ActiveResidues>
 VAL166  LYS551  ARG553  GLY616  TRP617  ASP618  TYR619  PRO620  LYS621  CYS622 
 ASP623  PHE694  ASN695  SER759  ASP760  ASP761  ALA762  ILE779  LEU786  VAL792 
 PHE793  MET794  SER795  GLU796  ALA797  LYS798  CYS799  TRP800  GLU811  SER814 

> <Gold.Protein.RotatedAtoms>
  151.2378  133.4415  159.2605 H   0  0  0  0  0  0  0  0  0  0  0  0  # atno 6907 bound_to 6896
  151.0734  134.9813  159.8330 H   0  0  0  0  0  0  0  0  0  0  0  0  # atno 6908 bound_to 6896
  152.5415  134.2322  159.8882 H   0  0  0  0  0  0  0  0  0  0  0  0  # atno 6909 bound_to 6896
  146.2217  140.2781  142.8360 H   0  0  0  0  0  0  0  0  0  0  0  0  # atno 7974 bound_to 7965
  156.3003  140.2437  156.3795 H   0  0  0  0  0  0  0  0  0  0  0  0  # atno 8008 bound_to 7997
  154.8714  140.0416  157.1746 H   0  0  0  0  0  0  0  0  0  0  0  0  # atno 8009 bound_to 7997
  154.8791  140.2946  155.5439 H   0  0  0  0  0  0  0  0  0  0  0  0  # atno 8010 bound_to 7997
  140.6591  143.7350  150.7707 H   0  0  0  0  0  0  0  0  0  0  0  0  # atno 10167 bound_to 10162
  157.6399  130.9476  150.0649 H   0  0  0  0  0  0  0  0  0  0  0  0  # atno 10718 bound_to 10713
  152.9986  135.6237  154.2375 H   0  0  0  0  0  0  0  0  0  0  0  0  # atno 10763 bound_to 10752
  154.2116  135.2799  155.2958 H   0  0  0  0  0  0  0  0  0  0  0  0  # atno 10764 bound_to 10752
  154.5602  135.5707  153.7059 H   0  0  0  0  0  0  0  0  0  0  0  0  # atno 10765 bound_to 10752
  140.2552  134.3256  155.7876 H   0  0  0  0  0  0  0  0  0  0  0  0  # atno 11005 bound_to 11000
  144.9218  140.7876  143.5744 LP  0  0  0  0  0  0  0  0  0  0  0  0  # atno 17320 bound_to 7965
  145.2718  139.1952  143.4837 LP  0  0  0  0  0  0  0  0  0  0  0  0  # atno 17321 bound_to 7965
  140.1015  143.4783  152.2422 LP  0  0  0  0  0  0  0  0  0  0  0  0  # atno 17342 bound_to 10162
  139.5821  144.7515  151.3614 LP  0  0  0  0  0  0  0  0  0  0  0  0  # atno 17343 bound_to 10162
  156.1670  130.3645  149.9218 LP  0  0  0  0  0  0  0  0  0  0  0  0  # atno 17370 bound_to 10713
  156.7203  130.9004  151.3617 LP  0  0  0  0  0  0  0  0  0  0  0  0  # atno 17371 bound_to 10713
  141.2197  133.7377  156.9100 LP  0  0  0  0  0  0  0  0  0  0  0  0  # atno 17394 bound_to 11000
  140.1518  134.9225  157.2603 LP  0  0  0  0  0  0  0  0  0  0  0  0  # atno 17395 bound_to 11000

$$$$
