#       Name:                AV-unprocessed.smi:370
#       Creating user name   scv26
#       Creation time:       Thu Mar 26 22:37:44 2020


#       File generated by GOLD software.
#

@<TRIPOS>MOLECULE
AV-unprocessed.smi:370
    50    51     1
SMALL
NO_CHARGES


@<TRIPOS>ATOM
      1 ****        -3.7518   6.6277   1.9514 C.3            1 S1                 0.0000
      2 ****        -3.2078   5.2648   1.6929 C.2            1 S1                 0.0000
      3 ****        -2.8306   4.6139   0.5521 C.2            1 S1                 0.0000
      4 ****        -2.4084   3.3460   1.0325 C.2            1 S1                 0.0000
      5 ****        -1.9254   2.3538   0.1415 N.am           1 S1                 0.0000
      6 ****        -1.5069   1.1140   0.4475 C.2            1 S1                 0.0000
      7 ****        -1.5064   0.6236   1.5768 O.2            1 S1                 0.0000
      8 ****        -1.0765   0.4612  -0.6425 N.am           1 S1                 0.0000
      9 ****        -0.5592  -0.9077  -0.6657 C.3            1 S1                 0.0000
     10 ****         0.9977  -1.0080  -0.6257 C.3            1 S1                 0.0000
     11 ****         1.5516  -0.2081  -1.8347 C.3            1 S1                 0.0000
     12 ****         1.5623  -0.3628   0.6642 C.3            1 S1                 0.0000
     13 ****         1.3828  -2.4657  -0.7147 N.4            1 S1                 1.0000
     14 ****         2.7704  -2.7572  -1.1780 C.3            1 S1                 0.0000
     15 ****         2.9813  -4.2707  -1.3632 C.3            1 S1                 0.0000
     16 ****         2.6865  -4.9590  -0.1570 O.3            1 S1                 0.0000
     17 ****         1.3345  -4.7704   0.2331 C.3            1 S1                 0.0000
     18 ****         1.0895  -3.2778   0.5019 C.3            1 S1                 0.0000
     19 ****        -2.5170   3.2331   2.3473 N.2            1 S1                 0.0000
     20 ****        -3.0301   4.4625   2.7774 O.3            1 S1                 0.0000
     21 ****        -3.9081   7.1681   1.0177 H              1 S1                 0.0000
     22 ****        -3.0642   7.2074   2.5673 H              1 S1                 0.0000
     23 ****        -4.7073   6.5695   2.4729 H              1 S1                 0.0000
     24 ****        -2.8545   4.9878  -0.4608 H              1 S1                 0.0000
     25 ****        -1.8848   2.6218  -0.8307 H              1 S1                 0.0000
     26 ****        -1.1138   0.9454  -1.5278 H              1 S1                 0.0000
     27 ****        -1.0225  -1.4640   0.1475 H              1 S1                 0.0000
     28 ****        -0.9279  -1.3727  -1.5807 H              1 S1                 0.0000
     29 ****         1.1964   0.8223  -1.8427 H              1 S1                 0.0000
     30 ****         1.2552  -0.6589  -2.7826 H              1 S1                 0.0000
     31 ****         2.6395  -0.1373  -1.8178 H              1 S1                 0.0000
     32 ****         1.4104   0.7168   0.6705 H              1 S1                 0.0000
     33 ****         2.6351  -0.5282   0.7628 H              1 S1                 0.0000
     34 ****         1.0810  -0.7516   1.5619 H              1 S1                 0.0000
     35 ****         2.9791  -2.2932  -2.1403 H              1 S1                 0.0000
     36 ****         3.4935  -2.3639  -0.4626 H              1 S1                 0.0000
     37 ****         2.3575  -4.6524  -2.1733 H              1 S1                 0.0000
     38 ****         4.0164  -4.4729  -1.6390 H              1 S1                 0.0000
     39 ****         0.6583  -5.1481  -0.5357 H              1 S1                 0.0000
     40 ****         1.1460  -5.3506   1.1365 H              1 S1                 0.0000
     41 ****         1.7278  -2.9622   1.3280 H              1 S1                 0.0000
     42 ****         0.0606  -3.1544   0.8323 H              1 S1                 0.0000
     43 ****         0.7884  -2.8407  -1.4402 H              1 S1                 0.0000
     44 ****        -1.8360   1.1589   2.3545 LP             1 S1                 0.0000
     45 ****        -1.1763  -0.3100   1.7163 LP             1 S1                 0.0000
     46 ****         3.2845  -4.6159   0.5673 LP             1 S1                 0.0000
     47 ****         2.8526  -5.9359  -0.2915 LP             1 S1                 0.0000
     48 ****        -2.2831   2.4410   2.9111 LP             1 S1                 0.0000
     49 ****        -3.9065   4.3190   3.2370 LP             1 S1                 0.0000
     50 ****        -2.3874   4.8919   3.4119 LP             1 S1                 0.0000
@<TRIPOS>BOND
    1    1    2 1     
    2    1   21 1     
    3    1   22 1     
    4    1   23 1     
    5    2   20 1     
    6    2    3 2     
    7    3    4 1     
    8    3   24 1     
    9    4    5 1     
   10    4   19 2     
   11    5    6 am    
   12    5   25 1     
   13    6    7 2     
   14    6    8 am    
   15    8    9 1     
   16    8   26 1     
   17    9   10 1     
   18    9   27 1     
   19    9   28 1     
   20   10   11 1     
   21   10   12 1     
   22   10   13 1     
   23   11   29 1     
   24   11   30 1     
   25   11   31 1     
   26   12   32 1     
   27   12   33 1     
   28   12   34 1     
   29   13   18 1     
   30   13   14 1     
   31   13   43 1     
   32   14   15 1     
   33   14   35 1     
   34   14   36 1     
   35   15   16 1     
   36   15   37 1     
   37   15   38 1     
   38   16   17 1     
   39   17   18 1     
   40   17   39 1     
   41   17   40 1     
   42   18   41 1     
   43   18   42 1     
   44   19   20 1     
   45    7   44 1     
   46    7   45 1     
   47   16   46 1     
   48   16   47 1     
   49   19   48 1     
   50   20   49 1     
   51   20   50 1     
@<TRIPOS>SUBSTRUCTURE
      1 S1             1
@<TRIPOS>SET
LONE_PAIRS      STATIC     ATOMS    <user>   **** ""
7 44 45 46 47 48 49 50
DONOR_HYDROGENS      STATIC     ATOMS    <user>   **** ""
3 25 26 43
ATOM$BLUE        STATIC     ATOMS    COLORGROUP SYSTEM
7 44 45 46 47 48 49 50
ATOM$RED        STATIC     ATOMS    COLORGROUP SYSTEM
3 25 26 43
