AV-unprocessed.smi:1222|AV-procd|sdf|5120|dock3
  -GOLD-   22720 4173D 1   1.00000     0.00000
 Structure written by MMmdl.
 37 39  0  0  0  0  0  0  0  0  2 V2000
  150.2650  134.2023  155.6841 O   0  0  0  0  0  0  0  0  0  0  0  0
  149.8531  134.7636  154.6686 C   0  0  0  0  0  0  0  0  0  0  0  0
  150.1923  136.0025  154.2716 N   0  0  0  0  0  0  0  0  0  0  0  0
  151.0836  136.9118  154.8995 C   0  0  0  0  0  0  0  0  0  0  0  0
  151.9850  136.5662  155.8259 N   0  0  0  0  0  0  0  0  0  0  0  0
  152.7299  137.6628  156.2670 C   0  0  0  0  0  0  0  0  0  0  0  0
  152.3802  138.8440  155.6611 C   0  0  0  0  0  0  0  0  0  0  0  0
  151.0933  138.6247  154.5055 S   0  0  0  0  0  0  0  0  0  0  0  0
  148.9936  134.1953  153.8100 N   0  0  0  0  0  0  0  0  0  0  0  0
  148.4241  132.8587  153.9553 C   0  0  2  0  0  0  0  0  0  0  0  0
  149.5198  131.7789  153.8668 C   0  0  0  0  0  0  0  0  0  0  0  0
  148.9128  130.3669  153.9144 C   0  0  0  0  0  0  0  0  0  0  0  0
  147.9054  130.1835  152.8405 N   0  3  1  0  0  0  0  0  0  0  0  0
  147.3886  128.7985  152.7914 C   0  0  0  0  0  0  0  0  0  0  0  0
  147.4017  128.1936  151.4066 C   0  0  0  0  0  0  0  0  0  0  0  0
  146.0983  128.6582  152.0178 C   0  0  0  0  0  0  0  0  0  0  0  0
  146.8142  131.1851  152.9339 C   0  0  0  0  0  0  0  0  0  0  0  0
  147.3715  132.6167  152.8609 C   0  0  0  0  0  0  0  0  0  0  0  0
  149.7668  136.3344  153.4187 H   0  0  0  0  0  0  0  0  0  0  0  0
  153.4920  137.5120  157.0171 H   0  0  0  0  0  0  0  0  0  0  0  0
  152.8003  139.8255  155.8237 H   0  0  0  0  0  0  0  0  0  0  0  0
  148.7096  134.7277  153.0007 H   0  0  0  0  0  0  0  0  0  0  0  0
  147.9302  132.7872  154.9266 H   0  0  0  0  0  0  0  0  0  0  0  0
  150.0858  131.8992  152.9419 H   0  0  0  0  0  0  0  0  0  0  0  0
  150.2338  131.8957  154.6828 H   0  0  0  0  0  0  0  0  0  0  0  0
  149.7060  129.6270  153.8029 H   0  0  0  0  0  0  0  0  0  0  0  0
  148.4488  130.1893  154.8860 H   0  0  0  0  0  0  0  0  0  0  0  0
  147.5779  128.1796  153.6669 H   0  0  0  0  0  0  0  0  0  0  0  0
  147.8110  128.7844  150.5890 H   0  0  0  0  0  0  0  0  0  0  0  0
  147.5599  127.1199  151.3286 H   0  0  0  0  0  0  0  0  0  0  0  0
  145.3993  127.8902  152.3426 H   0  0  0  0  0  0  0  0  0  0  0  0
  145.6430  129.5565  151.6046 H   0  0  0  0  0  0  0  0  0  0  0  0
  146.1037  131.0297  152.1212 H   0  0  0  0  0  0  0  0  0  0  0  0
  146.2651  131.0419  153.8660 H   0  0  0  0  0  0  0  0  0  0  0  0
  146.5563  133.3347  152.9597 H   0  0  0  0  0  0  0  0  0  0  0  0
  147.8123  132.7826  151.8765 H   0  0  0  0  0  0  0  0  0  0  0  0
  148.3791  130.3476  151.9638 H   0  0  0  0  0  0  0  0  0  0  0  0
  1  2  2  0  0  0  0
  2  3  1  0  0  0  0
  2  9  1  0  0  0  0
  3  4  1  0  0  0  0
  3 19  1  0  0  0  0
  4  8  1  0  0  0  0
  4  5  2  0  0  0  0
  5  6  1  0  0  0  0
  6  7  2  0  0  0  0
  6 20  1  0  0  0  0
  7  8  1  0  0  0  0
  7 21  1  0  0  0  0
  9 10  1  0  0  0  0
  9 22  1  0  0  0  0
 10 18  1  0  0  0  0
 10 11  1  0  0  0  0
 10 23  1  0  0  0  0
 11 12  1  0  0  0  0
 11 24  1  0  0  0  0
 11 25  1  0  0  0  0
 12 13  1  0  0  0  0
 12 26  1  0  0  0  0
 12 27  1  0  0  0  0
 13 14  1  0  0  0  0
 13 17  1  0  0  0  0
 13 37  1  0  0  0  0
 14 16  1  0  0  0  0
 14 15  1  0  0  0  0
 14 28  1  0  0  0  0
 15 16  1  0  0  0  0
 15 29  1  0  0  0  0
 15 30  1  0  0  0  0
 16 31  1  0  0  0  0
 16 32  1  0  0  0  0
 17 18  1  0  0  0  0
 17 33  1  0  0  0  0
 17 34  1  0  0  0  0
 18 35  1  0  0  0  0
 18 36  1  0  0  0  0
M  CHG  1  13   1
M  END
> <s_m_source_file>
AV-unprocessed.smi

> <i_m_source_file_index>
1222

> <i_lp_mmshare_version>
43012

> <i_f3d_flags>
0

> <s_epik_input>
czFbY0hdW2NIXW5jMVtOSF1DKD1PKVtOSF1bQ0hdMltDSDJdW0NIMl1OKFtDSDJdW0NIMl0yKVtDSF0zW0NIMl1bQ0gyXTM=

> <s_epik_cmdline>
J2VwaWtfcHl0aG9uJywgJy1waCcsICc3LjAnLCAnLXRuJywgJzgnLCAnLW1hJywgJzIwMCcsICctbWV0YWxfYmluZGluZycsICctaW1hZScsICc8aW5maWxlLm1hZT4nLCAnLW9tYWUnLCAnPG91dGZpbGUubWFlPic=

> <r_lp_tautomer_probability>
0.999

> <r_epik_Ionization_Penalty>
0.124652

> <r_epik_Ionization_Penalty_Charging>
0.124514

> <r_epik_Ionization_Penalty_Neutral>
0.000138693

> <r_epik_State_Penalty>
0.113992

> <r_epik_Charging_Adjusted_Penalty>
0.238505

> <i_epik_Tot_Q>
1

> <i_epik_Tot_abs_Q>
1

> <r_epik_Metal_State_Penalty>
0.160715

> <b_epik_Metal_Only>
0

> <s_lp_Force_Field>
OPLS_2005

> <r_lp_Energy>
23.5858

> <b_lp_Chiralities_Consistent>
1

> <s_lp_Variant>
AV-unprocessed.smi:1222-1

> <Gold.Version>
5.8.1

> <Gold.Id.Protein>
6NUR|6NUR_protein|mol2

> <Gold.PLP.Fitness>
46.5847

> <Gold.PLP.PLP>
-35.2676

> <Gold.PLP.part.hbond>
-5.0000

> <Gold.PLP.part.metal>
0.0000

> <Gold.PLP.part.buried>
-2.7749

> <Gold.PLP.part.nonpolar>
-27.1558

> <Gold.PLP.part.repulsive>
0.1389

> <Gold.PLP.ligand.clash>
0.0000

> <Gold.PLP.ligand.torsion>
0.9367

> <Gold.PLP.Chemscore.Hbond>
3.9760

> <Gold.PLP.Chemscore.CHOScore>
0.0000

> <Gold.PLP.Chemscore.Metal>
0.0000

> <Gold.Chemscore.Hbonds>
donor molecule, donor type, donor heavy atom, donor atom, acceptor molecule, acceptor atom, score
      L1  H     3    19       P1  7948  0.95
      L1  H     9    22       P1  7948  0.94
      L1  H    13    37       P1 10747  1.00
      P1  H 10752 10763       L1     5  1.00

> <Gold.PLP.Chemscore.Internal.Correction>
1.2626

> <Gold.Rescore>
     Score         DG    S(hbond)    S(metal)    S(lipo)     H(rot)  DE(clash)    DE(int)     intcor
     19.99     -21.79       3.31        0.00      72.39       1.26       0.02       1.78       ----

> <Gold.Chemscore.Fitness>
19.9915

> <Gold.Chemscore.DG>
-21.7929

> <Gold.Chemscore.ZeroCoef>
-5.4800

> <Gold.Chemscore.Hbond>
3.3148

> <Gold.Chemscore.Metal>
0.0000

> <Gold.Chemscore.Lipo>
72.3878

> <Gold.Chemscore.Internal_Hbond>
0.0000

> <Gold.Chemscore.DEClash>
0.0197

> <Gold.Chemscore.DEInternal>
1.7818

> <Gold.Chemscore.Rot>
1.2609

> <Gold.Chemscore.Internal.Correction>
   9.000000E+99

> <Gold.Chemscore.Hbonds>
donor molecule, donor type, donor heavy atom, donor atom, acceptor molecule, acceptor atom, score
      L1  H     3    19       P1  7948  0.21
      L1  H     9    22       P1  7948  0.20
      L1  H    13    37       P1 10747  0.88
      P1  H 10752 10763       L1     5  0.17

> <Gold.Chemscore.Hbond.Weighted>
-11.0714

> <Gold.Chemscore.Metal.Weighted>
-0.0000

> <Gold.Chemscore.Lipo.Weighted>
-8.4694

> <Gold.Chemscore.Internal_Hbond.Weighted>
0.0000

> <Gold.Chemscore.DEClash.Weighted>
0.0197

> <Gold.Chemscore.DEInternal.Weighted>
1.7818

> <Gold.Chemscore.Rot.Weighted>
3.2279

> <Gold.Chemscore.Internal.Correction.Weighted>
   9.000000E+99

> <Gold.Protein.RotatedTorsions>
[ 6907 6896 6895 6894 ] final -171.55 input  -60.11 | X-H torsion
[ 7974 7965 7964 7962 ] final   30.10 input  175.53 | X-H torsion
[ 8008 7997 7996 7995 ] final -126.96 input   59.86 | X-H torsion
[ 10167 10162 10161 10158 ] final   21.14 input  -65.29 | X-H torsion
[ 10718 10713 10712 10709 ] final  -35.18 input   66.30 | X-H torsion
[ 10763 10752 10751 10750 ] final   76.69 input  -60.55 | X-H torsion
[ 11005 11000 10999 10996 ] final  168.42 input  -57.11 | X-H torsion

> <Gold.Protein.ActiveResidues>
 VAL166  LYS551  ARG553  GLY616  TRP617  ASP618  TYR619  PRO620  LYS621  CYS622 
 ASP623  PHE694  ASN695  SER759  ASP760  ASP761  ALA762  ILE779  LEU786  VAL792 
 PHE793  MET794  SER795  GLU796  ALA797  LYS798  CYS799  TRP800  GLU811  SER814 

> <Gold.Protein.RotatedAtoms>
  151.5257  133.3458  159.2908 H   0  0  0  0  0  0  0  0  0  0  0  0  # atno 6907 bound_to 6896
  150.8625  134.7982  159.7104 H   0  0  0  0  0  0  0  0  0  0  0  0  # atno 6908 bound_to 6896
  152.4640  134.5128  159.9811 H   0  0  0  0  0  0  0  0  0  0  0  0  # atno 6909 bound_to 6896
  146.1632  139.6833  142.9019 H   0  0  0  0  0  0  0  0  0  0  0  0  # atno 7974 bound_to 7965
  155.2383  140.0428  157.2971 H   0  0  0  0  0  0  0  0  0  0  0  0  # atno 8008 bound_to 7997
  154.5844  140.2409  155.7978 H   0  0  0  0  0  0  0  0  0  0  0  0  # atno 8009 bound_to 7997
  156.2216  140.2968  155.9974 H   0  0  0  0  0  0  0  0  0  0  0  0  # atno 8010 bound_to 7997
  140.5450  143.9611  150.6542 H   0  0  0  0  0  0  0  0  0  0  0  0  # atno 10167 bound_to 10162
  156.3417  130.4294  149.7782 H   0  0  0  0  0  0  0  0  0  0  0  0  # atno 10718 bound_to 10713
  153.0744  135.4942  154.8372 H   0  0  0  0  0  0  0  0  0  0  0  0  # atno 10763 bound_to 10752
  154.7066  135.3012  154.9263 H   0  0  0  0  0  0  0  0  0  0  0  0  # atno 10764 bound_to 10752
  153.9969  135.6771  153.4810 H   0  0  0  0  0  0  0  0  0  0  0  0  # atno 10765 bound_to 10752
  140.2870  134.7704  157.3807 H   0  0  0  0  0  0  0  0  0  0  0  0  # atno 11005 bound_to 11000
  145.4535  141.0429  143.2791 LP  0  0  0  0  0  0  0  0  0  0  0  0  # atno 17320 bound_to 7965
  144.8056  139.6058  143.7052 LP  0  0  0  0  0  0  0  0  0  0  0  0  # atno 17321 bound_to 7965
  140.3021  143.3253  152.0961 LP  0  0  0  0  0  0  0  0  0  0  0  0  # atno 17342 bound_to 10162
  139.5004  144.6690  151.6288 LP  0  0  0  0  0  0  0  0  0  0  0  0  # atno 17343 bound_to 10162
  156.5016  130.8131  151.3134 LP  0  0  0  0  0  0  0  0  0  0  0  0  # atno 17370 bound_to 10713
  157.7448  130.9943  150.2702 LP  0  0  0  0  0  0  0  0  0  0  0  0  # atno 17371 bound_to 10713
  140.1230  134.5194  155.8168 LP  0  0  0  0  0  0  0  0  0  0  0  0  # atno 17394 bound_to 11000
  141.2153  133.6763  156.6901 LP  0  0  0  0  0  0  0  0  0  0  0  0  # atno 17395 bound_to 11000

$$$$
