AV-unprocessed.smi:228|AV-procd|sdf|1745|dock3
  -GOLD-   2262020253D 1   1.00000     0.00000
 Structure written by MMmdl.
 59 62  0  0  0  0  0  0  0  0  1 V2000
  149.3775  135.0274  157.5819 C   0  0  0  0  0  0  0  0  0  0  0  0
  149.4658  135.2687  156.1447 N   0  0  0  0  0  0  0  0  0  0  0  0
  150.3702  136.3183  155.6803 C   0  0  0  0  0  0  0  0  0  0  0  0
  149.6256  137.6251  155.3227 C   0  0  2  0  0  0  0  0  0  0  0  0
  148.5445  137.2703  154.4837 O   0  0  0  0  0  0  0  0  0  0  0  0
  150.5232  138.6224  154.5553 C   0  0  0  0  0  0  0  0  0  0  0  0
  151.1712  139.6477  155.3756 N   0  0  0  0  0  0  0  0  0  0  0  0
  151.7758  139.1034  156.5895 C   0  0  0  0  0  0  0  0  0  0  0  0
  152.4204  140.2013  157.4542 C   0  0  0  0  0  0  0  0  0  0  0  0
  151.4517  141.1959  157.7695 O   0  0  0  0  0  0  0  0  0  0  0  0
  150.8760  141.7863  156.6090 C   0  0  0  0  0  0  0  0  0  0  0  0
  150.2223  140.6924  155.7473 C   0  0  0  0  0  0  0  0  0  0  0  0
  149.1756  134.2498  155.2931 C   0  0  0  0  0  0  0  0  0  0  0  0
  149.9766  133.1509  155.2792 N   0  0  0  0  0  0  0  0  0  0  0  0
  149.7311  132.1428  154.4383 C   0  0  0  0  0  0  0  0  0  0  0  0
  148.7484  132.0235  153.5451 N   0  0  0  0  0  0  0  0  0  0  0  0
  147.9228  133.1085  153.5670 C   0  0  0  0  0  0  0  0  0  0  0  0
  148.0655  134.2569  154.3980 C   0  0  0  0  0  0  0  0  0  0  0  0
  147.0393  135.1553  154.1325 N   0  0  0  0  0  0  0  0  0  0  0  0
  146.3484  134.5848  153.1845 C   0  0  0  0  0  0  0  0  0  0  0  0
  146.7867  133.3347  152.8065 N   0  0  0  0  0  0  0  0  0  0  0  0
  146.2423  132.5000  151.7679 C   0  0  0  0  0  0  0  0  0  0  0  0
  146.2169  132.9601  150.3037 C   0  0  0  0  0  0  0  0  0  0  0  0
  144.7164  133.3020  150.4271 C   0  0  0  0  0  0  0  0  0  0  0  0
  144.4416  134.7844  150.7581 C   0  0  0  0  0  0  0  0  0  0  0  0
  145.3470  135.6572  150.1146 O   0  0  0  0  0  0  0  0  0  0  0  0
  143.8682  132.8871  149.2114 C   0  0  0  0  0  0  0  0  0  0  0  0
  142.6351  132.3140  149.5947 O   0  0  0  0  0  0  0  0  0  0  0  0
  144.7260  132.3239  151.6219 C   0  0  0  0  0  0  0  0  0  0  0  0
  148.4331  134.5455  157.8379 H   0  0  0  0  0  0  0  0  0  0  0  0
  149.4331  135.9651  158.1354 H   0  0  0  0  0  0  0  0  0  0  0  0
  150.1966  134.3900  157.9165 H   0  0  0  0  0  0  0  0  0  0  0  0
  151.0677  136.5004  156.4982 H   0  0  0  0  0  0  0  0  0  0  0  0
  151.0044  135.9828  154.8591 H   0  0  0  0  0  0  0  0  0  0  0  0
  149.2351  138.0988  156.2248 H   0  0  0  0  0  0  0  0  0  0  0  0
  148.8478  136.6240  153.8639 H   0  0  0  0  0  0  0  0  0  0  0  0
  151.3203  138.0483  154.0818 H   0  0  0  0  0  0  0  0  0  0  0  0
  149.9708  139.0806  153.7330 H   0  0  0  0  0  0  0  0  0  0  0  0
  151.0206  138.5777  157.1756 H   0  0  0  0  0  0  0  0  0  0  0  0
  152.5407  138.3709  156.3336 H   0  0  0  0  0  0  0  0  0  0  0  0
  152.8089  139.7761  158.3795 H   0  0  0  0  0  0  0  0  0  0  0  0
  153.2633  140.6578  156.9330 H   0  0  0  0  0  0  0  0  0  0  0  0
  150.1332  142.5230  156.9147 H   0  0  0  0  0  0  0  0  0  0  0  0
  151.6427  142.3183  156.0438 H   0  0  0  0  0  0  0  0  0  0  0  0
  149.8006  141.1469  154.8502 H   0  0  0  0  0  0  0  0  0  0  0  0
  149.3870  140.2547  156.2965 H   0  0  0  0  0  0  0  0  0  0  0  0
  150.4213  131.3135  154.4869 H   0  0  0  0  0  0  0  0  0  0  0  0
  145.4912  135.0693  152.7411 H   0  0  0  0  0  0  0  0  0  0  0  0
  146.7435  131.5370  151.8718 H   0  0  0  0  0  0  0  0  0  0  0  0
  146.8518  133.8118  150.0617 H   0  0  0  0  0  0  0  0  0  0  0  0
  146.4124  132.1350  149.6166 H   0  0  0  0  0  0  0  0  0  0  0  0
  143.4376  135.0764  150.4506 H   0  0  0  0  0  0  0  0  0  0  0  0
  144.4899  134.9622  151.8327 H   0  0  0  0  0  0  0  0  0  0  0  0
  145.3369  135.4722  149.1881 H   0  0  0  0  0  0  0  0  0  0  0  0
  143.6744  133.7360  148.5553 H   0  0  0  0  0  0  0  0  0  0  0  0
  144.3942  132.1476  148.6066 H   0  0  0  0  0  0  0  0  0  0  0  0
  141.9459  132.9357  149.4177 H   0  0  0  0  0  0  0  0  0  0  0  0
  144.4566  131.3058  151.3357 H   0  0  0  0  0  0  0  0  0  0  0  0
  144.1316  132.6516  152.4745 H   0  0  0  0  0  0  0  0  0  0  0  0
  1  2  1  0  0  0  0
  1 30  1  0  0  0  0
  1 31  1  0  0  0  0
  1 32  1  0  0  0  0
  2  3  1  0  0  0  0
  2 13  1  0  0  0  0
  3  4  1  0  0  0  0
  3 33  1  0  0  0  0
  3 34  1  0  0  0  0
  4  5  1  0  0  0  0
  4  6  1  0  0  0  0
  4 35  1  0  0  0  0
  5 36  1  0  0  0  0
  6  7  1  0  0  0  0
  6 37  1  0  0  0  0
  6 38  1  0  0  0  0
  7 12  1  0  0  0  0
  7  8  1  0  0  0  0
  8  9  1  0  0  0  0
  8 39  1  0  0  0  0
  8 40  1  0  0  0  0
  9 10  1  0  0  0  0
  9 41  1  0  0  0  0
  9 42  1  0  0  0  0
 10 11  1  0  0  0  0
 11 12  1  0  0  0  0
 11 43  1  0  0  0  0
 11 44  1  0  0  0  0
 12 45  1  0  0  0  0
 12 46  1  0  0  0  0
 13 18  1  0  0  0  0
 13 14  2  0  0  0  0
 14 15  1  0  0  0  0
 15 16  2  0  0  0  0
 15 47  1  0  0  0  0
 16 17  1  0  0  0  0
 17 21  1  0  0  0  0
 17 18  2  0  0  0  0
 18 19  1  0  0  0  0
 19 20  2  0  0  0  0
 20 21  1  0  0  0  0
 20 48  1  0  0  0  0
 21 22  1  0  0  0  0
 22 29  1  0  0  0  0
 22 23  1  0  0  0  0
 22 49  1  0  0  0  0
 23 24  1  0  0  0  0
 23 50  1  0  0  0  0
 23 51  1  0  0  0  0
 24 25  1  0  0  0  0
 24 27  1  0  0  0  0
 24 29  1  0  0  0  0
 25 26  1  0  0  0  0
 25 52  1  0  0  0  0
 25 53  1  0  0  0  0
 26 54  1  0  0  0  0
 27 28  1  0  0  0  0
 27 55  1  0  0  0  0
 27 56  1  0  0  0  0
 28 57  1  0  0  0  0
 29 58  1  0  0  0  0
 29 59  1  0  0  0  0
M  END
> <s_m_source_file>
AV-unprocessed.smi

> <i_m_source_file_index>
228

> <i_lp_mmshare_version>
43012

> <i_f3d_flags>
0

> <s_epik_input>
W0NIMl0xW0NIMl1PW0NIMl1bQ0gyXU4xW0NIMl1bQ0BASF0oW09IXSlbQ0gyXU4oW0NIM10pYyhuW2NIXW4yKWMoYzIzKW5bY0hdbjNbQ0hdKFtDSDJdNClbQ0gyXUM0KFtDSDJdW09IXSlbQ0gyXVtPSF0=

> <s_epik_cmdline>
J2VwaWtfcHl0aG9uJywgJy1waCcsICc3LjAnLCAnLXRuJywgJzgnLCAnLW1hJywgJzIwMCcsICctbWV0YWxfYmluZGluZycsICctaW1hZScsICc8aW5maWxlLm1hZT4nLCAnLW9tYWUnLCAnPG91dGZpbGUubWFlPic=

> <r_lp_tautomer_probability>
1

> <r_epik_Ionization_Penalty>
0.423559

> <r_epik_Ionization_Penalty_Charging>
0

> <r_epik_Ionization_Penalty_Neutral>
0.423559

> <r_epik_State_Penalty>
0.438466

> <r_epik_Charging_Adjusted_Penalty>
0.438466

> <i_epik_Tot_Q>
0

> <i_epik_Tot_abs_Q>
0

> <r_epik_Metal_State_Penalty>
0.436601

> <b_epik_Metal_Only>
0

> <s_lp_Force_Field>
OPLS_2005

> <r_lp_Energy>
66.0814

> <b_lp_Chiralities_Consistent>
1

> <s_lp_Variant>
AV-unprocessed.smi:228-3

> <Gold.Version>
5.8.1

> <Gold.Id.Protein>
6NUR|6NUR_protein|mol2

> <Gold.PLP.Fitness>
55.4819

> <Gold.PLP.PLP>
-49.5512

> <Gold.PLP.part.hbond>
-5.4521

> <Gold.PLP.part.metal>
0.0000

> <Gold.PLP.part.buried>
-7.3545

> <Gold.PLP.part.nonpolar>
-36.4046

> <Gold.PLP.part.repulsive>
1.1840

> <Gold.PLP.ligand.clash>
0.0000

> <Gold.PLP.ligand.torsion>
3.7893

> <Gold.PLP.Chemscore.Hbond>
4.0484

> <Gold.PLP.Chemscore.CHOScore>
0.0000

> <Gold.PLP.Chemscore.Metal>
0.0000

> <Gold.Chemscore.Hbonds>
donor molecule, donor type, donor heavy atom, donor atom, acceptor molecule, acceptor atom, score
      L1  H     5    36       P1  7948  0.86
      L1  H    26    54       P1  7921  1.00
      L1  H    28    57       P1 10186  1.00
      P1  H  7989  7998       L1     7  0.07
      P1  H 10785 10796       L1    28  0.06

> <Gold.PLP.Chemscore.Internal.Correction>
1.3640

> <Gold.Rescore>
     Score         DG    S(hbond)    S(metal)    S(lipo)     H(rot)  DE(clash)    DE(int)     intcor
      9.50     -14.86       2.95        0.00      97.88       4.66       0.07       5.29       ----

> <Gold.Chemscore.Fitness>
9.4977

> <Gold.Chemscore.DG>
-14.8606

> <Gold.Chemscore.ZeroCoef>
-5.4800

> <Gold.Chemscore.Hbond>
2.9514

> <Gold.Chemscore.Metal>
0.0000

> <Gold.Chemscore.Lipo>
97.8845

> <Gold.Chemscore.Internal_Hbond>
0.0000

> <Gold.Chemscore.DEClash>
0.0745

> <Gold.Chemscore.DEInternal>
5.2884

> <Gold.Chemscore.Rot>
4.6600

> <Gold.Chemscore.Internal.Correction>
   9.000000E+99

> <Gold.Chemscore.Hbonds>
donor molecule, donor type, donor heavy atom, donor atom, acceptor molecule, acceptor atom, score
      L1  H     5    36       P1  7948  0.79
      L1  H    26    54       P1  7921  0.96
      L1  H    28    57       P1 10186  0.99
      P1  H 10785 10796       L1    28  0.01

> <Gold.Chemscore.Hbond.Weighted>
-9.8578

> <Gold.Chemscore.Metal.Weighted>
-0.0000

> <Gold.Chemscore.Lipo.Weighted>
-11.4525

> <Gold.Chemscore.Internal_Hbond.Weighted>
0.0000

> <Gold.Chemscore.DEClash.Weighted>
0.0745

> <Gold.Chemscore.DEInternal.Weighted>
5.2884

> <Gold.Chemscore.Rot.Weighted>
11.9297

> <Gold.Chemscore.Internal.Correction.Weighted>
   9.000000E+99

> <Gold.Protein.RotatedTorsions>
[ 6907 6896 6895 6894 ] final  -57.62 input  -60.11 | X-H torsion
[ 7974 7965 7964 7962 ] final  160.06 input  175.53 | X-H torsion
[ 8008 7997 7996 7995 ] final   43.56 input   59.86 | X-H torsion
[ 10167 10162 10161 10158 ] final -113.44 input  -65.29 | X-H torsion
[ 10718 10713 10712 10709 ] final    5.42 input   66.30 | X-H torsion
[ 10763 10752 10751 10750 ] final   34.64 input  -60.55 | X-H torsion
[ 11005 11000 10999 10996 ] final   87.77 input  -57.11 | X-H torsion

> <Gold.Protein.ActiveResidues>
 VAL166  LYS551  ARG553  GLY616  TRP617  ASP618  TYR619  PRO620  LYS621  CYS622 
 ASP623  PHE694  ASN695  SER759  ASP760  ASP761  ALA762  ILE779  LEU786  VAL792 
 PHE793  MET794  SER795  GLU796  ALA797  LYS798  CYS799  TRP800  GLU811  SER814 

> <Gold.Protein.RotatedAtoms>
  150.8071  134.7203  159.6653 H   0  0  0  0  0  0  0  0  0  0  0  0  # atno 6907 bound_to 6896
  152.4191  134.5985  160.0003 H   0  0  0  0  0  0  0  0  0  0  0  0  # atno 6908 bound_to 6896
  151.6206  133.3302  159.3123 H   0  0  0  0  0  0  0  0  0  0  0  0  # atno 6909 bound_to 6896
  144.7757  139.7704  143.6280 H   0  0  0  0  0  0  0  0  0  0  0  0  # atno 7974 bound_to 7965
  155.3048  140.3387  155.4246 H   0  0  0  0  0  0  0  0  0  0  0  0  # atno 8008 bound_to 7997
  156.1984  140.1723  156.7989 H   0  0  0  0  0  0  0  0  0  0  0  0  # atno 8009 bound_to 7997
  154.5528  140.0702  156.8679 H   0  0  0  0  0  0  0  0  0  0  0  0  # atno 8010 bound_to 7997
  140.1118  143.4521  152.1748 H   0  0  0  0  0  0  0  0  0  0  0  0  # atno 10167 bound_to 10162
  156.9071  130.5742  149.5647 H   0  0  0  0  0  0  0  0  0  0  0  0  # atno 10718 bound_to 10713
  153.0155  135.6355  154.1700 H   0  0  0  0  0  0  0  0  0  0  0  0  # atno 10763 bound_to 10752
  154.1439  135.2833  155.3155 H   0  0  0  0  0  0  0  0  0  0  0  0  # atno 10764 bound_to 10752
  154.6103  135.5558  153.7528 H   0  0  0  0  0  0  0  0  0  0  0  0  # atno 10765 bound_to 10752
  139.8912  134.8444  156.2906 H   0  0  0  0  0  0  0  0  0  0  0  0  # atno 11005 bound_to 11000
  146.1934  139.5187  142.9790 LP  0  0  0  0  0  0  0  0  0  0  0  0  # atno 17320 bound_to 7965
  145.6194  141.0325  143.1923 LP  0  0  0  0  0  0  0  0  0  0  0  0  # atno 17321 bound_to 7965
  139.5615  144.7409  151.4141 LP  0  0  0  0  0  0  0  0  0  0  0  0  # atno 17342 bound_to 10162
  140.6921  143.7836  150.7271 LP  0  0  0  0  0  0  0  0  0  0  0  0  # atno 17343 bound_to 10162
  156.0554  130.5616  150.9079 LP  0  0  0  0  0  0  0  0  0  0  0  0  # atno 17370 bound_to 10713
  157.5990  131.0942  150.8992 LP  0  0  0  0  0  0  0  0  0  0  0  0  # atno 17371 bound_to 10713
  140.9978  133.7169  156.0913 LP  0  0  0  0  0  0  0  0  0  0  0  0  # atno 17394 bound_to 11000
  140.7538  134.4015  157.5537 LP  0  0  0  0  0  0  0  0  0  0  0  0  # atno 17395 bound_to 11000

$$$$
