AV-unprocessed.smi:2400|AV-procd|sdf|9501|dock8
  -GOLD-   2272013133D 1   1.00000     0.00000
 Structure written by MMmdl.
 44 45  0  0  0  0  0  0  0  0  1 V2000
  149.1755  138.2801  154.7114 C   0  0  0  0  0  0  0  0  0  0  0  0
  149.4410  139.5371  154.1129 O   0  0  0  0  0  0  0  0  0  0  0  0
  148.3684  140.3565  154.0796 C   0  0  0  0  0  0  0  0  0  0  0  0
  148.1217  141.5660  154.6682 C   0  0  0  0  0  0  0  0  0  0  0  0
  148.9429  142.3451  155.5224 N   0  0  0  0  0  0  0  0  0  0  0  0
  150.1095  141.9808  156.0774 C   0  0  0  0  0  0  0  0  0  0  0  0
  150.6712  140.9014  155.8928 O   0  0  0  0  0  0  0  0  0  0  0  0
  150.6071  142.9573  156.8489 N   0  0  0  0  0  0  0  0  0  0  0  0
  151.8730  142.8958  157.5801 C   0  0  2  0  0  0  0  0  0  0  0  0
  151.9045  141.6554  158.4958 C   0  0  0  0  0  0  0  0  0  0  0  0
  152.0993  142.1700  159.9208 C   0  0  0  0  0  0  0  0  0  0  0  0
  152.7817  143.5228  159.7443 C   0  0  0  0  0  0  0  0  0  0  0  0
  152.1425  144.1368  158.4861 C   0  0  0  0  0  0  0  0  0  0  0  0
  153.1073  145.1277  157.8079 C   0  0  0  0  0  0  0  0  0  0  0  0
  150.8560  144.8973  158.8906 C   0  0  0  0  0  0  0  0  0  0  0  0
  146.7879  141.8920  154.2962 C   0  0  0  0  0  0  0  0  0  0  0  0
  145.9622  143.0902  154.6673 C   0  0  0  0  0  0  0  0  0  0  0  0
  146.2740  140.9656  153.4946 N   0  0  0  0  0  0  0  0  0  0  0  0
  147.2430  140.0285  153.3531 N   0  0  0  0  0  0  0  0  0  0  0  0
  146.9943  138.8579  152.5372 C   0  0  0  0  0  0  0  0  0  0  0  0
  150.0747  137.6653  154.6838 H   0  0  0  0  0  0  0  0  0  0  0  0
  148.3882  137.7497  154.1743 H   0  0  0  0  0  0  0  0  0  0  0  0
  148.8744  138.3859  155.7540 H   0  0  0  0  0  0  0  0  0  0  0  0
  148.6495  143.3001  155.6663 H   0  0  0  0  0  0  0  0  0  0  0  0
  150.0773  143.8122  156.9337 H   0  0  0  0  0  0  0  0  0  0  0  0
  152.6914  142.7790  156.8666 H   0  0  0  0  0  0  0  0  0  0  0  0
  151.0065  141.0408  158.4190 H   0  0  0  0  0  0  0  0  0  0  0  0
  152.7471  141.0211  158.2173 H   0  0  0  0  0  0  0  0  0  0  0  0
  151.1302  142.3029  160.4027 H   0  0  0  0  0  0  0  0  0  0  0  0
  152.6824  141.4844  160.5361 H   0  0  0  0  0  0  0  0  0  0  0  0
  152.6858  144.1549  160.6281 H   0  0  0  0  0  0  0  0  0  0  0  0
  153.8481  143.3586  159.5818 H   0  0  0  0  0  0  0  0  0  0  0  0
  153.3510  145.9586  158.4706 H   0  0  0  0  0  0  0  0  0  0  0  0
  152.6691  145.5461  156.9015 H   0  0  0  0  0  0  0  0  0  0  0  0
  154.0450  144.6473  157.5266 H   0  0  0  0  0  0  0  0  0  0  0  0
  151.0754  145.6839  159.6135 H   0  0  0  0  0  0  0  0  0  0  0  0
  150.1173  144.2360  159.3443 H   0  0  0  0  0  0  0  0  0  0  0  0
  150.3853  145.3791  158.0329 H   0  0  0  0  0  0  0  0  0  0  0  0
  146.5158  143.7734  155.3114 H   0  0  0  0  0  0  0  0  0  0  0  0
  145.0586  142.7935  155.1997 H   0  0  0  0  0  0  0  0  0  0  0  0
  145.6596  143.6470  153.7802 H   0  0  0  0  0  0  0  0  0  0  0  0
  147.9369  138.4526  152.1686 H   0  0  0  0  0  0  0  0  0  0  0  0
  146.3680  139.1199  151.6838 H   0  0  0  0  0  0  0  0  0  0  0  0
  146.4889  138.0982  153.1335 H   0  0  0  0  0  0  0  0  0  0  0  0
  1  2  1  0  0  0  0
  1 21  1  0  0  0  0
  1 22  1  0  0  0  0
  1 23  1  0  0  0  0
  2  3  1  0  0  0  0
  3 19  1  0  0  0  0
  3  4  2  0  0  0  0
  4  5  1  0  0  0  0
  4 16  1  0  0  0  0
  5  6  1  0  0  0  0
  5 24  1  0  0  0  0
  6  7  2  0  0  0  0
  6  8  1  0  0  0  0
  8  9  1  0  0  0  0
  8 25  1  0  0  0  0
  9 13  1  0  0  0  0
  9 10  1  0  0  0  0
  9 26  1  0  0  0  0
 10 11  1  0  0  0  0
 10 27  1  0  0  0  0
 10 28  1  0  0  0  0
 11 12  1  0  0  0  0
 11 29  1  0  0  0  0
 11 30  1  0  0  0  0
 12 13  1  0  0  0  0
 12 31  1  0  0  0  0
 12 32  1  0  0  0  0
 13 14  1  0  0  0  0
 13 15  1  0  0  0  0
 14 33  1  0  0  0  0
 14 34  1  0  0  0  0
 14 35  1  0  0  0  0
 15 36  1  0  0  0  0
 15 37  1  0  0  0  0
 15 38  1  0  0  0  0
 16 17  1  0  0  0  0
 16 18  2  0  0  0  0
 17 39  1  0  0  0  0
 17 40  1  0  0  0  0
 17 41  1  0  0  0  0
 18 19  1  0  0  0  0
 19 20  1  0  0  0  0
 20 42  1  0  0  0  0
 20 43  1  0  0  0  0
 20 44  1  0  0  0  0
M  END
> <s_m_source_file>
AV-unprocessed.smi

> <i_m_source_file_index>
2400

> <i_lp_mmshare_version>
43012

> <i_f3d_flags>
0

> <s_epik_input>
W0NIM11uMW5jKFtDSDNdKWMoYzFPW0NIM10pW05IXUMoPU8pW05IXVtDQEBIXShDMihbQ0gzXSlbQ0gzXSlbQ0gyXVtDSDJdW0NIMl0y

> <s_epik_cmdline>
J2VwaWtfcHl0aG9uJywgJy1waCcsICc3LjAnLCAnLXRuJywgJzgnLCAnLW1hJywgJzIwMCcsICctbWV0YWxfYmluZGluZycsICctaW1hZScsICc8aW5maWxlLm1hZT4nLCAnLW9tYWUnLCAnPG91dGZpbGUubWFlPic=

> <r_lp_tautomer_probability>
1

> <r_epik_Ionization_Penalty>
0.000423583

> <r_epik_Ionization_Penalty_Charging>
0

> <r_epik_Ionization_Penalty_Neutral>
0.000423583

> <r_epik_State_Penalty>
-0

> <r_epik_Charging_Adjusted_Penalty>
0

> <i_epik_Tot_Q>
0

> <i_epik_Tot_abs_Q>
0

> <r_epik_Metal_State_Penalty>
-0

> <b_epik_Metal_Only>
0

> <s_lp_Force_Field>
OPLS_2005

> <r_lp_Energy>
29.9339

> <b_lp_Chiralities_Consistent>
1

> <s_lp_Variant>
AV-unprocessed.smi:2400-1

> <Gold.Version>
5.8.1

> <Gold.Id.Protein>
6NUR|6NUR_protein|mol2

> <Gold.PLP.Fitness>
42.6247

> <Gold.PLP.PLP>
-37.7752

> <Gold.PLP.part.hbond>
-1.7904

> <Gold.PLP.part.metal>
0.0000

> <Gold.PLP.part.buried>
-6.1431

> <Gold.PLP.part.nonpolar>
-33.4553

> <Gold.PLP.part.repulsive>
3.4502

> <Gold.PLP.ligand.clash>
0.0000

> <Gold.PLP.ligand.torsion>
0.0599

> <Gold.PLP.Chemscore.Hbond>
1.6560

> <Gold.PLP.Chemscore.CHOScore>
0.0000

> <Gold.PLP.Chemscore.Metal>
0.0000

> <Gold.Chemscore.Hbonds>
donor molecule, donor type, donor heavy atom, donor atom, acceptor molecule, acceptor atom, score
      L1  H     5    24       P1  8028  0.75
      L1  H     8    25       P1  8028  0.64

> <Gold.PLP.Chemscore.Internal.Correction>
0.0014

> <Gold.Rescore>
     Score         DG    S(hbond)    S(metal)    S(lipo)     H(rot)  DE(clash)    DE(int)     intcor
     16.80     -20.89       1.72        0.00     109.26       1.21       1.24       2.85       ----

> <Gold.Chemscore.Fitness>
16.8048

> <Gold.Chemscore.DG>
-20.8929

> <Gold.Chemscore.ZeroCoef>
-5.4800

> <Gold.Chemscore.Hbond>
1.7161

> <Gold.Chemscore.Metal>
0.0000

> <Gold.Chemscore.Lipo>
109.2605

> <Gold.Chemscore.Internal_Hbond>
0.0000

> <Gold.Chemscore.DEClash>
1.2352

> <Gold.Chemscore.DEInternal>
2.8530

> <Gold.Chemscore.Rot>
1.2119

> <Gold.Chemscore.Internal.Correction>
   9.000000E+99

> <Gold.Chemscore.Hbonds>
donor molecule, donor type, donor heavy atom, donor atom, acceptor molecule, acceptor atom, score
      L1  H     5    24       P1  8028  0.72
      L1  H     8    25       P1  8028  0.63

> <Gold.Chemscore.Hbond.Weighted>
-5.7318

> <Gold.Chemscore.Metal.Weighted>
-0.0000

> <Gold.Chemscore.Lipo.Weighted>
-12.7835

> <Gold.Chemscore.Internal_Hbond.Weighted>
0.0000

> <Gold.Chemscore.DEClash.Weighted>
1.2352

> <Gold.Chemscore.DEInternal.Weighted>
2.8530

> <Gold.Chemscore.Rot.Weighted>
3.1024

> <Gold.Chemscore.Internal.Correction.Weighted>
   9.000000E+99

> <Gold.Protein.RotatedTorsions>
[ 6907 6896 6895 6894 ] final   -1.81 input  -60.11 | X-H torsion
[ 7974 7965 7964 7962 ] final  155.34 input  175.53 | X-H torsion
[ 8008 7997 7996 7995 ] final -161.55 input   59.86 | X-H torsion
[ 10167 10162 10161 10158 ] final  157.49 input  -65.29 | X-H torsion
[ 10718 10713 10712 10709 ] final -178.53 input   66.30 | X-H torsion
[ 10763 10752 10751 10750 ] final  -46.40 input  -60.55 | X-H torsion
[ 11005 11000 10999 10996 ] final  -27.44 input  -57.11 | X-H torsion

> <Gold.Protein.ActiveResidues>
 VAL166  LYS551  ARG553  GLY616  TRP617  ASP618  TYR619  PRO620  LYS621  CYS622 
 ASP623  PHE694  ASN695  SER759  ASP760  ASP761  ALA762  ILE779  LEU786  VAL792 
 PHE793  MET794  SER795  GLU796  ALA797  LYS798  CYS799  TRP800  GLU811  SER814 

> <Gold.Protein.RotatedAtoms>
  151.5400  135.1068  159.9923 H   0  0  0  0  0  0  0  0  0  0  0  0  # atno 6907 bound_to 6896
  152.4540  133.7681  159.6794 H   0  0  0  0  0  0  0  0  0  0  0  0  # atno 6908 bound_to 6896
  150.8477  133.7770  159.3061 H   0  0  0  0  0  0  0  0  0  0  0  0  # atno 6909 bound_to 6896
  144.8031  139.7055  143.6173 H   0  0  0  0  0  0  0  0  0  0  0  0  # atno 7974 bound_to 7965
  155.7938  140.0882  157.1994 H   0  0  0  0  0  0  0  0  0  0  0  0  # atno 8008 bound_to 7997
  154.3984  140.1485  156.3252 H   0  0  0  0  0  0  0  0  0  0  0  0  # atno 8009 bound_to 7997
  155.8532  140.3433  155.5709 H   0  0  0  0  0  0  0  0  0  0  0  0  # atno 8010 bound_to 7997
  139.4823  144.4912  151.8305 H   0  0  0  0  0  0  0  0  0  0  0  0  # atno 10167 bound_to 10162
  156.8457  130.9701  151.3096 H   0  0  0  0  0  0  0  0  0  0  0  0  # atno 10718 bound_to 10713
  154.0443  135.6640  153.4793 H   0  0  0  0  0  0  0  0  0  0  0  0  # atno 10763 bound_to 10752
  153.0489  135.5097  154.7812 H   0  0  0  0  0  0  0  0  0  0  0  0  # atno 10764 bound_to 10752
  154.6798  135.3043  154.9595 H   0  0  0  0  0  0  0  0  0  0  0  0  # atno 10765 bound_to 10752
  140.9120  133.7455  156.0683 H   0  0  0  0  0  0  0  0  0  0  0  0  # atno 11005 bound_to 11000
  146.2317  139.5826  142.9551 LP  0  0  0  0  0  0  0  0  0  0  0  0  # atno 17320 bound_to 7965
  145.5504  141.0414  143.2281 LP  0  0  0  0  0  0  0  0  0  0  0  0  # atno 17321 bound_to 7965
  140.4397  144.2003  150.5891 LP  0  0  0  0  0  0  0  0  0  0  0  0  # atno 17342 bound_to 10162
  140.4696  143.2418  151.9108 LP  0  0  0  0  0  0  0  0  0  0  0  0  # atno 17343 bound_to 10162
  157.6331  130.8745  149.9310 LP  0  0  0  0  0  0  0  0  0  0  0  0  # atno 17370 bound_to 10713
  156.0856  130.3668  150.0494 LP  0  0  0  0  0  0  0  0  0  0  0  0  # atno 17371 bound_to 10713
  140.8098  134.3412  157.5415 LP  0  0  0  0  0  0  0  0  0  0  0  0  # atno 17394 bound_to 11000
  139.8759  134.9247  156.3357 LP  0  0  0  0  0  0  0  0  0  0  0  0  # atno 17395 bound_to 11000

$$$$
