AV-unprocessed.smi:2959|AV-procd|sdf|11310|dock2
  -GOLD-   2272016213D 1   1.00000     0.00000
 Structure written by MMmdl.
 46 48  0  0  0  0  0  0  0  0  2 V2000
  145.2363  136.6765  151.1709 C   0  0  0  0  0  0  0  0  0  0  0  0
  145.3031  136.1201  152.5890 C   0  0  0  0  0  0  0  0  0  0  0  0
  144.2844  136.0510  153.2756 O   0  0  0  0  0  0  0  0  0  0  0  0
  146.5106  135.7254  153.0163 N   0  0  0  0  0  0  0  0  0  0  0  0
  146.7692  135.1621  154.3340 C   0  0  0  0  0  0  0  0  0  0  0  0
  146.6392  136.2393  155.4185 C   0  0  0  0  0  0  0  0  0  0  0  0
  147.9051  137.0191  155.5702 C   0  0  0  0  0  0  0  0  0  0  0  0
  148.8561  137.1923  154.6090 N   0  3  0  0  0  0  0  0  0  0  0  0
  149.8949  137.9796  155.1079 C   0  0  0  0  0  0  0  0  0  0  0  0
  151.0740  138.4178  154.5129 C   0  0  0  0  0  0  0  0  0  0  0  0
  151.9268  139.2119  155.3075 C   0  0  0  0  0  0  0  0  0  0  0  0
  151.5953  139.5410  156.6381 C   0  0  0  0  0  0  0  0  0  0  0  0
  150.3970  139.0906  157.2306 C   0  0  0  0  0  0  0  0  0  0  0  0
  149.5590  138.3077  156.4372 C   0  0  0  0  0  0  0  0  0  0  0  0
  148.3228  137.6988  156.6774 N   0  0  0  0  0  0  0  0  0  0  0  0
  147.6956  137.8470  157.9988 C   0  0  0  0  0  0  0  0  0  0  0  0
  148.6378  137.4278  159.1360 C   0  0  0  0  0  0  0  0  0  0  0  0
  147.9391  137.5193  160.3705 O   0  0  0  0  0  0  0  0  0  0  0  0
  147.4152  136.3678  160.9154 C   0  0  0  0  0  0  0  0  0  0  0  0
  146.7245  136.4982  162.1379 C   0  0  0  0  0  0  0  0  0  0  0  0
  146.1547  135.3747  162.7668 C   0  0  0  0  0  0  0  0  0  0  0  0
  146.2724  134.1032  162.1762 C   0  0  0  0  0  0  0  0  0  0  0  0
  146.9601  133.9586  160.9570 C   0  0  0  0  0  0  0  0  0  0  0  0
  147.5299  135.0826  160.3275 C   0  0  0  0  0  0  0  0  0  0  0  0
  145.8881  137.5447  151.0705 H   0  0  0  0  0  0  0  0  0  0  0  0
  144.2197  136.9826  150.9222 H   0  0  0  0  0  0  0  0  0  0  0  0
  145.5513  135.9216  150.4500 H   0  0  0  0  0  0  0  0  0  0  0  0
  147.2953  135.8135  152.3869 H   0  0  0  0  0  0  0  0  0  0  0  0
  146.0670  134.3495  154.5278 H   0  0  0  0  0  0  0  0  0  0  0  0
  147.7717  134.7319  154.3473 H   0  0  0  0  0  0  0  0  0  0  0  0
  145.8246  136.9231  155.1777 H   0  0  0  0  0  0  0  0  0  0  0  0
  146.3886  135.7814  156.3763 H   0  0  0  0  0  0  0  0  0  0  0  0
  151.3312  138.1662  153.4944 H   0  0  0  0  0  0  0  0  0  0  0  0
  152.8543  139.5749  154.8888 H   0  0  0  0  0  0  0  0  0  0  0  0
  152.2740  140.1510  157.2166 H   0  0  0  0  0  0  0  0  0  0  0  0
  150.1529  139.3462  158.2511 H   0  0  0  0  0  0  0  0  0  0  0  0
  147.3627  138.8780  158.1215 H   0  0  0  0  0  0  0  0  0  0  0  0
  146.7972  137.2296  158.0135 H   0  0  0  0  0  0  0  0  0  0  0  0
  148.9805  136.4051  158.9707 H   0  0  0  0  0  0  0  0  0  0  0  0
  149.5121  138.0800  159.1456 H   0  0  0  0  0  0  0  0  0  0  0  0
  146.6299  137.4708  162.5982 H   0  0  0  0  0  0  0  0  0  0  0  0
  145.6276  135.4887  163.7026 H   0  0  0  0  0  0  0  0  0  0  0  0
  145.8358  133.2405  162.6573 H   0  0  0  0  0  0  0  0  0  0  0  0
  147.0518  132.9828  160.5032 H   0  0  0  0  0  0  0  0  0  0  0  0
  148.0516  134.9322  159.3948 H   0  0  0  0  0  0  0  0  0  0  0  0
  148.7981  136.7952  153.6800 H   0  0  0  0  0  0  0  0  0  0  0  0
  1  2  1  0  0  0  0
  1 25  1  0  0  0  0
  1 26  1  0  0  0  0
  1 27  1  0  0  0  0
  2  3  2  0  0  0  0
  2  4  1  0  0  0  0
  4  5  1  0  0  0  0
  4 28  1  0  0  0  0
  5  6  1  0  0  0  0
  5 29  1  0  0  0  0
  5 30  1  0  0  0  0
  6  7  1  0  0  0  0
  6 31  1  0  0  0  0
  6 32  1  0  0  0  0
  7 15  1  0  0  0  0
  7  8  2  0  0  0  0
  8  9  1  0  0  0  0
  8 46  1  0  0  0  0
  9 14  2  0  0  0  0
  9 10  1  0  0  0  0
 10 11  2  0  0  0  0
 10 33  1  0  0  0  0
 11 12  1  0  0  0  0
 11 34  1  0  0  0  0
 12 13  2  0  0  0  0
 12 35  1  0  0  0  0
 13 14  1  0  0  0  0
 13 36  1  0  0  0  0
 14 15  1  0  0  0  0
 15 16  1  0  0  0  0
 16 17  1  0  0  0  0
 16 37  1  0  0  0  0
 16 38  1  0  0  0  0
 17 18  1  0  0  0  0
 17 39  1  0  0  0  0
 17 40  1  0  0  0  0
 18 19  1  0  0  0  0
 19 24  1  0  0  0  0
 19 20  2  0  0  0  0
 20 21  1  0  0  0  0
 20 41  1  0  0  0  0
 21 22  2  0  0  0  0
 21 42  1  0  0  0  0
 22 23  1  0  0  0  0
 22 43  1  0  0  0  0
 23 24  2  0  0  0  0
 23 44  1  0  0  0  0
 24 45  1  0  0  0  0
M  CHG  1   8   1
M  END
> <s_m_source_file>
AV-unprocessed.smi

> <i_m_source_file_index>
2959

> <i_lp_mmshare_version>
43012

> <i_f3d_flags>
0

> <s_epik_input>
W0NIM11DKD1PKVtOSF1bQ0gyXVtDSDJdYyhuMSluKGMoYzEyKVtjSF1bY0hdW2NIXVtjSF0yKVtDSDJdW0NIMl1PYzNbY0hdW2NIXVtjSF1bY0hdW2NIXTM=

> <s_epik_cmdline>
J2VwaWtfcHl0aG9uJywgJy1waCcsICc3LjAnLCAnLXRuJywgJzgnLCAnLW1hJywgJzIwMCcsICctbWV0YWxfYmluZGluZycsICctaW1hZScsICc8aW5maWxlLm1hZT4nLCAnLW9tYWUnLCAnPG91dGZpbGUubWFlPic=

> <r_lp_tautomer_probability>
1

> <r_epik_Ionization_Penalty>
1.04698

> <r_epik_Ionization_Penalty_Charging>
1.04698

> <r_epik_Ionization_Penalty_Neutral>
3.05925e-07

> <r_epik_State_Penalty>
1.0995

> <r_epik_Charging_Adjusted_Penalty>
2.14648

> <i_epik_Tot_Q>
1

> <i_epik_Tot_abs_Q>
1

> <r_epik_Metal_State_Penalty>
1.19436

> <b_epik_Metal_Only>
0

> <s_lp_Force_Field>
OPLS_2005

> <r_lp_Energy>
17.9669

> <b_lp_Chiralities_Consistent>
1

> <s_lp_Variant>
AV-unprocessed.smi:2959-2

> <Gold.Version>
5.8.1

> <Gold.Id.Protein>
6NUR|6NUR_protein|mol2

> <Gold.PLP.Fitness>
50.1606

> <Gold.PLP.PLP>
-39.0270

> <Gold.PLP.part.hbond>
-3.9799

> <Gold.PLP.part.metal>
0.0000

> <Gold.PLP.part.buried>
-5.5173

> <Gold.PLP.part.nonpolar>
-30.7317

> <Gold.PLP.part.repulsive>
0.0569

> <Gold.PLP.ligand.clash>
0.0000

> <Gold.PLP.ligand.torsion>
0.8412

> <Gold.PLP.Chemscore.Hbond>
4.2392

> <Gold.PLP.Chemscore.CHOScore>
0.0000

> <Gold.PLP.Chemscore.Metal>
0.0000

> <Gold.Chemscore.Hbonds>
donor molecule, donor type, donor heavy atom, donor atom, acceptor molecule, acceptor atom, score
      L1  H     4    28       P1  7948  1.00
      L1  H     8    46       P1  7948  2.00
      P1  H  6931  6943       L1    18  0.58
      P1  H  6934  6947       L1    18  0.70

> <Gold.PLP.Chemscore.Internal.Correction>
0.0985

> <Gold.Rescore>
     Score         DG    S(hbond)    S(metal)    S(lipo)     H(rot)  DE(clash)    DE(int)     intcor
     19.40     -20.14       2.97        0.00      88.83       2.21       0.00       0.74       ----

> <Gold.Chemscore.Fitness>
19.3981

> <Gold.Chemscore.DG>
-20.1408

> <Gold.Chemscore.ZeroCoef>
-5.4800

> <Gold.Chemscore.Hbond>
2.9712

> <Gold.Chemscore.Metal>
0.0000

> <Gold.Chemscore.Lipo>
88.8274

> <Gold.Chemscore.Internal_Hbond>
0.0000

> <Gold.Chemscore.DEClash>
0.0000

> <Gold.Chemscore.DEInternal>
0.7427

> <Gold.Chemscore.Rot>
2.2093

> <Gold.Chemscore.Internal.Correction>
   9.000000E+99

> <Gold.Chemscore.Hbonds>
donor molecule, donor type, donor heavy atom, donor atom, acceptor molecule, acceptor atom, score
      L1  H     4    28       P1  7948  0.99
      L1  H     8    46       P1  7948  1.00
      P1  H  6931  6943       L1    18  0.19
      P1  H  6934  6947       L1    18  0.64

> <Gold.Chemscore.Hbond.Weighted>
-9.9239

> <Gold.Chemscore.Metal.Weighted>
-0.0000

> <Gold.Chemscore.Lipo.Weighted>
-10.3928

> <Gold.Chemscore.Internal_Hbond.Weighted>
0.0000

> <Gold.Chemscore.DEClash.Weighted>
0.0000

> <Gold.Chemscore.DEInternal.Weighted>
0.7427

> <Gold.Chemscore.Rot.Weighted>
5.6559

> <Gold.Chemscore.Internal.Correction.Weighted>
   9.000000E+99

> <Gold.Protein.RotatedTorsions>
[ 6907 6896 6895 6894 ] final    6.56 input  -60.11 | X-H torsion
[ 7974 7965 7964 7962 ] final    7.29 input  175.53 | X-H torsion
[ 8008 7997 7996 7995 ] final  -36.28 input   59.86 | X-H torsion
[ 10167 10162 10161 10158 ] final -167.44 input  -65.29 | X-H torsion
[ 10718 10713 10712 10709 ] final  -98.98 input   66.30 | X-H torsion
[ 10763 10752 10751 10750 ] final  178.58 input  -60.55 | X-H torsion
[ 11005 11000 10999 10996 ] final   57.94 input  -57.11 | X-H torsion

> <Gold.Protein.ActiveResidues>
 VAL166  LYS551  ARG553  GLY616  TRP617  ASP618  TYR619  PRO620  LYS621  CYS622 
 ASP623  PHE694  ASN695  SER759  ASP760  ASP761  ALA762  ILE779  LEU786  VAL792 
 PHE793  MET794  SER795  GLU796  ALA797  LYS798  CYS799  TRP800  GLU811  SER814 

> <Gold.Protein.RotatedAtoms>
  151.6757  135.0969  160.0206 H   0  0  0  0  0  0  0  0  0  0  0  0  # atno 6907 bound_to 6896
  152.3865  133.6614  159.6211 H   0  0  0  0  0  0  0  0  0  0  0  0  # atno 6908 bound_to 6896
  150.7790  133.8943  159.3364 H   0  0  0  0  0  0  0  0  0  0  0  0  # atno 6909 bound_to 6896
  146.2428  140.0105  142.8407 H   0  0  0  0  0  0  0  0  0  0  0  0  # atno 7974 bound_to 7965
  154.4076  140.1635  156.2348 H   0  0  0  0  0  0  0  0  0  0  0  0  # atno 8008 bound_to 7997
  155.9252  140.3418  155.6182 H   0  0  0  0  0  0  0  0  0  0  0  0  # atno 8009 bound_to 7997
  155.7174  140.0764  157.2336 H   0  0  0  0  0  0  0  0  0  0  0  0  # atno 8010 bound_to 7997
  139.6049  144.0933  152.1782 H   0  0  0  0  0  0  0  0  0  0  0  0  # atno 10167 bound_to 10162
  156.0121  130.5262  150.6602 H   0  0  0  0  0  0  0  0  0  0  0  0  # atno 10718 bound_to 10713
  154.5095  135.2788  155.1354 H   0  0  0  0  0  0  0  0  0  0  0  0  # atno 10763 bound_to 10752
  154.2956  135.6258  153.5407 H   0  0  0  0  0  0  0  0  0  0  0  0  # atno 10764 bound_to 10752
  152.9916  135.5684  154.5557 H   0  0  0  0  0  0  0  0  0  0  0  0  # atno 10765 bound_to 10752
  140.0415  134.5867  155.9376 H   0  0  0  0  0  0  0  0  0  0  0  0  # atno 11005 bound_to 11000
  145.1332  140.9529  143.4532 LP  0  0  0  0  0  0  0  0  0  0  0  0  # atno 17320 bound_to 7965
  145.0367  139.3294  143.5997 LP  0  0  0  0  0  0  0  0  0  0  0  0  # atno 17321 bound_to 7965
  140.0538  144.5911  150.7315 LP  0  0  0  0  0  0  0  0  0  0  0  0  # atno 17342 bound_to 10162
  140.7277  143.2655  151.4061 LP  0  0  0  0  0  0  0  0  0  0  0  0  # atno 17343 bound_to 10162
  157.4346  131.0853  151.1004 LP  0  0  0  0  0  0  0  0  0  0  0  0  # atno 17370 bound_to 10713
  157.1567  130.6207  149.5598 LP  0  0  0  0  0  0  0  0  0  0  0  0  # atno 17371 bound_to 10713
  141.1885  133.6563  156.5328 LP  0  0  0  0  0  0  0  0  0  0  0  0  # atno 17394 bound_to 11000
  140.4062  134.7313  157.4809 LP  0  0  0  0  0  0  0  0  0  0  0  0  # atno 17395 bound_to 11000

$$$$
