#       Name:                AV-unprocessed.smi:54
#       Creating user name   scv26
#       Creation time:       Thu Mar 26 16:42:17 2020


#       File generated by GOLD software.
#

@<TRIPOS>MOLECULE
AV-unprocessed.smi:54
    58    60     1
SMALL
NO_CHARGES


@<TRIPOS>ATOM
      1 ****        -0.7318   5.3572  -1.2575 C.3            1 S1                 0.0000
      2 ****        -1.1590   4.7926   0.1069 C.3            1 S1                 0.0000
      3 ****        -0.4389   5.5134   1.2582 C.3            1 S1                 0.0000
      4 ****        -0.9020   3.2825   0.1687 C.2            1 S1                 0.0000
      5 ****         0.2350   2.8117   0.1216 O.2            1 S1                 0.0000
      6 ****        -2.0894   2.4532   0.2795 N.am           1 S1                 0.0000
      7 ****        -2.1451   1.1027   0.3451 C.2            1 S1                 0.0000
      8 ****        -1.0726   0.3394   0.4987 N.2            1 S1                 0.0000
      9 ****        -1.3283  -1.0030   0.5378 C.2            1 S1                 0.0000
     10 ****        -2.5656  -1.6058   0.4521 C.2            1 S1                 0.0000
     11 ****        -2.4321  -2.9859   0.5484 N.2            1 S1                 0.0000
     12 ****        -1.1488  -3.1713   0.6879 C.2            1 S1                 0.0000
     13 ****        -0.4007  -2.0158   0.6633 N.pl3          1 S1                 0.0000
     14 ****         1.0802  -1.8285   0.8189 C.3            1 S1                 0.0000
     15 ****         1.6798  -3.0787   0.9512 O.3            1 S1                 0.0000
     16 ****         2.0067  -3.5792  -0.3386 C.3            1 S1                 0.0000
     17 ****         3.0721  -4.6785  -0.2181 C.3            1 S1                 0.0000
     18 ****         2.4615  -5.9093   0.1051 O.3            1 S1                 0.0000
     19 ****         2.5024  -2.3226  -1.0633 C.3            1 S1                 0.0000
     20 ****         2.2444  -2.4306  -2.4493 O.3            1 S1                 0.0000
     21 ****         1.6834  -1.1875  -0.4459 C.3            1 S1                 0.0000
     22 ****         2.5152  -0.0924  -0.1205 O.3            1 S1                 0.0000
     23 ****        -3.7380  -0.7937   0.2958 C.2            1 S1                 0.0000
     24 ****        -4.9090  -1.1555   0.2026 O.2            1 S1                 0.0000
     25 ****        -3.4320   0.5728   0.2503 N.am           1 S1                 0.0000
     26 ****         1.1782  -1.2325   1.7275 H              1 S1                 0.0000
     27 ****         1.1071  -3.9593  -0.8270 H              1 S1                 0.0000
     28 ****         3.5698  -2.1776  -0.8879 H              1 S1                 0.0000
     29 ****         0.8908  -0.8465  -1.1140 H              1 S1                 0.0000
     30 ****        -1.2473   4.8520  -2.0751 H              1 S1                 0.0000
     31 ****         0.3410   5.2453  -1.4201 H              1 S1                 0.0000
     32 ****        -0.9672   6.4193  -1.3300 H              1 S1                 0.0000
     33 ****        -2.2306   4.9615   0.2223 H              1 S1                 0.0000
     34 ****        -0.7376   5.1113   2.2270 H              1 S1                 0.0000
     35 ****        -0.6750   6.5779   1.2597 H              1 S1                 0.0000
     36 ****         0.6446   5.4166   1.1769 H              1 S1                 0.0000
     37 ****        -2.9714   2.9437   0.2827 H              1 S1                 0.0000
     38 ****        -0.7220  -4.1563   0.8104 H              1 S1                 0.0000
     39 ****         3.5848  -4.8083  -1.1714 H              1 S1                 0.0000
     40 ****         3.8278  -4.4208   0.5245 H              1 S1                 0.0000
     41 ****         3.1319  -6.5735   0.1550 H              1 S1                 0.0000
     42 ****         1.3157  -2.5543  -2.5736 H              1 S1                 0.0000
     43 ****         3.1842  -0.3901   0.4766 H              1 S1                 0.0000
     44 ****        -4.2107   1.2050   0.1381 H              1 S1                 0.0000
     45 ****         1.0249   3.4194   0.0406 LP             1 S1                 0.0000
     46 ****         0.3682   1.8215   0.1643 LP             1 S1                 0.0000
     47 ****        -0.1496   0.7156   0.5796 LP             1 S1                 0.0000
     48 ****        -3.1539  -3.6774   0.5178 LP             1 S1                 0.0000
     49 ****         1.0467  -3.7072   1.4032 LP             1 S1                 0.0000
     50 ****         2.5127  -2.9941   1.4981 LP             1 S1                 0.0000
     51 ****         1.7979  -6.1525  -0.6024 LP             1 S1                 0.0000
     52 ****         1.9958  -5.8333   0.9868 LP             1 S1                 0.0000
     53 ****         2.7419  -3.2125  -2.8249 LP             1 S1                 0.0000
     54 ****         2.5381  -1.5946  -2.9130 LP             1 S1                 0.0000
     55 ****         1.9719   0.6264   0.3132 LP             1 S1                 0.0000
     56 ****         2.9404   0.2665  -0.9514 LP             1 S1                 0.0000
     57 ****        -5.1355  -2.1291   0.2330 LP             1 S1                 0.0000
     58 ****        -5.6353  -0.4764   0.0963 LP             1 S1                 0.0000
@<TRIPOS>BOND
    1    1    2 1     
    2    1   30 1     
    3    1   31 1     
    4    1   32 1     
    5    2    3 1     
    6    2    4 1     
    7    2   33 1     
    8    3   34 1     
    9    3   35 1     
   10    3   36 1     
   11    4    5 2     
   12    4    6 am    
   13    6   37 1     
   14    6    7 1     
   15    7   25 1     
   16    7    8 2     
   17    8    9 1     
   18    9   13 1     
   19    9   10 2     
   20   10   11 1     
   21   10   23 1     
   22   11   12 2     
   23   12   13 1     
   24   12   38 1     
   25   13   14 1     
   26   14   26 1     
   27   14   21 1     
   28   14   15 1     
   29   15   16 1     
   30   16   27 1     
   31   16   17 1     
   32   16   19 1     
   33   17   18 1     
   34   17   39 1     
   35   17   40 1     
   36   18   41 1     
   37   19   28 1     
   38   19   20 1     
   39   19   21 1     
   40   20   42 1     
   41   21   29 1     
   42   21   22 1     
   43   22   43 1     
   44   23   24 2     
   45   23   25 am    
   46   25   44 1     
   47    5   45 1     
   48    5   46 1     
   49    8   47 1     
   50   11   48 1     
   51   15   49 1     
   52   15   50 1     
   53   18   51 1     
   54   18   52 1     
   55   20   53 1     
   56   20   54 1     
   57   22   55 1     
   58   22   56 1     
   59   24   57 1     
   60   24   58 1     
@<TRIPOS>SUBSTRUCTURE
      1 S1             1
@<TRIPOS>SET
LONE_PAIRS      STATIC     ATOMS    <user>   **** ""
14 45 46 47 48 49 50 51 52 53 54 55 56 57 58
DONOR_HYDROGENS      STATIC     ATOMS    <user>   **** ""
5 37 41 42 43 44
ATOM$BLUE        STATIC     ATOMS    COLORGROUP SYSTEM
14 45 46 47 48 49 50 51 52 53 54 55 56 57 58
ATOM$RED        STATIC     ATOMS    COLORGROUP SYSTEM
5 37 41 42 43 44
