AV-unprocessed.smi:51|AV-procd|sdf|499|dock6
  -GOLD-   2262016373D 1   1.00000     0.00000
 Structure written by MMmdl.
 25 26  0  0  0  0  0  0  0  0  2 V2000
  153.5922  138.5357  155.4937 O   0  0  0  0  0  0  0  0  0  0  0  0
  152.6830  137.8311  155.9837 C   0  0  0  0  0  0  0  0  0  0  0  0
  152.8070  136.6410  156.3509 O   0  5  0  0  0  0  0  0  0  0  0  0
  151.3035  138.4864  156.1316 C   0  0  2  0  0  0  0  0  0  0  0  0
  150.2112  137.7920  155.2945 C   0  0  0  0  0  0  0  0  0  0  0  0
  150.0426  138.7089  154.0847 C   0  0  1  0  0  0  0  0  0  0  0  0
  148.7613  138.6058  153.4997 O   0  0  0  0  0  0  0  0  0  0  0  0
  150.3025  140.0882  154.6851 C   0  0  0  0  0  0  0  0  0  0  0  0
  151.3630  139.8704  155.6593 N   0  0  0  0  0  0  0  0  0  0  0  0
  151.4907  140.8512  156.6526 C   0  0  0  0  0  0  0  0  0  0  0  0
  150.7852  142.0661  156.5276 C   0  0  0  0  0  0  0  0  0  0  0  0
  150.9644  143.0065  157.5616 C   0  0  0  0  0  0  0  0  0  0  0  0
  151.7653  142.7569  158.6202 N   0  0  0  0  0  0  0  0  0  0  0  0
  152.3840  141.5735  158.6375 C   0  0  0  0  0  0  0  0  0  0  0  0
  152.2911  140.6093  157.7189 N   0  0  0  0  0  0  0  0  0  0  0  0
  151.0229  138.4425  157.1853 H   0  0  0  0  0  0  0  0  0  0  0  0
  150.4525  136.7658  155.0132 H   0  0  0  0  0  0  0  0  0  0  0  0
  149.2874  137.7621  155.8745 H   0  0  0  0  0  0  0  0  0  0  0  0
  150.8038  138.4795  153.3376 H   0  0  0  0  0  0  0  0  0  0  0  0
  148.8058  137.9770  152.7960 H   0  0  0  0  0  0  0  0  0  0  0  0
  150.6083  140.8064  153.9237 H   0  0  0  0  0  0  0  0  0  0  0  0
  149.4039  140.4728  155.1710 H   0  0  0  0  0  0  0  0  0  0  0  0
  150.1461  142.2686  155.6807 H   0  0  0  0  0  0  0  0  0  0  0  0
  150.4617  143.9620  157.5398 H   0  0  0  0  0  0  0  0  0  0  0  0
  153.0238  141.3744  159.4843 H   0  0  0  0  0  0  0  0  0  0  0  0
  1  2  2  0  0  0  0
  2  3  1  0  0  0  0
  2  4  1  0  0  0  0
  4  9  1  0  0  0  0
  4  5  1  0  0  0  0
  4 16  1  0  0  0  0
  5  6  1  0  0  0  0
  5 17  1  0  0  0  0
  5 18  1  0  0  0  0
  6  7  1  0  0  0  0
  6  8  1  0  0  0  0
  6 19  1  0  0  0  0
  7 20  1  0  0  0  0
  8  9  1  0  0  0  0
  8 21  1  0  0  0  0
  8 22  1  0  0  0  0
  9 10  1  0  0  0  0
 10 15  1  0  0  0  0
 10 11  2  0  0  0  0
 11 12  1  0  0  0  0
 11 23  1  0  0  0  0
 12 13  2  0  0  0  0
 12 24  1  0  0  0  0
 13 14  1  0  0  0  0
 14 15  2  0  0  0  0
 14 25  1  0  0  0  0
M  CHG  1   3  -1
M  END
> <s_m_source_file>
AV-unprocessed.smi

> <i_m_source_file_index>
51

> <i_lp_mmshare_version>
43012

> <i_f3d_flags>
0

> <s_epik_input>
Tz1DKFtPSF0pW0NAQEhdMVtDSDJdW0NAQEhdKFtPSF0pW0NIMl1OMWMyW2NIXVtjSF1uW2NIXW4y

> <s_epik_cmdline>
J2VwaWtfcHl0aG9uJywgJy1waCcsICc3LjAnLCAnLXRuJywgJzgnLCAnLW1hJywgJzIwMCcsICctbWV0YWxfYmluZGluZycsICctaW1hZScsICc8aW5maWxlLm1hZT4nLCAnLW9tYWUnLCAnPG91dGZpbGUubWFlPic=

> <r_lp_tautomer_probability>
1

> <r_epik_Ionization_Penalty>
0.225251

> <r_epik_Ionization_Penalty_Charging>
0.000248217

> <r_epik_Ionization_Penalty_Neutral>
0.225002

> <r_epik_State_Penalty>
0.21284

> <r_epik_Charging_Adjusted_Penalty>
0.213088

> <i_epik_Tot_Q>
-1

> <i_epik_Tot_abs_Q>
1

> <r_epik_Metal_State_Penalty>
0.154111

> <b_epik_Metal_Only>
0

> <s_lp_Force_Field>
OPLS_2005

> <r_lp_Energy>
17.878

> <b_lp_Chiralities_Consistent>
1

> <s_lp_Variant>
AV-unprocessed.smi:51-1

> <Gold.Version>
5.8.1

> <Gold.Id.Protein>
6NUR|6NUR_protein|mol2

> <Gold.PLP.Fitness>
38.3294

> <Gold.PLP.PLP>
-22.6764

> <Gold.PLP.part.hbond>
-4.2067

> <Gold.PLP.part.metal>
0.0000

> <Gold.PLP.part.buried>
-2.1399

> <Gold.PLP.part.nonpolar>
-16.6936

> <Gold.PLP.part.repulsive>
0.0265

> <Gold.PLP.ligand.clash>
0.1506

> <Gold.PLP.ligand.torsion>
0.4189

> <Gold.PLP.Chemscore.Hbond>
4.6000

> <Gold.PLP.Chemscore.CHOScore>
0.9141

> <Gold.PLP.Chemscore.Metal>
0.0000

> <Gold.Chemscore.Hbonds>
donor molecule, donor type, donor heavy atom, donor atom, acceptor molecule, acceptor atom, score
      L1  H     7    20       P1  7948  1.00
      P1  H  7997  8010       L1     1  1.60
      P1  H 10752 10764       L1     3  1.92
      L1  C    12    24       P1  8028  0.88

> <Gold.PLP.Chemscore.Internal.Correction>
0.0992

> <Gold.Rescore>
     Score         DG    S(hbond)    S(metal)    S(lipo)     H(rot)  DE(clash)    DE(int)     intcor
     13.10     -13.43       2.71        0.00      39.47       2.23       0.21       0.13       ----

> <Gold.Chemscore.Fitness>
13.1023

> <Gold.Chemscore.DG>
-13.4343

> <Gold.Chemscore.ZeroCoef>
-5.4800

> <Gold.Chemscore.Hbond>
2.7070

> <Gold.Chemscore.Metal>
0.0000

> <Gold.Chemscore.Lipo>
39.4682

> <Gold.Chemscore.Internal_Hbond>
0.0000

> <Gold.Chemscore.DEClash>
0.2062

> <Gold.Chemscore.DEInternal>
0.1258

> <Gold.Chemscore.Rot>
2.2285

> <Gold.Chemscore.Internal.Correction>
   9.000000E+99

> <Gold.Chemscore.Hbonds>
donor molecule, donor type, donor heavy atom, donor atom, acceptor molecule, acceptor atom, score
      L1  H     7    20       P1  7948  0.98
      P1  H  7997  8010       L1     1  0.79
      P1  H 10752 10764       L1     3  0.91

> <Gold.Chemscore.Hbond.Weighted>
-9.0415

> <Gold.Chemscore.Metal.Weighted>
-0.0000

> <Gold.Chemscore.Lipo.Weighted>
-4.6178

> <Gold.Chemscore.Internal_Hbond.Weighted>
0.0000

> <Gold.Chemscore.DEClash.Weighted>
0.2062

> <Gold.Chemscore.DEInternal.Weighted>
0.1258

> <Gold.Chemscore.Rot.Weighted>
5.7050

> <Gold.Chemscore.Internal.Correction.Weighted>
   9.000000E+99

> <Gold.Protein.RotatedTorsions>
[ 6907 6896 6895 6894 ] final   26.20 input  -60.11 | X-H torsion
[ 7974 7965 7964 7962 ] final   32.61 input  175.53 | X-H torsion
[ 8008 7997 7996 7995 ] final   91.98 input   59.86 | X-H torsion
[ 10167 10162 10161 10158 ] final   -5.55 input  -65.29 | X-H torsion
[ 10718 10713 10712 10709 ] final -147.19 input   66.30 | X-H torsion
[ 10763 10752 10751 10750 ] final  -10.67 input  -60.55 | X-H torsion
[ 11005 11000 10999 10996 ] final  -84.33 input  -57.11 | X-H torsion

> <Gold.Protein.ActiveResidues>
 VAL166  LYS551  ARG553  GLY616  TRP617  ASP618  TYR619  PRO620  LYS621  CYS622 
 ASP623  PHE694  ASN695  SER759  ASP760  ASP761  ALA762  ILE779  LEU786  VAL792 
 PHE793  MET794  SER795  GLU796  ALA797  LYS798  CYS799  TRP800  GLU811  SER814 

> <Gold.Protein.RotatedAtoms>
  151.9839  135.0014  160.0558 H   0  0  0  0  0  0  0  0  0  0  0  0  # atno 6907 bound_to 6896
  152.1671  133.4614  159.4898 H   0  0  0  0  0  0  0  0  0  0  0  0  # atno 6908 bound_to 6896
  150.6896  134.1917  159.4331 H   0  0  0  0  0  0  0  0  0  0  0  0  # atno 6909 bound_to 6896
  146.1475  139.6504  142.9121 H   0  0  0  0  0  0  0  0  0  0  0  0  # atno 7974 bound_to 7965
  156.0301  140.3331  155.7130 H   0  0  0  0  0  0  0  0  0  0  0  0  # atno 8008 bound_to 7997
  155.5897  140.0645  157.2779 H   0  0  0  0  0  0  0  0  0  0  0  0  # atno 8009 bound_to 7997
  154.4350  140.1829  156.1050 H   0  0  0  0  0  0  0  0  0  0  0  0  # atno 8010 bound_to 7997
  140.6967  143.6295  150.8536 H   0  0  0  0  0  0  0  0  0  0  0  0  # atno 10167 bound_to 10162
  156.4043  130.7950  151.2163 H   0  0  0  0  0  0  0  0  0  0  0  0  # atno 10718 bound_to 10713
  153.4725  135.7017  153.5985 H   0  0  0  0  0  0  0  0  0  0  0  0  # atno 10763 bound_to 10752
  153.4232  135.3820  155.2125 H   0  0  0  0  0  0  0  0  0  0  0  0  # atno 10764 bound_to 10752
  154.8724  135.3933  154.4165 H   0  0  0  0  0  0  0  0  0  0  0  0  # atno 10765 bound_to 10752
  141.1651  133.7340  156.8852 H   0  0  0  0  0  0  0  0  0  0  0  0  # atno 11005 bound_to 11000
  145.4902  141.0438  143.2597 LP  0  0  0  0  0  0  0  0  0  0  0  0  # atno 17320 bound_to 7965
  144.7864  139.6418  143.7132 LP  0  0  0  0  0  0  0  0  0  0  0  0  # atno 17321 bound_to 7965
  140.0014  143.5740  152.2874 LP  0  0  0  0  0  0  0  0  0  0  0  0  # atno 17342 bound_to 10162
  139.6431  144.7656  151.2298 LP  0  0  0  0  0  0  0  0  0  0  0  0  # atno 17343 bound_to 10162
  157.7505  131.0277  150.4017 LP  0  0  0  0  0  0  0  0  0  0  0  0  # atno 17370 bound_to 10713
  156.4302  130.3970  149.6765 LP  0  0  0  0  0  0  0  0  0  0  0  0  # atno 17371 bound_to 10713
  140.1687  134.9115  157.2806 LP  0  0  0  0  0  0  0  0  0  0  0  0  # atno 17394 bound_to 11000
  140.2527  134.3664  155.7436 LP  0  0  0  0  0  0  0  0  0  0  0  0  # atno 17395 bound_to 11000

$$$$
