AV-unprocessed.smi:2021|AV-procd|sdf|8179|dock7
  -GOLD-   2272010433D 1   1.00000     0.00000
 Structure written by MMmdl.
 41 42  0  0  0  0  0  0  0  0  1 V2000
  153.2270  140.3877  159.6705 C   0  0  0  0  0  0  0  0  0  0  0  0
  152.7200  141.8074  159.3649 C   0  0  0  0  0  0  0  0  0  0  0  0
  152.7702  142.7327  160.5930 C   0  0  0  0  0  0  0  0  0  0  0  0
  151.3656  141.8378  158.6142 C   0  0  0  0  0  0  0  0  0  0  0  0
  151.3449  141.3609  157.2273 N   0  0  0  0  0  0  0  0  0  0  0  0
  151.5885  139.9261  157.1075 C   0  0  0  0  0  0  0  0  0  0  0  0
  151.5078  139.4458  155.6485 C   0  0  0  0  0  0  0  0  0  0  0  0
  150.2466  139.8020  155.0952 O   0  0  0  0  0  0  0  0  0  0  0  0
  150.0057  141.2064  155.1294 C   0  0  1  0  0  0  0  0  0  0  0  0
  148.6329  141.4821  154.4929 C   0  0  0  0  0  0  0  0  0  0  0  0
  148.3328  140.5301  153.4288 N   0  0  0  0  0  0  0  0  0  0  0  0
  147.4083  139.5624  153.4994 C   0  0  0  0  0  0  0  0  0  0  0  0
  146.7199  139.3541  154.4984 O   0  0  0  0  0  0  0  0  0  0  0  0
  147.3396  138.8721  152.3497 N   0  0  0  0  0  0  0  0  0  0  0  0
  146.4813  137.7898  152.0323 C   0  0  0  0  0  0  0  0  0  0  0  0
  146.5948  137.2320  150.8212 N   0  0  0  0  0  0  0  0  0  0  0  0
  145.6963  136.1870  150.6427 N   0  0  0  0  0  0  0  0  0  0  0  0
  144.9393  135.9976  151.7277 C   0  0  0  0  0  0  0  0  0  0  0  0
  145.2488  137.0761  153.0769 S   0  0  0  0  0  0  0  0  0  0  0  0
  150.0671  141.6772  156.5954 C   0  0  0  0  0  0  0  0  0  0  0  0
  152.6027  139.8849  160.4090 H   0  0  0  0  0  0  0  0  0  0  0  0
  154.2437  140.4121  160.0636 H   0  0  0  0  0  0  0  0  0  0  0  0
  153.2378  139.7739  158.7694 H   0  0  0  0  0  0  0  0  0  0  0  0
  153.4402  142.2369  158.6673 H   0  0  0  0  0  0  0  0  0  0  0  0
  152.1481  142.3790  161.4125 H   0  0  0  0  0  0  0  0  0  0  0  0
  152.4424  143.7410  160.3383 H   0  0  0  0  0  0  0  0  0  0  0  0
  153.7885  142.8103  160.9749 H   0  0  0  0  0  0  0  0  0  0  0  0
  150.6055  141.3175  159.1987 H   0  0  0  0  0  0  0  0  0  0  0  0
  151.0496  142.8821  158.6061 H   0  0  0  0  0  0  0  0  0  0  0  0
  152.5781  139.6796  157.4846 H   0  0  0  0  0  0  0  0  0  0  0  0
  150.8681  139.3741  157.7131 H   0  0  0  0  0  0  0  0  0  0  0  0
  152.3103  139.8833  155.0528 H   0  0  0  0  0  0  0  0  0  0  0  0
  151.6262  138.3633  155.5987 H   0  0  0  0  0  0  0  0  0  0  0  0
  150.7810  141.7181  154.5560 H   0  0  0  0  0  0  0  0  0  0  0  0
  147.8492  141.4112  155.2476 H   0  0  0  0  0  0  0  0  0  0  0  0
  148.5930  142.4997  154.1007 H   0  0  0  0  0  0  0  0  0  0  0  0
  148.8506  140.6342  152.5686 H   0  0  0  0  0  0  0  0  0  0  0  0
  147.9680  139.1573  151.6132 H   0  0  0  0  0  0  0  0  0  0  0  0
  144.1934  135.2168  151.7333 H   0  0  0  0  0  0  0  0  0  0  0  0
  149.2540  141.2152  157.1580 H   0  0  0  0  0  0  0  0  0  0  0  0
  149.8968  142.7538  156.6314 H   0  0  0  0  0  0  0  0  0  0  0  0
  1  2  1  0  0  0  0
  1 21  1  0  0  0  0
  1 22  1  0  0  0  0
  1 23  1  0  0  0  0
  2  3  1  0  0  0  0
  2  4  1  0  0  0  0
  2 24  1  0  0  0  0
  3 25  1  0  0  0  0
  3 26  1  0  0  0  0
  3 27  1  0  0  0  0
  4  5  1  0  0  0  0
  4 28  1  0  0  0  0
  4 29  1  0  0  0  0
  5 20  1  0  0  0  0
  5  6  1  0  0  0  0
  6  7  1  0  0  0  0
  6 30  1  0  0  0  0
  6 31  1  0  0  0  0
  7  8  1  0  0  0  0
  7 32  1  0  0  0  0
  7 33  1  0  0  0  0
  8  9  1  0  0  0  0
  9 10  1  0  0  0  0
  9 20  1  0  0  0  0
  9 34  1  0  0  0  0
 10 11  1  0  0  0  0
 10 35  1  0  0  0  0
 10 36  1  0  0  0  0
 11 12  1  0  0  0  0
 11 37  1  0  0  0  0
 12 13  2  0  0  0  0
 12 14  1  0  0  0  0
 14 15  1  0  0  0  0
 14 38  1  0  0  0  0
 15 19  1  0  0  0  0
 15 16  2  0  0  0  0
 16 17  1  0  0  0  0
 17 18  2  0  0  0  0
 18 19  1  0  0  0  0
 18 39  1  0  0  0  0
 20 40  1  0  0  0  0
 20 41  1  0  0  0  0
M  END
> <s_m_source_file>
AV-unprocessed.smi

> <i_m_source_file_index>
2021

> <i_lp_mmshare_version>
43012

> <i_f3d_flags>
0

> <s_epik_input>
W0NIM11bQ0hdKFtDSDNdKVtDSDJdTjFbQ0gyXVtDSDJdT1tDQEhdKFtDSDJdMSlbQ0gyXVtOSF1DKD1PKVtOSF1jMm5uW2NIXXMy

> <s_epik_cmdline>
J2VwaWtfcHl0aG9uJywgJy1waCcsICc3LjAnLCAnLXRuJywgJzgnLCAnLW1hJywgJzIwMCcsICctbWV0YWxfYmluZGluZycsICctaW1hZScsICc8aW5maWxlLm1hZT4nLCAnLW9tYWUnLCAnPG91dGZpbGUubWFlPic=

> <r_lp_tautomer_probability>
1

> <r_epik_Ionization_Penalty>
1.11451

> <r_epik_Ionization_Penalty_Charging>
0

> <r_epik_Ionization_Penalty_Neutral>
1.11451

> <r_epik_State_Penalty>
1.17021

> <r_epik_Charging_Adjusted_Penalty>
1.17021

> <i_epik_Tot_Q>
0

> <i_epik_Tot_abs_Q>
0

> <r_epik_Metal_State_Penalty>
1.53642

> <b_epik_Metal_Only>
0

> <s_lp_Force_Field>
OPLS_2005

> <r_lp_Energy>
25.242

> <b_lp_Chiralities_Consistent>
1

> <s_lp_Variant>
AV-unprocessed.smi:2021-5

> <Gold.Version>
5.8.1

> <Gold.Id.Protein>
6NUR|6NUR_protein|mol2

> <Gold.PLP.Fitness>
40.9861

> <Gold.PLP.PLP>
-33.1160

> <Gold.PLP.part.hbond>
-3.3936

> <Gold.PLP.part.metal>
0.0000

> <Gold.PLP.part.buried>
-4.7605

> <Gold.PLP.part.nonpolar>
-29.4453

> <Gold.PLP.part.repulsive>
4.1724

> <Gold.PLP.ligand.clash>
0.0000

> <Gold.PLP.ligand.torsion>
0.5280

> <Gold.PLP.Chemscore.Hbond>
2.9600

> <Gold.PLP.Chemscore.CHOScore>
0.0000

> <Gold.PLP.Chemscore.Metal>
0.0000

> <Gold.Chemscore.Hbonds>
donor molecule, donor type, donor heavy atom, donor atom, acceptor molecule, acceptor atom, score
      L1  H    11    37       P1  7957  1.00
      L1  H    14    38       P1  7957  0.98
      P1  H  7954  7966       L1    16  1.00

> <Gold.PLP.Chemscore.Internal.Correction>
0.0460

> <Gold.Rescore>
     Score         DG    S(hbond)    S(metal)    S(lipo)     H(rot)  DE(clash)    DE(int)     intcor
     16.90     -19.73       2.88        0.00      79.87       1.84       1.54       1.29       ----

> <Gold.Chemscore.Fitness>
16.9034

> <Gold.Chemscore.DG>
-19.7325

> <Gold.Chemscore.ZeroCoef>
-5.4800

> <Gold.Chemscore.Hbond>
2.8808

> <Gold.Chemscore.Metal>
0.0000

> <Gold.Chemscore.Lipo>
79.8667

> <Gold.Chemscore.Internal_Hbond>
0.0000

> <Gold.Chemscore.DEClash>
1.5392

> <Gold.Chemscore.DEInternal>
1.2899

> <Gold.Chemscore.Rot>
1.8413

> <Gold.Chemscore.Internal.Correction>
   9.000000E+99

> <Gold.Chemscore.Hbonds>
donor molecule, donor type, donor heavy atom, donor atom, acceptor molecule, acceptor atom, score
      L1  H    11    37       P1  7957  0.98
      L1  H    14    38       P1  7957  0.88
      P1  H  7954  7966       L1    16  0.80

> <Gold.Chemscore.Hbond.Weighted>
-9.6219

> <Gold.Chemscore.Metal.Weighted>
-0.0000

> <Gold.Chemscore.Lipo.Weighted>
-9.3444

> <Gold.Chemscore.Internal_Hbond.Weighted>
0.0000

> <Gold.Chemscore.DEClash.Weighted>
1.5392

> <Gold.Chemscore.DEInternal.Weighted>
1.2899

> <Gold.Chemscore.Rot.Weighted>
4.7138

> <Gold.Chemscore.Internal.Correction.Weighted>
   9.000000E+99

> <Gold.Protein.RotatedTorsions>
[ 6907 6896 6895 6894 ] final  164.07 input  -60.11 | X-H torsion
[ 7974 7965 7964 7962 ] final   14.81 input  175.53 | X-H torsion
[ 8008 7997 7996 7995 ] final  118.83 input   59.86 | X-H torsion
[ 10167 10162 10161 10158 ] final -157.20 input  -65.29 | X-H torsion
[ 10718 10713 10712 10709 ] final  -43.99 input   66.30 | X-H torsion
[ 10763 10752 10751 10750 ] final   92.19 input  -60.55 | X-H torsion
[ 11005 11000 10999 10996 ] final   13.13 input  -57.11 | X-H torsion

> <Gold.Protein.ActiveResidues>
 VAL166  LYS551  ARG553  GLY616  TRP617  ASP618  TYR619  PRO620  LYS621  CYS622 
 ASP623  PHE694  ASN695  SER759  ASP760  ASP761  ALA762  ILE779  LEU786  VAL792 
 PHE793  MET794  SER795  GLU796  ALA797  LYS798  CYS799  TRP800  GLU811  SER814 

> <Gold.Protein.RotatedAtoms>
  151.9155  133.3572  159.3878 H   0  0  0  0  0  0  0  0  0  0  0  0  # atno 6907 bound_to 6896
  150.7048  134.4689  159.5425 H   0  0  0  0  0  0  0  0  0  0  0  0  # atno 6908 bound_to 6896
  152.2303  134.8329  160.0525 H   0  0  0  0  0  0  0  0  0  0  0  0  # atno 6909 bound_to 6896
  146.2295  139.8986  142.8543 H   0  0  0  0  0  0  0  0  0  0  0  0  # atno 7974 bound_to 7965
  156.2566  140.2866  156.0897 H   0  0  0  0  0  0  0  0  0  0  0  0  # atno 8008 bound_to 7997
  155.1476  140.0397  157.2831 H   0  0  0  0  0  0  0  0  0  0  0  0  # atno 8009 bound_to 7997
  154.6484  140.2539  155.7248 H   0  0  0  0  0  0  0  0  0  0  0  0  # atno 8010 bound_to 7997
  139.6789  143.9615  152.2326 H   0  0  0  0  0  0  0  0  0  0  0  0  # atno 10167 bound_to 10162
  156.2433  130.4181  149.8735 H   0  0  0  0  0  0  0  0  0  0  0  0  # atno 10718 bound_to 10713
  153.2165  135.4370  155.0440 H   0  0  0  0  0  0  0  0  0  0  0  0  # atno 10763 bound_to 10752
  154.8228  135.3346  154.6991 H   0  0  0  0  0  0  0  0  0  0  0  0  # atno 10764 bound_to 10752
  153.7425  135.7004  153.5019 H   0  0  0  0  0  0  0  0  0  0  0  0  # atno 10765 bound_to 10752
  140.4841  134.0905  155.7757 H   0  0  0  0  0  0  0  0  0  0  0  0  # atno 11005 bound_to 11000
  145.2346  140.9986  143.3971 LP  0  0  0  0  0  0  0  0  0  0  0  0  # atno 17320 bound_to 7965
  144.9502  139.4091  143.6406 LP  0  0  0  0  0  0  0  0  0  0  0  0  # atno 17321 bound_to 7965
  139.9400  144.6688  150.8276 LP  0  0  0  0  0  0  0  0  0  0  0  0  # atno 17342 bound_to 10162
  140.7645  143.3251  151.2534 LP  0  0  0  0  0  0  0  0  0  0  0  0  # atno 17343 bound_to 10162
  156.6309  130.8665  151.3495 LP  0  0  0  0  0  0  0  0  0  0  0  0  # atno 17370 bound_to 10713
  157.7184  130.9527  150.1344 LP  0  0  0  0  0  0  0  0  0  0  0  0  # atno 17371 bound_to 10713
  141.1516  133.8958  157.2082 LP  0  0  0  0  0  0  0  0  0  0  0  0  # atno 17394 bound_to 11000
  139.9808  135.0099  156.9745 LP  0  0  0  0  0  0  0  0  0  0  0  0  # atno 17395 bound_to 11000

$$$$
