AV-unprocessed.smi:1696|AV-procd|sdf|6799|dock4
  -GOLD-   22720 7563D 1   1.00000     0.00000
 Structure written by MMmdl.
 39 40  0  0  0  0  0  0  0  0  2 V2000
  151.7248  145.8091  159.3423 C   0  0  0  0  0  0  0  0  0  0  0  0
  152.2840  144.8811  158.2513 C   0  0  0  0  0  0  0  0  0  0  0  0
  152.2077  143.3654  158.5819 C   0  0  2  0  0  0  0  0  0  0  0  0
  150.7481  142.8429  158.6527 C   0  0  0  0  0  0  0  0  0  0  0  0
  150.0950  142.8420  157.3455 N   0  0  0  0  0  0  0  0  0  0  0  0
  149.7202  141.7516  156.6602 C   0  0  0  0  0  0  0  0  0  0  0  0
  149.9045  140.6015  157.0583 O   0  0  0  0  0  0  0  0  0  0  0  0
  149.1214  142.0863  155.5039 N   0  0  0  0  0  0  0  0  0  0  0  0
  148.5673  141.2238  154.5217 C   0  0  0  0  0  0  0  0  0  0  0  0
  147.4886  141.5135  153.7849 N   0  0  0  0  0  0  0  0  0  0  0  0
  147.1685  140.4836  152.8966 C   0  0  0  0  0  0  0  0  0  0  0  0
  148.0205  139.4099  152.9710 C   0  0  0  0  0  0  0  0  0  0  0  0
  149.2659  139.6505  154.1672 S   0  0  0  0  0  0  0  0  0  0  0  0
  152.9639  143.0320  159.8257 N   0  3  0  0  0  0  0  0  0  0  0  0
  152.3176  143.4469  161.0965 C   0  0  0  0  0  0  0  0  0  0  0  0
  152.6613  142.3859  162.1521 C   0  0  0  0  0  0  0  0  0  0  0  0
  153.6671  141.4630  161.4728 C   0  0  0  0  0  0  0  0  0  0  0  0
  153.3328  141.6093  159.9932 C   0  0  0  0  0  0  0  0  0  0  0  0
  151.8200  146.8527  159.0422 H   0  0  0  0  0  0  0  0  0  0  0  0
  152.2585  145.6901  160.2849 H   0  0  0  0  0  0  0  0  0  0  0  0
  150.6685  145.6219  159.5314 H   0  0  0  0  0  0  0  0  0  0  0  0
  151.7542  145.0819  157.3199 H   0  0  0  0  0  0  0  0  0  0  0  0
  153.3146  145.1664  158.0404 H   0  0  0  0  0  0  0  0  0  0  0  0
  152.7005  142.8378  157.7633 H   0  0  0  0  0  0  0  0  0  0  0  0
  150.7237  141.8113  159.0019 H   0  0  0  0  0  0  0  0  0  0  0  0
  150.1776  143.4152  159.3855 H   0  0  0  0  0  0  0  0  0  0  0  0
  149.9062  143.7445  156.9339 H   0  0  0  0  0  0  0  0  0  0  0  0
  149.0421  143.0729  155.3065 H   0  0  0  0  0  0  0  0  0  0  0  0
  146.3147  140.5986  152.2452 H   0  0  0  0  0  0  0  0  0  0  0  0
  147.9908  138.4959  152.3967 H   0  0  0  0  0  0  0  0  0  0  0  0
  152.6813  144.4332  161.3867 H   0  0  0  0  0  0  0  0  0  0  0  0
  151.2338  143.5095  160.9889 H   0  0  0  0  0  0  0  0  0  0  0  0
  153.0587  142.8223  163.0688 H   0  0  0  0  0  0  0  0  0  0  0  0
  151.7640  141.8248  162.4155 H   0  0  0  0  0  0  0  0  0  0  0  0
  154.6812  141.8193  161.6591 H   0  0  0  0  0  0  0  0  0  0  0  0
  153.6027  140.4323  161.8227 H   0  0  0  0  0  0  0  0  0  0  0  0
  152.4812  140.9748  159.7418 H   0  0  0  0  0  0  0  0  0  0  0  0
  154.1724  141.3218  159.3599 H   0  0  0  0  0  0  0  0  0  0  0  0
  153.8377  143.5370  159.7818 H   0  0  0  0  0  0  0  0  0  0  0  0
  1  2  1  0  0  0  0
  1 19  1  0  0  0  0
  1 20  1  0  0  0  0
  1 21  1  0  0  0  0
  2  3  1  0  0  0  0
  2 22  1  0  0  0  0
  2 23  1  0  0  0  0
  3  4  1  0  0  0  0
  3 14  1  0  0  0  0
  3 24  1  0  0  0  0
  4  5  1  0  0  0  0
  4 25  1  0  0  0  0
  4 26  1  0  0  0  0
  5  6  1  0  0  0  0
  5 27  1  0  0  0  0
  6  7  2  0  0  0  0
  6  8  1  0  0  0  0
  8  9  1  0  0  0  0
  8 28  1  0  0  0  0
  9 13  1  0  0  0  0
  9 10  2  0  0  0  0
 10 11  1  0  0  0  0
 11 12  2  0  0  0  0
 11 29  1  0  0  0  0
 12 13  1  0  0  0  0
 12 30  1  0  0  0  0
 14 18  1  0  0  0  0
 14 15  1  0  0  0  0
 14 39  1  0  0  0  0
 15 16  1  0  0  0  0
 15 31  1  0  0  0  0
 15 32  1  0  0  0  0
 16 17  1  0  0  0  0
 16 33  1  0  0  0  0
 16 34  1  0  0  0  0
 17 18  1  0  0  0  0
 17 35  1  0  0  0  0
 17 36  1  0  0  0  0
 18 37  1  0  0  0  0
 18 38  1  0  0  0  0
M  CHG  1  14   1
M  END
> <s_m_source_file>
AV-unprocessed.smi

> <i_m_source_file_index>
1696

> <i_lp_mmshare_version>
43012

> <i_f3d_flags>
0

> <s_epik_input>
W0NIMl0xW0NIMl1bQ0gyXVtDSDJdTjFbQ0BIXShbQ0gyXVtDSDNdKVtDSDJdW05IXUMoPU8pW05IXWMybltjSF1bY0hdczI=

> <s_epik_cmdline>
J2VwaWtfcHl0aG9uJywgJy1waCcsICc3LjAnLCAnLXRuJywgJzgnLCAnLW1hJywgJzIwMCcsICctbWV0YWxfYmluZGluZycsICctaW1hZScsICc8aW5maWxlLm1hZT4nLCAnLW9tYWUnLCAnPG91dGZpbGUubWFlPic=

> <r_lp_tautomer_probability>
1

> <r_epik_Ionization_Penalty>
0.0013883

> <r_epik_Ionization_Penalty_Charging>
0.00115997

> <r_epik_Ionization_Penalty_Neutral>
0.000228323

> <r_epik_State_Penalty>
-0

> <r_epik_Charging_Adjusted_Penalty>
0.00115997

> <i_epik_Tot_Q>
1

> <i_epik_Tot_abs_Q>
1

> <r_epik_Metal_State_Penalty>
0.0131845

> <b_epik_Metal_Only>
0

> <s_lp_Force_Field>
OPLS_2005

> <r_lp_Energy>
31.4712

> <b_lp_Chiralities_Consistent>
1

> <s_lp_Variant>
AV-unprocessed.smi:1696-1

> <Gold.Version>
5.8.1

> <Gold.Id.Protein>
6NUR|6NUR_protein|mol2

> <Gold.PLP.Fitness>
53.7131

> <Gold.PLP.PLP>
-42.8319

> <Gold.PLP.part.hbond>
-2.0000

> <Gold.PLP.part.metal>
0.0000

> <Gold.PLP.part.buried>
-1.7069

> <Gold.PLP.part.nonpolar>
-39.3449

> <Gold.PLP.part.repulsive>
0.3591

> <Gold.PLP.ligand.clash>
0.0000

> <Gold.PLP.ligand.torsion>
0.5320

> <Gold.PLP.Chemscore.Hbond>
1.9440

> <Gold.PLP.Chemscore.CHOScore>
2.0000

> <Gold.PLP.Chemscore.Metal>
0.0000

> <Gold.Chemscore.Hbonds>
donor molecule, donor type, donor heavy atom, donor atom, acceptor molecule, acceptor atom, score
      L1  H     5    27       P1  8028  0.94
      L1  H     8    28       P1  8028  1.00
      L1  C    11    29       P1 10175  0.74
      L1  C    12    30       P1  7948  1.00

> <Gold.PLP.Chemscore.Internal.Correction>
0.1131

> <Gold.Rescore>
     Score         DG    S(hbond)    S(metal)    S(lipo)     H(rot)  DE(clash)    DE(int)     intcor
     18.56     -20.28       1.87        0.00     111.83       1.77       0.25       1.48       ----

> <Gold.Chemscore.Fitness>
18.5550

> <Gold.Chemscore.DG>
-20.2801

> <Gold.Chemscore.ZeroCoef>
-5.4800

> <Gold.Chemscore.Hbond>
1.8709

> <Gold.Chemscore.Metal>
0.0000

> <Gold.Chemscore.Lipo>
111.8263

> <Gold.Chemscore.Internal_Hbond>
0.0000

> <Gold.Chemscore.DEClash>
0.2474

> <Gold.Chemscore.DEInternal>
1.4776

> <Gold.Chemscore.Rot>
1.7705

> <Gold.Chemscore.Internal.Correction>
   9.000000E+99

> <Gold.Chemscore.Hbonds>
donor molecule, donor type, donor heavy atom, donor atom, acceptor molecule, acceptor atom, score
      L1  H     5    27       P1  8028  0.89
      L1  H     8    28       P1  8028  0.99

> <Gold.Chemscore.Hbond.Weighted>
-6.2489

> <Gold.Chemscore.Metal.Weighted>
-0.0000

> <Gold.Chemscore.Lipo.Weighted>
-13.0837

> <Gold.Chemscore.Internal_Hbond.Weighted>
0.0000

> <Gold.Chemscore.DEClash.Weighted>
0.2474

> <Gold.Chemscore.DEInternal.Weighted>
1.4776

> <Gold.Chemscore.Rot.Weighted>
4.5324

> <Gold.Chemscore.Internal.Correction.Weighted>
   9.000000E+99

> <Gold.Protein.RotatedTorsions>
[ 6907 6896 6895 6894 ] final   96.36 input  -60.11 | X-H torsion
[ 7974 7965 7964 7962 ] final  126.05 input  175.53 | X-H torsion
[ 8008 7997 7996 7995 ] final -147.05 input   59.86 | X-H torsion
[ 10167 10162 10161 10158 ] final   12.47 input  -65.29 | X-H torsion
[ 10718 10713 10712 10709 ] final  113.80 input   66.30 | X-H torsion
[ 10763 10752 10751 10750 ] final   76.41 input  -60.55 | X-H torsion
[ 11005 11000 10999 10996 ] final  -74.58 input  -57.11 | X-H torsion

> <Gold.Protein.ActiveResidues>
 VAL166  LYS551  ARG553  GLY616  TRP617  ASP618  TYR619  PRO620  LYS621  CYS622 
 ASP623  PHE694  ASN695  SER759  ASP760  ASP761  ALA762  ILE779  LEU786  VAL792 
 PHE793  MET794  SER795  GLU796  ALA797  LYS798  CYS799  TRP800  GLU811  SER814 

> <Gold.Protein.RotatedAtoms>
  152.5435  134.0898  159.8271 H   0  0  0  0  0  0  0  0  0  0  0  0  # atno 6907 bound_to 6896
  151.0989  133.5251  159.2618 H   0  0  0  0  0  0  0  0  0  0  0  0  # atno 6908 bound_to 6896
  151.2014  135.0453  159.8928 H   0  0  0  0  0  0  0  0  0  0  0  0  # atno 6909 bound_to 6896
  145.0661  139.3767  143.4981 H   0  0  0  0  0  0  0  0  0  0  0  0  # atno 7974 bound_to 7965
  155.5693  140.0633  157.2810 H   0  0  0  0  0  0  0  0  0  0  0  0  # atno 8008 bound_to 7997
  154.4366  140.1871  156.0909 H   0  0  0  0  0  0  0  0  0  0  0  0  # atno 8009 bound_to 7997
  156.0388  140.3298  155.7224 H   0  0  0  0  0  0  0  0  0  0  0  0  # atno 8010 bound_to 7997
  140.6066  143.8495  150.7020 H   0  0  0  0  0  0  0  0  0  0  0  0  # atno 10167 bound_to 10162
  157.6317  131.0989  150.7094 H   0  0  0  0  0  0  0  0  0  0  0  0  # atno 10718 bound_to 10713
  153.0723  135.4952  154.8331 H   0  0  0  0  0  0  0  0  0  0  0  0  # atno 10763 bound_to 10752
  154.7040  135.3007  154.9301 H   0  0  0  0  0  0  0  0  0  0  0  0  # atno 10764 bound_to 10752
  154.0015  135.6765  153.4812 H   0  0  0  0  0  0  0  0  0  0  0  0  # atno 10765 bound_to 10752
  141.1636  133.6916  156.7386 H   0  0  0  0  0  0  0  0  0  0  0  0  # atno 11005 bound_to 11000
  146.3527  140.0383  142.8645 LP  0  0  0  0  0  0  0  0  0  0  0  0  # atno 17320 bound_to 7965
  145.1349  140.9539  143.4522 LP  0  0  0  0  0  0  0  0  0  0  0  0  # atno 17321 bound_to 7965
  140.2054  143.3926  152.1760 LP  0  0  0  0  0  0  0  0  0  0  0  0  # atno 17342 bound_to 10162
  139.5329  144.7179  151.4992 LP  0  0  0  0  0  0  0  0  0  0  0  0  # atno 17343 bound_to 10162
  156.7432  130.4745  149.5473 LP  0  0  0  0  0  0  0  0  0  0  0  0  # atno 17370 bound_to 10713
  156.1526  130.6320  151.0615 LP  0  0  0  0  0  0  0  0  0  0  0  0  # atno 17371 bound_to 10713
  140.2691  134.8406  157.3830 LP  0  0  0  0  0  0  0  0  0  0  0  0  # atno 17394 bound_to 11000
  140.1538  134.4815  155.7942 LP  0  0  0  0  0  0  0  0  0  0  0  0  # atno 17395 bound_to 11000

$$$$
