#       Name:                AV-unprocessed.smi:344
#       Creating user name   scv26
#       Creation time:       Thu Mar 26 22:31:58 2020


#       File generated by GOLD software.
#

@<TRIPOS>MOLECULE
AV-unprocessed.smi:344
    43    44     1
SMALL
NO_CHARGES


@<TRIPOS>ATOM
      1 ****        -5.1959  -0.8677   2.0191 N.am           1 S1                 0.0000
      2 ****        -6.0194  -0.3688   1.0924 C.2            1 S1                 0.0000
      3 ****        -7.1897  -0.0841   1.3393 O.2            1 S1                 0.0000
      4 ****        -5.4544  -0.1738  -0.3169 C.3            1 S1                 0.0000
      5 ****        -4.3965   0.8918  -0.3220 C.2            1 S1                 0.0000
      6 ****        -4.5875   2.2447  -0.4391 C.2            1 S1                 0.0000
      7 ****        -3.0808   3.1143  -0.3883 S.3            1 S1                 0.0000
      8 ****        -2.2162   1.5847  -0.2205 C.2            1 S1                 0.0000
      9 ****        -0.8855   1.4596  -0.1003 N.pl3          1 S1                -1.0000
     10 ****        -0.1045   1.5133  -1.2060 C.2            1 S1                 0.0000
     11 ****        -0.4352   1.6791  -2.3810 O.2            1 S1                 0.0000
     12 ****         1.3775   1.3282  -0.8669 C.3            1 S1                 0.0000
     13 ****         1.7812  -0.1576  -0.8627 C.3            1 S1                 0.0000
     14 ****         3.2688  -0.3805  -0.5376 C.3            1 S1                 0.0000
     15 ****         3.7053  -1.8422  -0.6592 C.3            1 S1                 0.0000
     16 ****         5.0052  -1.9380   0.1463 C.3            1 S1                 0.0000
     17 ****         4.9676  -0.7850   1.1609 C.3            1 S1                 0.0000
     18 ****         3.6640  -0.0220   0.8985 C.3            1 S1                 0.0000
     19 ****        -3.0490   0.5385  -0.2019 N.2            1 S1                 0.0000
     20 ****        -5.5209  -0.9930   2.9665 H              1 S1                 0.0000
     21 ****        -4.2437  -1.0980   1.7712 H              1 S1                 0.0000
     22 ****        -5.0535  -1.1233  -0.6741 H              1 S1                 0.0000
     23 ****        -6.2648   0.0921  -0.9967 H              1 S1                 0.0000
     24 ****        -5.5188   2.7804  -0.5454 H              1 S1                 0.0000
     25 ****         1.9729   1.8696  -1.6032 H              1 S1                 0.0000
     26 ****         1.5992   1.7879   0.0979 H              1 S1                 0.0000
     27 ****         1.1646  -0.7088  -0.1508 H              1 S1                 0.0000
     28 ****         1.5671  -0.5861  -1.8430 H              1 S1                 0.0000
     29 ****         3.8775   0.2117  -1.2229 H              1 S1                 0.0000
     30 ****         2.9526  -2.4923  -0.2104 H              1 S1                 0.0000
     31 ****         3.8340  -2.1547  -1.6960 H              1 S1                 0.0000
     32 ****         5.1013  -2.9088   0.6335 H              1 S1                 0.0000
     33 ****         5.8645  -1.8180  -0.5145 H              1 S1                 0.0000
     34 ****         5.0132  -1.1464   2.1889 H              1 S1                 0.0000
     35 ****         5.8260  -0.1300   1.0074 H              1 S1                 0.0000
     36 ****         3.7782   1.0525   1.0456 H              1 S1                 0.0000
     37 ****         2.8958  -0.3681   1.5918 H              1 S1                 0.0000
     38 ****        -7.5549  -0.2241   2.2597 LP             1 S1                 0.0000
     39 ****        -7.7764   0.2874   0.6197 LP             1 S1                 0.0000
     40 ****        -0.4725   1.3274   0.8008 LP             1 S1                 0.0000
     41 ****        -1.3998   1.7965  -2.6171 LP             1 S1                 0.0000
     42 ****         0.2609   1.6962  -3.0987 LP             1 S1                 0.0000
     43 ****        -2.7374  -0.4074  -0.1107 LP             1 S1                 0.0000
@<TRIPOS>BOND
    1    1    2 am    
    2    1   20 1     
    3    1   21 1     
    4    2    3 2     
    5    2    4 1     
    6    4    5 1     
    7    4   22 1     
    8    4   23 1     
    9    5   19 1     
   10    5    6 2     
   11    6    7 1     
   12    6   24 1     
   13    7    8 1     
   14    8    9 1     
   15    8   19 2     
   16    9   10 1     
   17   10   11 2     
   18   10   12 1     
   19   12   13 1     
   20   12   25 1     
   21   12   26 1     
   22   13   14 1     
   23   13   27 1     
   24   13   28 1     
   25   14   18 1     
   26   14   15 1     
   27   14   29 1     
   28   15   16 1     
   29   15   30 1     
   30   15   31 1     
   31   16   17 1     
   32   16   32 1     
   33   16   33 1     
   34   17   18 1     
   35   17   34 1     
   36   17   35 1     
   37   18   36 1     
   38   18   37 1     
   39    3   38 1     
   40    3   39 1     
   41    9   40 1     
   42   11   41 1     
   43   11   42 1     
   44   19   43 1     
@<TRIPOS>SUBSTRUCTURE
      1 S1             1
@<TRIPOS>SET
LONE_PAIRS      STATIC     ATOMS    <user>   **** ""
6 38 39 40 41 42 43
DONOR_HYDROGENS      STATIC     ATOMS    <user>   **** ""
2 20 21
ATOM$BLUE        STATIC     ATOMS    COLORGROUP SYSTEM
6 38 39 40 41 42 43
ATOM$RED        STATIC     ATOMS    COLORGROUP SYSTEM
2 20 21
