AV-unprocessed.smi:910|AV-procd|sdf|4125|dock4
  -GOLD-   22720 2 23D 1   1.00000     0.00000
 Structure written by MMmdl.
 46 47  0  0  0  0  0  0  0  0  1 V2000
  155.6596  139.8604  162.7523 C   0  0  0  0  0  0  0  0  0  0  0  0
  154.6901  138.7867  162.3104 C   0  0  0  0  0  0  0  0  0  0  0  0
  154.1575  138.7639  161.0517 N   0  0  0  0  0  0  0  0  0  0  0  0
  153.3140  137.6594  160.9552 C   0  0  0  0  0  0  0  0  0  0  0  0
  152.5754  137.2007  159.9918 N   0  0  0  0  0  0  0  0  0  0  0  0
  152.5854  137.8788  158.7847 C   0  0  0  0  0  0  0  0  0  0  0  0
  153.2362  137.5932  157.7744 O   0  0  0  0  0  0  0  0  0  0  0  0
  151.8283  138.9847  158.8551 N   0  0  0  0  0  0  0  0  0  0  0  0
  151.7157  139.9979  157.8103 C   0  0  0  0  0  0  0  0  0  0  0  0
  150.7616  141.1228  158.2352 C   0  0  0  0  0  0  0  0  0  0  0  0
  151.3391  141.8249  159.3259 O   0  0  0  0  0  0  0  0  0  0  0  0
  152.4865  142.6069  159.0168 C   0  0  1  0  0  0  0  0  0  0  0  0
  152.1196  143.7971  158.1023 C   0  0  0  0  0  0  0  0  0  0  0  0
  151.1547  144.7703  158.7984 C   0  0  0  0  0  0  0  0  0  0  0  0
  151.7403  145.2699  160.1272 C   0  0  0  0  0  0  0  0  0  0  0  0
  152.1179  144.0981  161.0477 C   0  0  0  0  0  0  0  0  0  0  0  0
  153.0821  143.1167  160.3490 C   0  0  1  0  0  0  0  0  0  0  0  0
  153.4928  141.9634  161.2778 C   0  0  0  0  0  0  0  0  0  0  0  0
  153.3581  137.0356  162.1764 O   0  0  0  0  0  0  0  0  0  0  0  0
  154.2028  137.7438  162.9774 C   0  0  0  0  0  0  0  0  0  0  0  0
  154.4367  137.2657  164.3925 C   0  0  0  0  0  0  0  0  0  0  0  0
  156.6020  139.4118  163.0665 H   0  0  0  0  0  0  0  0  0  0  0  0
  155.2458  140.4193  163.5919 H   0  0  0  0  0  0  0  0  0  0  0  0
  155.8654  140.5595  161.9411 H   0  0  0  0  0  0  0  0  0  0  0  0
  154.3694  139.4505  160.3420 H   0  0  0  0  0  0  0  0  0  0  0  0
  151.3322  139.1617  159.7166 H   0  0  0  0  0  0  0  0  0  0  0  0
  152.6937  140.4030  157.5457 H   0  0  0  0  0  0  0  0  0  0  0  0
  151.3307  139.5129  156.9132 H   0  0  0  0  0  0  0  0  0  0  0  0
  150.6009  141.8080  157.4020 H   0  0  0  0  0  0  0  0  0  0  0  0
  149.7937  140.6984  158.5003 H   0  0  0  0  0  0  0  0  0  0  0  0
  153.2279  141.9793  158.5190 H   0  0  0  0  0  0  0  0  0  0  0  0
  153.0309  144.3321  157.8322 H   0  0  0  0  0  0  0  0  0  0  0  0
  151.6909  143.4570  157.1607 H   0  0  0  0  0  0  0  0  0  0  0  0
  150.9436  145.6167  158.1444 H   0  0  0  0  0  0  0  0  0  0  0  0
  150.1999  144.2749  158.9786 H   0  0  0  0  0  0  0  0  0  0  0  0
  152.6240  145.8777  159.9300 H   0  0  0  0  0  0  0  0  0  0  0  0
  151.0242  145.9224  160.6261 H   0  0  0  0  0  0  0  0  0  0  0  0
  152.5746  144.4849  161.9593 H   0  0  0  0  0  0  0  0  0  0  0  0
  151.2145  143.5718  161.3578 H   0  0  0  0  0  0  0  0  0  0  0  0
  153.9924  143.6686  160.1094 H   0  0  0  0  0  0  0  0  0  0  0  0
  152.6297  141.3739  161.5887 H   0  0  0  0  0  0  0  0  0  0  0  0
  153.9774  142.3401  162.1788 H   0  0  0  0  0  0  0  0  0  0  0  0
  154.1943  141.2915  160.7827 H   0  0  0  0  0  0  0  0  0  0  0  0
  155.5052  137.2032  164.5992 H   0  0  0  0  0  0  0  0  0  0  0  0
  153.9978  136.2791  164.5407 H   0  0  0  0  0  0  0  0  0  0  0  0
  153.9850  137.9569  165.1040 H   0  0  0  0  0  0  0  0  0  0  0  0
  1 22  1  0  0  0  0
  1 23  1  0  0  0  0
  1 24  1  0  0  0  0
  1  2  1  0  0  0  0
  2  3  1  0  0  0  0
  2 20  2  0  0  0  0
  3 25  1  0  0  0  0
  3  4  1  0  0  0  0
  4 19  1  0  0  0  0
  4  5  2  0  0  0  0
  5  6  1  0  0  0  0
  6  8  1  0  0  0  0
  6  7  2  0  0  0  0
  8  9  1  0  0  0  0
  8 26  1  0  0  0  0
  9 10  1  0  0  0  0
  9 27  1  0  0  0  0
  9 28  1  0  0  0  0
 10 11  1  0  0  0  0
 10 29  1  0  0  0  0
 10 30  1  0  0  0  0
 11 12  1  0  0  0  0
 12 17  1  0  0  0  0
 12 13  1  0  0  0  0
 12 31  1  0  0  0  0
 13 14  1  0  0  0  0
 13 32  1  0  0  0  0
 13 33  1  0  0  0  0
 14 15  1  0  0  0  0
 14 34  1  0  0  0  0
 14 35  1  0  0  0  0
 15 16  1  0  0  0  0
 15 36  1  0  0  0  0
 15 37  1  0  0  0  0
 16 17  1  0  0  0  0
 16 38  1  0  0  0  0
 16 39  1  0  0  0  0
 17 18  1  0  0  0  0
 17 40  1  0  0  0  0
 18 41  1  0  0  0  0
 18 42  1  0  0  0  0
 18 43  1  0  0  0  0
 19 20  1  0  0  0  0
 20 21  1  0  0  0  0
 21 44  1  0  0  0  0
 21 45  1  0  0  0  0
 21 46  1  0  0  0  0
M  END
> <s_m_source_file>
AV-unprocessed.smi

> <i_m_source_file_index>
910

> <i_lp_mmshare_version>
43012

> <i_f3d_flags>
0

> <s_epik_input>
W0NIM11jMW5jKG9jMVtDSDNdKVtOSF1DKD1PKVtOSF1bQ0gyXVtDSDJdT1tDQEBIXTJbQ0gyXVtDSDJdW0NIMl1bQ0gyXVtDQEhdMltDSDNd

> <s_epik_cmdline>
J2VwaWtfcHl0aG9uJywgJy1waCcsICc3LjAnLCAnLXRuJywgJzgnLCAnLW1hJywgJzIwMCcsICctbWV0YWxfYmluZGluZycsICctaW1hZScsICc8aW5maWxlLm1hZT4nLCAnLW9tYWUnLCAnPG91dGZpbGUubWFlPic=

> <r_lp_tautomer_probability>
0.107061

> <r_epik_Ionization_Penalty>
0.727192

> <r_epik_Ionization_Penalty_Charging>
0.726719

> <r_epik_Ionization_Penalty_Neutral>
0.000473387

> <r_epik_State_Penalty>
2.53712

> <r_epik_Charging_Adjusted_Penalty>
3.26383

> <i_epik_Tot_Q>
0

> <i_epik_Tot_abs_Q>
0

> <r_epik_Metal_State_Penalty>
3.71015

> <b_epik_Metal_Only>
0

> <s_lp_Force_Field>
OPLS_2005

> <r_lp_Energy>
28.9635

> <b_lp_Chiralities_Consistent>
1

> <s_lp_Variant>
AV-unprocessed.smi:910-10

> <Gold.Version>
5.8.1

> <Gold.Id.Protein>
6NUR|6NUR_protein|mol2

> <Gold.PLP.Fitness>
46.3371

> <Gold.PLP.PLP>
-45.0026

> <Gold.PLP.part.hbond>
-1.3563

> <Gold.PLP.part.metal>
0.0000

> <Gold.PLP.part.buried>
-4.4165

> <Gold.PLP.part.nonpolar>
-40.1151

> <Gold.PLP.part.repulsive>
0.1058

> <Gold.PLP.ligand.clash>
0.0000

> <Gold.PLP.ligand.torsion>
0.7866

> <Gold.PLP.Chemscore.Hbond>
0.9588

> <Gold.PLP.Chemscore.CHOScore>
0.0000

> <Gold.PLP.Chemscore.Metal>
0.0000

> <Gold.Chemscore.Hbonds>
donor molecule, donor type, donor heavy atom, donor atom, acceptor molecule, acceptor atom, score
      P1  H  6896  6907       L1     5  0.54

> <Gold.PLP.Chemscore.Internal.Correction>
0.0314

> <Gold.Rescore>
     Score         DG    S(hbond)    S(metal)    S(lipo)     H(rot)  DE(clash)    DE(int)     intcor
     17.31     -18.26       0.87        0.00     120.73       1.66       0.15       0.79       ----

> <Gold.Chemscore.Fitness>
17.3147

> <Gold.Chemscore.DG>
-18.2568

> <Gold.Chemscore.ZeroCoef>
-5.4800

> <Gold.Chemscore.Hbond>
0.8668

> <Gold.Chemscore.Metal>
0.0000

> <Gold.Chemscore.Lipo>
120.7283

> <Gold.Chemscore.Internal_Hbond>
0.0000

> <Gold.Chemscore.DEClash>
0.1536

> <Gold.Chemscore.DEInternal>
0.7885

> <Gold.Chemscore.Rot>
1.6576

> <Gold.Chemscore.Internal.Correction>
   9.000000E+99

> <Gold.Chemscore.Hbonds>
donor molecule, donor type, donor heavy atom, donor atom, acceptor molecule, acceptor atom, score
      P1  H  6896  6907       L1     5  0.51

> <Gold.Chemscore.Hbond.Weighted>
-2.8952

> <Gold.Chemscore.Metal.Weighted>
-0.0000

> <Gold.Chemscore.Lipo.Weighted>
-14.1252

> <Gold.Chemscore.Internal_Hbond.Weighted>
0.0000

> <Gold.Chemscore.DEClash.Weighted>
0.1536

> <Gold.Chemscore.DEInternal.Weighted>
0.7885

> <Gold.Chemscore.Rot.Weighted>
4.2436

> <Gold.Chemscore.Internal.Correction.Weighted>
   9.000000E+99

> <Gold.Protein.RotatedTorsions>
[ 6907 6896 6895 6894 ] final    6.86 input  -60.11 | X-H torsion
[ 7974 7965 7964 7962 ] final   41.41 input  175.53 | X-H torsion
[ 8008 7997 7996 7995 ] final  125.47 input   59.86 | X-H torsion
[ 10167 10162 10161 10158 ] final   96.90 input  -65.29 | X-H torsion
[ 10718 10713 10712 10709 ] final -177.37 input   66.30 | X-H torsion
[ 10763 10752 10751 10750 ] final  -78.22 input  -60.55 | X-H torsion
[ 11005 11000 10999 10996 ] final  115.57 input  -57.11 | X-H torsion

> <Gold.Protein.ActiveResidues>
 VAL166  LYS551  ARG553  GLY616  TRP617  ASP618  TYR619  PRO620  LYS621  CYS622 
 ASP623  PHE694  ASN695  SER759  ASP760  ASP761  ALA762  ILE779  LEU786  VAL792 
 PHE793  MET794  SER795  GLU796  ALA797  LYS798  CYS799  TRP800  GLU811  SER814 

> <Gold.Protein.RotatedAtoms>
  151.6805  135.0962  160.0214 H   0  0  0  0  0  0  0  0  0  0  0  0  # atno 6907 bound_to 6896
  152.3838  133.6579  159.6191 H   0  0  0  0  0  0  0  0  0  0  0  0  # atno 6908 bound_to 6896
  150.7769  133.8986  159.3375 H   0  0  0  0  0  0  0  0  0  0  0  0  # atno 6909 bound_to 6896
  146.0825  139.5418  142.9528 H   0  0  0  0  0  0  0  0  0  0  0  0  # atno 7974 bound_to 7965
  156.2835  140.2715  156.1955 H   0  0  0  0  0  0  0  0  0  0  0  0  # atno 8008 bound_to 7997
  155.0414  140.0386  157.2529 H   0  0  0  0  0  0  0  0  0  0  0  0  # atno 8009 bound_to 7997
  154.7271  140.2699  155.6494 H   0  0  0  0  0  0  0  0  0  0  0  0  # atno 8010 bound_to 7997
  139.7851  144.6873  150.9969 H   0  0  0  0  0  0  0  0  0  0  0  0  # atno 10167 bound_to 10162
  156.8285  130.9645  151.3108 H   0  0  0  0  0  0  0  0  0  0  0  0  # atno 10718 bound_to 10713
  154.5230  135.5737  153.6696 H   0  0  0  0  0  0  0  0  0  0  0  0  # atno 10763 bound_to 10752
  152.9921  135.6186  154.2729 H   0  0  0  0  0  0  0  0  0  0  0  0  # atno 10764 bound_to 10752
  154.2651  135.2855  155.2741 H   0  0  0  0  0  0  0  0  0  0  0  0  # atno 10765 bound_to 10752
  139.9014  134.9586  156.7065 H   0  0  0  0  0  0  0  0  0  0  0  0  # atno 11005 bound_to 11000
  145.6191  141.0326  143.1925 LP  0  0  0  0  0  0  0  0  0  0  0  0  # atno 17320 bound_to 7965
  144.7303  139.7746  143.7349 LP  0  0  0  0  0  0  0  0  0  0  0  0  # atno 17321 bound_to 7965
  140.7819  143.4441  151.0509 LP  0  0  0  0  0  0  0  0  0  0  0  0  # atno 17342 bound_to 10162
  139.8120  143.7938  152.3172 LP  0  0  0  0  0  0  0  0  0  0  0  0  # atno 17343 bound_to 10162
  157.6419  130.8813  149.9465 LP  0  0  0  0  0  0  0  0  0  0  0  0  # atno 17370 bound_to 10713
  156.0948  130.3660  150.0328 LP  0  0  0  0  0  0  0  0  0  0  0  0  # atno 17371 bound_to 10713
  140.7109  133.9224  155.8084 LP  0  0  0  0  0  0  0  0  0  0  0  0  # atno 17394 bound_to 11000
  141.0301  134.0768  157.4024 LP  0  0  0  0  0  0  0  0  0  0  0  0  # atno 17395 bound_to 11000

$$$$
