AV-unprocessed.smi:576|AV-procd|sdf|2978|dock4
  -GOLD-   2262023483D 1   1.00000     0.00000
 Structure written by MMmdl.
 35 36  0  0  0  0  0  0  0  0  1 V2000
  146.5567  142.7574  153.8664 C   0  0  0  0  0  0  0  0  0  0  0  0
  147.0376  141.5615  154.7043 C   0  0  2  0  0  0  0  0  0  0  0  0
  148.4893  141.6091  154.8475 N   0  0  0  0  0  0  0  0  0  0  0  0
  149.1573  141.6924  156.0086 C   0  0  0  0  0  0  0  0  0  0  0  0
  148.6010  141.7281  157.1070 O   0  0  0  0  0  0  0  0  0  0  0  0
  150.6887  141.7211  155.9029 C   0  0  0  0  0  0  0  0  0  0  0  0
  151.3568  141.8551  157.2083 N   0  0  0  0  0  0  0  0  0  0  0  0
  151.0970  143.0271  157.9458 C   0  0  0  0  0  0  0  0  0  0  0  0
  151.6384  143.2670  159.1556 C   0  0  0  0  0  0  0  0  0  0  0  0
  151.3875  144.5690  159.9003 C   0  0  0  0  0  0  0  0  0  0  0  0
  150.0788  144.7422  160.0806 F   0  0  0  0  0  0  0  0  0  0  0  0
  151.9741  144.5584  161.0975 F   0  0  0  0  0  0  0  0  0  0  0  0
  151.8533  145.6139  159.2148 F   0  0  0  0  0  0  0  0  0  0  0  0
  152.5462  142.2590  159.6673 C   0  0  0  0  0  0  0  0  0  0  0  0
  152.8154  141.1386  158.9691 C   0  0  0  0  0  0  0  0  0  0  0  0
  152.2057  140.8847  157.6618 C   0  0  0  0  0  0  0  0  0  0  0  0
  152.4438  139.8646  157.0145 O   0  0  0  0  0  0  0  0  0  0  0  0
  146.5578  140.2542  154.1023 C   0  0  0  0  0  0  0  0  0  0  0  0
  147.4330  139.0237  154.1132 C   0  0  0  0  0  0  0  0  0  0  0  0
  147.1358  139.7307  152.8096 C   0  0  0  0  0  0  0  0  0  0  0  0
  145.4704  142.7592  153.7747 H   0  0  0  0  0  0  0  0  0  0  0  0
  146.9751  142.7301  152.8597 H   0  0  0  0  0  0  0  0  0  0  0  0
  146.8464  143.7052  154.3215 H   0  0  0  0  0  0  0  0  0  0  0  0
  146.5898  141.6434  155.6967 H   0  0  0  0  0  0  0  0  0  0  0  0
  149.0291  141.5795  153.9945 H   0  0  0  0  0  0  0  0  0  0  0  0
  151.0104  140.8084  155.3995 H   0  0  0  0  0  0  0  0  0  0  0  0
  150.9942  142.5336  155.2407 H   0  0  0  0  0  0  0  0  0  0  0  0
  150.4344  143.7271  157.4576 H   0  0  0  0  0  0  0  0  0  0  0  0
  153.0169  142.4026  160.6287 H   0  0  0  0  0  0  0  0  0  0  0  0
  153.4957  140.4083  159.3822 H   0  0  0  0  0  0  0  0  0  0  0  0
  145.4951  140.0721  154.2526 H   0  0  0  0  0  0  0  0  0  0  0  0
  148.4391  139.1187  154.5166 H   0  0  0  0  0  0  0  0  0  0  0  0
  146.9485  138.0654  154.2887 H   0  0  0  0  0  0  0  0  0  0  0  0
  146.4535  139.2433  152.1162 H   0  0  0  0  0  0  0  0  0  0  0  0
  147.9432  140.2968  152.3492 H   0  0  0  0  0  0  0  0  0  0  0  0
  1  2  1  0  0  0  0
  1 21  1  0  0  0  0
  1 22  1  0  0  0  0
  1 23  1  0  0  0  0
  2  3  1  0  0  0  0
  2 18  1  0  0  0  0
  2 24  1  0  0  0  0
  3  4  1  0  0  0  0
  3 25  1  0  0  0  0
  4  5  2  0  0  0  0
  4  6  1  0  0  0  0
  6  7  1  0  0  0  0
  6 26  1  0  0  0  0
  6 27  1  0  0  0  0
  7 16  1  0  0  0  0
  7  8  1  0  0  0  0
  8  9  2  0  0  0  0
  8 28  1  0  0  0  0
  9 10  1  0  0  0  0
  9 14  1  0  0  0  0
 10 11  1  0  0  0  0
 10 12  1  0  0  0  0
 10 13  1  0  0  0  0
 14 15  2  0  0  0  0
 14 29  1  0  0  0  0
 15 16  1  0  0  0  0
 15 30  1  0  0  0  0
 16 17  2  0  0  0  0
 18 20  1  0  0  0  0
 18 19  1  0  0  0  0
 18 31  1  0  0  0  0
 19 20  1  0  0  0  0
 19 32  1  0  0  0  0
 19 33  1  0  0  0  0
 20 34  1  0  0  0  0
 20 35  1  0  0  0  0
M  END
> <s_m_source_file>
AV-unprocessed.smi

> <i_m_source_file_index>
576

> <i_lp_mmshare_version>
43012

> <i_f3d_flags>
0

> <s_epik_input>
W0NIMl0xW0NIMl1bQ0hdMVtDQEhdKFtDSDNdKVtOSF1DKD1PKVtDSDJdbjJbY0hdYyhDKEYpKEYpRilbY0hdW2NIXWMyPU8=

> <s_epik_cmdline>
J2VwaWtfcHl0aG9uJywgJy1waCcsICc3LjAnLCAnLXRuJywgJzgnLCAnLW1hJywgJzIwMCcsICctbWV0YWxfYmluZGluZycsICctaW1hZScsICc8aW5maWxlLm1hZT4nLCAnLW9tYWUnLCAnPG91dGZpbGUubWFlPic=

> <r_lp_tautomer_probability>
1

> <r_epik_Ionization_Penalty>
3.84201e-08

> <r_epik_Ionization_Penalty_Charging>
1.91184e-08

> <r_epik_Ionization_Penalty_Neutral>
1.93017e-08

> <r_epik_State_Penalty>
-0

> <r_epik_Charging_Adjusted_Penalty>
1.91184e-08

> <i_epik_Tot_Q>
0

> <i_epik_Tot_abs_Q>
0

> <r_epik_Metal_State_Penalty>
-0

> <b_epik_Metal_Only>
0

> <s_lp_Force_Field>
OPLS_2005

> <r_lp_Energy>
24.7521

> <b_lp_Chiralities_Consistent>
1

> <s_lp_Variant>
AV-unprocessed.smi:576-1

> <Gold.Version>
5.8.1

> <Gold.Id.Protein>
6NUR|6NUR_protein|mol2

> <Gold.PLP.Fitness>
47.3549

> <Gold.PLP.PLP>
-41.9696

> <Gold.PLP.part.hbond>
-1.2665

> <Gold.PLP.part.metal>
0.0000

> <Gold.PLP.part.buried>
-3.4238

> <Gold.PLP.part.nonpolar>
-36.1104

> <Gold.PLP.part.repulsive>
0.2721

> <Gold.PLP.ligand.clash>
0.0000

> <Gold.PLP.ligand.torsion>
0.6851

> <Gold.PLP.Chemscore.Hbond>
1.0000

> <Gold.PLP.Chemscore.CHOScore>
0.8823

> <Gold.PLP.Chemscore.Metal>
0.0000

> <Gold.Chemscore.Hbonds>
donor molecule, donor type, donor heavy atom, donor atom, acceptor molecule, acceptor atom, score
      P1  H  7997  8010       L1    17  1.00
      L1  C     8    28       P1  8028  0.94

> <Gold.PLP.Chemscore.Internal.Correction>
1.1087

> <Gold.Rescore>
     Score         DG    S(hbond)    S(metal)    S(lipo)     H(rot)  DE(clash)    DE(int)     intcor
     10.65     -13.74       0.77        0.00      87.24       1.77       1.20       1.88       ----

> <Gold.Chemscore.Fitness>
10.6524

> <Gold.Chemscore.DG>
-13.7378

> <Gold.Chemscore.ZeroCoef>
-5.4800

> <Gold.Chemscore.Hbond>
0.7694

> <Gold.Chemscore.Metal>
0.0000

> <Gold.Chemscore.Lipo>
87.2417

> <Gold.Chemscore.Internal_Hbond>
0.0000

> <Gold.Chemscore.DEClash>
1.2009

> <Gold.Chemscore.DEInternal>
1.8845

> <Gold.Chemscore.Rot>
1.7653

> <Gold.Chemscore.Internal.Correction>
   9.000000E+99

> <Gold.Chemscore.Hbonds>
donor molecule, donor type, donor heavy atom, donor atom, acceptor molecule, acceptor atom, score
      P1  H  7997  8010       L1    17  0.29

> <Gold.Chemscore.Hbond.Weighted>
-2.5697

> <Gold.Chemscore.Metal.Weighted>
-0.0000

> <Gold.Chemscore.Lipo.Weighted>
-10.2073

> <Gold.Chemscore.Internal_Hbond.Weighted>
0.0000

> <Gold.Chemscore.DEClash.Weighted>
1.2009

> <Gold.Chemscore.DEInternal.Weighted>
1.8845

> <Gold.Chemscore.Rot.Weighted>
4.5191

> <Gold.Chemscore.Internal.Correction.Weighted>
   9.000000E+99

> <Gold.Protein.RotatedTorsions>
[ 6907 6896 6895 6894 ] final  105.48 input  -60.11 | X-H torsion
[ 7974 7965 7964 7962 ] final    9.38 input  175.53 | X-H torsion
[ 8008 7997 7996 7995 ] final   57.57 input   59.86 | X-H torsion
[ 10167 10162 10161 10158 ] final   16.02 input  -65.29 | X-H torsion
[ 10718 10713 10712 10709 ] final -101.96 input   66.30 | X-H torsion
[ 10763 10752 10751 10750 ] final  130.08 input  -60.55 | X-H torsion
[ 11005 11000 10999 10996 ] final -162.37 input  -57.11 | X-H torsion

> <Gold.Protein.ActiveResidues>
 VAL166  LYS551  ARG553  GLY616  TRP617  ASP618  TYR619  PRO620  LYS621  CYS622 
 ASP623  PHE694  ASN695  SER759  ASP760  ASP761  ALA762  ILE779  LEU786  VAL792 
 PHE793  MET794  SER795  GLU796  ALA797  LYS798  CYS799  TRP800  GLU811  SER814 

> <Gold.Protein.RotatedAtoms>
  152.5229  133.9522  159.7677 H   0  0  0  0  0  0  0  0  0  0  0  0  # atno 6907 bound_to 6896
  150.9830  133.6218  159.2727 H   0  0  0  0  0  0  0  0  0  0  0  0  # atno 6908 bound_to 6896
  151.3389  135.0865  159.9417 H   0  0  0  0  0  0  0  0  0  0  0  0  # atno 6909 bound_to 6896
  146.2404  139.9792  142.8438 H   0  0  0  0  0  0  0  0  0  0  0  0  # atno 7974 bound_to 7965
  155.5359  140.3483  155.4436 H   0  0  0  0  0  0  0  0  0  0  0  0  # atno 8008 bound_to 7997
  156.0685  140.1357  156.9883 H   0  0  0  0  0  0  0  0  0  0  0  0  # atno 8009 bound_to 7997
  154.4516  140.0970  156.6609 H   0  0  0  0  0  0  0  0  0  0  0  0  # atno 8010 bound_to 7997
  140.5826  143.8951  150.6803 H   0  0  0  0  0  0  0  0  0  0  0  0  # atno 10167 bound_to 10162
  156.0212  130.5398  150.7039 H   0  0  0  0  0  0  0  0  0  0  0  0  # atno 10718 bound_to 10713
  153.7522  135.3208  155.3323 H   0  0  0  0  0  0  0  0  0  0  0  0  # atno 10763 bound_to 10752
  154.8259  135.4570  154.0920 H   0  0  0  0  0  0  0  0  0  0  0  0  # atno 10764 bound_to 10752
  153.2126  135.6938  153.8178 H   0  0  0  0  0  0  0  0  0  0  0  0  # atno 10765 bound_to 10752
  140.6100  134.4859  157.5214 H   0  0  0  0  0  0  0  0  0  0  0  0  # atno 11005 bound_to 11000
  145.1608  140.9672  143.4378 LP  0  0  0  0  0  0  0  0  0  0  0  0  # atno 17320 bound_to 7965
  145.0118  139.3503  143.6116 LP  0  0  0  0  0  0  0  0  0  0  0  0  # atno 17321 bound_to 7965
  140.2454  143.3632  152.1451 LP  0  0  0  0  0  0  0  0  0  0  0  0  # atno 17342 bound_to 10162
  139.5179  144.6998  151.5527 LP  0  0  0  0  0  0  0  0  0  0  0  0  # atno 17343 bound_to 10162
  157.4693  131.0891  151.0660 LP  0  0  0  0  0  0  0  0  0  0  0  0  # atno 17370 bound_to 10713
  157.1125  130.6027  149.5485 LP  0  0  0  0  0  0  0  0  0  0  0  0  # atno 17371 bound_to 10713
  139.9196  134.8176  156.1254 LP  0  0  0  0  0  0  0  0  0  0  0  0  # atno 17394 bound_to 11000
  141.0814  133.6752  156.2345 LP  0  0  0  0  0  0  0  0  0  0  0  0  # atno 17395 bound_to 11000

$$$$
