AV-unprocessed.smi:92|AV-procd|sdf|848|dock6
  -GOLD-   2262017283D 1   1.00000     0.00000
 Structure written by MMmdl.
 61 64  0  0  0  0  0  0  0  0  2 V2000
  147.5731  136.0115  162.8166 C   0  0  0  0  0  0  0  0  0  0  0  0
  146.9666  134.7683  162.1500 C   0  0  0  0  0  0  0  0  0  0  0  0
  146.1329  135.1069  160.9690 N   0  3  1  0  0  0  0  0  0  0  0  0
  146.6709  136.2698  160.2177 C   0  0  0  0  0  0  0  0  0  0  0  0
  145.7155  136.6952  159.0918 C   0  0  0  0  0  0  0  0  0  0  0  0
  145.4196  135.5125  158.1494 C   0  0  2  0  0  0  0  0  0  0  0  0
  144.6128  135.8842  156.9758 N   0  0  0  0  0  0  0  0  0  0  0  0
  143.2019  136.2555  157.1043 C   0  0  0  0  0  0  0  0  0  0  0  0
  144.9783  135.3058  155.8007 C   0  0  0  0  0  0  0  0  0  0  0  0
  146.2702  134.9185  155.6255 N   0  0  0  0  0  0  0  0  0  0  0  0
  146.6623  134.3732  154.4712 C   0  0  0  0  0  0  0  0  0  0  0  0
  145.9390  134.1272  153.3786 N   0  0  0  0  0  0  0  0  0  0  0  0
  144.6391  134.5044  153.5453 C   0  0  0  0  0  0  0  0  0  0  0  0
  144.0798  135.0953  154.7148 C   0  0  0  0  0  0  0  0  0  0  0  0
  142.7236  135.3290  154.5199 N   0  0  0  0  0  0  0  0  0  0  0  0
  142.4967  134.9112  153.3050 C   0  0  0  0  0  0  0  0  0  0  0  0
  143.5913  134.4023  152.6433 N   0  0  0  0  0  0  0  0  0  0  0  0
  143.6106  133.8781  151.3054 C   0  0  0  0  0  0  0  0  0  0  0  0
  143.9016  132.3997  151.0333 C   0  0  0  0  0  0  0  0  0  0  0  0
  144.5991  132.7920  149.7093 C   0  0  0  0  0  0  0  0  0  0  0  0
  145.8931  132.0288  149.3626 C   0  0  0  0  0  0  0  0  0  0  0  0
  146.7858  131.9480  150.4560 O   0  0  0  0  0  0  0  0  0  0  0  0
  143.6817  132.7191  148.4744 C   0  0  0  0  0  0  0  0  0  0  0  0
  143.4789  133.9938  147.8986 O   0  0  0  0  0  0  0  0  0  0  0  0
  144.7535  134.1976  150.3378 C   0  0  0  0  0  0  0  0  0  0  0  0
  144.8920  134.2880  158.9452 C   0  0  2  0  0  0  0  0  0  0  0  0
  143.4584  134.4228  159.4929 C   0  0  0  0  0  0  0  0  0  0  0  0
  145.8872  133.9441  160.0732 C   0  0  0  0  0  0  0  0  0  0  0  0
  148.2479  135.7226  163.6226 H   0  0  0  0  0  0  0  0  0  0  0  0
  146.8120  136.6583  163.2518 H   0  0  0  0  0  0  0  0  0  0  0  0
  148.1475  136.6011  162.1015 H   0  0  0  0  0  0  0  0  0  0  0  0
  147.7914  134.1269  161.8367 H   0  0  0  0  0  0  0  0  0  0  0  0
  146.3829  134.1904  162.8681 H   0  0  0  0  0  0  0  0  0  0  0  0
  146.8190  137.1121  160.8946 H   0  0  0  0  0  0  0  0  0  0  0  0
  147.6502  136.0178  159.8072 H   0  0  0  0  0  0  0  0  0  0  0  0
  144.7959  137.0803  159.5331 H   0  0  0  0  0  0  0  0  0  0  0  0
  146.1593  137.5184  158.5305 H   0  0  0  0  0  0  0  0  0  0  0  0
  146.3966  135.2219  157.7681 H   0  0  0  0  0  0  0  0  0  0  0  0
  142.8383  136.6979  156.1758 H   0  0  0  0  0  0  0  0  0  0  0  0
  143.0590  137.0043  157.8822 H   0  0  0  0  0  0  0  0  0  0  0  0
  142.5704  135.3996  157.3342 H   0  0  0  0  0  0  0  0  0  0  0  0
  147.7043  134.0955  154.4134 H   0  0  0  0  0  0  0  0  0  0  0  0
  141.5149  134.9631  152.8570 H   0  0  0  0  0  0  0  0  0  0  0  0
  142.6575  134.1560  150.8515 H   0  0  0  0  0  0  0  0  0  0  0  0
  144.5726  131.9592  151.7714 H   0  0  0  0  0  0  0  0  0  0  0  0
  143.0092  131.7846  150.9138 H   0  0  0  0  0  0  0  0  0  0  0  0
  145.6685  131.0119  149.0394 H   0  0  0  0  0  0  0  0  0  0  0  0
  146.4252  132.5100  148.5414 H   0  0  0  0  0  0  0  0  0  0  0  0
  147.5724  131.5089  150.1707 H   0  0  0  0  0  0  0  0  0  0  0  0
  144.0979  132.0546  147.7163 H   0  0  0  0  0  0  0  0  0  0  0  0
  142.7037  132.3118  148.7321 H   0  0  0  0  0  0  0  0  0  0  0  0
  144.2815  134.2660  147.4801 H   0  0  0  0  0  0  0  0  0  0  0  0
  144.5466  135.0286  149.6630 H   0  0  0  0  0  0  0  0  0  0  0  0
  145.7087  134.3454  150.8424 H   0  0  0  0  0  0  0  0  0  0  0  0
  144.8825  133.4300  158.2716 H   0  0  0  0  0  0  0  0  0  0  0  0
  143.3288  135.3233  160.0926 H   0  0  0  0  0  0  0  0  0  0  0  0
  143.2003  133.5703  160.1216 H   0  0  0  0  0  0  0  0  0  0  0  0
  142.7275  134.4415  158.6862 H   0  0  0  0  0  0  0  0  0  0  0  0
  146.8365  133.6225  159.6412 H   0  0  0  0  0  0  0  0  0  0  0  0
  145.5079  133.0950  160.6406 H   0  0  0  0  0  0  0  0  0  0  0  0
  145.2344  135.3964  161.3286 H   0  0  0  0  0  0  0  0  0  0  0  0
  1  2  1  0  0  0  0
  1 29  1  0  0  0  0
  1 30  1  0  0  0  0
  1 31  1  0  0  0  0
  2  3  1  0  0  0  0
  2 32  1  0  0  0  0
  2 33  1  0  0  0  0
  3 28  1  0  0  0  0
  3  4  1  0  0  0  0
  3 61  1  0  0  0  0
  4  5  1  0  0  0  0
  4 34  1  0  0  0  0
  4 35  1  0  0  0  0
  5  6  1  0  0  0  0
  5 36  1  0  0  0  0
  5 37  1  0  0  0  0
  6  7  1  0  0  0  0
  6 26  1  0  0  0  0
  6 38  1  0  0  0  0
  7  8  1  0  0  0  0
  7  9  1  0  0  0  0
  8 39  1  0  0  0  0
  8 40  1  0  0  0  0
  8 41  1  0  0  0  0
  9 14  1  0  0  0  0
  9 10  2  0  0  0  0
 10 11  1  0  0  0  0
 11 12  2  0  0  0  0
 11 42  1  0  0  0  0
 12 13  1  0  0  0  0
 13 17  1  0  0  0  0
 13 14  2  0  0  0  0
 14 15  1  0  0  0  0
 15 16  2  0  0  0  0
 16 17  1  0  0  0  0
 16 43  1  0  0  0  0
 17 18  1  0  0  0  0
 18 25  1  0  0  0  0
 18 19  1  0  0  0  0
 18 44  1  0  0  0  0
 19 20  1  0  0  0  0
 19 45  1  0  0  0  0
 19 46  1  0  0  0  0
 20 21  1  0  0  0  0
 20 23  1  0  0  0  0
 20 25  1  0  0  0  0
 21 22  1  0  0  0  0
 21 47  1  0  0  0  0
 21 48  1  0  0  0  0
 22 49  1  0  0  0  0
 23 24  1  0  0  0  0
 23 50  1  0  0  0  0
 23 51  1  0  0  0  0
 24 52  1  0  0  0  0
 25 53  1  0  0  0  0
 25 54  1  0  0  0  0
 26 27  1  0  0  0  0
 26 28  1  0  0  0  0
 26 55  1  0  0  0  0
 27 56  1  0  0  0  0
 27 57  1  0  0  0  0
 27 58  1  0  0  0  0
 28 59  1  0  0  0  0
 28 60  1  0  0  0  0
M  CHG  1   3   1
M  END
> <s_m_source_file>
AV-unprocessed.smi

> <i_m_source_file_index>
92

> <i_lp_mmshare_version>
43012

> <i_f3d_flags>
0

> <s_epik_input>
W0NIM11bQ0gyXU4xW0NIMl1bQ0gyXVtDQEhdKFtDQEBIXShbQ0gzXSlbQ0gyXTEpTihbQ0gzXSljKG5bY0hdbjIpYyhjMjMpbltjSF1uM1tDSF0oW0NIMl00KVtDSDJdQzQoW0NIMl1bT0hdKVtDSDJdW09IXQ==

> <s_epik_cmdline>
J2VwaWtfcHl0aG9uJywgJy1waCcsICc3LjAnLCAnLXRuJywgJzgnLCAnLW1hJywgJzIwMCcsICctbWV0YWxfYmluZGluZycsICctaW1hZScsICc8aW5maWxlLm1hZT4nLCAnLW9tYWUnLCAnPG91dGZpbGUubWFlPic=

> <r_lp_tautomer_probability>
1

> <r_epik_Ionization_Penalty>
0.00235514

> <r_epik_Ionization_Penalty_Charging>
0.00137877

> <r_epik_Ionization_Penalty_Neutral>
0.000976366

> <r_epik_State_Penalty>
-0

> <r_epik_Charging_Adjusted_Penalty>
0.00137877

> <i_epik_Tot_Q>
1

> <i_epik_Tot_abs_Q>
1

> <r_epik_Metal_State_Penalty>
-0

> <b_epik_Metal_Only>
0

> <s_lp_Force_Field>
OPLS_2005

> <r_lp_Energy>
56.4815

> <b_lp_Chiralities_Consistent>
1

> <s_lp_Variant>
AV-unprocessed.smi:92-8

> <Gold.Version>
5.8.1

> <Gold.Id.Protein>
6NUR|6NUR_protein|mol2

> <Gold.PLP.Fitness>
47.8304

> <Gold.PLP.PLP>
-41.6570

> <Gold.PLP.part.hbond>
-4.6696

> <Gold.PLP.part.metal>
0.0000

> <Gold.PLP.part.buried>
-5.6883

> <Gold.PLP.part.nonpolar>
-30.7338

> <Gold.PLP.part.repulsive>
0.1780

> <Gold.PLP.ligand.clash>
0.0000

> <Gold.PLP.ligand.torsion>
2.0925

> <Gold.PLP.Chemscore.Hbond>
3.0000

> <Gold.PLP.Chemscore.CHOScore>
0.0000

> <Gold.PLP.Chemscore.Metal>
0.0000

> <Gold.Chemscore.Hbonds>
donor molecule, donor type, donor heavy atom, donor atom, acceptor molecule, acceptor atom, score
      L1  H    22    49       P1 10747  1.00
      L1  H    24    52       P1  7921  1.00
      P1  H 10192 10197       L1    24  1.00

> <Gold.PLP.Chemscore.Internal.Correction>
1.3583

> <Gold.Rescore>
     Score         DG    S(hbond)    S(metal)    S(lipo)     H(rot)  DE(clash)    DE(int)     intcor
     13.65     -17.51       2.91        0.00      90.13       3.22       0.25       3.61       ----

> <Gold.Chemscore.Fitness>
13.6490

> <Gold.Chemscore.DG>
-17.5100

> <Gold.Chemscore.ZeroCoef>
-5.4800

> <Gold.Chemscore.Hbond>
2.9139

> <Gold.Chemscore.Metal>
0.0000

> <Gold.Chemscore.Lipo>
90.1340

> <Gold.Chemscore.Internal_Hbond>
0.0000

> <Gold.Chemscore.DEClash>
0.2466

> <Gold.Chemscore.DEInternal>
3.6144

> <Gold.Chemscore.Rot>
3.2219

> <Gold.Chemscore.Internal.Correction>
   9.000000E+99

> <Gold.Chemscore.Hbonds>
donor molecule, donor type, donor heavy atom, donor atom, acceptor molecule, acceptor atom, score
      L1  H    22    49       P1 10747  0.94
      L1  H    24    52       P1  7921  0.95
      P1  H 10192 10197       L1    24  0.53

> <Gold.Chemscore.Hbond.Weighted>
-9.7325

> <Gold.Chemscore.Metal.Weighted>
-0.0000

> <Gold.Chemscore.Lipo.Weighted>
-10.5457

> <Gold.Chemscore.Internal_Hbond.Weighted>
0.0000

> <Gold.Chemscore.DEClash.Weighted>
0.2466

> <Gold.Chemscore.DEInternal.Weighted>
3.6144

> <Gold.Chemscore.Rot.Weighted>
8.2482

> <Gold.Chemscore.Internal.Correction.Weighted>
   9.000000E+99

> <Gold.Protein.RotatedTorsions>
[ 6907 6896 6895 6894 ] final -164.06 input  -60.11 | X-H torsion
[ 7974 7965 7964 7962 ] final  -60.00 input  175.53 | X-H torsion
[ 8008 7997 7996 7995 ] final   50.49 input   59.86 | X-H torsion
[ 10167 10162 10161 10158 ] final -158.44 input  -65.29 | X-H torsion
[ 10718 10713 10712 10709 ] final  -43.29 input   66.30 | X-H torsion
[ 10763 10752 10751 10750 ] final -110.01 input  -60.55 | X-H torsion
[ 11005 11000 10999 10996 ] final  -42.60 input  -57.11 | X-H torsion

> <Gold.Protein.ActiveResidues>
 VAL166  LYS551  ARG553  GLY616  TRP617  ASP618  TYR619  PRO620  LYS621  CYS622 
 ASP623  PHE694  ASN695  SER759  ASP760  ASP761  ALA762  ILE779  LEU786  VAL792 
 PHE793  MET794  SER795  GLU796  ALA797  LYS798  CYS799  TRP800  GLU811  SER814 

> <Gold.Protein.RotatedAtoms>
  151.4058  133.3743  159.2737 H   0  0  0  0  0  0  0  0  0  0  0  0  # atno 6907 bound_to 6896
  150.9400  134.8811  159.7616 H   0  0  0  0  0  0  0  0  0  0  0  0  # atno 6908 bound_to 6896
  152.5067  134.4008  159.9468 H   0  0  0  0  0  0  0  0  0  0  0  0  # atno 6909 bound_to 6896
  145.8208  140.8541  143.0134 H   0  0  0  0  0  0  0  0  0  0  0  0  # atno 7974 bound_to 7965
  155.4195  140.3446  155.4270 H   0  0  0  0  0  0  0  0  0  0  0  0  # atno 8008 bound_to 7997
  156.1401  140.1539  156.8965 H   0  0  0  0  0  0  0  0  0  0  0  0  # atno 8009 bound_to 7997
  154.4964  140.0826  156.7686 H   0  0  0  0  0  0  0  0  0  0  0  0  # atno 8010 bound_to 7997
  139.6692  143.9775  152.2273 H   0  0  0  0  0  0  0  0  0  0  0  0  # atno 10167 bound_to 10162
  156.2506  130.4187  149.8654 H   0  0  0  0  0  0  0  0  0  0  0  0  # atno 10718 bound_to 10713
  154.8225  135.4580  154.0820 H   0  0  0  0  0  0  0  0  0  0  0  0  # atno 10763 bound_to 10752
  153.2162  135.6888  153.8061 H   0  0  0  0  0  0  0  0  0  0  0  0  # atno 10764 bound_to 10752
  153.7494  135.3300  155.3295 H   0  0  0  0  0  0  0  0  0  0  0  0  # atno 10765 bound_to 10752
  141.0327  133.6813  156.2617 H   0  0  0  0  0  0  0  0  0  0  0  0  # atno 11005 bound_to 11000
  144.6748  140.0530  143.7478 LP  0  0  0  0  0  0  0  0  0  0  0  0  # atno 17320 bound_to 7965
  145.9677  139.2847  143.1117 LP  0  0  0  0  0  0  0  0  0  0  0  0  # atno 17321 bound_to 7965
  139.9534  144.6605  150.8149 LP  0  0  0  0  0  0  0  0  0  0  0  0  # atno 17342 bound_to 10162
  140.7611  143.3167  151.2716 LP  0  0  0  0  0  0  0  0  0  0  0  0  # atno 17343 bound_to 10162
  156.6204  130.8624  151.3474 LP  0  0  0  0  0  0  0  0  0  0  0  0  # atno 17370 bound_to 10713
  157.7213  130.9562  150.1449 LP  0  0  0  0  0  0  0  0  0  0  0  0  # atno 17371 bound_to 10713
  140.6378  134.5197  157.5566 LP  0  0  0  0  0  0  0  0  0  0  0  0  # atno 17394 bound_to 11000
  139.9219  134.8133  156.1186 LP  0  0  0  0  0  0  0  0  0  0  0  0  # atno 17395 bound_to 11000

$$$$
