AV-unprocessed.smi:251|AV-procd|sdf|1934|dock10
  -GOLD-   2262021 53D 1   1.00000     0.00000
 Structure written by MMmdl.
 50 54  0  0  0  0  0  0  0  0  1 V2000
  152.8648  132.2046  158.0887 O   0  0  0  0  0  0  0  0  0  0  0  0
  153.2422  131.8402  156.7758 C   0  0  0  0  0  0  0  0  0  0  0  0
  153.1002  130.3115  156.5235 C   0  0  0  0  0  0  0  0  0  0  0  0
  151.6486  129.8305  156.8214 C   0  0  0  0  0  0  0  0  0  0  0  0
  150.6681  130.1715  155.7999 N   0  0  0  0  0  0  0  0  0  0  0  0
  149.9771  129.2931  154.9978 C   0  0  0  0  0  0  0  0  0  0  0  0
  149.1489  129.8443  154.1546 N   0  0  0  0  0  0  0  0  0  0  0  0
  149.2544  131.2086  154.4046 C   0  0  0  0  0  0  0  0  0  0  0  0
  148.6418  132.3785  153.8619 C   0  0  0  0  0  0  0  0  0  0  0  0
  147.7215  132.3773  152.8615 N   0  0  0  0  0  0  0  0  0  0  0  0
  146.7926  131.2692  152.6616 C   0  0  0  0  0  0  0  0  0  0  0  0
  145.8012  131.7577  151.6340 C   0  0  2  0  0  0  0  0  0  0  0  0
  146.2465  132.2545  150.2733 C   0  0  0  0  0  0  0  0  0  0  0  0
  146.0370  133.2209  151.4207 C   0  0  1  0  0  0  0  0  0  0  0  0
  144.9157  134.2510  151.3700 C   0  0  0  0  0  0  0  0  0  0  0  0
  145.3304  135.3580  150.7537 F   0  0  0  0  0  0  0  0  0  0  0  0
  143.8747  133.7481  150.7069 F   0  0  0  0  0  0  0  0  0  0  0  0
  144.5161  134.5817  152.5983 F   0  0  0  0  0  0  0  0  0  0  0  0
  147.1989  133.6253  152.3056 C   0  0  0  0  0  0  0  0  0  0  0  0
  149.0242  133.5751  154.3822 N   0  0  0  0  0  0  0  0  0  0  0  0
  149.9253  133.6338  155.3660 C   0  0  0  0  0  0  0  0  0  0  0  0
  150.5688  132.6328  155.9667 N   0  0  0  0  0  0  0  0  0  0  0  0
  150.2040  131.4271  155.4454 C   0  0  0  0  0  0  0  0  0  0  0  0
  153.4429  129.9486  155.0566 C   0  0  0  0  0  0  0  0  0  0  0  0
  154.9388  130.1084  154.7307 C   0  0  0  0  0  0  0  0  0  0  0  0
  155.7152  129.3202  155.6234 O   0  0  0  0  0  0  0  0  0  0  0  0
  155.5662  129.7158  156.9805 C   0  0  0  0  0  0  0  0  0  0  0  0
  154.1014  129.5446  157.4239 C   0  0  0  0  0  0  0  0  0  0  0  0
  153.0470  131.4784  158.6656 H   0  0  0  0  0  0  0  0  0  0  0  0
  152.6300  132.4204  156.0877 H   0  0  0  0  0  0  0  0  0  0  0  0
  154.2678  132.1687  156.6077 H   0  0  0  0  0  0  0  0  0  0  0  0
  151.6289  128.7480  156.9550 H   0  0  0  0  0  0  0  0  0  0  0  0
  151.3011  130.2455  157.7684 H   0  0  0  0  0  0  0  0  0  0  0  0
  150.1136  128.2227  155.0524 H   0  0  0  0  0  0  0  0  0  0  0  0
  147.3033  130.3796  152.2925 H   0  0  0  0  0  0  0  0  0  0  0  0
  146.2746  131.0289  153.5908 H   0  0  0  0  0  0  0  0  0  0  0  0
  144.7797  131.3933  151.7239 H   0  0  0  0  0  0  0  0  0  0  0  0
  147.2694  132.0462  149.9656 H   0  0  0  0  0  0  0  0  0  0  0  0
  145.5115  132.2389  149.4713 H   0  0  0  0  0  0  0  0  0  0  0  0
  146.8587  134.2839  153.1053 H   0  0  0  0  0  0  0  0  0  0  0  0
  147.9561  134.1452  151.7179 H   0  0  0  0  0  0  0  0  0  0  0  0
  150.1654  134.6248  155.7218 H   0  0  0  0  0  0  0  0  0  0  0  0
  153.1695  128.9092  154.8688 H   0  0  0  0  0  0  0  0  0  0  0  0
  152.8471  130.5412  154.3619 H   0  0  0  0  0  0  0  0  0  0  0  0
  155.1326  129.7706  153.7127 H   0  0  0  0  0  0  0  0  0  0  0  0
  155.2516  131.1519  154.7755 H   0  0  0  0  0  0  0  0  0  0  0  0
  156.2126  129.0900  157.5960 H   0  0  0  0  0  0  0  0  0  0  0  0
  155.9106  130.7415  157.1147 H   0  0  0  0  0  0  0  0  0  0  0  0
  153.9994  129.8546  158.4645 H   0  0  0  0  0  0  0  0  0  0  0  0
  153.8667  128.4797  157.4001 H   0  0  0  0  0  0  0  0  0  0  0  0
  1  2  1  0  0  0  0
  1 29  1  0  0  0  0
  2  3  1  0  0  0  0
  2 30  1  0  0  0  0
  2 31  1  0  0  0  0
  3 28  1  0  0  0  0
  3  4  1  0  0  0  0
  3 24  1  0  0  0  0
  4  5  1  0  0  0  0
  4 32  1  0  0  0  0
  4 33  1  0  0  0  0
  5 23  1  0  0  0  0
  5  6  1  0  0  0  0
  6  7  2  0  0  0  0
  6 34  1  0  0  0  0
  7  8  1  0  0  0  0
  8 23  2  0  0  0  0
  8  9  1  0  0  0  0
  9 10  1  0  0  0  0
  9 20  2  0  0  0  0
 10 19  1  0  0  0  0
 10 11  1  0  0  0  0
 11 12  1  0  0  0  0
 11 35  1  0  0  0  0
 11 36  1  0  0  0  0
 12 14  1  0  0  0  0
 12 13  1  0  0  0  0
 12 37  1  0  0  0  0
 13 14  1  0  0  0  0
 13 38  1  0  0  0  0
 13 39  1  0  0  0  0
 14 15  1  0  0  0  0
 14 19  1  0  0  0  0
 15 16  1  0  0  0  0
 15 17  1  0  0  0  0
 15 18  1  0  0  0  0
 19 40  1  0  0  0  0
 19 41  1  0  0  0  0
 20 21  1  0  0  0  0
 21 22  2  0  0  0  0
 21 42  1  0  0  0  0
 22 23  1  0  0  0  0
 24 25  1  0  0  0  0
 24 43  1  0  0  0  0
 24 44  1  0  0  0  0
 25 26  1  0  0  0  0
 25 45  1  0  0  0  0
 25 46  1  0  0  0  0
 26 27  1  0  0  0  0
 27 28  1  0  0  0  0
 27 47  1  0  0  0  0
 27 48  1  0  0  0  0
 28 49  1  0  0  0  0
 28 50  1  0  0  0  0
M  END
> <s_m_source_file>
AV-unprocessed.smi

> <i_m_source_file_index>
251

> <i_lp_mmshare_version>
43012

> <i_f3d_flags>
0

> <s_epik_input>
W0NIMl0xW0NIMl1PW0NIMl1bQ0gyXUMxKFtDSDJdW09IXSlbQ0gyXW4oW2NIXW4yKWMoYzIzKW5bY0hdbmMzTihbQ0gyXTQpW0NIMl1bQ0BIXShbQ0gyXTUpW0NAQF00NUMoRikoRilG

> <s_epik_cmdline>
J2VwaWtfcHl0aG9uJywgJy1waCcsICc3LjAnLCAnLXRuJywgJzgnLCAnLW1hJywgJzIwMCcsICctbWV0YWxfYmluZGluZycsICctaW1hZScsICc8aW5maWxlLm1hZT4nLCAnLW9tYWUnLCAnPG91dGZpbGUubWFlPic=

> <r_lp_tautomer_probability>
1

> <r_epik_Ionization_Penalty>
0.00226625

> <r_epik_Ionization_Penalty_Charging>
0

> <r_epik_Ionization_Penalty_Neutral>
0.00226625

> <r_epik_State_Penalty>
0.00138204

> <r_epik_Charging_Adjusted_Penalty>
0.00138204

> <i_epik_Tot_Q>
0

> <i_epik_Tot_abs_Q>
0

> <r_epik_Metal_State_Penalty>
-0

> <b_epik_Metal_Only>
0

> <s_lp_Force_Field>
OPLS_2005

> <r_lp_Energy>
66.9783

> <b_lp_Chiralities_Consistent>
1

> <s_lp_Variant>
AV-unprocessed.smi:251-1

> <Gold.Version>
5.8.1

> <Gold.Id.Protein>
6NUR|6NUR_protein|mol2

> <Gold.PLP.Fitness>
44.4885

> <Gold.PLP.PLP>
-42.1603

> <Gold.PLP.part.hbond>
-1.0000

> <Gold.PLP.part.metal>
0.0000

> <Gold.PLP.part.buried>
-2.5692

> <Gold.PLP.part.nonpolar>
-38.2856

> <Gold.PLP.part.repulsive>
0.2009

> <Gold.PLP.ligand.clash>
0.0000

> <Gold.PLP.ligand.torsion>
1.2272

> <Gold.PLP.Chemscore.Hbond>
1.0000

> <Gold.PLP.Chemscore.CHOScore>
0.0000

> <Gold.PLP.Chemscore.Metal>
0.0000

> <Gold.Chemscore.Hbonds>
donor molecule, donor type, donor heavy atom, donor atom, acceptor molecule, acceptor atom, score
      P1  H  6896  6909       L1     1  0.85

> <Gold.PLP.Chemscore.Internal.Correction>
1.7827

> <Gold.Rescore>
     Score         DG    S(hbond)    S(metal)    S(lipo)     H(rot)  DE(clash)    DE(int)     intcor
      9.12     -11.73       0.96        0.00      74.96       2.23       0.06       2.55       ----

> <Gold.Chemscore.Fitness>
9.1158

> <Gold.Chemscore.DG>
-11.7268

> <Gold.Chemscore.ZeroCoef>
-5.4800

> <Gold.Chemscore.Hbond>
0.9570

> <Gold.Chemscore.Metal>
0.0000

> <Gold.Chemscore.Lipo>
74.9606

> <Gold.Chemscore.Internal_Hbond>
0.0000

> <Gold.Chemscore.DEClash>
0.0646

> <Gold.Chemscore.DEInternal>
2.5465

> <Gold.Chemscore.Rot>
2.2344

> <Gold.Chemscore.Internal.Correction>
   9.000000E+99

> <Gold.Chemscore.Hbonds>
donor molecule, donor type, donor heavy atom, donor atom, acceptor molecule, acceptor atom, score
      P1  H  6896  6909       L1     1  0.15

> <Gold.Chemscore.Hbond.Weighted>
-3.1965

> <Gold.Chemscore.Metal.Weighted>
-0.0000

> <Gold.Chemscore.Lipo.Weighted>
-8.7704

> <Gold.Chemscore.Internal_Hbond.Weighted>
0.0000

> <Gold.Chemscore.DEClash.Weighted>
0.0646

> <Gold.Chemscore.DEInternal.Weighted>
2.5465

> <Gold.Chemscore.Rot.Weighted>
5.7200

> <Gold.Chemscore.Internal.Correction.Weighted>
   9.000000E+99

> <Gold.Protein.RotatedTorsions>
[ 6907 6896 6895 6894 ] final  -87.58 input  -60.11 | X-H torsion
[ 7974 7965 7964 7962 ] final  -85.74 input  175.53 | X-H torsion
[ 8008 7997 7996 7995 ] final    5.43 input   59.86 | X-H torsion
[ 10167 10162 10161 10158 ] final  158.83 input  -65.29 | X-H torsion
[ 10718 10713 10712 10709 ] final   73.60 input   66.30 | X-H torsion
[ 10763 10752 10751 10750 ] final  177.60 input  -60.55 | X-H torsion
[ 11005 11000 10999 10996 ] final  147.24 input  -57.11 | X-H torsion

> <Gold.Protein.ActiveResidues>
 VAL166  LYS551  ARG553  GLY616  TRP617  ASP618  TYR619  PRO620  LYS621  CYS622 
 ASP623  PHE694  ASN695  SER759  ASP760  ASP761  ALA762  ILE779  LEU786  VAL792 
 PHE793  MET794  SER795  GLU796  ALA797  LYS798  CYS799  TRP800  GLU811  SER814 

> <Gold.Protein.RotatedAtoms>
  150.6866  134.2874  159.4652 H   0  0  0  0  0  0  0  0  0  0  0  0  # atno 6907 bound_to 6896
  152.0783  134.9486  160.0583 H   0  0  0  0  0  0  0  0  0  0  0  0  # atno 6908 bound_to 6896
  152.0849  133.4136  159.4554 H   0  0  0  0  0  0  0  0  0  0  0  0  # atno 6909 bound_to 6896
  145.4892  140.9553  143.1821 H   0  0  0  0  0  0  0  0  0  0  0  0  # atno 7974 bound_to 7965
  154.7283  140.2725  155.6479 H   0  0  0  0  0  0  0  0  0  0  0  0  # atno 8008 bound_to 7997
  156.2843  140.2721  156.1900 H   0  0  0  0  0  0  0  0  0  0  0  0  # atno 8009 bound_to 7997
  155.0416  140.0371  157.2501 H   0  0  0  0  0  0  0  0  0  0  0  0  # atno 8010 bound_to 7997
  139.4829  144.4788  151.8474 H   0  0  0  0  0  0  0  0  0  0  0  0  # atno 10167 bound_to 10162
  157.6555  130.9636  150.1092 H   0  0  0  0  0  0  0  0  0  0  0  0  # atno 10718 bound_to 10713
  154.4966  135.2781  155.1454 H   0  0  0  0  0  0  0  0  0  0  0  0  # atno 10763 bound_to 10752
  154.3104  135.6230  153.5467 H   0  0  0  0  0  0  0  0  0  0  0  0  # atno 10764 bound_to 10752
  152.9896  135.5718  154.5399 H   0  0  0  0  0  0  0  0  0  0  0  0  # atno 10765 bound_to 10752
  140.0859  134.9069  157.1575 H   0  0  0  0  0  0  0  0  0  0  0  0  # atno 11005 bound_to 11000
  144.7843  139.6459  143.7140 LP  0  0  0  0  0  0  0  0  0  0  0  0  # atno 17320 bound_to 7965
  146.2294  139.5785  142.9565 LP  0  0  0  0  0  0  0  0  0  0  0  0  # atno 17321 bound_to 7965
  140.4262  144.2177  150.5887 LP  0  0  0  0  0  0  0  0  0  0  0  0  # atno 17342 bound_to 10162
  140.4825  143.2374  151.8935 LP  0  0  0  0  0  0  0  0  0  0  0  0  # atno 17343 bound_to 10162
  156.1993  130.3659  149.8808 LP  0  0  0  0  0  0  0  0  0  0  0  0  # atno 17370 bound_to 10713
  156.6716  130.8822  151.3563 LP  0  0  0  0  0  0  0  0  0  0  0  0  # atno 17371 bound_to 10713
  140.3421  134.2693  155.7210 LP  0  0  0  0  0  0  0  0  0  0  0  0  # atno 17394 bound_to 11000
  141.2062  133.7839  157.0188 LP  0  0  0  0  0  0  0  0  0  0  0  0  # atno 17395 bound_to 11000

$$$$
