AV-unprocessed.smi:1254|AV-procd|sdf|5271|dock9
  -GOLD-   22720 4383D 1   1.00000     0.00000
 Structure written by MMmdl.
 46 47  0  0  0  0  0  0  0  0  2 V2000
  151.5782  140.1228  158.3064 C   0  0  0  0  0  0  0  0  0  0  0  0
  151.3020  139.8078  156.8764 C   0  0  0  0  0  0  0  0  0  0  0  0
  150.1858  139.3741  156.2178 C   0  0  0  0  0  0  0  0  0  0  0  0
  150.6268  139.2784  154.8710 C   0  0  0  0  0  0  0  0  0  0  0  0
  149.7478  138.8466  153.8452 N   0  0  0  0  0  0  0  0  0  0  0  0
  148.4207  139.0433  153.7692 C   0  0  0  0  0  0  0  0  0  0  0  0
  147.7392  139.6293  154.6111 O   0  0  0  0  0  0  0  0  0  0  0  0
  147.9130  138.5228  152.6428 N   0  0  0  0  0  0  0  0  0  0  0  0
  146.5073  138.5822  152.2564 C   0  0  0  0  0  0  0  0  0  0  0  0
  145.8967  137.1784  152.0949 C   0  0  2  0  0  0  0  0  0  0  0  0
  146.0508  136.6452  150.6557 C   0  0  0  0  0  0  0  0  0  0  0  0
  145.4036  135.3191  150.5014 N   0  3  1  0  0  0  0  0  0  0  0  0
  146.1965  134.1988  151.0764 C   0  0  0  0  0  0  0  0  0  0  0  0
  145.4409  132.8525  151.0559 C   0  0  0  0  0  0  0  0  0  0  0  0
  146.1611  131.8182  151.9338 C   0  0  0  0  0  0  0  0  0  0  0  0
  145.2678  132.3136  149.6260 C   0  0  0  0  0  0  0  0  0  0  0  0
  143.9900  135.3773  150.9541 C   0  0  0  0  0  0  0  0  0  0  0  0
  143.8722  135.9832  152.3662 C   0  0  0  0  0  0  0  0  0  0  0  0
  144.5072  137.2553  152.3989 O   0  0  0  0  0  0  0  0  0  0  0  0
  151.8964  139.6232  154.7208 N   0  0  0  0  0  0  0  0  0  0  0  0
  152.3354  139.9648  156.0053 O   0  0  0  0  0  0  0  0  0  0  0  0
  150.6930  139.9565  158.9205 H   0  0  0  0  0  0  0  0  0  0  0  0
  151.8788  141.1642  158.4216 H   0  0  0  0  0  0  0  0  0  0  0  0
  152.3802  139.4937  158.6928 H   0  0  0  0  0  0  0  0  0  0  0  0
  149.2136  139.1592  156.6360 H   0  0  0  0  0  0  0  0  0  0  0  0
  150.1780  138.3445  153.0829 H   0  0  0  0  0  0  0  0  0  0  0  0
  148.5421  138.0588  152.0038 H   0  0  0  0  0  0  0  0  0  0  0  0
  145.9641  139.1432  153.0174 H   0  0  0  0  0  0  0  0  0  0  0  0
  146.4104  139.1469  151.3277 H   0  0  0  0  0  0  0  0  0  0  0  0
  146.3847  136.4938  152.7905 H   0  0  0  0  0  0  0  0  0  0  0  0
  145.5810  137.3394  149.9575 H   0  0  0  0  0  0  0  0  0  0  0  0
  147.1020  136.5912  150.3699 H   0  0  0  0  0  0  0  0  0  0  0  0
  147.1185  134.0767  150.5062 H   0  0  0  0  0  0  0  0  0  0  0  0
  146.5056  134.4451  152.0923 H   0  0  0  0  0  0  0  0  0  0  0  0
  144.4486  132.9909  151.4838 H   0  0  0  0  0  0  0  0  0  0  0  0
  147.1672  131.6154  151.5648 H   0  0  0  0  0  0  0  0  0  0  0  0
  145.6181  130.8729  151.9554 H   0  0  0  0  0  0  0  0  0  0  0  0
  146.2492  132.1679  152.9630 H   0  0  0  0  0  0  0  0  0  0  0  0
  146.2323  132.1512  149.1434 H   0  0  0  0  0  0  0  0  0  0  0  0
  144.6963  133.0032  149.0045 H   0  0  0  0  0  0  0  0  0  0  0  0
  144.7344  131.3626  149.6281 H   0  0  0  0  0  0  0  0  0  0  0  0
  143.4370  136.0028  150.2520 H   0  0  0  0  0  0  0  0  0  0  0  0
  143.5202  134.3954  150.9176 H   0  0  0  0  0  0  0  0  0  0  0  0
  142.8222  136.1105  152.6294 H   0  0  0  0  0  0  0  0  0  0  0  0
  144.3055  135.3274  153.1222 H   0  0  0  0  0  0  0  0  0  0  0  0
  145.3821  135.1388  149.5077 H   0  0  0  0  0  0  0  0  0  0  0  0
  1  2  1  0  0  0  0
  1 22  1  0  0  0  0
  1 23  1  0  0  0  0
  1 24  1  0  0  0  0
  2 21  1  0  0  0  0
  2  3  2  0  0  0  0
  3  4  1  0  0  0  0
  3 25  1  0  0  0  0
  4  5  1  0  0  0  0
  4 20  2  0  0  0  0
  5  6  1  0  0  0  0
  5 26  1  0  0  0  0
  6  7  2  0  0  0  0
  6  8  1  0  0  0  0
  8  9  1  0  0  0  0
  8 27  1  0  0  0  0
  9 10  1  0  0  0  0
  9 28  1  0  0  0  0
  9 29  1  0  0  0  0
 10 19  1  0  0  0  0
 10 11  1  0  0  0  0
 10 30  1  0  0  0  0
 11 12  1  0  0  0  0
 11 31  1  0  0  0  0
 11 32  1  0  0  0  0
 12 13  1  0  0  0  0
 12 17  1  0  0  0  0
 12 46  1  0  0  0  0
 13 14  1  0  0  0  0
 13 33  1  0  0  0  0
 13 34  1  0  0  0  0
 14 15  1  0  0  0  0
 14 16  1  0  0  0  0
 14 35  1  0  0  0  0
 15 36  1  0  0  0  0
 15 37  1  0  0  0  0
 15 38  1  0  0  0  0
 16 39  1  0  0  0  0
 16 40  1  0  0  0  0
 16 41  1  0  0  0  0
 17 18  1  0  0  0  0
 17 42  1  0  0  0  0
 17 43  1  0  0  0  0
 18 19  1  0  0  0  0
 18 44  1  0  0  0  0
 18 45  1  0  0  0  0
 20 21  1  0  0  0  0
M  CHG  1  12   1
M  END
> <s_m_source_file>
AV-unprocessed.smi

> <i_m_source_file_index>
1254

> <i_lp_mmshare_version>
43012

> <i_f3d_flags>
0

> <s_epik_input>
W0NIM11jMVtjSF1jKG5vMSlbTkhdQyg9TylbTkhdW0NIMl1bQ0BASF0yW0NIMl1OKFtDSDJdW0NIMl1PMilbQ0gyXVtDSF0oW0NIM10pW0NIM10=

> <s_epik_cmdline>
J2VwaWtfcHl0aG9uJywgJy1waCcsICc3LjAnLCAnLXRuJywgJzgnLCAnLW1hJywgJzIwMCcsICctbWV0YWxfYmluZGluZycsICctaW1hZScsICc8aW5maWxlLm1hZT4nLCAnLW9tYWUnLCAnPG91dGZpbGUubWFlPic=

> <r_epik_Ionization_Penalty>
0.0986825

> <r_epik_Ionization_Penalty_Charging>
0.0986478

> <r_epik_Ionization_Penalty_Neutral>
3.46838e-05

> <r_epik_State_Penalty>
0.0887259

> <r_epik_Charging_Adjusted_Penalty>
0.187374

> <i_epik_Tot_Q>
1

> <i_epik_Tot_abs_Q>
1

> <r_epik_Metal_State_Penalty>
0.103424

> <b_epik_Metal_Only>
0

> <s_lp_Force_Field>
OPLS_2005

> <r_lp_Energy>
16.7856

> <b_lp_Chiralities_Consistent>
1

> <s_lp_Variant>
AV-unprocessed.smi:1254-3

> <Gold.Version>
5.8.1

> <Gold.Id.Protein>
6NUR|6NUR_protein|mol2

> <Gold.PLP.Fitness>
44.8749

> <Gold.PLP.PLP>
-35.6340

> <Gold.PLP.part.hbond>
-6.0257

> <Gold.PLP.part.metal>
0.0000

> <Gold.PLP.part.buried>
-2.6527

> <Gold.PLP.part.nonpolar>
-28.4035

> <Gold.PLP.part.repulsive>
1.3237

> <Gold.PLP.ligand.clash>
0.0000

> <Gold.PLP.ligand.torsion>
0.7069

> <Gold.PLP.Chemscore.Hbond>
3.5352

> <Gold.PLP.Chemscore.CHOScore>
0.0000

> <Gold.PLP.Chemscore.Metal>
0.0000

> <Gold.Chemscore.Hbonds>
donor molecule, donor type, donor heavy atom, donor atom, acceptor molecule, acceptor atom, score
      L1  H     8    27       P1  7948  0.62
      L1  H    12    46       P1  7921  0.98
      P1  H  7989  7998       L1    20  0.88
      P1  H  7997  8008       L1    21  0.99

> <Gold.PLP.Chemscore.Internal.Correction>
0.0492

> <Gold.Rescore>
     Score         DG    S(hbond)    S(metal)    S(lipo)     H(rot)  DE(clash)    DE(int)     intcor
     16.47     -19.11       2.69        0.00      77.53       1.73       0.76       1.88       ----

> <Gold.Chemscore.Fitness>
16.4736

> <Gold.Chemscore.DG>
-19.1080

> <Gold.Chemscore.ZeroCoef>
-5.4800

> <Gold.Chemscore.Hbond>
2.6898

> <Gold.Chemscore.Metal>
0.0000

> <Gold.Chemscore.Lipo>
77.5272

> <Gold.Chemscore.Internal_Hbond>
0.0000

> <Gold.Chemscore.DEClash>
0.7570

> <Gold.Chemscore.DEInternal>
1.8775

> <Gold.Chemscore.Rot>
1.7291

> <Gold.Chemscore.Internal.Correction>
   9.000000E+99

> <Gold.Chemscore.Hbonds>
donor molecule, donor type, donor heavy atom, donor atom, acceptor molecule, acceptor atom, score
      L1  H     8    27       P1  7948  0.62
      L1  H    12    46       P1  7921  0.90
      P1  H  7989  7998       L1    20  0.16
      P1  H  7997  8008       L1    21  0.79

> <Gold.Chemscore.Hbond.Weighted>
-8.9838

> <Gold.Chemscore.Metal.Weighted>
-0.0000

> <Gold.Chemscore.Lipo.Weighted>
-9.0707

> <Gold.Chemscore.Internal_Hbond.Weighted>
0.0000

> <Gold.Chemscore.DEClash.Weighted>
0.7570

> <Gold.Chemscore.DEInternal.Weighted>
1.8775

> <Gold.Chemscore.Rot.Weighted>
4.4265

> <Gold.Chemscore.Internal.Correction.Weighted>
   9.000000E+99

> <Gold.Protein.RotatedTorsions>
[ 6907 6896 6895 6894 ] final  166.34 input  -60.11 | X-H torsion
[ 7974 7965 7964 7962 ] final  -88.99 input  175.53 | X-H torsion
[ 8008 7997 7996 7995 ] final  -30.52 input   59.86 | X-H torsion
[ 10167 10162 10161 10158 ] final -149.45 input  -65.29 | X-H torsion
[ 10718 10713 10712 10709 ] final  118.49 input   66.30 | X-H torsion
[ 10763 10752 10751 10750 ] final  114.06 input  -60.55 | X-H torsion
[ 11005 11000 10999 10996 ] final  137.89 input  -57.11 | X-H torsion

> <Gold.Protein.ActiveResidues>
 VAL166  LYS551  ARG553  GLY616  TRP617  ASP618  TYR619  PRO620  LYS621  CYS622 
 ASP623  PHE694  ASN695  SER759  ASP760  ASP761  ALA762  ILE779  LEU786  VAL792 
 PHE793  MET794  SER795  GLU796  ALA797  LYS798  CYS799  TRP800  GLU811  SER814 

> <Gold.Protein.RotatedAtoms>
  151.8804  133.3494  159.3764 H   0  0  0  0  0  0  0  0  0  0  0  0  # atno 6907 bound_to 6896
  150.7129  134.5024  159.5577 H   0  0  0  0  0  0  0  0  0  0  0  0  # atno 6908 bound_to 6896
  152.2574  134.8070  160.0487 H   0  0  0  0  0  0  0  0  0  0  0  0  # atno 6909 bound_to 6896
  145.4457  140.9560  143.2050 H   0  0  0  0  0  0  0  0  0  0  0  0  # atno 7974 bound_to 7965
  154.4247  140.1789  156.1420 H   0  0  0  0  0  0  0  0  0  0  0  0  # atno 8008 bound_to 7997
  155.9984  140.3362  155.6796 H   0  0  0  0  0  0  0  0  0  0  0  0  # atno 8009 bound_to 7997
  155.6277  140.0666  157.2649 H   0  0  0  0  0  0  0  0  0  0  0  0  # atno 8010 bound_to 7997
  139.7441  143.8617  152.2570 H   0  0  0  0  0  0  0  0  0  0  0  0  # atno 10167 bound_to 10162
  157.6027  131.1048  150.7763 H   0  0  0  0  0  0  0  0  0  0  0  0  # atno 10718 bound_to 10713
  153.5017  135.3636  155.2543 H   0  0  0  0  0  0  0  0  0  0  0  0  # atno 10763 bound_to 10752
  154.8747  135.4001  154.3470 H   0  0  0  0  0  0  0  0  0  0  0  0  # atno 10764 bound_to 10752
  153.4108  135.7077  153.6427 H   0  0  0  0  0  0  0  0  0  0  0  0  # atno 10765 bound_to 10752
  140.0145  134.9424  157.0347 H   0  0  0  0  0  0  0  0  0  0  0  0  # atno 11005 bound_to 11000
  144.8093  139.5992  143.7036 LP  0  0  0  0  0  0  0  0  0  0  0  0  # atno 17320 bound_to 7965
  146.2532  139.6244  142.9413 LP  0  0  0  0  0  0  0  0  0  0  0  0  # atno 17321 bound_to 7965
  139.8576  144.7133  150.9138 LP  0  0  0  0  0  0  0  0  0  0  0  0  # atno 17342 bound_to 10162
  140.7790  143.3845  151.1418 LP  0  0  0  0  0  0  0  0  0  0  0  0  # atno 17343 bound_to 10162
  156.8159  130.4968  149.5349 LP  0  0  0  0  0  0  0  0  0  0  0  0  # atno 17370 bound_to 10713
  156.1104  130.6036  151.0038 LP  0  0  0  0  0  0  0  0  0  0  0  0  # atno 17371 bound_to 10713
  140.4495  134.1597  155.7180 LP  0  0  0  0  0  0  0  0  0  0  0  0  # atno 17394 bound_to 11000
  141.1733  133.8564  157.1501 LP  0  0  0  0  0  0  0  0  0  0  0  0  # atno 17395 bound_to 11000

$$$$
