AV-unprocessed.smi:141|AV-procd|sdf|1187|dock4
  -GOLD-   2262018343D 1   1.00000     0.00000
 Structure written by MMmdl.
 56 59  0  0  0  0  0  0  0  0  1 V2000
  151.0495  135.7065  154.8562 O   0  0  0  0  0  0  0  0  0  0  0  0
  150.2964  136.0808  155.7576 C   0  0  0  0  0  0  0  0  0  0  0  0
  148.8453  135.5557  155.7884 C   0  0  0  0  0  0  0  0  0  0  0  0
  148.5887  134.4535  154.8343 N   0  0  0  0  0  0  0  0  0  0  0  0
  149.3538  133.2656  154.9450 C   0  0  0  0  0  0  0  0  0  0  0  0
  150.2285  133.1465  155.8040 O   0  0  0  0  0  0  0  0  0  0  0  0
  149.0235  132.2130  153.9911 C   0  0  0  0  0  0  0  0  0  0  0  0
  149.6879  131.0456  154.0307 F   0  0  0  0  0  0  0  0  0  0  0  0
  148.0552  132.3903  153.0693 C   0  0  0  0  0  0  0  0  0  0  0  0
  147.3296  133.5603  152.9586 N   0  0  0  0  0  0  0  0  0  0  0  0
  146.2269  133.6496  151.9293 C   0  0  2  0  0  0  0  0  0  0  0  0
  144.9234  132.9485  152.3569 C   0  0  0  0  0  0  0  0  0  0  0  0
  144.7059  131.9309  151.2490 C   0  0  0  0  0  0  0  0  0  0  0  0
  145.5315  132.4989  150.1001 C   0  0  0  0  0  0  0  0  0  0  0  0
  146.6669  133.0447  150.7527 O   0  0  0  0  0  0  0  0  0  0  0  0
  147.5640  134.6154  153.8707 C   0  0  0  0  0  0  0  0  0  0  0  0
  146.8901  135.6465  153.8355 O   0  0  0  0  0  0  0  0  0  0  0  0
  150.7042  136.9361  156.7267 N   0  0  0  0  0  0  0  0  0  0  0  0
  152.0296  137.5624  156.8127 C   0  0  0  0  0  0  0  0  0  0  0  0
  151.8880  139.0565  156.4727 C   0  0  0  0  0  0  0  0  0  0  0  0
  150.8785  139.7482  157.4164 C   0  0  0  0  0  0  0  0  0  0  0  0
  150.6561  141.2295  157.0380 C   0  0  0  0  0  0  0  0  0  0  0  0
  151.4021  142.1830  157.9522 C   0  0  0  0  0  0  0  0  0  0  0  0
  152.2224  141.6803  158.9840 C   0  0  0  0  0  0  0  0  0  0  0  0
  152.9197  142.5666  159.8279 C   0  0  0  0  0  0  0  0  0  0  0  0
  152.7992  143.9577  159.6428 C   0  0  0  0  0  0  0  0  0  0  0  0
  151.9836  144.4625  158.6115 C   0  0  0  0  0  0  0  0  0  0  0  0
  151.2865  143.5767  157.7669 C   0  0  0  0  0  0  0  0  0  0  0  0
  149.5509  138.9581  157.4696 C   0  0  0  0  0  0  0  0  0  0  0  0
  149.7967  137.4643  157.7526 C   0  0  0  0  0  0  0  0  0  0  0  0
  148.6067  135.2338  156.8033 H   0  0  0  0  0  0  0  0  0  0  0  0
  148.1682  136.3904  155.6012 H   0  0  0  0  0  0  0  0  0  0  0  0
  147.8461  131.5768  152.3900 H   0  0  0  0  0  0  0  0  0  0  0  0
  146.0702  134.7137  151.7474 H   0  0  0  0  0  0  0  0  0  0  0  0
  144.9953  132.4941  153.3456 H   0  0  0  0  0  0  0  0  0  0  0  0
  144.1219  133.6876  152.3744 H   0  0  0  0  0  0  0  0  0  0  0  0
  145.1024  130.9601  151.5470 H   0  0  0  0  0  0  0  0  0  0  0  0
  143.6547  131.8003  150.9910 H   0  0  0  0  0  0  0  0  0  0  0  0
  145.8126  131.7418  149.3677 H   0  0  0  0  0  0  0  0  0  0  0  0
  144.9887  133.2934  149.5854 H   0  0  0  0  0  0  0  0  0  0  0  0
  152.4149  137.4477  157.8270 H   0  0  0  0  0  0  0  0  0  0  0  0
  152.7784  137.1026  156.1701 H   0  0  0  0  0  0  0  0  0  0  0  0
  152.8601  139.5458  156.5451 H   0  0  0  0  0  0  0  0  0  0  0  0
  151.5634  139.1622  155.4364 H   0  0  0  0  0  0  0  0  0  0  0  0
  151.3111  139.7069  158.4178 H   0  0  0  0  0  0  0  0  0  0  0  0
  150.9738  141.4176  156.0116 H   0  0  0  0  0  0  0  0  0  0  0  0
  149.5948  141.4811  157.0598 H   0  0  0  0  0  0  0  0  0  0  0  0
  152.3205  140.6142  159.1289 H   0  0  0  0  0  0  0  0  0  0  0  0
  153.5476  142.1787  160.6164 H   0  0  0  0  0  0  0  0  0  0  0  0
  153.3336  144.6370  160.2905 H   0  0  0  0  0  0  0  0  0  0  0  0
  151.8929  145.5292  158.4671 H   0  0  0  0  0  0  0  0  0  0  0  0
  150.6649  143.9692  156.9752 H   0  0  0  0  0  0  0  0  0  0  0  0
  148.8984  139.3774  158.2362 H   0  0  0  0  0  0  0  0  0  0  0  0
  149.0206  139.0597  156.5215 H   0  0  0  0  0  0  0  0  0  0  0  0
  148.8447  136.9333  157.7922 H   0  0  0  0  0  0  0  0  0  0  0  0
  150.2476  137.3358  158.7376 H   0  0  0  0  0  0  0  0  0  0  0  0
  1  2  2  0  0  0  0
  2  3  1  0  0  0  0
  2 18  1  0  0  0  0
  3  4  1  0  0  0  0
  3 31  1  0  0  0  0
  3 32  1  0  0  0  0
  4 16  1  0  0  0  0
  4  5  1  0  0  0  0
  5  6  2  0  0  0  0
  5  7  1  0  0  0  0
  7  8  1  0  0  0  0
  7  9  2  0  0  0  0
  9 10  1  0  0  0  0
  9 33  1  0  0  0  0
 10 11  1  0  0  0  0
 10 16  1  0  0  0  0
 11 15  1  0  0  0  0
 11 12  1  0  0  0  0
 11 34  1  0  0  0  0
 12 13  1  0  0  0  0
 12 35  1  0  0  0  0
 12 36  1  0  0  0  0
 13 14  1  0  0  0  0
 13 37  1  0  0  0  0
 13 38  1  0  0  0  0
 14 15  1  0  0  0  0
 14 39  1  0  0  0  0
 14 40  1  0  0  0  0
 16 17  2  0  0  0  0
 18 30  1  0  0  0  0
 18 19  1  0  0  0  0
 19 20  1  0  0  0  0
 19 41  1  0  0  0  0
 19 42  1  0  0  0  0
 20 21  1  0  0  0  0
 20 43  1  0  0  0  0
 20 44  1  0  0  0  0
 21 22  1  0  0  0  0
 21 29  1  0  0  0  0
 21 45  1  0  0  0  0
 22 23  1  0  0  0  0
 22 46  1  0  0  0  0
 22 47  1  0  0  0  0
 23 28  1  0  0  0  0
 23 24  2  0  0  0  0
 24 25  1  0  0  0  0
 24 48  1  0  0  0  0
 25 26  2  0  0  0  0
 25 49  1  0  0  0  0
 26 27  1  0  0  0  0
 26 50  1  0  0  0  0
 27 28  2  0  0  0  0
 27 51  1  0  0  0  0
 28 52  1  0  0  0  0
 29 30  1  0  0  0  0
 29 53  1  0  0  0  0
 29 54  1  0  0  0  0
 30 55  1  0  0  0  0
 30 56  1  0  0  0  0
M  END
> <s_m_source_file>
AV-unprocessed.smi

> <i_m_source_file_index>
141

> <i_lp_mmshare_version>
43012

> <i_f3d_flags>
0

> <s_epik_input>
W2NIXTFbY0hdW2NIXVtjSF1bY0hdYzFbQ0gyXVtDSF0oW0NIMl1bQ0gyXTIpW0NIMl1bQ0gyXU4yQyg9TylbQ0gyXW4zYyg9TyljKEYpW2NIXW4oYzM9TylbQ0BASF00W0NIMl1bQ0gyXVtDSDJdTzQ=

> <s_epik_cmdline>
J2VwaWtfcHl0aG9uJywgJy1waCcsICc3LjAnLCAnLXRuJywgJzgnLCAnLW1hJywgJzIwMCcsICctbWV0YWxfYmluZGluZycsICctaW1hZScsICc8aW5maWxlLm1hZT4nLCAnLW9tYWUnLCAnPG91dGZpbGUubWFlPic=

> <r_lp_tautomer_probability>
1

> <r_epik_Ionization_Penalty>
3.78313e-08

> <r_epik_Ionization_Penalty_Charging>
4.95074e-09

> <r_epik_Ionization_Penalty_Neutral>
3.28806e-08

> <r_epik_State_Penalty>
-0

> <r_epik_Charging_Adjusted_Penalty>
4.95074e-09

> <i_epik_Tot_Q>
0

> <i_epik_Tot_abs_Q>
0

> <r_epik_Metal_State_Penalty>
-0

> <b_epik_Metal_Only>
0

> <s_epik_Chemistry_Notes>
This compound contains an acetal/aminal-like group ( X-CH(R)-Y where X, Y are N, S, or O) that may be acid/base labile, releasing an aldehyde.

> <s_lp_Force_Field>
OPLS_2005

> <r_lp_Energy>
44.5211

> <b_lp_Chiralities_Consistent>
1

> <s_lp_Variant>
AV-unprocessed.smi:141-1

> <Gold.Version>
5.8.1

> <Gold.Id.Protein>
6NUR|6NUR_protein|mol2

> <Gold.PLP.Fitness>
53.3419

> <Gold.PLP.PLP>
-49.9125

> <Gold.PLP.part.hbond>
-1.0000

> <Gold.PLP.part.metal>
0.0000

> <Gold.PLP.part.buried>
-5.9328

> <Gold.PLP.part.nonpolar>
-45.2309

> <Gold.PLP.part.repulsive>
2.0809

> <Gold.PLP.ligand.clash>
0.0000

> <Gold.PLP.ligand.torsion>
1.3313

> <Gold.PLP.Chemscore.Hbond>
1.0000

> <Gold.PLP.Chemscore.CHOScore>
1.0000

> <Gold.PLP.Chemscore.Metal>
0.0000

> <Gold.Chemscore.Hbonds>
donor molecule, donor type, donor heavy atom, donor atom, acceptor molecule, acceptor atom, score
      P1  H 10752 10765       L1     1  1.00
      L1  C     9    33       P1 10747  1.00

> <Gold.PLP.Chemscore.Internal.Correction>
0.0920

> <Gold.Rescore>
     Score         DG    S(hbond)    S(metal)    S(lipo)     H(rot)  DE(clash)    DE(int)     intcor
     13.92     -19.18       0.98        0.00     129.52       1.85       0.23       5.04       ----

> <Gold.Chemscore.Fitness>
13.9167

> <Gold.Chemscore.DG>
-19.1799

> <Gold.Chemscore.ZeroCoef>
-5.4800

> <Gold.Chemscore.Hbond>
0.9796

> <Gold.Chemscore.Metal>
0.0000

> <Gold.Chemscore.Lipo>
129.5215

> <Gold.Chemscore.Internal_Hbond>
0.0000

> <Gold.Chemscore.DEClash>
0.2264

> <Gold.Chemscore.DEInternal>
5.0368

> <Gold.Chemscore.Rot>
1.8461

> <Gold.Chemscore.Internal.Correction>
   9.000000E+99

> <Gold.Chemscore.Hbonds>
donor molecule, donor type, donor heavy atom, donor atom, acceptor molecule, acceptor atom, score
      P1  H 10752 10765       L1     1  0.99

> <Gold.Chemscore.Hbond.Weighted>
-3.2719

> <Gold.Chemscore.Metal.Weighted>
-0.0000

> <Gold.Chemscore.Lipo.Weighted>
-15.1540

> <Gold.Chemscore.Internal_Hbond.Weighted>
0.0000

> <Gold.Chemscore.DEClash.Weighted>
0.2264

> <Gold.Chemscore.DEInternal.Weighted>
5.0368

> <Gold.Chemscore.Rot.Weighted>
4.7260

> <Gold.Chemscore.Internal.Correction.Weighted>
   9.000000E+99

> <Gold.Protein.RotatedTorsions>
[ 6907 6896 6895 6894 ] final -142.13 input  -60.11 | X-H torsion
[ 7974 7965 7964 7962 ] final  -19.56 input  175.53 | X-H torsion
[ 8008 7997 7996 7995 ] final  -46.55 input   59.86 | X-H torsion
[ 10167 10162 10161 10158 ] final  -82.12 input  -65.29 | X-H torsion
[ 10718 10713 10712 10709 ] final   -1.65 input   66.30 | X-H torsion
[ 10763 10752 10751 10750 ] final -177.32 input  -60.55 | X-H torsion
[ 11005 11000 10999 10996 ] final -141.84 input  -57.11 | X-H torsion

> <Gold.Protein.ActiveResidues>
 VAL166  LYS551  ARG553  GLY616  TRP617  ASP618  TYR619  PRO620  LYS621  CYS622 
 ASP623  PHE694  ASN695  SER759  ASP760  ASP761  ALA762  ILE779  LEU786  VAL792 
 PHE793  MET794  SER795  GLU796  ALA797  LYS798  CYS799  TRP800  GLU811  SER814 

> <Gold.Protein.RotatedAtoms>
  151.0830  133.5375  159.2619 H   0  0  0  0  0  0  0  0  0  0  0  0  # atno 6907 bound_to 6896
  151.2271  135.0540  159.8983 H   0  0  0  0  0  0  0  0  0  0  0  0  # atno 6908 bound_to 6896
  152.5426  134.0624  159.8212 H   0  0  0  0  0  0  0  0  0  0  0  0  # atno 6909 bound_to 6896
  146.1834  140.4080  142.8485 H   0  0  0  0  0  0  0  0  0  0  0  0  # atno 7974 bound_to 7965
  154.4008  140.1368  156.4030 H   0  0  0  0  0  0  0  0  0  0  0  0  # atno 8008 bound_to 7997
  155.7806  140.3481  155.5275 H   0  0  0  0  0  0  0  0  0  0  0  0  # atno 8009 bound_to 7997
  155.8678  140.0967  157.1561 H   0  0  0  0  0  0  0  0  0  0  0  0  # atno 8010 bound_to 7997
  140.4349  143.2535  151.8707 H   0  0  0  0  0  0  0  0  0  0  0  0  # atno 10167 bound_to 10162
  156.8025  130.5397  149.5720 H   0  0  0  0  0  0  0  0  0  0  0  0  # atno 10718 bound_to 10713
  154.5616  135.2820  155.0914 H   0  0  0  0  0  0  0  0  0  0  0  0  # atno 10763 bound_to 10752
  154.2320  135.6372  153.5182 H   0  0  0  0  0  0  0  0  0  0  0  0  # atno 10764 bound_to 10752
  153.0031  135.5539  154.6212 H   0  0  0  0  0  0  0  0  0  0  0  0  # atno 10765 bound_to 10752
  140.8284  134.2547  157.4868 H   0  0  0  0  0  0  0  0  0  0  0  0  # atno 11005 bound_to 11000
  144.8355  140.6775  143.6263 LP  0  0  0  0  0  0  0  0  0  0  0  0  # atno 17320 bound_to 7965
  145.4009  139.1598  143.4178 LP  0  0  0  0  0  0  0  0  0  0  0  0  # atno 17321 bound_to 7965
  139.4786  144.5293  151.8689 LP  0  0  0  0  0  0  0  0  0  0  0  0  # atno 17342 bound_to 10162
  140.4384  144.2019  150.5890 LP  0  0  0  0  0  0  0  0  0  0  0  0  # atno 17343 bound_to 10162
  156.1093  130.6028  151.0021 LP  0  0  0  0  0  0  0  0  0  0  0  0  # atno 17370 bound_to 10713
  157.6547  131.0891  150.7974 LP  0  0  0  0  0  0  0  0  0  0  0  0  # atno 17371 bound_to 10713
  139.8705  134.9573  156.4264 LP  0  0  0  0  0  0  0  0  0  0  0  0  # atno 17394 bound_to 11000
  140.9024  133.7770  155.9696 LP  0  0  0  0  0  0  0  0  0  0  0  0  # atno 17395 bound_to 11000

$$$$
