AV-unprocessed.smi:153|AV-procd|sdf|1262|dock3
  -GOLD-   2262018513D 1   1.00000     0.00000
 Structure written by MMmdl.
 59 62  0  0  0  0  0  0  0  0  1 V2000
  143.0471  133.3142  151.5639 C   0  0  0  0  0  0  0  0  0  0  0  0
  144.3714  133.6881  150.8802 C   0  0  2  0  0  0  0  0  0  0  0  0
  145.3302  132.6901  151.2218 O   0  0  0  0  0  0  0  0  0  0  0  0
  146.6169  133.2818  151.2525 C   0  0  0  0  0  0  0  0  0  0  0  0
  146.3419  134.6261  151.9084 C   0  0  0  0  0  0  0  0  0  0  0  0
  145.0128  135.0458  151.2864 C   0  0  1  0  0  0  0  0  0  0  0  0
  145.2990  135.7583  150.0940 O   0  0  0  0  0  0  0  0  0  0  0  0
  144.1626  135.9678  152.1996 C   0  0  0  0  0  0  0  0  0  0  0  0
  144.9334  137.0353  152.8197 N   0  0  0  0  0  0  0  0  0  0  0  0
  145.8606  137.8479  152.2066 C   0  0  0  0  0  0  0  0  0  0  0  0
  146.4194  138.7380  152.9799 N   0  0  0  0  0  0  0  0  0  0  0  0
  145.8303  138.5264  154.2203 C   0  0  0  0  0  0  0  0  0  0  0  0
  145.9545  139.1490  155.4936 C   0  0  0  0  0  0  0  0  0  0  0  0
  146.7989  140.1874  155.7163 N   0  0  0  0  0  0  0  0  0  0  0  0
  146.3981  141.0418  156.8278 C   0  0  0  0  0  0  0  0  0  0  0  0
  147.4874  140.8096  154.5829 C   0  0  0  0  0  0  0  0  0  0  0  0
  148.9936  140.4726  154.5142 C   0  0  1  0  0  0  0  0  0  0  0  0
  149.4728  140.9827  153.2877 O   0  0  0  0  0  0  0  0  0  0  0  0
  149.8078  141.1223  155.6594 C   0  0  0  0  0  0  0  0  0  0  0  0
  150.5090  140.1861  156.5395 N   0  0  0  0  0  0  0  0  0  0  0  0
  151.1357  140.8562  157.6782 C   0  0  0  0  0  0  0  0  0  0  0  0
  151.9129  139.8773  158.5739 C   0  0  0  0  0  0  0  0  0  0  0  0
  152.8839  139.1850  157.7964 O   0  0  0  0  0  0  0  0  0  0  0  0
  152.3057  138.4740  156.7070 C   0  0  0  0  0  0  0  0  0  0  0  0
  151.5353  139.4535  155.8046 C   0  0  0  0  0  0  0  0  0  0  0  0
  145.1840  138.6676  156.5048 N   0  0  0  0  0  0  0  0  0  0  0  0
  144.3408  137.6546  156.2859 C   0  0  0  0  0  0  0  0  0  0  0  0
  144.1134  136.9886  155.1521 N   0  0  0  0  0  0  0  0  0  0  0  0
  144.8886  137.4629  154.1353 C   0  0  0  0  0  0  0  0  0  0  0  0
  142.2632  134.0372  151.3381 H   0  0  0  0  0  0  0  0  0  0  0  0
  143.1578  133.2553  152.6469 H   0  0  0  0  0  0  0  0  0  0  0  0
  142.6997  132.3398  151.2195 H   0  0  0  0  0  0  0  0  0  0  0  0
  144.2227  133.6462  149.7994 H   0  0  0  0  0  0  0  0  0  0  0  0
  147.3272  132.6746  151.8137 H   0  0  0  0  0  0  0  0  0  0  0  0
  146.9921  133.4070  150.2357 H   0  0  0  0  0  0  0  0  0  0  0  0
  146.2219  134.4713  152.9812 H   0  0  0  0  0  0  0  0  0  0  0  0
  147.1461  135.3493  151.7651 H   0  0  0  0  0  0  0  0  0  0  0  0
  144.7931  136.5565  150.0932 H   0  0  0  0  0  0  0  0  0  0  0  0
  143.3482  136.4215  151.6332 H   0  0  0  0  0  0  0  0  0  0  0  0
  143.6977  135.3903  152.9988 H   0  0  0  0  0  0  0  0  0  0  0  0
  146.1138  137.7570  151.1603 H   0  0  0  0  0  0  0  0  0  0  0  0
  145.3132  141.0668  156.9430 H   0  0  0  0  0  0  0  0  0  0  0  0
  146.7384  142.0673  156.6822 H   0  0  0  0  0  0  0  0  0  0  0  0
  146.8337  140.6759  157.7577 H   0  0  0  0  0  0  0  0  0  0  0  0
  146.9916  140.5080  153.6592 H   0  0  0  0  0  0  0  0  0  0  0  0
  147.3693  141.8920  154.6490 H   0  0  0  0  0  0  0  0  0  0  0  0
  149.1429  139.3947  154.4795 H   0  0  0  0  0  0  0  0  0  0  0  0
  149.3683  140.3155  152.6266 H   0  0  0  0  0  0  0  0  0  0  0  0
  150.5273  141.8205  155.2284 H   0  0  0  0  0  0  0  0  0  0  0  0
  149.1513  141.7460  156.2678 H   0  0  0  0  0  0  0  0  0  0  0  0
  151.8147  141.6325  157.3223 H   0  0  0  0  0  0  0  0  0  0  0  0
  150.3837  141.3535  158.2882 H   0  0  0  0  0  0  0  0  0  0  0  0
  152.4160  140.4185  159.3756 H   0  0  0  0  0  0  0  0  0  0  0  0
  151.2355  139.1629  159.0438 H   0  0  0  0  0  0  0  0  0  0  0  0
  153.0976  137.9813  156.1428 H   0  0  0  0  0  0  0  0  0  0  0  0
  151.6444  137.6917  157.0829 H   0  0  0  0  0  0  0  0  0  0  0  0
  151.0781  138.9003  154.9835 H   0  0  0  0  0  0  0  0  0  0  0  0
  152.2393  140.1549  155.3537 H   0  0  0  0  0  0  0  0  0  0  0  0
  143.7642  137.3334  157.1406 H   0  0  0  0  0  0  0  0  0  0  0  0
  1  2  1  0  0  0  0
  1 30  1  0  0  0  0
  1 31  1  0  0  0  0
  1 32  1  0  0  0  0
  2  6  1  0  0  0  0
  2  3  1  0  0  0  0
  2 33  1  0  0  0  0
  3  4  1  0  0  0  0
  4  5  1  0  0  0  0
  4 34  1  0  0  0  0
  4 35  1  0  0  0  0
  5  6  1  0  0  0  0
  5 36  1  0  0  0  0
  5 37  1  0  0  0  0
  6  7  1  0  0  0  0
  6  8  1  0  0  0  0
  7 38  1  0  0  0  0
  8  9  1  0  0  0  0
  8 39  1  0  0  0  0
  8 40  1  0  0  0  0
  9 29  1  0  0  0  0
  9 10  1  0  0  0  0
 10 11  2  0  0  0  0
 10 41  1  0  0  0  0
 11 12  1  0  0  0  0
 12 29  2  0  0  0  0
 12 13  1  0  0  0  0
 13 14  1  0  0  0  0
 13 26  2  0  0  0  0
 14 15  1  0  0  0  0
 14 16  1  0  0  0  0
 15 42  1  0  0  0  0
 15 43  1  0  0  0  0
 15 44  1  0  0  0  0
 16 17  1  0  0  0  0
 16 45  1  0  0  0  0
 16 46  1  0  0  0  0
 17 18  1  0  0  0  0
 17 19  1  0  0  0  0
 17 47  1  0  0  0  0
 18 48  1  0  0  0  0
 19 20  1  0  0  0  0
 19 49  1  0  0  0  0
 19 50  1  0  0  0  0
 20 25  1  0  0  0  0
 20 21  1  0  0  0  0
 21 22  1  0  0  0  0
 21 51  1  0  0  0  0
 21 52  1  0  0  0  0
 22 23  1  0  0  0  0
 22 53  1  0  0  0  0
 22 54  1  0  0  0  0
 23 24  1  0  0  0  0
 24 25  1  0  0  0  0
 24 55  1  0  0  0  0
 24 56  1  0  0  0  0
 25 57  1  0  0  0  0
 25 58  1  0  0  0  0
 26 27  1  0  0  0  0
 27 28  2  0  0  0  0
 27 59  1  0  0  0  0
 28 29  1  0  0  0  0
M  END
> <s_m_source_file>
AV-unprocessed.smi

> <i_m_source_file_index>
153

> <i_lp_mmshare_version>
43012

> <i_f3d_flags>
0

> <s_epik_input>
W0NIMl0xW0NIMl1PW0NAQEhdKFtDSDNdKVtDQEBdMShbT0hdKVtDSDJdbihbY0hdbjIpYyhjMjMpbltjSF1uYzNOKFtDSDNdKVtDSDJdW0NASF0oW09IXSlbQ0gyXU40W0NIMl1bQ0gyXU9bQ0gyXVtDSDJdNA==

> <s_epik_cmdline>
J2VwaWtfcHl0aG9uJywgJy1waCcsICc3LjAnLCAnLXRuJywgJzgnLCAnLW1hJywgJzIwMCcsICctbWV0YWxfYmluZGluZycsICctaW1hZScsICc8aW5maWxlLm1hZT4nLCAnLW9tYWUnLCAnPG91dGZpbGUubWFlPic=

> <r_lp_tautomer_probability>
1

> <r_epik_Ionization_Penalty>
0.424123

> <r_epik_Ionization_Penalty_Charging>
0

> <r_epik_Ionization_Penalty_Neutral>
0.424123

> <r_epik_State_Penalty>
0.421495

> <r_epik_Charging_Adjusted_Penalty>
0.421495

> <i_epik_Tot_Q>
0

> <i_epik_Tot_abs_Q>
0

> <r_epik_Metal_State_Penalty>
0.421223

> <b_epik_Metal_Only>
0

> <s_lp_Force_Field>
OPLS_2005

> <r_lp_Energy>
51.9128

> <b_lp_Chiralities_Consistent>
1

> <s_lp_Variant>
AV-unprocessed.smi:153-13

> <Gold.Version>
5.8.1

> <Gold.Id.Protein>
6NUR|6NUR_protein|mol2

> <Gold.PLP.Fitness>
49.6880

> <Gold.PLP.PLP>
-38.0575

> <Gold.PLP.part.hbond>
-5.3780

> <Gold.PLP.part.metal>
0.0000

> <Gold.PLP.part.buried>
-2.3539

> <Gold.PLP.part.nonpolar>
-30.9551

> <Gold.PLP.part.repulsive>
0.4071

> <Gold.PLP.ligand.clash>
0.0000

> <Gold.PLP.ligand.torsion>
1.4410

> <Gold.PLP.Chemscore.Hbond>
3.8928

> <Gold.PLP.Chemscore.CHOScore>
0.6539

> <Gold.PLP.Chemscore.Metal>
0.0000

> <Gold.Chemscore.Hbonds>
donor molecule, donor type, donor heavy atom, donor atom, acceptor molecule, acceptor atom, score
      L1  H     7    38       P1 10171  0.50
      L1  H    18    48       P1  7957  0.78
      P1  H  7989  7998       L1    18  0.13
      P1  H  7997  8008       L1    23  0.50
      P1  H  8011  8017       L1    18  1.00
      L1  C    10    41       P1 10171  0.24

> <Gold.PLP.Chemscore.Internal.Correction>
0.8726

> <Gold.Rescore>
     Score         DG    S(hbond)    S(metal)    S(lipo)     H(rot)  DE(clash)    DE(int)     intcor
     11.06     -14.35       2.74        0.00      74.46       3.52       0.58       2.71       ----

> <Gold.Chemscore.Fitness>
11.0612

> <Gold.Chemscore.DG>
-14.3498

> <Gold.Chemscore.ZeroCoef>
-5.4800

> <Gold.Chemscore.Hbond>
2.7429

> <Gold.Chemscore.Metal>
0.0000

> <Gold.Chemscore.Lipo>
74.4638

> <Gold.Chemscore.Internal_Hbond>
0.0000

> <Gold.Chemscore.DEClash>
0.5833

> <Gold.Chemscore.DEInternal>
2.7053

> <Gold.Chemscore.Rot>
3.5170

> <Gold.Chemscore.Internal.Correction>
   9.000000E+99

> <Gold.Chemscore.Hbonds>
donor molecule, donor type, donor heavy atom, donor atom, acceptor molecule, acceptor atom, score
      L1  H     7    38       P1 10171  0.50
      L1  H    18    48       P1  7957  0.75
      P1  H  7989  7998       L1    18  0.01
      P1  H  7997  8008       L1    23  0.04
      P1  H  8011  8017       L1    18  0.35

> <Gold.Chemscore.Hbond.Weighted>
-9.1612

> <Gold.Chemscore.Metal.Weighted>
-0.0000

> <Gold.Chemscore.Lipo.Weighted>
-8.7123

> <Gold.Chemscore.Internal_Hbond.Weighted>
0.0000

> <Gold.Chemscore.DEClash.Weighted>
0.5833

> <Gold.Chemscore.DEInternal.Weighted>
2.7053

> <Gold.Chemscore.Rot.Weighted>
9.0036

> <Gold.Chemscore.Internal.Correction.Weighted>
   9.000000E+99

> <Gold.Protein.RotatedTorsions>
[ 6907 6896 6895 6894 ] final   69.22 input  -60.11 | X-H torsion
[ 7974 7965 7964 7962 ] final   -3.62 input  175.53 | X-H torsion
[ 8008 7997 7996 7995 ] final  -54.19 input   59.86 | X-H torsion
[ 10167 10162 10161 10158 ] final  156.83 input  -65.29 | X-H torsion
[ 10718 10713 10712 10709 ] final -147.82 input   66.30 | X-H torsion
[ 10763 10752 10751 10750 ] final  179.41 input  -60.55 | X-H torsion
[ 11005 11000 10999 10996 ] final  -88.93 input  -57.11 | X-H torsion

> <Gold.Protein.ActiveResidues>
 VAL166  LYS551  ARG553  GLY616  TRP617  ASP618  TYR619  PRO620  LYS621  CYS622 
 ASP623  PHE694  ASN695  SER759  ASP760  ASP761  ALA762  ILE779  LEU786  VAL792 
 PHE793  MET794  SER795  GLU796  ALA797  LYS798  CYS799  TRP800  GLU811  SER814 

> <Gold.Protein.RotatedAtoms>
  152.4672  134.5048  159.9735 H   0  0  0  0  0  0  0  0  0  0  0  0  # atno 6907 bound_to 6896
  151.5083  133.3484  159.2888 H   0  0  0  0  0  0  0  0  0  0  0  0  # atno 6908 bound_to 6896
  150.8662  134.8054  159.7182 H   0  0  0  0  0  0  0  0  0  0  0  0  # atno 6909 bound_to 6896
  146.2386  140.1748  142.8332 H   0  0  0  0  0  0  0  0  0  0  0  0  # atno 7974 bound_to 7965
  154.4155  140.1182  156.5275 H   0  0  0  0  0  0  0  0  0  0  0  0  # atno 8008 bound_to 7997
  155.6639  140.3496  155.4774 H   0  0  0  0  0  0  0  0  0  0  0  0  # atno 8009 bound_to 7997
  155.9690  140.1137  157.0819 H   0  0  0  0  0  0  0  0  0  0  0  0  # atno 8010 bound_to 7997
  139.4822  144.4973  151.8221 H   0  0  0  0  0  0  0  0  0  0  0  0  # atno 10167 bound_to 10162
  156.4124  130.7988  151.2206 H   0  0  0  0  0  0  0  0  0  0  0  0  # atno 10718 bound_to 10713
  154.5203  135.2793  155.1268 H   0  0  0  0  0  0  0  0  0  0  0  0  # atno 10763 bound_to 10752
  154.2828  135.6282  153.5357 H   0  0  0  0  0  0  0  0  0  0  0  0  # atno 10764 bound_to 10752
  152.9935  135.5655  154.5691 H   0  0  0  0  0  0  0  0  0  0  0  0  # atno 10765 bound_to 10752
  141.1593  133.7599  156.9522 H   0  0  0  0  0  0  0  0  0  0  0  0  # atno 11005 bound_to 11000
  144.9982  140.8608  143.5298 LP  0  0  0  0  0  0  0  0  0  0  0  0  # atno 17320 bound_to 7965
  145.1764  139.2376  143.5315 LP  0  0  0  0  0  0  0  0  0  0  0  0  # atno 17321 bound_to 7965
  140.4463  144.1917  150.5894 LP  0  0  0  0  0  0  0  0  0  0  0  0  # atno 17342 bound_to 10162
  140.4631  143.2441  151.9192 LP  0  0  0  0  0  0  0  0  0  0  0  0  # atno 17343 bound_to 10162
  157.7507  131.0253  150.3914 LP  0  0  0  0  0  0  0  0  0  0  0  0  # atno 17370 bound_to 10713
  156.4215  130.3954  149.6821 LP  0  0  0  0  0  0  0  0  0  0  0  0  # atno 17371 bound_to 10713
  140.1249  134.9393  157.2256 LP  0  0  0  0  0  0  0  0  0  0  0  0  # atno 17394 bound_to 11000
  140.3025  134.3115  155.7286 LP  0  0  0  0  0  0  0  0  0  0  0  0  # atno 17395 bound_to 11000

$$$$
