AV-unprocessed.smi:490|AV-procd|sdf|2704|dock2
  -GOLD-   2262023143D 1   1.00000     0.00000
 Structure written by MMmdl.
 49 51  0  0  0  0  0  0  0  0  1 V2000
  153.6226  134.8749  165.4981 C   0  0  0  0  0  0  0  0  0  0  0  0
  153.9248  135.0738  164.0226 C   0  0  0  0  0  0  0  0  0  0  0  0
  154.6480  134.0798  163.3324 C   0  0  0  0  0  0  0  0  0  0  0  0
  154.9428  134.2326  161.9665 C   0  0  0  0  0  0  0  0  0  0  0  0
  154.5065  135.3775  161.2724 C   0  0  0  0  0  0  0  0  0  0  0  0
  154.8270  135.5319  159.7976 C   0  0  0  0  0  0  0  0  0  0  0  0
  153.7680  136.3731  161.9507 C   0  0  0  0  0  0  0  0  0  0  0  0
  153.3412  137.4741  161.2518 O   0  0  0  0  0  0  0  0  0  0  0  0
  154.3959  138.3209  160.8144 C   0  0  0  0  0  0  0  0  0  0  0  0
  153.7922  139.6391  160.2948 C   0  0  1  0  0  0  0  0  0  0  0  0
  154.8271  140.4111  159.7222 O   0  0  0  0  0  0  0  0  0  0  0  0
  152.6938  139.4533  159.2256 C   0  0  0  0  0  0  0  0  0  0  0  0
  152.3857  140.6842  158.5063 N   0  0  0  0  0  0  0  0  0  0  0  0
  152.1450  140.8390  157.1791 C   0  0  0  0  0  0  0  0  0  0  0  0
  152.1358  139.6848  156.2233 C   0  0  0  0  0  0  0  0  0  0  0  0
  151.8438  140.0776  154.8994 O   0  0  0  0  0  0  0  0  0  0  0  0
  151.9027  142.0859  156.7741 N   0  0  0  0  0  0  0  0  0  0  0  0
  151.9749  142.8067  157.9493 C   0  0  0  0  0  0  0  0  0  0  0  0
  151.8129  144.1902  158.1873 C   0  0  0  0  0  0  0  0  0  0  0  0
  151.9327  144.7088  159.4931 C   0  0  0  0  0  0  0  0  0  0  0  0
  152.2131  143.8528  160.5776 C   0  0  0  0  0  0  0  0  0  0  0  0
  152.3781  142.4712  160.3622 C   0  0  0  0  0  0  0  0  0  0  0  0
  152.2641  141.9584  159.0555 C   0  0  0  0  0  0  0  0  0  0  0  0
  153.4915  136.2354  163.3360 C   0  0  0  0  0  0  0  0  0  0  0  0
  152.7351  137.3248  164.0863 C   0  0  0  0  0  0  0  0  0  0  0  0
  153.9368  133.8879  165.8387 H   0  0  0  0  0  0  0  0  0  0  0  0
  152.5524  134.9663  165.6863 H   0  0  0  0  0  0  0  0  0  0  0  0
  154.1465  135.6187  166.0985 H   0  0  0  0  0  0  0  0  0  0  0  0
  154.9849  133.1934  163.8497 H   0  0  0  0  0  0  0  0  0  0  0  0
  155.5031  133.4642  161.4541 H   0  0  0  0  0  0  0  0  0  0  0  0
  155.3144  136.4894  159.6127 H   0  0  0  0  0  0  0  0  0  0  0  0
  153.9132  135.4904  159.2050 H   0  0  0  0  0  0  0  0  0  0  0  0
  155.4933  134.7422  159.4501 H   0  0  0  0  0  0  0  0  0  0  0  0
  155.1107  138.4956  161.6198 H   0  0  0  0  0  0  0  0  0  0  0  0
  154.9513  137.8226  160.0227 H   0  0  0  0  0  0  0  0  0  0  0  0
  153.3800  140.1998  161.1332 H   0  0  0  0  0  0  0  0  0  0  0  0
  155.2627  140.8860  160.4136 H   0  0  0  0  0  0  0  0  0  0  0  0
  152.9980  138.6990  158.4993 H   0  0  0  0  0  0  0  0  0  0  0  0
  151.7794  139.0758  159.6845 H   0  0  0  0  0  0  0  0  0  0  0  0
  153.1134  139.2014  156.2339 H   0  0  0  0  0  0  0  0  0  0  0  0
  151.4151  138.9346  156.5449 H   0  0  0  0  0  0  0  0  0  0  0  0
  151.0051  139.7157  154.6574 H   0  0  0  0  0  0  0  0  0  0  0  0
  151.5960  144.8536  157.3632 H   0  0  0  0  0  0  0  0  0  0  0  0
  151.8081  145.7681  159.6636 H   0  0  0  0  0  0  0  0  0  0  0  0
  152.3031  144.2579  161.5749 H   0  0  0  0  0  0  0  0  0  0  0  0
  152.5983  141.8150  161.1911 H   0  0  0  0  0  0  0  0  0  0  0  0
  152.6458  138.2443  163.5086 H   0  0  0  0  0  0  0  0  0  0  0  0
  153.2457  137.5815  165.0142 H   0  0  0  0  0  0  0  0  0  0  0  0
  151.7298  136.9819  164.3311 H   0  0  0  0  0  0  0  0  0  0  0  0
  1  2  1  0  0  0  0
  1 26  1  0  0  0  0
  1 27  1  0  0  0  0
  1 28  1  0  0  0  0
  2 24  1  0  0  0  0
  2  3  2  0  0  0  0
  3  4  1  0  0  0  0
  3 29  1  0  0  0  0
  4  5  2  0  0  0  0
  4 30  1  0  0  0  0
  5  6  1  0  0  0  0
  5  7  1  0  0  0  0
  6 31  1  0  0  0  0
  6 32  1  0  0  0  0
  6 33  1  0  0  0  0
  7  8  1  0  0  0  0
  7 24  2  0  0  0  0
  8  9  1  0  0  0  0
  9 10  1  0  0  0  0
  9 34  1  0  0  0  0
  9 35  1  0  0  0  0
 10 11  1  0  0  0  0
 10 12  1  0  0  0  0
 10 36  1  0  0  0  0
 11 37  1  0  0  0  0
 12 13  1  0  0  0  0
 12 38  1  0  0  0  0
 12 39  1  0  0  0  0
 13 23  1  0  0  0  0
 13 14  1  0  0  0  0
 14 15  1  0  0  0  0
 14 17  2  0  0  0  0
 15 16  1  0  0  0  0
 15 40  1  0  0  0  0
 15 41  1  0  0  0  0
 16 42  1  0  0  0  0
 17 18  1  0  0  0  0
 18 23  2  0  0  0  0
 18 19  1  0  0  0  0
 19 20  2  0  0  0  0
 19 43  1  0  0  0  0
 20 21  1  0  0  0  0
 20 44  1  0  0  0  0
 21 22  2  0  0  0  0
 21 45  1  0  0  0  0
 22 23  1  0  0  0  0
 22 46  1  0  0  0  0
 24 25  1  0  0  0  0
 25 47  1  0  0  0  0
 25 48  1  0  0  0  0
 25 49  1  0  0  0  0
M  END
> <s_m_source_file>
AV-unprocessed.smi

> <i_m_source_file_index>
490

> <i_lp_mmshare_version>
43012

> <i_f3d_flags>
0

> <s_epik_input>
W0NIM11jMVtjSF1bY0hdYyhbQ0gzXSljKGMxW0NIM10pT1tDSDJdW0NASF0oW09IXSlbQ0gyXW4oYyhuMilbQ0gyXVtPSF0pYyhjMjMpW2NIXVtjSF1bY0hdW2NIXTM=

> <s_epik_cmdline>
J2VwaWtfcHl0aG9uJywgJy1waCcsICc3LjAnLCAnLXRuJywgJzgnLCAnLW1hJywgJzIwMCcsICctbWV0YWxfYmluZGluZycsICctaW1hZScsICc8aW5maWxlLm1hZT4nLCAnLW9tYWUnLCAnPG91dGZpbGUubWFlPic=

> <r_lp_tautomer_probability>
1

> <r_epik_Ionization_Penalty>
0.0555874

> <r_epik_Ionization_Penalty_Charging>
0

> <r_epik_Ionization_Penalty_Neutral>
0.0555874

> <r_epik_State_Penalty>
0.0478234

> <r_epik_Charging_Adjusted_Penalty>
0.0478234

> <i_epik_Tot_Q>
0

> <i_epik_Tot_abs_Q>
0

> <r_epik_Metal_State_Penalty>
4.98044e-05

> <b_epik_Metal_Only>
0

> <s_lp_Force_Field>
OPLS_2005

> <r_lp_Energy>
21.221

> <b_lp_Chiralities_Consistent>
1

> <s_lp_Variant>
AV-unprocessed.smi:490-2

> <Gold.Version>
5.8.1

> <Gold.Id.Protein>
6NUR|6NUR_protein|mol2

> <Gold.PLP.Fitness>
52.2066

> <Gold.PLP.PLP>
-47.7772

> <Gold.PLP.part.hbond>
-2.0000

> <Gold.PLP.part.metal>
0.0000

> <Gold.PLP.part.buried>
-4.3471

> <Gold.PLP.part.nonpolar>
-40.5736

> <Gold.PLP.part.repulsive>
0.0607

> <Gold.PLP.ligand.clash>
0.0089

> <Gold.PLP.ligand.torsion>
0.4806

> <Gold.PLP.Chemscore.Hbond>
1.7196

> <Gold.PLP.Chemscore.CHOScore>
0.0000

> <Gold.PLP.Chemscore.Metal>
0.0000

> <Gold.Chemscore.Hbonds>
donor molecule, donor type, donor heavy atom, donor atom, acceptor molecule, acceptor atom, score
      P1  H  7989  7998       L1    16  0.14
      P1  H  7997  8009       L1    11  0.03

> <Gold.PLP.Chemscore.Internal.Correction>
0.2407

> <Gold.Rescore>
     Score         DG    S(hbond)    S(metal)    S(lipo)     H(rot)  DE(clash)    DE(int)     intcor
     18.30     -19.09       1.83        0.00     128.22       2.93       0.14       0.65       ----

> <Gold.Chemscore.Fitness>
18.3034

> <Gold.Chemscore.DG>
-19.0920

> <Gold.Chemscore.ZeroCoef>
-5.4800

> <Gold.Chemscore.Hbond>
1.8279

> <Gold.Chemscore.Metal>
0.0000

> <Gold.Chemscore.Lipo>
128.2249

> <Gold.Chemscore.Internal_Hbond>
0.0000

> <Gold.Chemscore.DEClash>
0.1407

> <Gold.Chemscore.DEInternal>
0.6479

> <Gold.Chemscore.Rot>
2.9279

> <Gold.Chemscore.Internal.Correction>
   9.000000E+99

> <Gold.Chemscore.Hbonds>
donor molecule, donor type, donor heavy atom, donor atom, acceptor molecule, acceptor atom, score
      P1  H  7997  8009       L1    11  0.07

> <Gold.Chemscore.Hbond.Weighted>
-6.1051

> <Gold.Chemscore.Metal.Weighted>
-0.0000

> <Gold.Chemscore.Lipo.Weighted>
-15.0023

> <Gold.Chemscore.Internal_Hbond.Weighted>
0.0000

> <Gold.Chemscore.DEClash.Weighted>
0.1407

> <Gold.Chemscore.DEInternal.Weighted>
0.6479

> <Gold.Chemscore.Rot.Weighted>
7.4954

> <Gold.Chemscore.Internal.Correction.Weighted>
   9.000000E+99

> <Gold.Protein.RotatedTorsions>
[ 6907 6896 6895 6894 ] final  -72.98 input  -60.11 | X-H torsion
[ 7974 7965 7964 7962 ] final   89.35 input  175.53 | X-H torsion
[ 8008 7997 7996 7995 ] final  115.50 input   59.86 | X-H torsion
[ 10167 10162 10161 10158 ] final  -80.10 input  -65.29 | X-H torsion
[ 10718 10713 10712 10709 ] final  142.53 input   66.30 | X-H torsion
[ 10763 10752 10751 10750 ] final  124.58 input  -60.55 | X-H torsion
[ 11005 11000 10999 10996 ] final  -30.83 input  -57.11 | X-H torsion

> <Gold.Protein.ActiveResidues>
 VAL166  LYS551  ARG553  GLY616  TRP617  ASP618  TYR619  PRO620  LYS621  CYS622 
 ASP623  PHE694  ASN695  SER759  ASP760  ASP761  ALA762  ILE779  LEU786  VAL792 
 PHE793  MET794  SER795  GLU796  ALA797  LYS798  CYS799  TRP800  GLU811  SER814 

> <Gold.Protein.RotatedAtoms>
  150.7148  134.5084  159.5594 H   0  0  0  0  0  0  0  0  0  0  0  0  # atno 6907 bound_to 6896
  152.2666  134.7975  160.0430 H   0  0  0  0  0  0  0  0  0  0  0  0  # atno 6908 bound_to 6896
  151.8670  133.3433  159.3759 H   0  0  0  0  0  0  0  0  0  0  0  0  # atno 6909 bound_to 6896
  145.5335  139.2284  143.2605 H   0  0  0  0  0  0  0  0  0  0  0  0  # atno 7974 bound_to 7965
  156.2385  140.2937  156.0379 H   0  0  0  0  0  0  0  0  0  0  0  0  # atno 8008 bound_to 7997
  155.2021  140.0410  157.2936 H   0  0  0  0  0  0  0  0  0  0  0  0  # atno 8009 bound_to 7997
  154.6124  140.2455  155.7660 H   0  0  0  0  0  0  0  0  0  0  0  0  # atno 8010 bound_to 7997
  140.4533  143.2476  151.8456 H   0  0  0  0  0  0  0  0  0  0  0  0  # atno 10167 bound_to 10162
  157.3795  131.0990  151.0752 H   0  0  0  0  0  0  0  0  0  0  0  0  # atno 10718 bound_to 10713
  153.6637  135.3342  155.3134 H   0  0  0  0  0  0  0  0  0  0  0  0  # atno 10763 bound_to 10752
  154.8508  135.4370  154.1777 H   0  0  0  0  0  0  0  0  0  0  0  0  # atno 10764 bound_to 10752
  153.2751  135.7004  153.7517 H   0  0  0  0  0  0  0  0  0  0  0  0  # atno 10765 bound_to 10752
  140.9416  133.7275  156.1084 H   0  0  0  0  0  0  0  0  0  0  0  0  # atno 11005 bound_to 11000
  146.2028  140.6153  142.9094 LP  0  0  0  0  0  0  0  0  0  0  0  0  # atno 17320 bound_to 7965
  144.7613  140.5429  143.6733 LP  0  0  0  0  0  0  0  0  0  0  0  0  # atno 17321 bound_to 7965
  139.4799  144.5094  151.8953 LP  0  0  0  0  0  0  0  0  0  0  0  0  # atno 17342 bound_to 10162
  140.4181  144.2280  150.5887 LP  0  0  0  0  0  0  0  0  0  0  0  0  # atno 17343 bound_to 10162
  157.1826  130.6316  149.5677 LP  0  0  0  0  0  0  0  0  0  0  0  0  # atno 17370 bound_to 10713
  155.9773  130.4748  150.6582 LP  0  0  0  0  0  0  0  0  0  0  0  0  # atno 17371 bound_to 10713
  140.7726  134.3815  157.5504 LP  0  0  0  0  0  0  0  0  0  0  0  0  # atno 17394 bound_to 11000
  139.8822  134.9032  156.2849 LP  0  0  0  0  0  0  0  0  0  0  0  0  # atno 17395 bound_to 11000

$$$$
