AV-unprocessed.smi:434|AV-procd|sdf|2553|dock4
  -GOLD-   2262022523D 1   1.00000     0.00000
 Structure written by MMmdl.
 39 41  0  0  0  0  0  0  0  0  1 V2000
  151.8292  139.0686  155.9593 C   0  0  0  0  0  0  0  0  0  0  0  0
  151.9808  140.1772  156.9521 C   0  0  0  0  0  0  0  0  0  0  0  0
  152.7824  140.0775  158.0124 N   0  0  0  0  0  0  0  0  0  0  0  0
  152.6217  141.3030  158.6297 C   0  0  0  0  0  0  0  0  0  0  0  0
  153.2045  141.8209  159.8086 C   0  0  0  0  0  0  0  0  0  0  0  0
  152.8839  143.1209  160.2518 C   0  0  0  0  0  0  0  0  0  0  0  0
  151.9770  143.9195  159.5252 C   0  0  0  0  0  0  0  0  0  0  0  0
  151.3846  143.4228  158.3482 C   0  0  0  0  0  0  0  0  0  0  0  0
  151.7084  142.1248  157.9095 C   0  0  0  0  0  0  0  0  0  0  0  0
  151.3116  141.3494  156.8239 N   0  0  0  0  0  0  0  0  0  0  0  0
  150.3745  141.7344  155.7766 C   0  0  0  0  0  0  0  0  0  0  0  0
  149.1429  140.8088  155.7081 C   0  0  1  0  0  0  0  0  0  0  0  0
  148.3540  141.0040  156.8655 O   0  0  0  0  0  0  0  0  0  0  0  0
  148.2760  141.0972  154.4724 C   0  0  0  0  0  0  0  0  0  0  0  0
  147.2737  142.0383  154.8201 O   0  0  0  0  0  0  0  0  0  0  0  0
  146.5990  142.5622  153.6899 C   0  0  0  0  0  0  0  0  0  0  0  0
  145.6030  143.5435  154.2078 C   0  0  0  0  0  0  0  0  0  0  0  0
  145.0794  143.7885  155.4474 C   0  0  0  0  0  0  0  0  0  0  0  0
  144.1690  144.8703  155.2915 C   0  0  0  0  0  0  0  0  0  0  0  0
  144.2063  145.2056  153.9679 C   0  0  0  0  0  0  0  0  0  0  0  0
  145.0766  144.4061  153.2930 O   0  0  0  0  0  0  0  0  0  0  0  0
  152.3953  138.1920  156.2759 H   0  0  0  0  0  0  0  0  0  0  0  0
  152.2017  139.3830  154.9841 H   0  0  0  0  0  0  0  0  0  0  0  0
  150.7822  138.7825  155.8636 H   0  0  0  0  0  0  0  0  0  0  0  0
  153.8992  141.2167  160.3731 H   0  0  0  0  0  0  0  0  0  0  0  0
  153.3356  143.5065  161.1540 H   0  0  0  0  0  0  0  0  0  0  0  0
  151.7356  144.9135  159.8727 H   0  0  0  0  0  0  0  0  0  0  0  0
  150.6876  144.0313  157.7914 H   0  0  0  0  0  0  0  0  0  0  0  0
  150.0640  142.7659  155.9487 H   0  0  0  0  0  0  0  0  0  0  0  0
  150.9009  141.7355  154.8218 H   0  0  0  0  0  0  0  0  0  0  0  0
  149.4760  139.7708  155.6820 H   0  0  0  0  0  0  0  0  0  0  0  0
  148.8542  140.7287  157.6186 H   0  0  0  0  0  0  0  0  0  0  0  0
  148.8830  141.4498  153.6363 H   0  0  0  0  0  0  0  0  0  0  0  0
  147.7819  140.1799  154.1479 H   0  0  0  0  0  0  0  0  0  0  0  0
  147.3016  143.0511  153.0131 H   0  0  0  0  0  0  0  0  0  0  0  0
  146.0962  141.7665  153.1384 H   0  0  0  0  0  0  0  0  0  0  0  0
  145.3228  143.2556  156.3546 H   0  0  0  0  0  0  0  0  0  0  0  0
  143.5645  145.3438  156.0509 H   0  0  0  0  0  0  0  0  0  0  0  0
  143.7040  145.9500  153.3679 H   0  0  0  0  0  0  0  0  0  0  0  0
  1  2  1  0  0  0  0
  1 22  1  0  0  0  0
  1 23  1  0  0  0  0
  1 24  1  0  0  0  0
  2 10  1  0  0  0  0
  2  3  2  0  0  0  0
  3  4  1  0  0  0  0
  4  9  2  0  0  0  0
  4  5  1  0  0  0  0
  5  6  2  0  0  0  0
  5 25  1  0  0  0  0
  6  7  1  0  0  0  0
  6 26  1  0  0  0  0
  7  8  2  0  0  0  0
  7 27  1  0  0  0  0
  8  9  1  0  0  0  0
  8 28  1  0  0  0  0
  9 10  1  0  0  0  0
 10 11  1  0  0  0  0
 11 12  1  0  0  0  0
 11 29  1  0  0  0  0
 11 30  1  0  0  0  0
 12 13  1  0  0  0  0
 12 14  1  0  0  0  0
 12 31  1  0  0  0  0
 13 32  1  0  0  0  0
 14 15  1  0  0  0  0
 14 33  1  0  0  0  0
 14 34  1  0  0  0  0
 15 16  1  0  0  0  0
 16 17  1  0  0  0  0
 16 35  1  0  0  0  0
 16 36  1  0  0  0  0
 17 21  1  0  0  0  0
 17 18  2  0  0  0  0
 18 19  1  0  0  0  0
 18 37  1  0  0  0  0
 19 20  2  0  0  0  0
 19 38  1  0  0  0  0
 20 21  1  0  0  0  0
 20 39  1  0  0  0  0
M  END
> <s_m_source_file>
AV-unprocessed.smi

> <i_m_source_file_index>
434

> <i_lp_mmshare_version>
43012

> <i_f3d_flags>
0

> <s_epik_input>
W2NIXTFbY0hdW2NIXVtjSF1jKGMxMiluKGMobjIpW0NIM10pW0NIMl1bQ0BIXShbT0hdKVtDSDJdT1tDSDJdYzNbY0hdW2NIXVtjSF1vMw==

> <s_epik_cmdline>
J2VwaWtfcHl0aG9uJywgJy1waCcsICc3LjAnLCAnLXRuJywgJzgnLCAnLW1hJywgJzIwMCcsICctbWV0YWxfYmluZGluZycsICctaW1hZScsICc8aW5maWxlLm1hZT4nLCAnLW9tYWUnLCAnPG91dGZpbGUubWFlPic=

> <r_epik_Ionization_Penalty>
0.126634

> <r_epik_Ionization_Penalty_Charging>
0

> <r_epik_Ionization_Penalty_Neutral>
0.126634

> <r_epik_State_Penalty>
0.116082

> <r_epik_Charging_Adjusted_Penalty>
0.116082

> <i_epik_Tot_Q>
0

> <i_epik_Tot_abs_Q>
0

> <r_epik_Metal_State_Penalty>
0.00012822

> <b_epik_Metal_Only>
0

> <s_lp_Force_Field>
OPLS_2005

> <r_lp_Energy>
9.69126

> <b_lp_Chiralities_Consistent>
1

> <s_lp_Variant>
AV-unprocessed.smi:434-2

> <Gold.Version>
5.8.1

> <Gold.Id.Protein>
6NUR|6NUR_protein|mol2

> <Gold.PLP.Fitness>
46.0427

> <Gold.PLP.PLP>
-44.3580

> <Gold.PLP.part.hbond>
-1.0000

> <Gold.PLP.part.metal>
0.0000

> <Gold.PLP.part.buried>
-8.0201

> <Gold.PLP.part.nonpolar>
-35.6188

> <Gold.PLP.part.repulsive>
0.3201

> <Gold.PLP.ligand.clash>
0.0000

> <Gold.PLP.ligand.torsion>
0.6882

> <Gold.PLP.Chemscore.Hbond>
1.0000

> <Gold.PLP.Chemscore.CHOScore>
0.0000

> <Gold.PLP.Chemscore.Metal>
0.0000

> <Gold.Chemscore.Hbonds>
donor molecule, donor type, donor heavy atom, donor atom, acceptor molecule, acceptor atom, score
      P1  H  7997  8009       L1     3  0.85

> <Gold.PLP.Chemscore.Internal.Correction>
0.0611

> <Gold.Rescore>
     Score         DG    S(hbond)    S(metal)    S(lipo)     H(rot)  DE(clash)    DE(int)     intcor
     13.61     -14.33       0.32        0.00     118.15       2.36       0.14       0.58       ----

> <Gold.Chemscore.Fitness>
13.6084

> <Gold.Chemscore.DG>
-14.3343

> <Gold.Chemscore.ZeroCoef>
-5.4800

> <Gold.Chemscore.Hbond>
0.3205

> <Gold.Chemscore.Metal>
0.0000

> <Gold.Chemscore.Lipo>
118.1455

> <Gold.Chemscore.Internal_Hbond>
0.0000

> <Gold.Chemscore.DEClash>
0.1435

> <Gold.Chemscore.DEInternal>
0.5824

> <Gold.Chemscore.Rot>
2.3591

> <Gold.Chemscore.Internal.Correction>
   9.000000E+99

> <Gold.Chemscore.Hbonds>
donor molecule, donor type, donor heavy atom, donor atom, acceptor molecule, acceptor atom, score
      P1  H  7997  8009       L1     3  0.11

> <Gold.Chemscore.Hbond.Weighted>
-1.0705

> <Gold.Chemscore.Metal.Weighted>
-0.0000

> <Gold.Chemscore.Lipo.Weighted>
-13.8230

> <Gold.Chemscore.Internal_Hbond.Weighted>
0.0000

> <Gold.Chemscore.DEClash.Weighted>
0.1435

> <Gold.Chemscore.DEInternal.Weighted>
0.5824

> <Gold.Chemscore.Rot.Weighted>
6.0393

> <Gold.Chemscore.Internal.Correction.Weighted>
   9.000000E+99

> <Gold.Protein.RotatedTorsions>
[ 6907 6896 6895 6894 ] final  103.69 input  -60.11 | X-H torsion
[ 7974 7965 7964 7962 ] final   -6.78 input  175.53 | X-H torsion
[ 8008 7997 7996 7995 ] final  154.78 input   59.86 | X-H torsion
[ 10167 10162 10161 10158 ] final -112.08 input  -65.29 | X-H torsion
[ 10718 10713 10712 10709 ] final  -50.74 input   66.30 | X-H torsion
[ 10763 10752 10751 10750 ] final -102.25 input  -60.55 | X-H torsion
[ 11005 11000 10999 10996 ] final   74.23 input  -57.11 | X-H torsion

> <Gold.Protein.ActiveResidues>
 VAL166  LYS551  ARG553  GLY616  TRP617  ASP618  TYR619  PRO620  LYS621  CYS622 
 ASP623  PHE694  ASN695  SER759  ASP760  ASP761  ALA762  ILE779  LEU786  VAL792 
 PHE793  MET794  SER795  GLU796  ALA797  LYS798  CYS799  TRP800  GLU811  SER814 

> <Gold.Protein.RotatedAtoms>
  152.5287  133.9788  159.7796 H   0  0  0  0  0  0  0  0  0  0  0  0  # atno 6907 bound_to 6896
  151.0045  133.6016  159.2697 H   0  0  0  0  0  0  0  0  0  0  0  0  # atno 6908 bound_to 6896
  151.3112  135.0801  159.9326 H   0  0  0  0  0  0  0  0  0  0  0  0  # atno 6909 bound_to 6896
  146.2323  140.2221  142.8338 H   0  0  0  0  0  0  0  0  0  0  0  0  # atno 7974 bound_to 7965
  156.2513  140.1957  156.6700 H   0  0  0  0  0  0  0  0  0  0  0  0  # atno 8008 bound_to 7997
  154.6400  140.0585  156.9860 H   0  0  0  0  0  0  0  0  0  0  0  0  # atno 8009 bound_to 7997
  155.1577  140.3257  155.4420 H   0  0  0  0  0  0  0  0  0  0  0  0  # atno 8010 bound_to 7997
  140.1266  143.4397  152.1655 H   0  0  0  0  0  0  0  0  0  0  0  0  # atno 10167 bound_to 10162
  156.1773  130.4150  149.9558 H   0  0  0  0  0  0  0  0  0  0  0  0  # atno 10718 bound_to 10713
  154.7720  135.4867  153.9667 H   0  0  0  0  0  0  0  0  0  0  0  0  # atno 10763 bound_to 10752
  153.1379  135.6766  153.9080 H   0  0  0  0  0  0  0  0  0  0  0  0  # atno 10764 bound_to 10752
  153.8763  135.3137  155.3422 H   0  0  0  0  0  0  0  0  0  0  0  0  # atno 10765 bound_to 10752
  139.9401  134.7415  156.1123 H   0  0  0  0  0  0  0  0  0  0  0  0  # atno 11005 bound_to 11000
  144.9624  140.8288  143.5505 LP  0  0  0  0  0  0  0  0  0  0  0  0  # atno 17320 bound_to 7965
  145.2193  139.2166  143.5101 LP  0  0  0  0  0  0  0  0  0  0  0  0  # atno 17321 bound_to 7965
  139.5541  144.7360  151.4347 LP  0  0  0  0  0  0  0  0  0  0  0  0  # atno 17342 bound_to 10162
  140.6841  143.8014  150.7162 LP  0  0  0  0  0  0  0  0  0  0  0  0  # atno 17343 bound_to 10162
  156.7340  130.9054  151.3628 LP  0  0  0  0  0  0  0  0  0  0  0  0  # atno 17370 bound_to 10713
  157.6844  130.9171  150.0349 LP  0  0  0  0  0  0  0  0  0  0  0  0  # atno 17371 bound_to 10713
  141.1032  133.6669  156.2802 LP  0  0  0  0  0  0  0  0  0  0  0  0  # atno 17394 bound_to 11000
  140.5974  134.5589  157.5511 LP  0  0  0  0  0  0  0  0  0  0  0  0  # atno 17395 bound_to 11000

$$$$
