AV-unprocessed.smi:123|AV-procd|sdf|1143|dock4
  -GOLD-   2262018273D 1   1.00000     0.00000
 Structure written by MMmdl.
 43 45  0  0  0  0  0  0  0  0  1 V2000
  147.0236  134.3257  159.5059 C   0  0  0  0  0  0  0  0  0  0  0  0
  146.5893  135.7943  159.6656 C   0  0  2  0  0  0  0  0  0  0  0  0
  147.3318  136.6673  158.7549 N   0  0  0  0  0  0  0  0  0  0  0  0
  148.6263  137.0151  158.8497 C   0  0  0  0  0  0  0  0  0  0  0  0
  149.3655  136.6363  159.7595 O   0  0  0  0  0  0  0  0  0  0  0  0
  149.1502  137.9413  157.7416 C   0  0  0  0  0  0  0  0  0  0  0  0
  150.2348  138.8406  158.1934 N   0  0  0  0  0  0  0  0  0  0  0  0
  151.4458  138.2610  158.6485 C   0  0  0  0  0  0  0  0  0  0  0  0
  151.6031  137.0391  158.6620 O   0  0  0  0  0  0  0  0  0  0  0  0
  152.4671  139.2022  159.0937 C   0  0  0  0  0  0  0  0  0  0  0  0
  153.6529  138.7426  159.5281 F   0  0  0  0  0  0  0  0  0  0  0  0
  152.2401  140.5313  159.0750 C   0  0  0  0  0  0  0  0  0  0  0  0
  151.0477  141.0817  158.6456 N   0  0  0  0  0  0  0  0  0  0  0  0
  150.8517  142.5792  158.6553 C   0  0  2  0  0  0  0  0  0  0  0  0
  151.8585  143.2595  157.7183 C   0  0  0  0  0  0  0  0  0  0  0  0
  152.8629  143.8453  158.6895 C   0  0  0  0  0  0  0  0  0  0  0  0
  151.9886  144.1409  159.9014 C   0  0  0  0  0  0  0  0  0  0  0  0
  151.0809  143.0475  159.9523 O   0  0  0  0  0  0  0  0  0  0  0  0
  150.0123  140.2389  158.1851 C   0  0  0  0  0  0  0  0  0  0  0  0
  148.9450  140.7074  157.7838 O   0  0  0  0  0  0  0  0  0  0  0  0
  146.6188  136.2834  161.0845 C   0  0  0  0  0  0  0  0  0  0  0  0
  146.9372  135.7041  162.2832 C   0  0  0  0  0  0  0  0  0  0  0  0
  146.7596  136.7061  163.2764 C   0  0  0  0  0  0  0  0  0  0  0  0
  146.3383  137.8226  162.6128 C   0  0  0  0  0  0  0  0  0  0  0  0
  146.2443  137.5811  161.2772 O   0  0  0  0  0  0  0  0  0  0  0  0
  146.3750  133.6626  160.0790 H   0  0  0  0  0  0  0  0  0  0  0  0
  148.0453  134.1647  159.8512 H   0  0  0  0  0  0  0  0  0  0  0  0
  146.9718  134.0123  158.4626 H   0  0  0  0  0  0  0  0  0  0  0  0
  145.5533  135.8515  159.3301 H   0  0  0  0  0  0  0  0  0  0  0  0
  146.8107  137.0375  157.9734 H   0  0  0  0  0  0  0  0  0  0  0  0
  149.4843  137.3315  156.9004 H   0  0  0  0  0  0  0  0  0  0  0  0
  148.3058  138.5032  157.3400 H   0  0  0  0  0  0  0  0  0  0  0  0
  153.0287  141.1865  159.4133 H   0  0  0  0  0  0  0  0  0  0  0  0
  149.8131  142.7762  158.3876 H   0  0  0  0  0  0  0  0  0  0  0  0
  152.2931  142.5635  156.9993 H   0  0  0  0  0  0  0  0  0  0  0  0
  151.3439  144.0526  157.1747 H   0  0  0  0  0  0  0  0  0  0  0  0
  153.6221  143.1044  158.9424 H   0  0  0  0  0  0  0  0  0  0  0  0
  153.3665  144.7309  158.3015 H   0  0  0  0  0  0  0  0  0  0  0  0
  152.5611  144.2307  160.8248 H   0  0  0  0  0  0  0  0  0  0  0  0
  151.4280  145.0651  159.7534 H   0  0  0  0  0  0  0  0  0  0  0  0
  147.2635  134.6849  162.4276 H   0  0  0  0  0  0  0  0  0  0  0  0
  146.9191  136.6211  164.3411 H   0  0  0  0  0  0  0  0  0  0  0  0
  146.0730  138.8230  162.9209 H   0  0  0  0  0  0  0  0  0  0  0  0
  1  2  1  0  0  0  0
  1 26  1  0  0  0  0
  1 27  1  0  0  0  0
  1 28  1  0  0  0  0
  2  3  1  0  0  0  0
  2 21  1  0  0  0  0
  2 29  1  0  0  0  0
  3  4  1  0  0  0  0
  3 30  1  0  0  0  0
  4  5  2  0  0  0  0
  4  6  1  0  0  0  0
  6  7  1  0  0  0  0
  6 31  1  0  0  0  0
  6 32  1  0  0  0  0
  7 19  1  0  0  0  0
  7  8  1  0  0  0  0
  8  9  2  0  0  0  0
  8 10  1  0  0  0  0
 10 11  1  0  0  0  0
 10 12  2  0  0  0  0
 12 13  1  0  0  0  0
 12 33  1  0  0  0  0
 13 14  1  0  0  0  0
 13 19  1  0  0  0  0
 14 18  1  0  0  0  0
 14 15  1  0  0  0  0
 14 34  1  0  0  0  0
 15 16  1  0  0  0  0
 15 35  1  0  0  0  0
 15 36  1  0  0  0  0
 16 17  1  0  0  0  0
 16 37  1  0  0  0  0
 16 38  1  0  0  0  0
 17 18  1  0  0  0  0
 17 39  1  0  0  0  0
 17 40  1  0  0  0  0
 19 20  2  0  0  0  0
 21 25  1  0  0  0  0
 21 22  2  0  0  0  0
 22 23  1  0  0  0  0
 22 41  1  0  0  0  0
 23 24  2  0  0  0  0
 23 42  1  0  0  0  0
 24 25  1  0  0  0  0
 24 43  1  0  0  0  0
M  END
> <s_m_source_file>
AV-unprocessed.smi

> <i_m_source_file_index>
123

> <i_lp_mmshare_version>
43012

> <i_f3d_flags>
0

> <s_epik_input>
bzFbY0hdW2NIXVtjSF1jMVtDQEhdKFtDSDNdKVtOSF1DKD1PKVtDSDJdbjJjKD1PKWMoRilbY0hdbihjMj1PKVtDQEBIXTNbQ0gyXVtDSDJdW0NIMl1PMw==

> <s_epik_cmdline>
J2VwaWtfcHl0aG9uJywgJy1waCcsICc3LjAnLCAnLXRuJywgJzgnLCAnLW1hJywgJzIwMCcsICctbWV0YWxfYmluZGluZycsICctaW1hZScsICc8aW5maWxlLm1hZT4nLCAnLW9tYWUnLCAnPG91dGZpbGUubWFlPic=

> <r_lp_tautomer_probability>
1

> <r_epik_Ionization_Penalty>
2.31906e-08

> <r_epik_Ionization_Penalty_Charging>
3.85846e-09

> <r_epik_Ionization_Penalty_Neutral>
1.93321e-08

> <r_epik_State_Penalty>
-0

> <r_epik_Charging_Adjusted_Penalty>
3.85846e-09

> <i_epik_Tot_Q>
0

> <i_epik_Tot_abs_Q>
0

> <r_epik_Metal_State_Penalty>
-0

> <b_epik_Metal_Only>
0

> <s_epik_Chemistry_Notes>
This compound contains an acetal/aminal-like group ( X-CH(R)-Y where X, Y are N, S, or O) that may be acid/base labile, releasing an aldehyde.

> <s_lp_Force_Field>
OPLS_2005

> <r_lp_Energy>
21.3093

> <b_lp_Chiralities_Consistent>
1

> <s_lp_Variant>
AV-unprocessed.smi:123-1

> <Gold.Version>
5.8.1

> <Gold.Id.Protein>
6NUR|6NUR_protein|mol2

> <Gold.PLP.Fitness>
47.6568

> <Gold.PLP.PLP>
-42.5891

> <Gold.PLP.part.hbond>
-3.1201

> <Gold.PLP.part.metal>
0.0000

> <Gold.PLP.part.buried>
-4.9527

> <Gold.PLP.part.nonpolar>
-34.1841

> <Gold.PLP.part.repulsive>
0.1321

> <Gold.PLP.ligand.clash>
0.0000

> <Gold.PLP.ligand.torsion>
0.5406

> <Gold.PLP.Chemscore.Hbond>
2.0000

> <Gold.PLP.Chemscore.CHOScore>
0.0000

> <Gold.PLP.Chemscore.Metal>
0.0000

> <Gold.Chemscore.Hbonds>
donor molecule, donor type, donor heavy atom, donor atom, acceptor molecule, acceptor atom, score
      P1  H  6896  6909       L1     5  0.34
      P1  H  6934  6947       L1    25  0.50

> <Gold.PLP.Chemscore.Internal.Correction>
0.1490

> <Gold.Rescore>
     Score         DG    S(hbond)    S(metal)    S(lipo)     H(rot)  DE(clash)    DE(int)     intcor
      9.63     -16.23       1.65        0.00      93.79       2.23       1.63       4.97       ----

> <Gold.Chemscore.Fitness>
9.6286

> <Gold.Chemscore.DG>
-16.2303

> <Gold.Chemscore.ZeroCoef>
-5.4800

> <Gold.Chemscore.Hbond>
1.6460

> <Gold.Chemscore.Metal>
0.0000

> <Gold.Chemscore.Lipo>
93.7906

> <Gold.Chemscore.Internal_Hbond>
0.0000

> <Gold.Chemscore.DEClash>
1.6326

> <Gold.Chemscore.DEInternal>
4.9691

> <Gold.Chemscore.Rot>
2.2347

> <Gold.Chemscore.Internal.Correction>
   9.000000E+99

> <Gold.Chemscore.Hbonds>
donor molecule, donor type, donor heavy atom, donor atom, acceptor molecule, acceptor atom, score
      P1  H  6896  6909       L1     5  0.35
      P1  H  6934  6947       L1    25  0.02

> <Gold.Chemscore.Hbond.Weighted>
-5.4976

> <Gold.Chemscore.Metal.Weighted>
-0.0000

> <Gold.Chemscore.Lipo.Weighted>
-10.9735

> <Gold.Chemscore.Internal_Hbond.Weighted>
0.0000

> <Gold.Chemscore.DEClash.Weighted>
1.6326

> <Gold.Chemscore.DEInternal.Weighted>
4.9691

> <Gold.Chemscore.Rot.Weighted>
5.7208

> <Gold.Chemscore.Internal.Correction.Weighted>
   9.000000E+99

> <Gold.Protein.RotatedTorsions>
[ 6907 6896 6895 6894 ] final   72.14 input  -60.11 | X-H torsion
[ 7974 7965 7964 7962 ] final   53.26 input  175.53 | X-H torsion
[ 8008 7997 7996 7995 ] final  -19.59 input   59.86 | X-H torsion
[ 10167 10162 10161 10158 ] final  109.66 input  -65.29 | X-H torsion
[ 10718 10713 10712 10709 ] final  -20.81 input   66.30 | X-H torsion
[ 10763 10752 10751 10750 ] final -143.03 input  -60.55 | X-H torsion
[ 11005 11000 10999 10996 ] final   53.17 input  -57.11 | X-H torsion

> <Gold.Protein.ActiveResidues>
 VAL166  LYS551  ARG553  GLY616  TRP617  ASP618  TYR619  PRO620  LYS621  CYS622 
 ASP623  PHE694  ASN695  SER759  ASP760  ASP761  ALA762  ILE779  LEU786  VAL792 
 PHE793  MET794  SER795  GLU796  ALA797  LYS798  CYS799  TRP800  GLU811  SER814 

> <Gold.Protein.RotatedAtoms>
  152.4851  134.4615  159.9606 H   0  0  0  0  0  0  0  0  0  0  0  0  # atno 6907 bound_to 6896
  151.4613  133.3586  159.2817 H   0  0  0  0  0  0  0  0  0  0  0  0  # atno 6908 bound_to 6896
  150.8954  134.8387  159.7383 H   0  0  0  0  0  0  0  0  0  0  0  0  # atno 6909 bound_to 6896
  145.9730  139.4167  143.0179 H   0  0  0  0  0  0  0  0  0  0  0  0  # atno 7974 bound_to 7965
  154.4826  140.2084  155.9728 H   0  0  0  0  0  0  0  0  0  0  0  0  # atno 8008 bound_to 7997
  156.1188  140.3217  155.8147 H   0  0  0  0  0  0  0  0  0  0  0  0  # atno 8009 bound_to 7997
  155.4505  140.0516  157.2992 H   0  0  0  0  0  0  0  0  0  0  0  0  # atno 8010 bound_to 7997
  139.6749  144.7123  151.1620 H   0  0  0  0  0  0  0  0  0  0  0  0  # atno 10167 bound_to 10162
  156.5267  130.4645  149.6568 H   0  0  0  0  0  0  0  0  0  0  0  0  # atno 10718 bound_to 10713
  154.8486  135.3479  154.6123 H   0  0  0  0  0  0  0  0  0  0  0  0  # atno 10763 bound_to 10752
  153.6732  135.6984  153.5145 H   0  0  0  0  0  0  0  0  0  0  0  0  # atno 10764 bound_to 10752
  153.2726  135.4288  155.0959 H   0  0  0  0  0  0  0  0  0  0  0  0  # atno 10765 bound_to 10752
  140.0789  134.5366  155.8967 H   0  0  0  0  0  0  0  0  0  0  0  0  # atno 11005 bound_to 11000
  145.7879  140.9827  143.1064 LP  0  0  0  0  0  0  0  0  0  0  0  0  # atno 17320 bound_to 7965
  144.6841  139.9646  143.7481 LP  0  0  0  0  0  0  0  0  0  0  0  0  # atno 17321 bound_to 7965
  140.7632  143.5787  150.8918 LP  0  0  0  0  0  0  0  0  0  0  0  0  # atno 17342 bound_to 10162
  139.9455  143.6332  152.3043 LP  0  0  0  0  0  0  0  0  0  0  0  0  # atno 17343 bound_to 10162
  156.3098  130.7222  151.2113 LP  0  0  0  0  0  0  0  0  0  0  0  0  # atno 17370 bound_to 10713
  157.7428  131.0484  150.4994 LP  0  0  0  0  0  0  0  0  0  0  0  0  # atno 17371 bound_to 10713
  141.2039  133.6635  156.6092 LP  0  0  0  0  0  0  0  0  0  0  0  0  # atno 17394 bound_to 11000
  140.3517  134.7763  157.4472 LP  0  0  0  0  0  0  0  0  0  0  0  0  # atno 17395 bound_to 11000

$$$$
