AV-unprocessed.smi:1690|AV-procd|sdf|6773|dock2
  -GOLD-   22720 7533D 1   1.00000     0.00000
 Structure written by MMmdl.
 37 38  0  0  0  0  0  0  0  0  1 V2000
  154.0076  134.4096  164.7017 C   0  0  0  0  0  0  0  0  0  0  0  0
  154.8100  134.6353  163.4120 C   0  0  0  0  0  0  0  0  0  0  0  0
  156.2856  134.2297  163.5416 C   0  0  0  0  0  0  0  0  0  0  0  0
  154.6556  136.0283  162.8885 C   0  0  0  0  0  0  0  0  0  0  0  0
  154.1611  136.3152  161.6805 N   0  0  0  0  0  0  0  0  0  0  0  0
  154.0997  137.6904  161.4320 C   0  0  0  0  0  0  0  0  0  0  0  0
  153.5484  138.1924  160.1282 C   0  0  0  0  0  0  0  0  0  0  0  0
  153.9021  139.6682  159.9296 C   0  0  0  0  0  0  0  0  0  0  0  0
  154.6992  139.9979  159.0514 O   0  0  0  0  0  0  0  0  0  0  0  0
  153.2957  140.5449  160.7458 N   0  0  0  0  0  0  0  0  0  0  0  0
  153.4988  141.9904  160.7382 C   0  0  0  0  0  0  0  0  0  0  0  0
  152.7084  142.6558  161.8818 C   0  0  0  0  0  0  0  0  0  0  0  0
  151.9165  143.7992  161.2439 C   0  0  0  0  0  0  0  0  0  0  0  0
  151.6844  143.3451  159.8062 C   0  0  0  0  0  0  0  0  0  0  0  0
  152.9778  142.6210  159.4325 C   0  0  0  0  0  0  0  0  0  0  0  0
  154.5759  138.4483  162.4731 C   0  0  0  0  0  0  0  0  0  0  0  0
  155.1029  137.4611  163.8083 S   0  0  0  0  0  0  0  0  0  0  0  0
  152.9503  134.6288  164.5488 H   0  0  0  0  0  0  0  0  0  0  0  0
  154.3671  135.0477  165.5095 H   0  0  0  0  0  0  0  0  0  0  0  0
  154.0854  133.3751  165.0368 H   0  0  0  0  0  0  0  0  0  0  0  0
  154.3751  133.9753  162.6604 H   0  0  0  0  0  0  0  0  0  0  0  0
  156.8029  134.3227  162.5861 H   0  0  0  0  0  0  0  0  0  0  0  0
  156.3813  133.1947  163.8699 H   0  0  0  0  0  0  0  0  0  0  0  0
  156.8073  134.8568  164.2653 H   0  0  0  0  0  0  0  0  0  0  0  0
  153.9454  137.6093  159.2962 H   0  0  0  0  0  0  0  0  0  0  0  0
  152.4640  138.0793  160.0932 H   0  0  0  0  0  0  0  0  0  0  0  0
  152.6548  140.1795  161.4357 H   0  0  0  0  0  0  0  0  0  0  0  0
  154.5610  142.2148  160.8535 H   0  0  0  0  0  0  0  0  0  0  0  0
  152.0111  141.9475  162.3330 H   0  0  0  0  0  0  0  0  0  0  0  0
  153.3619  143.0122  162.6786 H   0  0  0  0  0  0  0  0  0  0  0  0
  150.9876  144.0125  161.7734 H   0  0  0  0  0  0  0  0  0  0  0  0
  152.5179  144.7092  161.2469 H   0  0  0  0  0  0  0  0  0  0  0  0
  150.8478  142.6460  159.7713 H   0  0  0  0  0  0  0  0  0  0  0  0
  151.4568  144.1732  159.1344 H   0  0  0  0  0  0  0  0  0  0  0  0
  153.7050  143.3503  159.0725 H   0  0  0  0  0  0  0  0  0  0  0  0
  152.8267  141.8985  158.6291 H   0  0  0  0  0  0  0  0  0  0  0  0
  154.6407  139.5244  162.5377 H   0  0  0  0  0  0  0  0  0  0  0  0
  1  2  1  0  0  0  0
  1 18  1  0  0  0  0
  1 19  1  0  0  0  0
  1 20  1  0  0  0  0
  2  3  1  0  0  0  0
  2  4  1  0  0  0  0
  2 21  1  0  0  0  0
  3 22  1  0  0  0  0
  3 23  1  0  0  0  0
  3 24  1  0  0  0  0
  4 17  1  0  0  0  0
  4  5  2  0  0  0  0
  5  6  1  0  0  0  0
  6  7  1  0  0  0  0
  6 16  2  0  0  0  0
  7  8  1  0  0  0  0
  7 25  1  0  0  0  0
  7 26  1  0  0  0  0
  8  9  2  0  0  0  0
  8 10  1  0  0  0  0
 10 11  1  0  0  0  0
 10 27  1  0  0  0  0
 11 15  1  0  0  0  0
 11 12  1  0  0  0  0
 11 28  1  0  0  0  0
 12 13  1  0  0  0  0
 12 29  1  0  0  0  0
 12 30  1  0  0  0  0
 13 14  1  0  0  0  0
 13 31  1  0  0  0  0
 13 32  1  0  0  0  0
 14 15  1  0  0  0  0
 14 33  1  0  0  0  0
 14 34  1  0  0  0  0
 15 35  1  0  0  0  0
 15 36  1  0  0  0  0
 16 17  1  0  0  0  0
 16 37  1  0  0  0  0
M  END
> <s_m_source_file>
AV-unprocessed.smi

> <i_m_source_file_index>
1690

> <i_lp_mmshare_version>
43012

> <i_f3d_flags>
0

> <s_epik_input>
W0NIM11bQ0hdKFtDSDNdKWMxbmMoW2NIXXMxKVtDSDJdQyg9TylbTkhdW0NIXTJbQ0gyXVtDSDJdW0NIMl1bQ0gyXTI=

> <s_epik_cmdline>
J2VwaWtfcHl0aG9uJywgJy1waCcsICc3LjAnLCAnLXRuJywgJzgnLCAnLW1hJywgJzIwMCcsICctbWV0YWxfYmluZGluZycsICctaW1hZScsICc8aW5maWxlLm1hZT4nLCAnLW9tYWUnLCAnPG91dGZpbGUubWFlPic=

> <r_lp_tautomer_probability>
1

> <r_epik_Ionization_Penalty>
4.81312e-05

> <r_epik_Ionization_Penalty_Charging>
0

> <r_epik_Ionization_Penalty_Neutral>
4.81312e-05

> <r_epik_State_Penalty>
-0

> <r_epik_Charging_Adjusted_Penalty>
0

> <i_epik_Tot_Q>
0

> <i_epik_Tot_abs_Q>
0

> <r_epik_Metal_State_Penalty>
-0

> <b_epik_Metal_Only>
0

> <s_lp_Force_Field>
OPLS_2005

> <r_lp_Energy>
9.48899

> <b_lp_Chiralities_Consistent>
1

> <s_lp_Variant>
AV-unprocessed.smi:1690-1

> <Gold.Version>
5.8.1

> <Gold.Id.Protein>
6NUR|6NUR_protein|mol2

> <Gold.PLP.Fitness>
38.8829

> <Gold.PLP.PLP>
-36.5052

> <Gold.PLP.part.hbond>
-1.0000

> <Gold.PLP.part.metal>
0.0000

> <Gold.PLP.part.buried>
-3.6254

> <Gold.PLP.part.nonpolar>
-32.5209

> <Gold.PLP.part.repulsive>
0.0631

> <Gold.PLP.ligand.clash>
0.0000

> <Gold.PLP.ligand.torsion>
0.3547

> <Gold.PLP.Chemscore.Hbond>
1.0000

> <Gold.PLP.Chemscore.CHOScore>
0.0000

> <Gold.PLP.Chemscore.Metal>
0.0000

> <Gold.Chemscore.Hbonds>
donor molecule, donor type, donor heavy atom, donor atom, acceptor molecule, acceptor atom, score
      P1  H  7997  8009       L1     9  1.00

> <Gold.PLP.Chemscore.Internal.Correction>
0.0871

> <Gold.Rescore>
     Score         DG    S(hbond)    S(metal)    S(lipo)     H(rot)  DE(clash)    DE(int)     intcor
     17.49     -18.31       0.96        0.00     111.91       1.35       0.00       0.82       ----

> <Gold.Chemscore.Fitness>
17.4948

> <Gold.Chemscore.DG>
-18.3138

> <Gold.Chemscore.ZeroCoef>
-5.4800

> <Gold.Chemscore.Hbond>
0.9561

> <Gold.Chemscore.Metal>
0.0000

> <Gold.Chemscore.Lipo>
111.9115

> <Gold.Chemscore.Internal_Hbond>
0.0000

> <Gold.Chemscore.DEClash>
0.0004

> <Gold.Chemscore.DEInternal>
0.8186

> <Gold.Chemscore.Rot>
1.3489

> <Gold.Chemscore.Internal.Correction>
   9.000000E+99

> <Gold.Chemscore.Hbonds>
donor molecule, donor type, donor heavy atom, donor atom, acceptor molecule, acceptor atom, score
      P1  H  7997  8009       L1     9  0.96

> <Gold.Chemscore.Hbond.Weighted>
-3.1933

> <Gold.Chemscore.Metal.Weighted>
-0.0000

> <Gold.Chemscore.Lipo.Weighted>
-13.0936

> <Gold.Chemscore.Internal_Hbond.Weighted>
0.0000

> <Gold.Chemscore.DEClash.Weighted>
0.0004

> <Gold.Chemscore.DEInternal.Weighted>
0.8186

> <Gold.Chemscore.Rot.Weighted>
3.4532

> <Gold.Chemscore.Internal.Correction.Weighted>
   9.000000E+99

> <Gold.Protein.RotatedTorsions>
[ 6907 6896 6895 6894 ] final   50.22 input  -60.11 | X-H torsion
[ 7974 7965 7964 7962 ] final -112.37 input  175.53 | X-H torsion
[ 8008 7997 7996 7995 ] final  118.06 input   59.86 | X-H torsion
[ 10167 10162 10161 10158 ] final   89.00 input  -65.29 | X-H torsion
[ 10718 10713 10712 10709 ] final  -91.68 input   66.30 | X-H torsion
[ 10763 10752 10751 10750 ] final  112.38 input  -60.55 | X-H torsion
[ 11005 11000 10999 10996 ] final -176.98 input  -57.11 | X-H torsion

> <Gold.Protein.ActiveResidues>
 VAL166  LYS551  ARG553  GLY616  TRP617  ASP618  TYR619  PRO620  LYS621  CYS622 
 ASP623  PHE694  ASN695  SER759  ASP760  ASP761  ALA762  ILE779  LEU786  VAL792 
 PHE793  MET794  SER795  GLU796  ALA797  LYS798  CYS799  TRP800  GLU811  SER814 

> <Gold.Protein.RotatedAtoms>
  152.2994  134.7629  160.0360 H   0  0  0  0  0  0  0  0  0  0  0  0  # atno 6907 bound_to 6896
  151.8147  133.3381  159.3574 H   0  0  0  0  0  0  0  0  0  0  0  0  # atno 6908 bound_to 6896
  150.7266  134.5560  159.5863 H   0  0  0  0  0  0  0  0  0  0  0  0  # atno 6909 bound_to 6896
  145.1448  140.8797  143.3681 H   0  0  0  0  0  0  0  0  0  0  0  0  # atno 7974 bound_to 7965
  156.2527  140.2883  156.0776 H   0  0  0  0  0  0  0  0  0  0  0  0  # atno 8008 bound_to 7997
  155.1602  140.0399  157.2858 H   0  0  0  0  0  0  0  0  0  0  0  0  # atno 8009 bound_to 7997
  154.6398  140.2519  155.7342 H   0  0  0  0  0  0  0  0  0  0  0  0  # atno 8010 bound_to 7997
  139.8616  144.6541  150.9052 H   0  0  0  0  0  0  0  0  0  0  0  0  # atno 10167 bound_to 10162
  155.9995  130.4957  150.5511 H   0  0  0  0  0  0  0  0  0  0  0  0  # atno 10718 bound_to 10713
  153.4770  135.3688  155.2422 H   0  0  0  0  0  0  0  0  0  0  0  0  # atno 10763 bound_to 10752
  154.8756  135.3945  154.3744 H   0  0  0  0  0  0  0  0  0  0  0  0  # atno 10764 bound_to 10752
  153.4342  135.7083  153.6276 H   0  0  0  0  0  0  0  0  0  0  0  0  # atno 10765 bound_to 10752
  140.4461  134.6387  157.4780 H   0  0  0  0  0  0  0  0  0  0  0  0  # atno 11005 bound_to 11000
  145.0494  139.3194  143.5936 LP  0  0  0  0  0  0  0  0  0  0  0  0  # atno 17320 bound_to 7965
  146.3501  139.9896  142.8687 LP  0  0  0  0  0  0  0  0  0  0  0  0  # atno 17321 bound_to 7965
  140.7774  143.3739  151.1598 LP  0  0  0  0  0  0  0  0  0  0  0  0  # atno 17342 bound_to 10162
  139.7368  143.8986  152.3037 LP  0  0  0  0  0  0  0  0  0  0  0  0  # atno 17343 bound_to 10162
  157.3434  131.0721  151.1770 LP  0  0  0  0  0  0  0  0  0  0  0  0  # atno 17370 bound_to 10713
  157.2611  130.6659  149.5975 LP  0  0  0  0  0  0  0  0  0  0  0  0  # atno 17371 bound_to 10713
  140.0038  134.6796  155.9488 LP  0  0  0  0  0  0  0  0  0  0  0  0  # atno 17394 bound_to 11000
  141.1685  133.6537  156.4564 LP  0  0  0  0  0  0  0  0  0  0  0  0  # atno 17395 bound_to 11000

$$$$
