AV-unprocessed.smi:258|AV-procd|sdf|1971|dock9
  -GOLD-   2262021133D 1   1.00000     0.00000
 Structure written by MMmdl.
 57 60  0  0  0  0  0  0  0  0  1 V2000
  146.8283  131.1139  151.8126 O   0  0  0  0  0  0  0  0  0  0  0  0
  147.1184  130.2147  152.8617 C   0  0  0  0  0  0  0  0  0  0  0  0
  148.4859  130.5412  153.4741 C   0  0  0  0  0  0  0  0  0  0  0  0
  148.5244  131.9224  153.8033 O   0  0  0  0  0  0  0  0  0  0  0  0
  149.7924  132.3912  154.2431 C   0  0  2  0  0  0  0  0  0  0  0  0
  150.4140  131.4258  155.2724 C   0  0  0  0  0  0  0  0  0  0  0  0
  151.7043  132.0247  155.8517 C   0  0  0  0  0  0  0  0  0  0  0  0
  151.4454  133.4161  156.4500 C   0  0  0  0  0  0  0  0  0  0  0  0
  150.8052  134.2928  155.4715 N   0  0  0  0  0  0  0  0  0  0  0  0
  150.8449  135.6358  155.6709 C   0  0  0  0  0  0  0  0  0  0  0  0
  151.1928  136.4098  154.6094 N   0  0  0  0  0  0  0  0  0  0  0  0
  151.2557  137.7387  154.7278 C   0  0  0  0  0  0  0  0  0  0  0  0
  151.0109  138.4924  155.8000 N   0  0  0  0  0  0  0  0  0  0  0  0
  150.6570  137.7260  156.8705 C   0  0  0  0  0  0  0  0  0  0  0  0
  150.5534  136.3047  156.8989 C   0  0  0  0  0  0  0  0  0  0  0  0
  150.1609  135.8952  158.1701 N   0  0  0  0  0  0  0  0  0  0  0  0
  150.0445  137.0033  158.8487 C   0  0  0  0  0  0  0  0  0  0  0  0
  150.3146  138.1513  158.1412 N   0  0  0  0  0  0  0  0  0  0  0  0
  150.2514  139.5154  158.6343 C   0  0  0  0  0  0  0  0  0  0  0  0
  150.9897  140.5379  157.7335 C   0  0  1  0  0  0  0  0  0  0  0  0
  150.1619  141.8252  157.4816 C   0  0  0  0  0  0  0  0  0  0  0  0
  150.7056  142.5970  156.4306 O   0  0  0  0  0  0  0  0  0  0  0  0
  152.4052  140.8081  158.3073 C   0  0  1  0  0  0  0  0  0  0  0  0
  152.4902  141.8026  159.4510 C   0  0  0  0  0  0  0  0  0  0  0  0
  153.8974  141.5388  159.9793 C   0  0  0  0  0  0  0  0  0  0  0  0
  154.1474  140.1538  159.7518 O   0  0  0  0  0  0  0  0  0  0  0  0
  153.1522  139.6057  158.8914 C   0  0  0  0  0  0  0  0  0  0  0  0
  149.5718  133.7778  154.8736 C   0  0  0  0  0  0  0  0  0  0  0  0
  147.4330  130.9541  151.1046 H   0  0  0  0  0  0  0  0  0  0  0  0
  146.3394  130.3267  153.6164 H   0  0  0  0  0  0  0  0  0  0  0  0
  147.0778  129.1849  152.5054 H   0  0  0  0  0  0  0  0  0  0  0  0
  148.6867  129.9044  154.3358 H   0  0  0  0  0  0  0  0  0  0  0  0
  149.2626  130.3396  152.7351 H   0  0  0  0  0  0  0  0  0  0  0  0
  150.4645  132.5065  153.3905 H   0  0  0  0  0  0  0  0  0  0  0  0
  149.7034  131.2383  156.0784 H   0  0  0  0  0  0  0  0  0  0  0  0
  150.6347  130.4599  154.8189 H   0  0  0  0  0  0  0  0  0  0  0  0
  152.1161  131.3624  156.6134 H   0  0  0  0  0  0  0  0  0  0  0  0
  152.4568  132.0999  155.0658 H   0  0  0  0  0  0  0  0  0  0  0  0
  150.8019  133.3257  157.3259 H   0  0  0  0  0  0  0  0  0  0  0  0
  152.3911  133.8475  156.7802 H   0  0  0  0  0  0  0  0  0  0  0  0
  151.5418  138.2748  153.8348 H   0  0  0  0  0  0  0  0  0  0  0  0
  149.7443  137.0142  159.8862 H   0  0  0  0  0  0  0  0  0  0  0  0
  149.2025  139.7946  158.7401 H   0  0  0  0  0  0  0  0  0  0  0  0
  150.6744  139.5222  159.6397 H   0  0  0  0  0  0  0  0  0  0  0  0
  151.1519  140.0596  156.7663 H   0  0  0  0  0  0  0  0  0  0  0  0
  149.1254  141.5806  157.2484 H   0  0  0  0  0  0  0  0  0  0  0  0
  150.1405  142.4685  158.3589 H   0  0  0  0  0  0  0  0  0  0  0  0
  150.0079  143.0892  156.0256 H   0  0  0  0  0  0  0  0  0  0  0  0
  153.0203  141.2170  157.5038 H   0  0  0  0  0  0  0  0  0  0  0  0
  152.3477  142.8348  159.1301 H   0  0  0  0  0  0  0  0  0  0  0  0
  151.7627  141.5884  160.2324 H   0  0  0  0  0  0  0  0  0  0  0  0
  154.6289  142.1196  159.4161 H   0  0  0  0  0  0  0  0  0  0  0  0
  154.0021  141.7956  161.0337 H   0  0  0  0  0  0  0  0  0  0  0  0
  152.4976  138.9784  159.4960 H   0  0  0  0  0  0  0  0  0  0  0  0
  153.5997  138.9790  158.1201 H   0  0  0  0  0  0  0  0  0  0  0  0
  149.1815  134.4551  154.1134 H   0  0  0  0  0  0  0  0  0  0  0  0
  148.8120  133.7145  155.6539 H   0  0  0  0  0  0  0  0  0  0  0  0
  1  2  1  0  0  0  0
  1 29  1  0  0  0  0
  2  3  1  0  0  0  0
  2 30  1  0  0  0  0
  2 31  1  0  0  0  0
  3  4  1  0  0  0  0
  3 32  1  0  0  0  0
  3 33  1  0  0  0  0
  4  5  1  0  0  0  0
  5 28  1  0  0  0  0
  5  6  1  0  0  0  0
  5 34  1  0  0  0  0
  6  7  1  0  0  0  0
  6 35  1  0  0  0  0
  6 36  1  0  0  0  0
  7  8  1  0  0  0  0
  7 37  1  0  0  0  0
  7 38  1  0  0  0  0
  8  9  1  0  0  0  0
  8 39  1  0  0  0  0
  8 40  1  0  0  0  0
  9 10  1  0  0  0  0
  9 28  1  0  0  0  0
 10 15  1  0  0  0  0
 10 11  2  0  0  0  0
 11 12  1  0  0  0  0
 12 13  2  0  0  0  0
 12 41  1  0  0  0  0
 13 14  1  0  0  0  0
 14 18  1  0  0  0  0
 14 15  2  0  0  0  0
 15 16  1  0  0  0  0
 16 17  2  0  0  0  0
 17 18  1  0  0  0  0
 17 42  1  0  0  0  0
 18 19  1  0  0  0  0
 19 20  1  0  0  0  0
 19 43  1  0  0  0  0
 19 44  1  0  0  0  0
 20 21  1  0  0  0  0
 20 23  1  0  0  0  0
 20 45  1  0  0  0  0
 21 22  1  0  0  0  0
 21 46  1  0  0  0  0
 21 47  1  0  0  0  0
 22 48  1  0  0  0  0
 23 27  1  0  0  0  0
 23 24  1  0  0  0  0
 23 49  1  0  0  0  0
 24 25  1  0  0  0  0
 24 50  1  0  0  0  0
 24 51  1  0  0  0  0
 25 26  1  0  0  0  0
 25 52  1  0  0  0  0
 25 53  1  0  0  0  0
 26 27  1  0  0  0  0
 27 54  1  0  0  0  0
 27 55  1  0  0  0  0
 28 56  1  0  0  0  0
 28 57  1  0  0  0  0
M  END
> <s_m_source_file>
AV-unprocessed.smi

> <i_m_source_file_index>
258

> <i_lp_mmshare_version>
43012

> <i_f3d_flags>
0

> <s_epik_input>
W09IXVtDSDJdW0NIMl1PW0NAQEhdMVtDSDJdW0NIMl1bQ0gyXU4oW0NIMl0xKWMobltjSF1uMiljKGMyMyluW2NIXW4zW0NIMl1bQ0BIXShbQ0gyXVtPSF0pW0NAQEhdNFtDSDJdW0NIMl1PW0NIMl00

> <s_epik_cmdline>
J2VwaWtfcHl0aG9uJywgJy1waCcsICc3LjAnLCAnLXRuJywgJzgnLCAnLW1hJywgJzIwMCcsICctbWV0YWxfYmluZGluZycsICctaW1hZScsICc8aW5maWxlLm1hZT4nLCAnLW9tYWUnLCAnPG91dGZpbGUubWFlPic=

> <r_lp_tautomer_probability>
1

> <r_epik_Ionization_Penalty>
0.00349036

> <r_epik_Ionization_Penalty_Charging>
0

> <r_epik_Ionization_Penalty_Neutral>
0.00349036

> <r_epik_State_Penalty>
0.00229798

> <r_epik_Charging_Adjusted_Penalty>
0.00229798

> <i_epik_Tot_Q>
0

> <i_epik_Tot_abs_Q>
0

> <r_epik_Metal_State_Penalty>
-0

> <b_epik_Metal_Only>
0

> <s_lp_Force_Field>
OPLS_2005

> <r_lp_Energy>
47.622

> <b_lp_Chiralities_Consistent>
1

> <s_lp_Variant>
AV-unprocessed.smi:258-7

> <Gold.Version>
5.8.1

> <Gold.Id.Protein>
6NUR|6NUR_protein|mol2

> <Gold.PLP.Fitness>
50.3120

> <Gold.PLP.PLP>
-41.1425

> <Gold.PLP.part.hbond>
-4.0000

> <Gold.PLP.part.metal>
0.0000

> <Gold.PLP.part.buried>
-8.1769

> <Gold.PLP.part.nonpolar>
-31.0038

> <Gold.PLP.part.repulsive>
0.3222

> <Gold.PLP.ligand.clash>
0.0000

> <Gold.PLP.ligand.torsion>
1.7733

> <Gold.PLP.Chemscore.Hbond>
3.9516

> <Gold.PLP.Chemscore.CHOScore>
0.0000

> <Gold.PLP.Chemscore.Metal>
0.0000

> <Gold.Chemscore.Hbonds>
donor molecule, donor type, donor heavy atom, donor atom, acceptor molecule, acceptor atom, score
      L1  H     1    29       P1 10747  1.00
      L1  H    22    48       P1  8028  1.00
      P1  H  6896  6907       L1    16  0.88
      P1  H 10752 10763       L1    11  1.00

> <Gold.PLP.Chemscore.Internal.Correction>
0.8612

> <Gold.Rescore>
     Score         DG    S(hbond)    S(metal)    S(lipo)     H(rot)  DE(clash)    DE(int)     intcor
     12.79     -15.78       3.30        0.00      86.33       4.22       0.06       2.93       ----

> <Gold.Chemscore.Fitness>
12.7895

> <Gold.Chemscore.DG>
-15.7822

> <Gold.Chemscore.ZeroCoef>
-5.4800

> <Gold.Chemscore.Hbond>
3.2983

> <Gold.Chemscore.Metal>
0.0000

> <Gold.Chemscore.Lipo>
86.3304

> <Gold.Chemscore.Internal_Hbond>
0.0000

> <Gold.Chemscore.DEClash>
0.0580

> <Gold.Chemscore.DEInternal>
2.9347

> <Gold.Chemscore.Rot>
4.2246

> <Gold.Chemscore.Internal.Correction>
   9.000000E+99

> <Gold.Chemscore.Hbonds>
donor molecule, donor type, donor heavy atom, donor atom, acceptor molecule, acceptor atom, score
      L1  H     1    29       P1 10747  0.99
      L1  H    22    48       P1  8028  0.93
      P1  H  6896  6907       L1    16  0.26
      P1  H 10752 10763       L1    11  0.20

> <Gold.Chemscore.Hbond.Weighted>
-11.0164

> <Gold.Chemscore.Metal.Weighted>
-0.0000

> <Gold.Chemscore.Lipo.Weighted>
-10.1007

> <Gold.Chemscore.Internal_Hbond.Weighted>
0.0000

> <Gold.Chemscore.DEClash.Weighted>
0.0580

> <Gold.Chemscore.DEInternal.Weighted>
2.9347

> <Gold.Chemscore.Rot.Weighted>
10.8149

> <Gold.Chemscore.Internal.Correction.Weighted>
   9.000000E+99

> <Gold.Protein.RotatedTorsions>
[ 6907 6896 6895 6894 ] final  -65.42 input  -60.11 | X-H torsion
[ 7974 7965 7964 7962 ] final  -23.93 input  175.53 | X-H torsion
[ 8008 7997 7996 7995 ] final -157.71 input   59.86 | X-H torsion
[ 10167 10162 10161 10158 ] final   75.72 input  -65.29 | X-H torsion
[ 10718 10713 10712 10709 ] final   56.64 input   66.30 | X-H torsion
[ 10763 10752 10751 10750 ] final   37.03 input  -60.55 | X-H torsion
[ 11005 11000 10999 10996 ] final   69.25 input  -57.11 | X-H torsion

> <Gold.Protein.ActiveResidues>
 VAL166  LYS551  ARG553  GLY616  TRP617  ASP618  TYR619  PRO620  LYS621  CYS622 
 ASP623  PHE694  ASN695  SER759  ASP760  ASP761  ALA762  ILE779  LEU786  VAL792 
 PHE793  MET794  SER795  GLU796  ALA797  LYS798  CYS799  TRP800  GLU811  SER814 

> <Gold.Protein.RotatedAtoms>
  150.7525  134.6162  159.6111 H   0  0  0  0  0  0  0  0  0  0  0  0  # atno 6907 bound_to 6896
  152.3482  134.7039  160.0253 H   0  0  0  0  0  0  0  0  0  0  0  0  # atno 6908 bound_to 6896
  151.7469  133.3289  159.3417 H   0  0  0  0  0  0  0  0  0  0  0  0  # atno 6909 bound_to 6896
  146.1586  140.4683  142.8581 H   0  0  0  0  0  0  0  0  0  0  0  0  # atno 7974 bound_to 7965
  155.7366  140.0809  157.2265 H   0  0  0  0  0  0  0  0  0  0  0  0  # atno 8008 bound_to 7997
  154.4026  140.1585  156.2624 H   0  0  0  0  0  0  0  0  0  0  0  0  # atno 8009 bound_to 7997
  155.9059  140.3407  155.6064 H   0  0  0  0  0  0  0  0  0  0  0  0  # atno 8010 bound_to 7997
  139.9999  144.5694  150.7746 H   0  0  0  0  0  0  0  0  0  0  0  0  # atno 10167 bound_to 10162
  157.5448  130.8723  149.8874 H   0  0  0  0  0  0  0  0  0  0  0  0  # atno 10718 bound_to 10713
  153.0053  135.6289  154.2080 H   0  0  0  0  0  0  0  0  0  0  0  0  # atno 10763 bound_to 10752
  154.1823  135.2813  155.3050 H   0  0  0  0  0  0  0  0  0  0  0  0  # atno 10764 bound_to 10752
  154.5824  135.5643  153.7258 H   0  0  0  0  0  0  0  0  0  0  0  0  # atno 10765 bound_to 10752
  139.9664  134.6973  156.0536 H   0  0  0  0  0  0  0  0  0  0  0  0  # atno 11005 bound_to 11000
  144.7996  140.6189  143.6487 LP  0  0  0  0  0  0  0  0  0  0  0  0  # atno 17320 bound_to 7965
  145.4646  139.1509  143.3848 LP  0  0  0  0  0  0  0  0  0  0  0  0  # atno 17321 bound_to 7965
  140.7423  143.2829  151.3545 LP  0  0  0  0  0  0  0  0  0  0  0  0  # atno 17342 bound_to 10162
  139.6279  144.0778  152.2450 LP  0  0  0  0  0  0  0  0  0  0  0  0  # atno 17343 bound_to 10162
  156.0526  130.3714  150.1165 LP  0  0  0  0  0  0  0  0  0  0  0  0  # atno 17370 bound_to 10713
  156.9343  130.9724  151.3527 LP  0  0  0  0  0  0  0  0  0  0  0  0  # atno 17371 bound_to 10713
  141.1344  133.6578  156.3553 LP  0  0  0  0  0  0  0  0  0  0  0  0  # atno 17394 bound_to 11000
  140.5387  134.6142  157.5373 LP  0  0  0  0  0  0  0  0  0  0  0  0  # atno 17395 bound_to 11000

$$$$
