AV-unprocessed.smi:2310|AV-procd|sdf|9257|dock8
  -GOLD-   2272012483D 1   1.00000     0.00000
 Structure written by MMmdl.
 46 47  0  0  0  0  0  0  0  0  2 V2000
  149.2112  132.5684  153.8142 C   0  0  0  0  0  0  0  0  0  0  0  0
  149.3081  134.0938  153.6640 C   0  0  0  0  0  0  0  0  0  0  0  0
  149.9963  134.7956  154.8524 C   0  0  2  0  0  0  0  0  0  0  0  0
  149.3732  134.3992  156.2039 C   0  0  0  0  0  0  0  0  0  0  0  0
  150.1884  133.4457  156.9729 C   0  0  0  0  0  0  0  0  0  0  0  0
  150.8295  132.6961  157.5773 N   0  0  0  0  0  0  0  0  0  0  0  0
  149.9395  136.2460  154.6817 N   0  0  0  0  0  0  0  0  0  0  0  0
  150.2600  137.1470  155.6212 C   0  0  0  0  0  0  0  0  0  0  0  0
  150.6170  136.8431  156.7591 O   0  0  0  0  0  0  0  0  0  0  0  0
  150.1225  138.4024  155.1603 N   0  0  0  0  0  0  0  0  0  0  0  0
  150.3542  139.6282  155.8461 C   0  0  0  0  0  0  0  0  0  0  0  0
  151.1745  139.7160  156.9998 C   0  0  0  0  0  0  0  0  0  0  0  0
  151.3796  140.9637  157.6214 C   0  0  0  0  0  0  0  0  0  0  0  0
  150.7725  142.1174  157.0775 C   0  0  0  0  0  0  0  0  0  0  0  0
  150.9146  143.4040  157.6159 N   0  0  0  0  0  0  0  0  0  0  0  0
  150.2559  143.6042  158.8958 C   0  0  0  0  0  0  0  0  0  0  0  0
  150.8730  144.8769  159.4828 C   0  0  0  0  0  0  0  0  0  0  0  0
  152.2068  145.0459  158.7455 C   0  0  0  0  0  0  0  0  0  0  0  0
  152.2872  143.8450  157.8002 C   0  0  0  0  0  0  0  0  0  0  0  0
  150.0104  141.9962  155.9698 N   0  3  0  0  0  0  0  0  0  0  0  0
  149.7827  140.8231  155.3376 C   0  0  0  0  0  0  0  0  0  0  0  0
  148.9009  140.8870  154.1012 C   0  0  0  0  0  0  0  0  0  0  0  0
  148.6736  132.1321  152.9722 H   0  0  0  0  0  0  0  0  0  0  0  0
  148.6772  132.2964  154.7251 H   0  0  0  0  0  0  0  0  0  0  0  0
  150.1960  132.1026  153.8504 H   0  0  0  0  0  0  0  0  0  0  0  0
  149.8361  134.3325  152.7401 H   0  0  0  0  0  0  0  0  0  0  0  0
  148.2989  134.4884  153.5443 H   0  0  0  0  0  0  0  0  0  0  0  0
  151.0440  134.4883  154.8572 H   0  0  0  0  0  0  0  0  0  0  0  0
  149.2274  135.2774  156.8332 H   0  0  0  0  0  0  0  0  0  0  0  0
  148.3922  133.9476  156.0533 H   0  0  0  0  0  0  0  0  0  0  0  0
  149.6510  136.5838  153.7750 H   0  0  0  0  0  0  0  0  0  0  0  0
  149.7369  138.4928  154.2317 H   0  0  0  0  0  0  0  0  0  0  0  0
  151.6660  138.8500  157.4150 H   0  0  0  0  0  0  0  0  0  0  0  0
  152.0012  141.0271  158.5025 H   0  0  0  0  0  0  0  0  0  0  0  0
  149.1773  143.7034  158.7703 H   0  0  0  0  0  0  0  0  0  0  0  0
  150.4410  142.7578  159.5586 H   0  0  0  0  0  0  0  0  0  0  0  0
  150.2300  145.7366  159.2893 H   0  0  0  0  0  0  0  0  0  0  0  0
  151.0034  144.7966  160.5624 H   0  0  0  0  0  0  0  0  0  0  0  0
  152.1996  145.9760  158.1759 H   0  0  0  0  0  0  0  0  0  0  0  0
  153.0578  145.0806  159.4263 H   0  0  0  0  0  0  0  0  0  0  0  0
  152.8891  143.0549  158.2506 H   0  0  0  0  0  0  0  0  0  0  0  0
  152.7446  144.1147  156.8478 H   0  0  0  0  0  0  0  0  0  0  0  0
  148.7440  139.9151  153.6350 H   0  0  0  0  0  0  0  0  0  0  0  0
  149.3504  141.5439  153.3561 H   0  0  0  0  0  0  0  0  0  0  0  0
  147.9223  141.2911  154.3619 H   0  0  0  0  0  0  0  0  0  0  0  0
  149.5822  142.8395  155.5871 H   0  0  0  0  0  0  0  0  0  0  0  0
  1  2  1  0  0  0  0
  1 23  1  0  0  0  0
  1 24  1  0  0  0  0
  1 25  1  0  0  0  0
  2  3  1  0  0  0  0
  2 26  1  0  0  0  0
  2 27  1  0  0  0  0
  3  4  1  0  0  0  0
  3  7  1  0  0  0  0
  3 28  1  0  0  0  0
  4  5  1  0  0  0  0
  4 29  1  0  0  0  0
  4 30  1  0  0  0  0
  5  6  3  0  0  0  0
  7  8  1  0  0  0  0
  7 31  1  0  0  0  0
  8  9  2  0  0  0  0
  8 10  1  0  0  0  0
 10 11  1  0  0  0  0
 10 32  1  0  0  0  0
 11 21  1  0  0  0  0
 11 12  2  0  0  0  0
 12 13  1  0  0  0  0
 12 33  1  0  0  0  0
 13 14  2  0  0  0  0
 13 34  1  0  0  0  0
 14 15  1  0  0  0  0
 14 20  1  0  0  0  0
 15 19  1  0  0  0  0
 15 16  1  0  0  0  0
 16 17  1  0  0  0  0
 16 35  1  0  0  0  0
 16 36  1  0  0  0  0
 17 18  1  0  0  0  0
 17 37  1  0  0  0  0
 17 38  1  0  0  0  0
 18 19  1  0  0  0  0
 18 39  1  0  0  0  0
 18 40  1  0  0  0  0
 19 41  1  0  0  0  0
 19 42  1  0  0  0  0
 20 21  2  0  0  0  0
 20 46  1  0  0  0  0
 21 22  1  0  0  0  0
 22 43  1  0  0  0  0
 22 44  1  0  0  0  0
 22 45  1  0  0  0  0
M  CHG  1  20   1
M  END
> <s_m_source_file>
AV-unprocessed.smi

> <i_m_source_file_index>
2310

> <i_lp_mmshare_version>
43012

> <i_f3d_flags>
0

> <s_epik_input>
TiNDW0NIMl1bQ0BASF0oW0NIMl1bQ0gzXSlbTkhdQyg9TylbTkhdYzFbY0hdW2NIXWMobmMxW0NIM10pTjJbQ0gyXVtDSDJdW0NIMl1bQ0gyXTI=

> <s_epik_cmdline>
J2VwaWtfcHl0aG9uJywgJy1waCcsICc3LjAnLCAnLXRuJywgJzgnLCAnLW1hJywgJzIwMCcsICctbWV0YWxfYmluZGluZycsICctaW1hZScsICc8aW5maWxlLm1hZT4nLCAnLW9tYWUnLCAnPG91dGZpbGUubWFlPic=

> <r_lp_tautomer_probability>
0.999994

> <r_epik_Ionization_Penalty>
0.577302

> <r_epik_Ionization_Penalty_Charging>
0.577278

> <r_epik_Ionization_Penalty_Neutral>
2.39253e-05

> <r_epik_State_Penalty>
0.589738

> <r_epik_Charging_Adjusted_Penalty>
1.16702

> <i_epik_Tot_Q>
1

> <i_epik_Tot_abs_Q>
1

> <r_epik_Metal_State_Penalty>
0.784556

> <b_epik_Metal_Only>
0

> <s_lp_Force_Field>
OPLS_2005

> <r_lp_Energy>
39.7138

> <b_lp_Chiralities_Consistent>
1

> <s_lp_Variant>
AV-unprocessed.smi:2310-3

> <Gold.Version>
5.8.1

> <Gold.Id.Protein>
6NUR|6NUR_protein|mol2

> <Gold.PLP.Fitness>
45.6669

> <Gold.PLP.PLP>
-35.6960

> <Gold.PLP.part.hbond>
-3.0000

> <Gold.PLP.part.metal>
0.0000

> <Gold.PLP.part.buried>
-2.7675

> <Gold.PLP.part.nonpolar>
-31.0107

> <Gold.PLP.part.repulsive>
0.5827

> <Gold.PLP.ligand.clash>
0.0000

> <Gold.PLP.ligand.torsion>
1.0146

> <Gold.PLP.Chemscore.Hbond>
3.9913

> <Gold.PLP.Chemscore.CHOScore>
0.0000

> <Gold.PLP.Chemscore.Metal>
0.0000

> <Gold.Chemscore.Hbonds>
donor molecule, donor type, donor heavy atom, donor atom, acceptor molecule, acceptor atom, score
      L1  H     7    31       P1  7948  0.99
      L1  H    20    46       P1  8028  2.00
      P1  H  6896  6907       L1     6  0.98

> <Gold.PLP.Chemscore.Internal.Correction>
0.0264

> <Gold.Rescore>
     Score         DG    S(hbond)    S(metal)    S(lipo)     H(rot)  DE(clash)    DE(int)     intcor
     15.93     -22.18       2.80        0.00      99.59       1.68       3.05       3.20       ----

> <Gold.Chemscore.Fitness>
15.9348

> <Gold.Chemscore.DG>
-22.1829

> <Gold.Chemscore.ZeroCoef>
-5.4800

> <Gold.Chemscore.Hbond>
2.8012

> <Gold.Chemscore.Metal>
0.0000

> <Gold.Chemscore.Lipo>
99.5856

> <Gold.Chemscore.Internal_Hbond>
0.0000

> <Gold.Chemscore.DEClash>
3.0485

> <Gold.Chemscore.DEInternal>
3.1996

> <Gold.Chemscore.Rot>
1.6815

> <Gold.Chemscore.Internal.Correction>
   9.000000E+99

> <Gold.Chemscore.Hbonds>
donor molecule, donor type, donor heavy atom, donor atom, acceptor molecule, acceptor atom, score
      L1  H     7    31       P1  7948  0.57
      L1  H    20    46       P1  8028  0.95
      P1  H  6896  6907       L1     6  0.24

> <Gold.Chemscore.Hbond.Weighted>
-9.3559

> <Gold.Chemscore.Metal.Weighted>
-0.0000

> <Gold.Chemscore.Lipo.Weighted>
-11.6515

> <Gold.Chemscore.Internal_Hbond.Weighted>
0.0000

> <Gold.Chemscore.DEClash.Weighted>
3.0485

> <Gold.Chemscore.DEInternal.Weighted>
3.1996

> <Gold.Chemscore.Rot.Weighted>
4.3045

> <Gold.Chemscore.Internal.Correction.Weighted>
   9.000000E+99

> <Gold.Protein.RotatedTorsions>
[ 6907 6896 6895 6894 ] final -132.99 input  -60.11 | X-H torsion
[ 7974 7965 7964 7962 ] final   71.57 input  175.53 | X-H torsion
[ 8008 7997 7996 7995 ] final   65.41 input   59.86 | X-H torsion
[ 10167 10162 10161 10158 ] final  -77.98 input  -65.29 | X-H torsion
[ 10718 10713 10712 10709 ] final  -74.12 input   66.30 | X-H torsion
[ 10763 10752 10751 10750 ] final -118.41 input  -60.55 | X-H torsion
[ 11005 11000 10999 10996 ] final   17.20 input  -57.11 | X-H torsion

> <Gold.Protein.ActiveResidues>
 VAL166  LYS551  ARG553  GLY616  TRP617  ASP618  TYR619  PRO620  LYS621  CYS622 
 ASP623  PHE694  ASN695  SER759  ASP760  ASP761  ALA762  ILE779  LEU786  VAL792 
 PHE793  MET794  SER795  GLU796  ALA797  LYS798  CYS799  TRP800  GLU811  SER814 

> <Gold.Protein.RotatedAtoms>
  150.9688  133.6366  159.2741 H   0  0  0  0  0  0  0  0  0  0  0  0  # atno 6907 bound_to 6896
  151.3662  135.0912  159.9460 H   0  0  0  0  0  0  0  0  0  0  0  0  # atno 6908 bound_to 6896
  152.5175  133.9252  159.7608 H   0  0  0  0  0  0  0  0  0  0  0  0  # atno 6909 bound_to 6896
  145.7642  139.2814  143.1358 H   0  0  0  0  0  0  0  0  0  0  0  0  # atno 7974 bound_to 7965
  155.6613  140.3497  155.4784 H   0  0  0  0  0  0  0  0  0  0  0  0  # atno 8008 bound_to 7997
  155.9766  140.1166  157.0788 H   0  0  0  0  0  0  0  0  0  0  0  0  # atno 8009 bound_to 7997
  154.4180  140.1146  156.5364 H   0  0  0  0  0  0  0  0  0  0  0  0  # atno 8010 bound_to 7997
  140.4723  143.2423  151.8186 H   0  0  0  0  0  0  0  0  0  0  0  0  # atno 10167 bound_to 10162
  156.0254  130.4409  150.2845 H   0  0  0  0  0  0  0  0  0  0  0  0  # atno 10718 bound_to 10713
  154.8586  135.4275  154.2135 H   0  0  0  0  0  0  0  0  0  0  0  0  # atno 10763 bound_to 10752
  153.3155  135.6978  153.7082 H   0  0  0  0  0  0  0  0  0  0  0  0  # atno 10764 bound_to 10752
  153.6158  135.3511  155.2968 H   0  0  0  0  0  0  0  0  0  0  0  0  # atno 10765 bound_to 10752
  140.4386  134.1346  155.7688 H   0  0  0  0  0  0  0  0  0  0  0  0  # atno 11005 bound_to 11000
  146.0234  140.8327  142.9912 LP  0  0  0  0  0  0  0  0  0  0  0  0  # atno 17320 bound_to 7965
  144.6824  140.2662  143.7312 LP  0  0  0  0  0  0  0  0  0  0  0  0  # atno 17321 bound_to 7965
  139.4820  144.4877  151.9226 LP  0  0  0  0  0  0  0  0  0  0  0  0  # atno 17342 bound_to 10162
  140.3962  144.2552  150.5896 LP  0  0  0  0  0  0  0  0  0  0  0  0  # atno 17343 bound_to 10162
  157.0948  131.0179  151.3108 LP  0  0  0  0  0  0  0  0  0  0  0  0  # atno 17370 bound_to 10713
  157.4826  130.7774  149.7428 LP  0  0  0  0  0  0  0  0  0  0  0  0  # atno 17371 bound_to 10713
  141.1715  133.8599  157.1555 LP  0  0  0  0  0  0  0  0  0  0  0  0  # atno 17394 bound_to 11000
  140.0085  134.9998  157.0345 LP  0  0  0  0  0  0  0  0  0  0  0  0  # atno 17395 bound_to 11000

$$$$
