#       Name:                AV-unprocessed.smi:1218
#       Creating user name   scv26
#       Creation time:       Fri Mar 27 04:16:34 2020


#       File generated by GOLD software.
#

@<TRIPOS>MOLECULE
AV-unprocessed.smi:1218
    50    51     1
SMALL
NO_CHARGES


@<TRIPOS>ATOM
      1 ****        -4.8521   3.4313   1.4184 C.3            1 S1                 0.0000
      2 ****        -3.8279   2.6473   0.5830 C.3            1 S1                 0.0000
      3 ****        -4.3786   2.4147  -0.8345 C.3            1 S1                 0.0000
      4 ****        -3.4465   1.3187   1.2777 C.3            1 S1                 0.0000
      5 ****        -2.0157   1.0126   1.3141 N.3            1 S1                 0.0000
      6 ****        -1.7540  -0.1478   2.1589 C.3            1 S1                 0.0000
      7 ****        -0.2577  -0.4952   2.2133 C.3            1 S1                 0.0000
      8 ****         0.2245  -0.7069   0.8917 O.3            1 S1                 0.0000
      9 ****         0.0498   0.4275   0.0461 C.3            1 S1                 0.0000
     10 ****         0.6165   0.1071  -1.3474 C.3            1 S1                 0.0000
     11 ****         2.0673  -0.0470  -1.3146 N.am           1 S1                 0.0000
     12 ****         2.7226  -1.2075  -1.1599 C.2            1 S1                 0.0000
     13 ****         2.1523  -2.2933  -1.0420 O.2            1 S1                 0.0000
     14 ****         4.2532  -1.1053  -1.1347 C.3            1 S1                 0.0000
     15 ****         4.9095  -2.4031  -1.1300 N.pl3          1 S1                 0.0000
     16 ****         5.1407  -3.2504  -2.1940 C.2            1 S1                 0.0000
     17 ****         5.7848  -4.3507  -1.7054 C.2            1 S1                 0.0000
     18 ****         5.9073  -4.0802  -0.3138 C.2            1 S1                 0.0000
     19 ****         5.3851  -2.9131   0.0272 N.2            1 S1                 0.0000
     20 ****        -1.4526   0.7704  -0.0119 C.3            1 S1                 0.0000
     21 ****        -5.7744   2.8644   1.5507 H              1 S1                 0.0000
     22 ****        -5.1083   4.3777   0.9413 H              1 S1                 0.0000
     23 ****        -4.4573   3.6620   2.4085 H              1 S1                 0.0000
     24 ****        -2.9387   3.2749   0.5067 H              1 S1                 0.0000
     25 ****        -5.3006   1.8332  -0.8090 H              1 S1                 0.0000
     26 ****        -3.6697   1.8778  -1.4634 H              1 S1                 0.0000
     27 ****        -4.5988   3.3614  -1.3289 H              1 S1                 0.0000
     28 ****        -3.8003   1.3659   2.3087 H              1 S1                 0.0000
     29 ****        -3.9959   0.4896   0.8287 H              1 S1                 0.0000
     30 ****        -2.1157   0.0405   3.1703 H              1 S1                 0.0000
     31 ****        -2.3084  -1.0100   1.7847 H              1 S1                 0.0000
     32 ****         0.3099   0.3032   2.6936 H              1 S1                 0.0000
     33 ****        -0.0989  -1.4002   2.7997 H              1 S1                 0.0000
     34 ****         0.5955   1.2745   0.4668 H              1 S1                 0.0000
     35 ****         0.1349  -0.7785  -1.7654 H              1 S1                 0.0000
     36 ****         0.3929   0.9276  -2.0296 H              1 S1                 0.0000
     37 ****         2.6152   0.7967  -1.4015 H              1 S1                 0.0000
     38 ****         4.5955  -0.5515  -2.0097 H              1 S1                 0.0000
     39 ****         4.5638  -0.5402  -0.2545 H              1 S1                 0.0000
     40 ****         4.8279  -3.0028  -3.1974 H              1 S1                 0.0000
     41 ****         6.1167  -5.2173  -2.2574 H              1 S1                 0.0000
     42 ****         6.3576  -4.6930   0.4529 H              1 S1                 0.0000
     43 ****        -1.9939  -0.0413  -0.5004 H              1 S1                 0.0000
     44 ****        -1.5790   1.6542  -0.6362 H              1 S1                 0.0000
     45 ****        -1.5708   1.8231   1.6951 LP             1 S1                 0.0000
     46 ****        -0.2681  -1.4803   0.4929 LP             1 S1                 0.0000
     47 ****         1.2000  -0.9217   0.9390 LP             1 S1                 0.0000
     48 ****         1.1535  -2.3379  -1.0594 LP             1 S1                 0.0000
     49 ****         2.6883  -3.1299  -0.9291 LP             1 S1                 0.0000
     50 ****         5.3503  -2.5009   0.9377 LP             1 S1                 0.0000
@<TRIPOS>BOND
    1    1    2 1     
    2    1   21 1     
    3    1   22 1     
    4    1   23 1     
    5    2    3 1     
    6    2    4 1     
    7    2   24 1     
    8    3   25 1     
    9    3   26 1     
   10    3   27 1     
   11    4    5 1     
   12    4   28 1     
   13    4   29 1     
   14    5   20 1     
   15    5    6 1     
   16    6    7 1     
   17    6   30 1     
   18    6   31 1     
   19    7    8 1     
   20    7   32 1     
   21    7   33 1     
   22    8    9 1     
   23    9   10 1     
   24    9   20 1     
   25    9   34 1     
   26   10   11 1     
   27   10   35 1     
   28   10   36 1     
   29   11   12 am    
   30   11   37 1     
   31   12   13 2     
   32   12   14 1     
   33   14   15 1     
   34   14   38 1     
   35   14   39 1     
   36   15   19 1     
   37   15   16 1     
   38   16   17 2     
   39   16   40 1     
   40   17   18 1     
   41   17   41 1     
   42   18   19 2     
   43   18   42 1     
   44   20   43 1     
   45   20   44 1     
   46    5   45 1     
   47    8   46 1     
   48    8   47 1     
   49   13   48 1     
   50   13   49 1     
   51   19   50 1     
@<TRIPOS>SUBSTRUCTURE
      1 S1             1
@<TRIPOS>SET
LONE_PAIRS      STATIC     ATOMS    <user>   **** ""
6 45 46 47 48 49 50
DONOR_HYDROGENS      STATIC     ATOMS    <user>   **** ""
1 37
ATOM$BLUE        STATIC     ATOMS    COLORGROUP SYSTEM
6 45 46 47 48 49 50
ATOM$RED        STATIC     ATOMS    COLORGROUP SYSTEM
1 37
