AV-unprocessed.smi:3290|AV-procd|sdf|12615|dock3
  -GOLD-   2272018543D 1   1.00000     0.00000
 Structure written by MMmdl.
 43 44  0  0  0  0  0  0  0  0  2 V2000
  151.9804  140.5546  159.3419 C   0  0  0  0  0  0  0  0  0  0  0  0
  152.2251  142.0135  158.9158 C   0  0  2  0  0  0  0  0  0  0  0  0
  152.2392  142.9203  160.1649 C   0  0  0  0  0  0  0  0  0  0  0  0
  152.5360  144.3833  159.8105 C   0  0  0  0  0  0  0  0  0  0  0  0
  151.5298  144.9084  158.7809 C   0  0  0  0  0  0  0  0  0  0  0  0
  151.5139  144.0192  157.5299 C   0  0  0  0  0  0  0  0  0  0  0  0
  151.2054  142.5422  157.8636 C   0  0  1  0  0  0  0  0  0  0  0  0
  151.1790  141.7173  156.5565 C   0  0  0  0  0  0  0  0  0  0  0  0
  150.0872  142.1359  155.6546 N   0  3  0  0  0  0  0  0  0  0  0  0
  148.9101  141.2449  155.6786 C   0  0  0  0  0  0  0  0  0  0  0  0
  148.9772  140.1925  154.5582 C   0  0  1  0  0  0  0  0  0  0  0  0
  149.3398  140.8354  153.3517 O   0  0  0  0  0  0  0  0  0  0  0  0
  149.9447  139.0749  154.9136 C   0  0  0  0  0  0  0  0  0  0  0  0
  151.0934  138.8266  154.1313 C   0  0  0  0  0  0  0  0  0  0  0  0
  151.9594  137.7840  154.5177 C   0  0  0  0  0  0  0  0  0  0  0  0
  151.7474  137.0082  155.6021 N   0  0  0  0  0  0  0  0  0  0  0  0
  150.6477  137.2503  156.3470 C   0  0  0  0  0  0  0  0  0  0  0  0
  149.7192  138.2678  156.0483 C   0  0  0  0  0  0  0  0  0  0  0  0
  150.9598  140.4088  159.6973 H   0  0  0  0  0  0  0  0  0  0  0  0
  152.6549  140.2647  160.1483 H   0  0  0  0  0  0  0  0  0  0  0  0
  152.1597  139.8593  158.5224 H   0  0  0  0  0  0  0  0  0  0  0  0
  153.2210  142.0558  158.4719 H   0  0  0  0  0  0  0  0  0  0  0  0
  151.2776  142.8590  160.6769 H   0  0  0  0  0  0  0  0  0  0  0  0
  152.9872  142.5666  160.8755 H   0  0  0  0  0  0  0  0  0  0  0  0
  152.5046  144.9991  160.7098 H   0  0  0  0  0  0  0  0  0  0  0  0
  153.5479  144.4671  159.4121 H   0  0  0  0  0  0  0  0  0  0  0  0
  150.5334  144.9402  159.2233 H   0  0  0  0  0  0  0  0  0  0  0  0
  151.7802  145.9334  158.5064 H   0  0  0  0  0  0  0  0  0  0  0  0
  150.7723  144.4075  156.8309 H   0  0  0  0  0  0  0  0  0  0  0  0
  152.4777  144.0894  157.0236 H   0  0  0  0  0  0  0  0  0  0  0  0
  150.2070  142.5171  158.3041 H   0  0  0  0  0  0  0  0  0  0  0  0
  152.1136  141.8513  156.0099 H   0  0  0  0  0  0  0  0  0  0  0  0
  151.0976  140.6528  156.7801 H   0  0  0  0  0  0  0  0  0  0  0  0
  149.7909  143.0642  155.9201 H   0  0  0  0  0  0  0  0  0  0  0  0
  148.8358  140.7607  156.6538 H   0  0  0  0  0  0  0  0  0  0  0  0
  148.0142  141.8551  155.5553 H   0  0  0  0  0  0  0  0  0  0  0  0
  147.9867  139.7590  154.4116 H   0  0  0  0  0  0  0  0  0  0  0  0
  149.4724  140.1749  152.6882 H   0  0  0  0  0  0  0  0  0  0  0  0
  151.3116  139.4201  153.2556 H   0  0  0  0  0  0  0  0  0  0  0  0
  152.8471  137.5695  153.9411 H   0  0  0  0  0  0  0  0  0  0  0  0
  150.5033  136.6156  157.2089 H   0  0  0  0  0  0  0  0  0  0  0  0
  148.8566  138.4206  156.6803 H   0  0  0  0  0  0  0  0  0  0  0  0
  150.4427  142.1690  154.7095 H   0  0  0  0  0  0  0  0  0  0  0  0
  1  2  1  0  0  0  0
  1 19  1  0  0  0  0
  1 20  1  0  0  0  0
  1 21  1  0  0  0  0
  2  7  1  0  0  0  0
  2  3  1  0  0  0  0
  2 22  1  0  0  0  0
  3  4  1  0  0  0  0
  3 23  1  0  0  0  0
  3 24  1  0  0  0  0
  4  5  1  0  0  0  0
  4 25  1  0  0  0  0
  4 26  1  0  0  0  0
  5  6  1  0  0  0  0
  5 27  1  0  0  0  0
  5 28  1  0  0  0  0
  6  7  1  0  0  0  0
  6 29  1  0  0  0  0
  6 30  1  0  0  0  0
  7  8  1  0  0  0  0
  7 31  1  0  0  0  0
  8  9  1  0  0  0  0
  8 32  1  0  0  0  0
  8 33  1  0  0  0  0
  9 10  1  0  0  0  0
  9 34  1  0  0  0  0
  9 43  1  0  0  0  0
 10 11  1  0  0  0  0
 10 35  1  0  0  0  0
 10 36  1  0  0  0  0
 11 12  1  0  0  0  0
 11 13  1  0  0  0  0
 11 37  1  0  0  0  0
 12 38  1  0  0  0  0
 13 18  1  0  0  0  0
 13 14  2  0  0  0  0
 14 15  1  0  0  0  0
 14 39  1  0  0  0  0
 15 16  2  0  0  0  0
 15 40  1  0  0  0  0
 16 17  1  0  0  0  0
 17 18  2  0  0  0  0
 17 41  1  0  0  0  0
 18 42  1  0  0  0  0
M  CHG  1   9   1
M  END
> <s_m_source_file>
AV-unprocessed.smi

> <i_m_source_file_index>
3290

> <i_lp_mmshare_version>
43012

> <i_f3d_flags>
0

> <s_epik_input>
W0NIM11bQ0BASF0xW0NIMl1bQ0gyXVtDSDJdW0NIMl1bQ0BIXTFbQ0gyXVtOSF1bQ0gyXVtDQEhdKFtPSF0pYzJbY0hdW2NIXW5bY0hdW2NIXTI=

> <s_epik_cmdline>
J2VwaWtfcHl0aG9uJywgJy1waCcsICc3LjAnLCAnLXRuJywgJzgnLCAnLW1hJywgJzIwMCcsICctbWV0YWxfYmluZGluZycsICctaW1hZScsICc8aW5maWxlLm1hZT4nLCAnLW9tYWUnLCAnPG91dGZpbGUubWFlPic=

> <r_lp_tautomer_probability>
1

> <r_epik_Ionization_Penalty>
0.00420552

> <r_epik_Ionization_Penalty_Charging>
0.00207255

> <r_epik_Ionization_Penalty_Neutral>
0.00213297

> <r_epik_State_Penalty>
-0

> <r_epik_Charging_Adjusted_Penalty>
0.00207255

> <i_epik_Tot_Q>
1

> <i_epik_Tot_abs_Q>
1

> <r_epik_Metal_State_Penalty>
-0

> <b_epik_Metal_Only>
0

> <s_lp_Force_Field>
OPLS_2005

> <r_lp_Energy>
17.7323

> <b_lp_Chiralities_Consistent>
1

> <s_lp_Variant>
AV-unprocessed.smi:3290-5

> <Gold.Version>
5.8.1

> <Gold.Id.Protein>
6NUR|6NUR_protein|mol2

> <Gold.PLP.Fitness>
51.8076

> <Gold.PLP.PLP>
-39.2897

> <Gold.PLP.part.hbond>
-4.3341

> <Gold.PLP.part.metal>
0.0000

> <Gold.PLP.part.buried>
-3.6330

> <Gold.PLP.part.nonpolar>
-31.1220

> <Gold.PLP.part.repulsive>
0.2152

> <Gold.PLP.ligand.clash>
0.0000

> <Gold.PLP.ligand.torsion>
0.6782

> <Gold.PLP.Chemscore.Hbond>
4.6175

> <Gold.PLP.Chemscore.CHOScore>
0.0000

> <Gold.PLP.Chemscore.Metal>
0.0000

> <Gold.Chemscore.Hbonds>
donor molecule, donor type, donor heavy atom, donor atom, acceptor molecule, acceptor atom, score
      L1  H     9    34       P1  8028  2.00
      L1  H    12    38       P1  7957  0.80
      P1  H  7989  7998       L1    12  0.03
      P1  H  8011  8017       L1    12  0.95
      P1  H 10752 10764       L1    16  0.53

> <Gold.PLP.Chemscore.Internal.Correction>
0.0218

> <Gold.Rescore>
     Score         DG    S(hbond)    S(metal)    S(lipo)     H(rot)  DE(clash)    DE(int)     intcor
     20.76     -21.52       2.09        0.00     122.42       2.05       0.14       0.62       ----

> <Gold.Chemscore.Fitness>
20.7626

> <Gold.Chemscore.DG>
-21.5209

> <Gold.Chemscore.ZeroCoef>
-5.4800

> <Gold.Chemscore.Hbond>
2.0854

> <Gold.Chemscore.Metal>
0.0000

> <Gold.Chemscore.Lipo>
122.4198

> <Gold.Chemscore.Internal_Hbond>
0.0000

> <Gold.Chemscore.DEClash>
0.1426

> <Gold.Chemscore.DEInternal>
0.6158

> <Gold.Chemscore.Rot>
2.0498

> <Gold.Chemscore.Internal.Correction>
   9.000000E+99

> <Gold.Chemscore.Hbonds>
donor molecule, donor type, donor heavy atom, donor atom, acceptor molecule, acceptor atom, score
      L1  H     9    34       P1  8028  0.97
      L1  H    12    38       P1  7957  0.75
      P1  H  8011  8017       L1    12  0.21
      P1  H 10752 10764       L1    16  0.05

> <Gold.Chemscore.Hbond.Weighted>
-6.9653

> <Gold.Chemscore.Metal.Weighted>
-0.0000

> <Gold.Chemscore.Lipo.Weighted>
-14.3231

> <Gold.Chemscore.Internal_Hbond.Weighted>
0.0000

> <Gold.Chemscore.DEClash.Weighted>
0.1426

> <Gold.Chemscore.DEInternal.Weighted>
0.6158

> <Gold.Chemscore.Rot.Weighted>
5.2475

> <Gold.Chemscore.Internal.Correction.Weighted>
   9.000000E+99

> <Gold.Protein.RotatedTorsions>
[ 6907 6896 6895 6894 ] final   13.28 input  -60.11 | X-H torsion
[ 7974 7965 7964 7962 ] final -147.57 input  175.53 | X-H torsion
[ 8008 7997 7996 7995 ] final  132.45 input   59.86 | X-H torsion
[ 10167 10162 10161 10158 ] final   45.31 input  -65.29 | X-H torsion
[ 10718 10713 10712 10709 ] final   82.99 input   66.30 | X-H torsion
[ 10763 10752 10751 10750 ] final  -32.98 input  -60.55 | X-H torsion
[ 11005 11000 10999 10996 ] final -147.65 input  -57.11 | X-H torsion

> <Gold.Protein.ActiveResidues>
 VAL166  LYS551  ARG553  GLY616  TRP617  ASP618  TYR619  PRO620  LYS621  CYS622 
 ASP623  PHE694  ASN695  SER759  ASP760  ASP761  ALA762  ILE779  LEU786  VAL792 
 PHE793  MET794  SER795  GLU796  ALA797  LYS798  CYS799  TRP800  GLU811  SER814 

> <Gold.Protein.RotatedAtoms>
  151.7837  135.0754  160.0377 H   0  0  0  0  0  0  0  0  0  0  0  0  # atno 6907 bound_to 6896
  152.3205  133.5844  159.5749 H   0  0  0  0  0  0  0  0  0  0  0  0  # atno 6908 bound_to 6896
  150.7367  133.9935  159.3656 H   0  0  0  0  0  0  0  0  0  0  0  0  # atno 6909 bound_to 6896
  144.8085  140.5310  143.5658 H   0  0  0  0  0  0  0  0  0  0  0  0  # atno 7974 bound_to 7965
  156.2982  140.2546  156.3092 H   0  0  0  0  0  0  0  0  0  0  0  0  # atno 8008 bound_to 7997
  154.9343  140.0397  157.2083 H   0  0  0  0  0  0  0  0  0  0  0  0  # atno 8009 bound_to 7997
  154.8188  140.2856  155.5806 H   0  0  0  0  0  0  0  0  0  0  0  0  # atno 8010 bound_to 7997
  140.3254  144.2654  150.6176 H   0  0  0  0  0  0  0  0  0  0  0  0  # atno 10167 bound_to 10162
  157.6869  131.0072  150.2457 H   0  0  0  0  0  0  0  0  0  0  0  0  # atno 10718 bound_to 10713
  153.8227  135.6873  153.4825 H   0  0  0  0  0  0  0  0  0  0  0  0  # atno 10763 bound_to 10752
  153.1559  135.4599  154.9701 H   0  0  0  0  0  0  0  0  0  0  0  0  # atno 10764 bound_to 10752
  154.7920  135.3305  154.7698 H   0  0  0  0  0  0  0  0  0  0  0  0  # atno 10765 bound_to 10752
  140.7695  134.3206  157.5079 H   0  0  0  0  0  0  0  0  0  0  0  0  # atno 11005 bound_to 11000
  145.5380  139.1475  143.3462 LP  0  0  0  0  0  0  0  0  0  0  0  0  # atno 17320 bound_to 7965
  146.2380  140.5520  142.8946 LP  0  0  0  0  0  0  0  0  0  0  0  0  # atno 17321 bound_to 7965
  140.5446  143.2217  151.8029 LP  0  0  0  0  0  0  0  0  0  0  0  0  # atno 17342 bound_to 10162
  139.4866  144.4557  151.9602 LP  0  0  0  0  0  0  0  0  0  0  0  0  # atno 17343 bound_to 10162
  156.3063  130.3765  149.7703 LP  0  0  0  0  0  0  0  0  0  0  0  0  # atno 17370 bound_to 10713
  156.5317  130.8261  151.3239 LP  0  0  0  0  0  0  0  0  0  0  0  0  # atno 17371 bound_to 10713
  139.8758  134.9252  156.3368 LP  0  0  0  0  0  0  0  0  0  0  0  0  # atno 17394 bound_to 11000
  140.9587  133.7403  156.0371 LP  0  0  0  0  0  0  0  0  0  0  0  0  # atno 17395 bound_to 11000

$$$$
