#       Name:                AV-unprocessed.smi:21
#       Creating user name   scv26
#       Creation time:       Thu Mar 26 15:37:32 2020


#       File generated by GOLD software.
#

@<TRIPOS>MOLECULE
AV-unprocessed.smi:21
    71    74     1
SMALL
NO_CHARGES


@<TRIPOS>ATOM
      1 ****        -4.0381   0.1340  -5.6832 C.3            1 S1                 0.0000
      2 ****        -3.3042  -0.2781  -4.5415 O.3            1 S1                 0.0000
      3 ****        -3.9194   0.0824  -3.3138 C.3            1 S1                 0.0000
      4 ****        -2.9823  -0.1922  -2.1462 C.3            1 S1                 0.0000
      5 ****        -3.9379  -0.3000  -0.9539 C.3            1 S1                 0.0000
      6 ****        -3.3677  -1.0960   0.2369 C.3            1 S1                 0.0000
      7 ****        -2.2574  -0.4031   0.8954 N.pl3          1 S1                 0.0000
      8 ****        -2.5790   0.7126   1.7768 C.3            1 S1                 0.0000
      9 ****        -0.9718  -0.5995   0.4808 C.ar           1 S1                 0.0000
     10 ****        -0.6735  -1.7641  -0.1555 N.ar           1 S1                 0.0000
     11 ****         0.5655  -2.0169  -0.5842 C.ar           1 S1                 0.0000
     12 ****         1.6521  -1.2527  -0.4842 N.ar           1 S1                 0.0000
     13 ****         1.3715  -0.0801   0.1502 C.ar           1 S1                 0.0000
     14 ****         0.1031   0.3271   0.6599 C.ar           1 S1                 0.0000
     15 ****         0.2233   1.5936   1.2255 N.2            1 S1                 0.0000
     16 ****         1.4790   1.9086   1.0678 C.2            1 S1                 0.0000
     17 ****         2.2428   0.9551   0.4375 N.pl3          1 S1                 0.0000
     18 ****         3.6614   1.0359   0.1346 C.3            1 S1                 0.0000
     19 ****         4.5344   0.0995   1.0076 C.3            1 S1                 0.0000
     20 ****         6.0224   0.2203   0.6023 C.3            1 S1                 0.0000
     21 ****         6.2320  -0.3105  -0.6896 O.3            1 S1                 0.0000
     22 ****         4.2885   0.3002   2.5296 C.3            1 S1                 0.0000
     23 ****         4.9297  -0.7375   3.4523 C.3            1 S1                 0.0000
     24 ****         5.5722   0.0944   4.5640 C.3            1 S1                 0.0000
     25 ****         4.9195   1.3519   4.4890 O.3            1 S1                 0.0000
     26 ****         4.7519   1.6402   3.1115 C.3            1 S1                 0.0000
     27 ****        -5.1570  -0.9411  -1.5016 N.4            1 S1                 1.0000
     28 ****        -6.4145  -0.4959  -0.8622 C.3            1 S1                 0.0000
     29 ****        -5.1448  -0.7762  -2.9750 C.3            1 S1                 0.0000
     30 ****        -4.1872   1.1408  -3.3072 H              1 S1                 0.0000
     31 ****        -4.1963   0.7116  -0.6345 H              1 S1                 0.0000
     32 ****        -3.5051  -0.1644  -6.5860 H              1 S1                 0.0000
     33 ****        -4.1547   1.2182  -5.7058 H              1 S1                 0.0000
     34 ****        -5.0266  -0.3254  -5.7126 H              1 S1                 0.0000
     35 ****        -2.4667  -1.1409  -2.3040 H              1 S1                 0.0000
     36 ****        -2.2266   0.5838  -2.0185 H              1 S1                 0.0000
     37 ****        -4.1514  -1.2348   0.9821 H              1 S1                 0.0000
     38 ****        -3.0978  -2.1052  -0.0742 H              1 S1                 0.0000
     39 ****        -2.4807   1.6619   1.2497 H              1 S1                 0.0000
     40 ****        -1.9231   0.7209   2.6479 H              1 S1                 0.0000
     41 ****        -3.6044   0.6391   2.1401 H              1 S1                 0.0000
     42 ****         0.7063  -2.9679  -1.0766 H              1 S1                 0.0000
     43 ****         1.8852   2.8475   1.4157 H              1 S1                 0.0000
     44 ****         3.7877   0.8003  -0.9226 H              1 S1                 0.0000
     45 ****         3.9818   2.0712   0.2586 H              1 S1                 0.0000
     46 ****         4.2261  -0.9243   0.7893 H              1 S1                 0.0000
     47 ****         6.3497   1.2601   0.6087 H              1 S1                 0.0000
     48 ****         6.6731  -0.3203   1.2877 H              1 S1                 0.0000
     49 ****         7.1487  -0.2277  -0.9041 H              1 S1                 0.0000
     50 ****         3.2180   0.2265   2.7234 H              1 S1                 0.0000
     51 ****         4.1608  -1.3937   3.8621 H              1 S1                 0.0000
     52 ****         5.6638  -1.3755   2.9618 H              1 S1                 0.0000
     53 ****         5.4573  -0.3587   5.5489 H              1 S1                 0.0000
     54 ****         6.6377   0.2318   4.3733 H              1 S1                 0.0000
     55 ****         5.7086   1.9635   2.7015 H              1 S1                 0.0000
     56 ****         4.0264   2.4387   2.9554 H              1 S1                 0.0000
     57 ****        -6.5863   0.5680  -1.0309 H              1 S1                 0.0000
     58 ****        -6.3835  -0.6716   0.2133 H              1 S1                 0.0000
     59 ****        -7.2632  -1.0482  -1.2668 H              1 S1                 0.0000
     60 ****        -6.0637  -0.3341  -3.3631 H              1 S1                 0.0000
     61 ****        -5.0467  -1.7687  -3.4166 H              1 S1                 0.0000
     62 ****        -5.0670  -1.9325  -1.3297 H              1 S1                 0.0000
     63 ****        -2.3984   0.1440  -4.5778 LP             1 S1                 0.0000
     64 ****        -3.2095  -1.2733  -4.5680 LP             1 S1                 0.0000
     65 ****        -1.3936  -2.4418  -0.3046 LP             1 S1                 0.0000
     66 ****         2.5555  -1.5066  -0.8296 LP             1 S1                 0.0000
     67 ****        -0.4942   2.1405   1.6570 LP             1 S1                 0.0000
     68 ****         5.6831   0.1955  -1.3549 LP             1 S1                 0.0000
     69 ****         5.9682  -1.2750  -0.7045 LP             1 S1                 0.0000
     70 ****         5.4792   2.0575   4.9235 LP             1 S1                 0.0000
     71 ****         4.0295   1.3062   4.9427 LP             1 S1                 0.0000
@<TRIPOS>BOND
    1    1    2 1     
    2    1   32 1     
    3    1   33 1     
    4    1   34 1     
    5    2    3 1     
    6    3   30 1     
    7    3   29 1     
    8    3    4 1     
    9    4    5 1     
   10    4   35 1     
   11    4   36 1     
   12    5   31 1     
   13    5    6 1     
   14    5   27 1     
   15    6    7 1     
   16    6   37 1     
   17    6   38 1     
   18    7    8 1     
   19    7    9 1     
   20    8   39 1     
   21    8   40 1     
   22    8   41 1     
   23    9   14 ar    
   24    9   10 ar    
   25   10   11 ar    
   26   11   12 ar    
   27   11   42 1     
   28   12   13 ar    
   29   13   17 1     
   30   13   14 ar    
   31   14   15 1     
   32   15   16 2     
   33   16   17 1     
   34   16   43 1     
   35   17   18 1     
   36   18   19 1     
   37   18   44 1     
   38   18   45 1     
   39   19   20 1     
   40   19   22 1     
   41   19   46 1     
   42   20   21 1     
   43   20   47 1     
   44   20   48 1     
   45   21   49 1     
   46   22   26 1     
   47   22   23 1     
   48   22   50 1     
   49   23   24 1     
   50   23   51 1     
   51   23   52 1     
   52   24   25 1     
   53   24   53 1     
   54   24   54 1     
   55   25   26 1     
   56   26   55 1     
   57   26   56 1     
   58   27   28 1     
   59   27   29 1     
   60   27   62 1     
   61   28   57 1     
   62   28   58 1     
   63   28   59 1     
   64   29   60 1     
   65   29   61 1     
   66    2   63 1     
   67    2   64 1     
   68   10   65 1     
   69   12   66 1     
   70   15   67 1     
   71   21   68 1     
   72   21   69 1     
   73   25   70 1     
   74   25   71 1     
@<TRIPOS>SUBSTRUCTURE
      1 S1             1
@<TRIPOS>SET
LONE_PAIRS      STATIC     ATOMS    <user>   **** ""
9 63 64 65 66 67 68 69 70 71
DONOR_HYDROGENS      STATIC     ATOMS    <user>   **** ""
2 49 62
ATOM$BLUE        STATIC     ATOMS    COLORGROUP SYSTEM
9 63 64 65 66 67 68 69 70 71
ATOM$RED        STATIC     ATOMS    COLORGROUP SYSTEM
2 49 62
