AV-unprocessed.smi:1145|AV-procd|sdf|4882|dock10
  -GOLD-   22720 3453D 1   1.00000     0.00000
 Structure written by MMmdl.
 36 37  0  0  0  0  0  0  0  0  1 V2000
  152.8360  138.9748  158.8327 C   0  0  0  0  0  0  0  0  0  0  0  0
  152.4861  140.3786  158.3185 C   0  0  2  0  0  0  0  0  0  0  0  0
  151.8805  141.2609  159.4268 C   0  0  0  0  0  0  0  0  0  0  0  0
  151.8510  142.6653  159.0554 N   0  0  0  0  0  0  0  0  0  0  0  0
  152.3473  143.7452  159.7547 C   0  0  0  0  0  0  0  0  0  0  0  0
  152.0982  144.8616  159.0091 C   0  0  0  0  0  0  0  0  0  0  0  0
  151.4384  144.3562  157.8540 C   0  0  0  0  0  0  0  0  0  0  0  0
  151.2920  143.0415  157.8844 N   0  0  0  0  0  0  0  0  0  0  0  0
  151.5526  140.2725  157.1991 N   0  0  0  0  0  0  0  0  0  0  0  0
  151.8410  139.7816  155.9844 C   0  0  0  0  0  0  0  0  0  0  0  0
  152.9395  139.3109  155.6869 O   0  0  0  0  0  0  0  0  0  0  0  0
  150.7149  139.8381  154.9439 C   0  0  2  0  0  0  0  0  0  0  0  0
  149.5175  140.6515  155.4623 C   0  0  0  0  0  0  0  0  0  0  0  0
  148.4155  140.7496  154.3955 C   0  0  0  0  0  0  0  0  0  0  0  0
  148.0960  139.4059  153.7235 C   0  0  0  0  0  0  0  0  0  0  0  0
  147.0405  139.2737  153.1082 O   0  0  0  0  0  0  0  0  0  0  0  0
  148.9984  138.4113  153.7932 N   0  0  0  0  0  0  0  0  0  0  0  0
  150.2425  138.4189  154.5634 C   0  0  0  0  0  0  0  0  0  0  0  0
  153.5524  139.0256  159.6532 H   0  0  0  0  0  0  0  0  0  0  0  0
  153.2835  138.3681  158.0445 H   0  0  0  0  0  0  0  0  0  0  0  0
  151.9507  138.4511  159.1947 H   0  0  0  0  0  0  0  0  0  0  0  0
  153.4122  140.8518  157.9868 H   0  0  0  0  0  0  0  0  0  0  0  0
  150.8697  140.9320  159.6744 H   0  0  0  0  0  0  0  0  0  0  0  0
  152.4691  141.1706  160.3405 H   0  0  0  0  0  0  0  0  0  0  0  0
  152.8336  143.6292  160.7122 H   0  0  0  0  0  0  0  0  0  0  0  0
  152.3500  145.8837  159.2510 H   0  0  0  0  0  0  0  0  0  0  0  0
  151.0637  144.9023  157.0009 H   0  0  0  0  0  0  0  0  0  0  0  0
  150.6237  140.6390  157.3497 H   0  0  0  0  0  0  0  0  0  0  0  0
  151.0941  140.3287  154.0451 H   0  0  0  0  0  0  0  0  0  0  0  0
  149.1079  140.1901  156.3629 H   0  0  0  0  0  0  0  0  0  0  0  0
  149.8365  141.6546  155.7486 H   0  0  0  0  0  0  0  0  0  0  0  0
  147.5066  141.1623  154.8346 H   0  0  0  0  0  0  0  0  0  0  0  0
  148.7270  141.4429  153.6135 H   0  0  0  0  0  0  0  0  0  0  0  0
  148.7735  137.5505  153.3154 H   0  0  0  0  0  0  0  0  0  0  0  0
  151.0143  137.9104  153.9843 H   0  0  0  0  0  0  0  0  0  0  0  0
  150.0747  137.8153  155.4568 H   0  0  0  0  0  0  0  0  0  0  0  0
  1  2  1  0  0  0  0
  1 19  1  0  0  0  0
  1 20  1  0  0  0  0
  1 21  1  0  0  0  0
  2  3  1  0  0  0  0
  2  9  1  0  0  0  0
  2 22  1  0  0  0  0
  3  4  1  0  0  0  0
  3 23  1  0  0  0  0
  3 24  1  0  0  0  0
  4  8  1  0  0  0  0
  4  5  1  0  0  0  0
  5  6  2  0  0  0  0
  5 25  1  0  0  0  0
  6  7  1  0  0  0  0
  6 26  1  0  0  0  0
  7  8  2  0  0  0  0
  7 27  1  0  0  0  0
  9 10  1  0  0  0  0
  9 28  1  0  0  0  0
 10 11  2  0  0  0  0
 10 12  1  0  0  0  0
 12 18  1  0  0  0  0
 12 13  1  0  0  0  0
 12 29  1  0  0  0  0
 13 14  1  0  0  0  0
 13 30  1  0  0  0  0
 13 31  1  0  0  0  0
 14 15  1  0  0  0  0
 14 32  1  0  0  0  0
 14 33  1  0  0  0  0
 15 16  2  0  0  0  0
 15 17  1  0  0  0  0
 17 18  1  0  0  0  0
 17 34  1  0  0  0  0
 18 35  1  0  0  0  0
 18 36  1  0  0  0  0
M  END
> <s_m_source_file>
AV-unprocessed.smi

> <i_m_source_file_index>
1145

> <i_lp_mmshare_version>
43012

> <i_f3d_flags>
0

> <s_epik_input>
bjFbY0hdW2NIXVtjSF1uMVtDSDJdW0NAQEhdKFtDSDNdKVtOSF1DKD1PKVtDQEBIXTJbQ0gyXVtDSDJdQyg9TylbTkhdW0NIMl0y

> <s_epik_cmdline>
J2VwaWtfcHl0aG9uJywgJy1waCcsICc3LjAnLCAnLXRuJywgJzgnLCAnLW1hJywgJzIwMCcsICctbWV0YWxfYmluZGluZycsICctaW1hZScsICc8aW5maWxlLm1hZT4nLCAnLW9tYWUnLCAnPG91dGZpbGUubWFlPic=

> <r_lp_tautomer_probability>
1

> <r_epik_Ionization_Penalty>
0.000314064

> <r_epik_Ionization_Penalty_Charging>
0

> <r_epik_Ionization_Penalty_Neutral>
0.000314064

> <r_epik_State_Penalty>
-0

> <r_epik_Charging_Adjusted_Penalty>
0

> <i_epik_Tot_Q>
0

> <i_epik_Tot_abs_Q>
0

> <r_epik_Metal_State_Penalty>
-0

> <b_epik_Metal_Only>
0

> <s_lp_Force_Field>
OPLS_2005

> <r_lp_Energy>
12.6815

> <b_lp_Chiralities_Consistent>
1

> <s_lp_Variant>
AV-unprocessed.smi:1145-1

> <Gold.Version>
5.8.1

> <Gold.Id.Protein>
6NUR|6NUR_protein|mol2

> <Gold.PLP.Fitness>
44.1192

> <Gold.PLP.PLP>
-37.5659

> <Gold.PLP.part.hbond>
-2.5661

> <Gold.PLP.part.metal>
0.0000

> <Gold.PLP.part.buried>
-3.1070

> <Gold.PLP.part.nonpolar>
-33.5850

> <Gold.PLP.part.repulsive>
0.4681

> <Gold.PLP.ligand.clash>
1.7239

> <Gold.PLP.ligand.torsion>
0.3537

> <Gold.PLP.Chemscore.Hbond>
2.0000

> <Gold.PLP.Chemscore.CHOScore>
0.9877

> <Gold.PLP.Chemscore.Metal>
0.0000

> <Gold.Chemscore.Hbonds>
donor molecule, donor type, donor heavy atom, donor atom, acceptor molecule, acceptor atom, score
      L1  H    17    34       P1  7948  1.00
      P1  H  7997  8008       L1    11  1.00
      L1  C     7    27       P1  8028  1.00

> <Gold.PLP.Chemscore.Internal.Correction>
0.0213

> <Gold.Rescore>
     Score         DG    S(hbond)    S(metal)    S(lipo)     H(rot)  DE(clash)    DE(int)     intcor
     17.35     -17.82       1.95        0.00      89.26       1.80       0.18       0.29       ----

> <Gold.Chemscore.Fitness>
17.3468

> <Gold.Chemscore.DG>
-17.8246

> <Gold.Chemscore.ZeroCoef>
-5.4800

> <Gold.Chemscore.Hbond>
1.9476

> <Gold.Chemscore.Metal>
0.0000

> <Gold.Chemscore.Lipo>
89.2569

> <Gold.Chemscore.Internal_Hbond>
0.0000

> <Gold.Chemscore.DEClash>
0.1844

> <Gold.Chemscore.DEInternal>
0.2933

> <Gold.Chemscore.Rot>
1.7982

> <Gold.Chemscore.Internal.Correction>
   9.000000E+99

> <Gold.Chemscore.Hbonds>
donor molecule, donor type, donor heavy atom, donor atom, acceptor molecule, acceptor atom, score
      L1  H    17    34       P1  7948  0.96
      P1  H  7997  8008       L1    11  0.94

> <Gold.Chemscore.Hbond.Weighted>
-6.5050

> <Gold.Chemscore.Metal.Weighted>
-0.0000

> <Gold.Chemscore.Lipo.Weighted>
-10.4431

> <Gold.Chemscore.Internal_Hbond.Weighted>
0.0000

> <Gold.Chemscore.DEClash.Weighted>
0.1844

> <Gold.Chemscore.DEInternal.Weighted>
0.2933

> <Gold.Chemscore.Rot.Weighted>
4.6035

> <Gold.Chemscore.Internal.Correction.Weighted>
   9.000000E+99

> <Gold.Protein.RotatedTorsions>
[ 6907 6896 6895 6894 ] final  174.68 input  -60.11 | X-H torsion
[ 7974 7965 7964 7962 ] final   48.99 input  175.53 | X-H torsion
[ 8008 7997 7996 7995 ] final  -41.53 input   59.86 | X-H torsion
[ 10167 10162 10161 10158 ] final   10.76 input  -65.29 | X-H torsion
[ 10718 10713 10712 10709 ] final   91.57 input   66.30 | X-H torsion
[ 10763 10752 10751 10750 ] final  -39.27 input  -60.55 | X-H torsion
[ 11005 11000 10999 10996 ] final  -35.38 input  -57.11 | X-H torsion

> <Gold.Protein.ActiveResidues>
 VAL166  LYS551  ARG553  GLY616  TRP617  ASP618  TYR619  PRO620  LYS621  CYS622 
 ASP623  PHE694  ASN695  SER759  ASP760  ASP761  ALA762  ILE779  LEU786  VAL792 
 PHE793  MET794  SER795  GLU796  ALA797  LYS798  CYS799  TRP800  GLU811  SER814 

> <Gold.Protein.RotatedAtoms>
  151.7485  133.3326  159.3384 H   0  0  0  0  0  0  0  0  0  0  0  0  # atno 6907 bound_to 6896
  150.7545  134.6214  159.6147 H   0  0  0  0  0  0  0  0  0  0  0  0  # atno 6908 bound_to 6896
  152.3484  134.7041  160.0295 H   0  0  0  0  0  0  0  0  0  0  0  0  # atno 6909 bound_to 6896
  146.0152  139.4588  142.9931 H   0  0  0  0  0  0  0  0  0  0  0  0  # atno 7974 bound_to 7965
  154.4003  140.1497  156.3205 H   0  0  0  0  0  0  0  0  0  0  0  0  # atno 8008 bound_to 7997
  155.8533  140.3457  155.5686 H   0  0  0  0  0  0  0  0  0  0  0  0  # atno 8009 bound_to 7997
  155.7960  140.0863  157.1974 H   0  0  0  0  0  0  0  0  0  0  0  0  # atno 8010 bound_to 7997
  140.6174  143.8278  150.7134 H   0  0  0  0  0  0  0  0  0  0  0  0  # atno 10167 bound_to 10162
  157.6960  131.0412  150.3750 H   0  0  0  0  0  0  0  0  0  0  0  0  # atno 10718 bound_to 10713
  153.9266  135.6776  153.4746 H   0  0  0  0  0  0  0  0  0  0  0  0  # atno 10763 bound_to 10752
  153.1001  135.4832  154.8848 H   0  0  0  0  0  0  0  0  0  0  0  0  # atno 10764 bound_to 10752
  154.7450  135.3170  154.8618 H   0  0  0  0  0  0  0  0  0  0  0  0  # atno 10765 bound_to 10752
  140.9792  133.7066  156.1654 H   0  0  0  0  0  0  0  0  0  0  0  0  # atno 11005 bound_to 11000
  145.7280  141.0052  143.1367 LP  0  0  0  0  0  0  0  0  0  0  0  0  # atno 17320 bound_to 7965
  144.6968  139.8950  143.7455 LP  0  0  0  0  0  0  0  0  0  0  0  0  # atno 17321 bound_to 7965
  140.1861  143.4075  152.1898 LP  0  0  0  0  0  0  0  0  0  0  0  0  # atno 17342 bound_to 10162
  139.5410  144.7256  151.4735 LP  0  0  0  0  0  0  0  0  0  0  0  0  # atno 17343 bound_to 10162
  156.4171  130.3945  149.6851 LP  0  0  0  0  0  0  0  0  0  0  0  0  # atno 17370 bound_to 10713
  156.4115  130.7724  151.2737 LP  0  0  0  0  0  0  0  0  0  0  0  0  # atno 17371 bound_to 10713
  140.7213  134.4355  157.5574 LP  0  0  0  0  0  0  0  0  0  0  0  0  # atno 17394 bound_to 11000
  139.8943  134.8710  156.2184 LP  0  0  0  0  0  0  0  0  0  0  0  0  # atno 17395 bound_to 11000

$$$$
