AV-unprocessed.smi:1873|AV-procd|sdf|7609|dock9
  -GOLD-   22720 9333D 1   1.00000     0.00000
 Structure written by MMmdl.
 37 39  0  0  0  0  0  0  0  0  2 V2000
  153.1566  138.7683  156.0532 O   0  0  0  0  0  0  0  0  0  0  0  0
  151.7573  138.7379  156.2603 C   0  0  2  0  0  0  0  0  0  0  0  0
  151.4145  139.4564  157.5803 C   0  0  0  0  0  0  0  0  0  0  0  0
  151.2145  140.8999  157.4028 N   0  0  0  0  0  0  0  0  0  0  0  0
  150.4003  141.5721  156.5449 C   0  0  0  0  0  0  0  0  0  0  0  0
  150.5674  142.9036  156.7784 N   0  3  0  0  0  0  0  0  0  0  0  0
  151.5031  143.0843  157.7998 C   0  0  0  0  0  0  0  0  0  0  0  0
  152.0013  144.2433  158.3870 C   0  0  0  0  0  0  0  0  0  0  0  0
  152.9540  144.0735  159.4135 C   0  0  0  0  0  0  0  0  0  0  0  0
  153.3756  142.7907  159.8203 C   0  0  0  0  0  0  0  0  0  0  0  0
  152.8629  141.6224  159.2190 C   0  0  0  0  0  0  0  0  0  0  0  0
  151.9230  141.7997  158.2047 C   0  0  0  0  0  0  0  0  0  0  0  0
  151.2013  137.3235  156.2382 C   0  0  0  0  0  0  0  0  0  0  0  0
  151.8227  136.2931  156.9752 C   0  0  0  0  0  0  0  0  0  0  0  0
  151.2945  134.9879  156.9537 C   0  0  0  0  0  0  0  0  0  0  0  0
  150.1360  134.6945  156.2065 C   0  0  0  0  0  0  0  0  0  0  0  0
  149.6751  133.3975  156.2151 O   0  0  0  0  0  0  0  0  0  0  0  0
  149.7010  132.6749  155.0637 C   0  0  0  0  0  0  0  0  0  0  0  0
  149.6598  131.3475  155.3362 F   0  0  0  0  0  0  0  0  0  0  0  0
  148.6138  132.9719  154.3119 F   0  0  0  0  0  0  0  0  0  0  0  0
  149.5193  135.7278  155.4613 C   0  0  0  0  0  0  0  0  0  0  0  0
  150.0466  137.0332  155.4822 C   0  0  0  0  0  0  0  0  0  0  0  0
  153.4569  137.8839  155.9084 H   0  0  0  0  0  0  0  0  0  0  0  0
  151.3111  139.2897  155.4320 H   0  0  0  0  0  0  0  0  0  0  0  0
  150.5140  139.0374  158.0315 H   0  0  0  0  0  0  0  0  0  0  0  0
  152.2161  139.3230  158.3083 H   0  0  0  0  0  0  0  0  0  0  0  0
  149.7369  141.1287  155.8159 H   0  0  0  0  0  0  0  0  0  0  0  0
  151.6799  145.2271  158.0781 H   0  0  0  0  0  0  0  0  0  0  0  0
  153.3693  144.9450  159.8987 H   0  0  0  0  0  0  0  0  0  0  0  0
  154.1077  142.7005  160.6099 H   0  0  0  0  0  0  0  0  0  0  0  0
  153.1907  140.6438  159.5373 H   0  0  0  0  0  0  0  0  0  0  0  0
  152.7065  136.5000  157.5610 H   0  0  0  0  0  0  0  0  0  0  0  0
  151.7799  134.2061  157.5195 H   0  0  0  0  0  0  0  0  0  0  0  0
  150.5874  132.8959  154.4683 H   0  0  0  0  0  0  0  0  0  0  0  0
  148.6417  135.5317  154.8634 H   0  0  0  0  0  0  0  0  0  0  0  0
  149.5601  137.8107  154.9117 H   0  0  0  0  0  0  0  0  0  0  0  0
  150.0759  143.6324  156.2772 H   0  0  0  0  0  0  0  0  0  0  0  0
  1  2  1  0  0  0  0
  1 23  1  0  0  0  0
  2  3  1  0  0  0  0
  2 13  1  0  0  0  0
  2 24  1  0  0  0  0
  3  4  1  0  0  0  0
  3 25  1  0  0  0  0
  3 26  1  0  0  0  0
  4 12  1  0  0  0  0
  4  5  1  0  0  0  0
  5  6  2  0  0  0  0
  5 27  1  0  0  0  0
  6  7  1  0  0  0  0
  6 37  1  0  0  0  0
  7 12  2  0  0  0  0
  7  8  1  0  0  0  0
  8  9  2  0  0  0  0
  8 28  1  0  0  0  0
  9 10  1  0  0  0  0
  9 29  1  0  0  0  0
 10 11  2  0  0  0  0
 10 30  1  0  0  0  0
 11 12  1  0  0  0  0
 11 31  1  0  0  0  0
 13 22  1  0  0  0  0
 13 14  2  0  0  0  0
 14 15  1  0  0  0  0
 14 32  1  0  0  0  0
 15 16  2  0  0  0  0
 15 33  1  0  0  0  0
 16 17  1  0  0  0  0
 16 21  1  0  0  0  0
 17 18  1  0  0  0  0
 18 19  1  0  0  0  0
 18 20  1  0  0  0  0
 18 34  1  0  0  0  0
 21 22  2  0  0  0  0
 21 35  1  0  0  0  0
 22 36  1  0  0  0  0
M  CHG  1   6   1
M  END
> <s_m_source_file>
AV-unprocessed.smi

> <i_m_source_file_index>
1873

> <i_lp_mmshare_version>
43012

> <i_f3d_flags>
0

> <s_epik_input>
RltDSF0oRilPYyhbY0hdW2NIXTEpW2NIXVtjSF1jMVtDQEhdKFtPSF0pW0NIMl1uKFtjSF1uMiljKGMyMylbY0hdW2NIXVtjSF1bY0hdMw==

> <s_epik_cmdline>
J2VwaWtfcHl0aG9uJywgJy1waCcsICc3LjAnLCAnLXRuJywgJzgnLCAnLW1hJywgJzIwMCcsICctbWV0YWxfYmluZGluZycsICctaW1hZScsICc8aW5maWxlLm1hZT4nLCAnLW9tYWUnLCAnPG91dGZpbGUubWFlPic=

> <r_lp_tautomer_probability>
1

> <r_epik_Ionization_Penalty>
1.3029

> <r_epik_Ionization_Penalty_Charging>
1.3029

> <r_epik_Ionization_Penalty_Neutral>
2.50501e-07

> <r_epik_State_Penalty>
1.377

> <r_epik_Charging_Adjusted_Penalty>
2.6799

> <i_epik_Tot_Q>
1

> <i_epik_Tot_abs_Q>
1

> <r_epik_Metal_State_Penalty>
5.40879

> <b_epik_Metal_Only>
0

> <s_lp_Force_Field>
OPLS_2005

> <r_lp_Energy>
14.9016

> <b_lp_Chiralities_Consistent>
1

> <s_lp_Variant>
AV-unprocessed.smi:1873-3

> <Gold.Version>
5.8.1

> <Gold.Id.Protein>
6NUR|6NUR_protein|mol2

> <Gold.PLP.Fitness>
51.4659

> <Gold.PLP.PLP>
-44.4188

> <Gold.PLP.part.hbond>
-2.0000

> <Gold.PLP.part.metal>
0.0000

> <Gold.PLP.part.buried>
-5.5360

> <Gold.PLP.part.nonpolar>
-37.3435

> <Gold.PLP.part.repulsive>
0.0680

> <Gold.PLP.ligand.clash>
0.0000

> <Gold.PLP.ligand.torsion>
1.0285

> <Gold.PLP.Chemscore.Hbond>
3.0000

> <Gold.PLP.Chemscore.CHOScore>
0.0000

> <Gold.PLP.Chemscore.Metal>
0.0000

> <Gold.Chemscore.Hbonds>
donor molecule, donor type, donor heavy atom, donor atom, acceptor molecule, acceptor atom, score
      L1  H     6    37       P1  8028  2.00
      P1  H  7997  8008       L1     1  1.00

> <Gold.PLP.Chemscore.Internal.Correction>
0.1040

> <Gold.Rescore>
     Score         DG    S(hbond)    S(metal)    S(lipo)     H(rot)  DE(clash)    DE(int)     intcor
     17.50     -18.49       1.96        0.00     109.30       2.47       0.01       0.98       ----

> <Gold.Chemscore.Fitness>
17.4956

> <Gold.Chemscore.DG>
-18.4924

> <Gold.Chemscore.ZeroCoef>
-5.4800

> <Gold.Chemscore.Hbond>
1.9580

> <Gold.Chemscore.Metal>
0.0000

> <Gold.Chemscore.Lipo>
109.2968

> <Gold.Chemscore.Internal_Hbond>
0.0000

> <Gold.Chemscore.DEClash>
0.0135

> <Gold.Chemscore.DEInternal>
0.9832

> <Gold.Chemscore.Rot>
2.4668

> <Gold.Chemscore.Internal.Correction>
   9.000000E+99

> <Gold.Chemscore.Hbonds>
donor molecule, donor type, donor heavy atom, donor atom, acceptor molecule, acceptor atom, score
      L1  H     6    37       P1  8028  1.00
      P1  H  7997  8008       L1     1  0.95

> <Gold.Chemscore.Hbond.Weighted>
-6.5397

> <Gold.Chemscore.Metal.Weighted>
-0.0000

> <Gold.Chemscore.Lipo.Weighted>
-12.7877

> <Gold.Chemscore.Internal_Hbond.Weighted>
0.0000

> <Gold.Chemscore.DEClash.Weighted>
0.0135

> <Gold.Chemscore.DEInternal.Weighted>
0.9832

> <Gold.Chemscore.Rot.Weighted>
6.3151

> <Gold.Chemscore.Internal.Correction.Weighted>
   9.000000E+99

> <Gold.Protein.RotatedTorsions>
[ 6907 6896 6895 6894 ] final  -54.13 input  -60.11 | X-H torsion
[ 7974 7965 7964 7962 ] final  -57.34 input  175.53 | X-H torsion
[ 8008 7997 7996 7995 ] final  -44.22 input   59.86 | X-H torsion
[ 10167 10162 10161 10158 ] final  -30.54 input  -65.29 | X-H torsion
[ 10718 10713 10712 10709 ] final  137.30 input   66.30 | X-H torsion
[ 10763 10752 10751 10750 ] final   -1.02 input  -60.55 | X-H torsion
[ 11005 11000 10999 10996 ] final  106.64 input  -57.11 | X-H torsion

> <Gold.Protein.ActiveResidues>
 VAL166  LYS551  ARG553  GLY616  TRP617  ASP618  TYR619  PRO620  LYS621  CYS622 
 ASP623  PHE694  ASN695  SER759  ASP760  ASP761  ALA762  ILE779  LEU786  VAL792 
 PHE793  MET794  SER795  GLU796  ALA797  LYS798  CYS799  TRP800  GLU811  SER814 

> <Gold.Protein.RotatedAtoms>
  150.8365  134.7640  159.6896 H   0  0  0  0  0  0  0  0  0  0  0  0  # atno 6907 bound_to 6896
  152.4461  134.5488  159.9870 H   0  0  0  0  0  0  0  0  0  0  0  0  # atno 6908 bound_to 6896
  151.5638  133.3362  159.3012 H   0  0  0  0  0  0  0  0  0  0  0  0  # atno 6909 bound_to 6896
  145.8522  140.8344  142.9980 H   0  0  0  0  0  0  0  0  0  0  0  0  # atno 7974 bound_to 7965
  154.3997  140.1428  156.3647 H   0  0  0  0  0  0  0  0  0  0  0  0  # atno 8008 bound_to 7997
  155.8148  140.3471  155.5458 H   0  0  0  0  0  0  0  0  0  0  0  0  # atno 8009 bound_to 7997
  155.8349  140.0918  157.1760 H   0  0  0  0  0  0  0  0  0  0  0  0  # atno 8010 bound_to 7997
  140.7248  143.3840  151.1548 H   0  0  0  0  0  0  0  0  0  0  0  0  # atno 10167 bound_to 10162
  157.4375  131.1054  151.0180 H   0  0  0  0  0  0  0  0  0  0  0  0  # atno 10718 bound_to 10713
  153.3394  135.6979  153.6880 H   0  0  0  0  0  0  0  0  0  0  0  0  # atno 10763 bound_to 10752
  153.5651  135.3527  155.2815 H   0  0  0  0  0  0  0  0  0  0  0  0  # atno 10764 bound_to 10752
  154.8634  135.4258  154.2603 H   0  0  0  0  0  0  0  0  0  0  0  0  # atno 10765 bound_to 10752
  139.8817  134.9375  156.5697 H   0  0  0  0  0  0  0  0  0  0  0  0  # atno 11005 bound_to 11000
  144.6729  140.0970  143.7462 LP  0  0  0  0  0  0  0  0  0  0  0  0  # atno 17320 bound_to 7965
  145.9344  139.2627  143.1306 LP  0  0  0  0  0  0  0  0  0  0  0  0  # atno 17321 bound_to 7965
  139.7434  143.8889  152.3056 LP  0  0  0  0  0  0  0  0  0  0  0  0  # atno 17342 bound_to 10162
  139.8718  144.7064  150.8979 LP  0  0  0  0  0  0  0  0  0  0  0  0  # atno 17343 bound_to 10162
  157.1055  130.5999  149.5470 LP  0  0  0  0  0  0  0  0  0  0  0  0  # atno 17370 bound_to 10713
  155.9936  130.4998  150.7387 LP  0  0  0  0  0  0  0  0  0  0  0  0  # atno 17371 bound_to 10713
  140.8108  133.8431  155.8808 LP  0  0  0  0  0  0  0  0  0  0  0  0  # atno 17394 bound_to 11000
  140.9508  134.1781  157.4729 LP  0  0  0  0  0  0  0  0  0  0  0  0  # atno 17395 bound_to 11000

$$$$
