AV-unprocessed.smi:1550|AV-procd|sdf|6226|dock4
  -GOLD-   22720 6403D 1   1.00000     0.00000
 Structure written by MMmdl.
 43 44  0  0  0  0  0  0  0  0  1 V2000
  150.2586  139.1588  155.7129 C   0  0  0  0  0  0  0  0  0  0  0  0
  149.6711  139.7870  156.9851 C   0  0  2  0  0  0  0  0  0  0  0  0
  150.7529  140.3452  157.7261 O   0  0  0  0  0  0  0  0  0  0  0  0
  151.1644  141.6476  157.3256 C   0  0  0  0  0  0  0  0  0  0  0  0
  151.0363  142.5934  158.5263 C   0  0  1  0  0  0  0  0  0  0  0  0
  152.2451  142.4839  159.4763 C   0  0  0  0  0  0  0  0  0  0  0  0
  152.1320  143.5061  160.6133 C   0  0  0  0  0  0  0  0  0  0  0  0
  151.9199  144.9068  160.0292 C   0  0  0  0  0  0  0  0  0  0  0  0
  150.7411  144.9011  159.0432 C   0  0  0  0  0  0  0  0  0  0  0  0
  150.9648  143.9279  158.0278 O   0  0  0  0  0  0  0  0  0  0  0  0
  148.9298  138.7405  157.8331 C   0  0  0  0  0  0  0  0  0  0  0  0
  147.7693  138.9552  158.1832 O   0  0  0  0  0  0  0  0  0  0  0  0
  149.6369  137.6341  158.1361 N   0  0  0  0  0  0  0  0  0  0  0  0
  149.2257  136.4842  158.8294 C   0  0  0  0  0  0  0  0  0  0  0  0
  148.6977  136.4855  160.0812 C   0  0  0  0  0  0  0  0  0  0  0  0
  148.2747  135.2618  160.7411 C   0  0  0  0  0  0  0  0  0  0  0  0
  147.6286  135.2830  162.1178 C   0  0  0  0  0  0  0  0  0  0  0  0
  146.4478  135.9025  162.0897 F   0  0  0  0  0  0  0  0  0  0  0  0
  147.4337  134.0368  162.5465 F   0  0  0  0  0  0  0  0  0  0  0  0
  148.4079  135.9078  163.0008 F   0  0  0  0  0  0  0  0  0  0  0  0
  148.4055  134.1236  160.0347 C   0  0  0  0  0  0  0  0  0  0  0  0
  148.9476  134.1138  158.7475 N   0  0  0  0  0  0  0  0  0  0  0  0
  149.3635  135.2191  158.0896 C   0  0  0  0  0  0  0  0  0  0  0  0
  149.8203  135.1297  156.9505 O   0  0  0  0  0  0  0  0  0  0  0  0
  149.0200  133.2179  158.2872 H   0  0  0  0  0  0  0  0  0  0  0  0
  149.4809  138.6990  155.1020 H   0  0  0  0  0  0  0  0  0  0  0  0
  150.9981  138.3922  155.9480 H   0  0  0  0  0  0  0  0  0  0  0  0
  150.7528  139.9145  155.1020 H   0  0  0  0  0  0  0  0  0  0  0  0
  148.9859  140.5844  156.6900 H   0  0  0  0  0  0  0  0  0  0  0  0
  152.2040  141.6035  156.9974 H   0  0  0  0  0  0  0  0  0  0  0  0
  150.5737  142.0259  156.4904 H   0  0  0  0  0  0  0  0  0  0  0  0
  150.1220  142.3532  159.0721 H   0  0  0  0  0  0  0  0  0  0  0  0
  152.3146  141.4766  159.8877 H   0  0  0  0  0  0  0  0  0  0  0  0
  153.1670  142.6590  158.9199 H   0  0  0  0  0  0  0  0  0  0  0  0
  151.2925  143.2462  161.2596 H   0  0  0  0  0  0  0  0  0  0  0  0
  153.0267  143.4848  161.2358 H   0  0  0  0  0  0  0  0  0  0  0  0
  151.7422  145.6272  160.8279 H   0  0  0  0  0  0  0  0  0  0  0  0
  152.8244  145.2287  159.5116 H   0  0  0  0  0  0  0  0  0  0  0  0
  149.8014  144.6960  159.5582 H   0  0  0  0  0  0  0  0  0  0  0  0
  150.6399  145.8802  158.5750 H   0  0  0  0  0  0  0  0  0  0  0  0
  150.6077  137.6338  157.8577 H   0  0  0  0  0  0  0  0  0  0  0  0
  148.5585  137.4085  160.6208 H   0  0  0  0  0  0  0  0  0  0  0  0
  148.1045  133.1491  160.3899 H   0  0  0  0  0  0  0  0  0  0  0  0
  1  2  1  0  0  0  0
  1 26  1  0  0  0  0
  1 27  1  0  0  0  0
  1 28  1  0  0  0  0
  2  3  1  0  0  0  0
  2 11  1  0  0  0  0
  2 29  1  0  0  0  0
  3  4  1  0  0  0  0
  4  5  1  0  0  0  0
  4 30  1  0  0  0  0
  4 31  1  0  0  0  0
  5 10  1  0  0  0  0
  5  6  1  0  0  0  0
  5 32  1  0  0  0  0
  6  7  1  0  0  0  0
  6 33  1  0  0  0  0
  6 34  1  0  0  0  0
  7  8  1  0  0  0  0
  7 35  1  0  0  0  0
  7 36  1  0  0  0  0
  8  9  1  0  0  0  0
  8 37  1  0  0  0  0
  8 38  1  0  0  0  0
  9 10  1  0  0  0  0
  9 39  1  0  0  0  0
  9 40  1  0  0  0  0
 11 12  2  0  0  0  0
 11 13  1  0  0  0  0
 13 14  1  0  0  0  0
 13 41  1  0  0  0  0
 14 23  1  0  0  0  0
 14 15  2  0  0  0  0
 15 16  1  0  0  0  0
 15 42  1  0  0  0  0
 16 17  1  0  0  0  0
 16 21  2  0  0  0  0
 17 18  1  0  0  0  0
 17 19  1  0  0  0  0
 17 20  1  0  0  0  0
 21 22  1  0  0  0  0
 21 43  1  0  0  0  0
 22 25  1  0  0  0  0
 22 23  1  0  0  0  0
 23 24  2  0  0  0  0
M  END
> <s_m_source_file>
AV-unprocessed.smi

> <i_m_source_file_index>
1550

> <i_lp_mmshare_version>
43012

> <i_f3d_flags>
0

> <s_epik_input>
TzFbQ0gyXVtDSDJdW0NIMl1bQ0gyXVtDQEhdMVtDSDJdT1tDQEBIXShbQ0gzXSlDKD1PKVtOSF1jMltjSF1jKEMoRikoRilGKVtjSF1bbkhdYzI9Tw==

> <s_epik_cmdline>
J2VwaWtfcHl0aG9uJywgJy1waCcsICc3LjAnLCAnLXRuJywgJzgnLCAnLW1hJywgJzIwMCcsICctbWV0YWxfYmluZGluZycsICctaW1hZScsICc8aW5maWxlLm1hZT4nLCAnLW9tYWUnLCAnPG91dGZpbGUubWFlPic=

> <r_lp_tautomer_probability>
0.999

> <r_epik_Ionization_Penalty>
0.00891333

> <r_epik_Ionization_Penalty_Charging>
0.00891323

> <r_epik_Ionization_Penalty_Neutral>
1.00146e-07

> <r_epik_State_Penalty>
0.00674197

> <r_epik_Charging_Adjusted_Penalty>
0.0156552

> <i_epik_Tot_Q>
0

> <i_epik_Tot_abs_Q>
0

> <r_epik_Metal_State_Penalty>
0.321024

> <b_epik_Metal_Only>
0

> <s_lp_Force_Field>
OPLS_2005

> <r_lp_Energy>
25.8894

> <b_lp_Chiralities_Consistent>
1

> <s_lp_Variant>
AV-unprocessed.smi:1550-3

> <Gold.Version>
5.8.1

> <Gold.Id.Protein>
6NUR|6NUR_protein|mol2

> <Gold.PLP.Fitness>
39.3091

> <Gold.PLP.PLP>
-44.3457

> <Gold.PLP.part.hbond>
-0.7966

> <Gold.PLP.part.metal>
0.0000

> <Gold.PLP.part.buried>
-6.1833

> <Gold.PLP.part.nonpolar>
-37.3187

> <Gold.PLP.part.repulsive>
0.3582

> <Gold.PLP.ligand.clash>
1.9929

> <Gold.PLP.ligand.torsion>
1.6187

> <Gold.PLP.Chemscore.Hbond>
0.0000

> <Gold.PLP.Chemscore.CHOScore>
0.0000

> <Gold.PLP.Chemscore.Metal>
0.0000

> <Gold.PLP.Chemscore.Internal.Correction>
0.1938

> <Gold.Rescore>
     Score         DG    S(hbond)    S(metal)    S(lipo)     H(rot)  DE(clash)    DE(int)     intcor
     10.81     -12.39       0.00        0.00      99.69       1.86       0.03       1.55       ----

> <Gold.Chemscore.Fitness>
10.8071

> <Gold.Chemscore.DG>
-12.3892

> <Gold.Chemscore.ZeroCoef>
-5.4800

> <Gold.Chemscore.Hbond>
0.0000

> <Gold.Chemscore.Metal>
0.0000

> <Gold.Chemscore.Lipo>
99.6859

> <Gold.Chemscore.Internal_Hbond>
0.0000

> <Gold.Chemscore.DEClash>
0.0294

> <Gold.Chemscore.DEInternal>
1.5527

> <Gold.Chemscore.Rot>
1.8571

> <Gold.Chemscore.Internal.Correction>
   9.000000E+99

> <Gold.Chemscore.Hbond.Weighted>
-0.0000

> <Gold.Chemscore.Metal.Weighted>
-0.0000

> <Gold.Chemscore.Lipo.Weighted>
-11.6632

> <Gold.Chemscore.Internal_Hbond.Weighted>
0.0000

> <Gold.Chemscore.DEClash.Weighted>
0.0294

> <Gold.Chemscore.DEInternal.Weighted>
1.5527

> <Gold.Chemscore.Rot.Weighted>
4.7541

> <Gold.Chemscore.Internal.Correction.Weighted>
   9.000000E+99

> <Gold.Protein.RotatedTorsions>
[ 6907 6896 6895 6894 ] final -154.14 input  -60.11 | X-H torsion
[ 7974 7965 7964 7962 ] final   68.11 input  175.53 | X-H torsion
[ 8008 7997 7996 7995 ] final -125.83 input   59.86 | X-H torsion
[ 10167 10162 10161 10158 ] final  137.61 input  -65.29 | X-H torsion
[ 10718 10713 10712 10709 ] final  163.47 input   66.30 | X-H torsion
[ 10763 10752 10751 10750 ] final   50.32 input  -60.55 | X-H torsion
[ 11005 11000 10999 10996 ] final   89.66 input  -57.11 | X-H torsion

> <Gold.Protein.ActiveResidues>
 VAL166  LYS551  ARG553  GLY616  TRP617  ASP618  TYR619  PRO620  LYS621  CYS622 
 ASP623  PHE694  ASN695  SER759  ASP760  ASP761  ALA762  ILE779  LEU786  VAL792 
 PHE793  MET794  SER795  GLU796  ALA797  LYS798  CYS799  TRP800  GLU811  SER814 

> <Gold.Protein.RotatedAtoms>
  151.2531  133.4340  159.2612 H   0  0  0  0  0  0  0  0  0  0  0  0  # atno 6907 bound_to 6896
  151.0599  134.9730  159.8265 H   0  0  0  0  0  0  0  0  0  0  0  0  # atno 6908 bound_to 6896
  152.5396  134.2481  159.8941 H   0  0  0  0  0  0  0  0  0  0  0  0  # atno 6909 bound_to 6896
  145.8066  139.3010  143.1124 H   0  0  0  0  0  0  0  0  0  0  0  0  # atno 7974 bound_to 7965
  155.2197  140.0421  157.2946 H   0  0  0  0  0  0  0  0  0  0  0  0  # atno 8008 bound_to 7997
  154.5958  140.2439  155.7830 H   0  0  0  0  0  0  0  0  0  0  0  0  # atno 8009 bound_to 7997
  156.2289  140.2945  156.0146 H   0  0  0  0  0  0  0  0  0  0  0  0  # atno 8010 bound_to 7997
  139.5138  144.6400  151.5594 H   0  0  0  0  0  0  0  0  0  0  0  0  # atno 10167 bound_to 10162
  157.1080  131.0460  151.2469 H   0  0  0  0  0  0  0  0  0  0  0  0  # atno 10718 bound_to 10713
  152.9785  135.5882  154.4233 H   0  0  0  0  0  0  0  0  0  0  0  0  # atno 10763 bound_to 10752
  154.3855  135.2767  155.2188 H   0  0  0  0  0  0  0  0  0  0  0  0  # atno 10764 bound_to 10752
  154.4083  135.6087  153.5992 H   0  0  0  0  0  0  0  0  0  0  0  0  # atno 10765 bound_to 10752
  139.8871  134.8565  156.3173 H   0  0  0  0  0  0  0  0  0  0  0  0  # atno 11005 bound_to 11000
  145.9822  140.8673  143.0109 LP  0  0  0  0  0  0  0  0  0  0  0  0  # atno 17320 bound_to 7965
  144.6762  140.2096  143.7378 LP  0  0  0  0  0  0  0  0  0  0  0  0  # atno 17321 bound_to 7965
  140.6163  143.9342  150.6491 LP  0  0  0  0  0  0  0  0  0  0  0  0  # atno 17342 bound_to 10162
  140.2601  143.3530  152.1330 LP  0  0  0  0  0  0  0  0  0  0  0  0  # atno 17343 bound_to 10162
  157.4584  130.7639  149.7214 LP  0  0  0  0  0  0  0  0  0  0  0  0  # atno 17370 bound_to 10713
  155.9857  130.3980  150.3247 LP  0  0  0  0  0  0  0  0  0  0  0  0  # atno 17371 bound_to 10713
  140.9810  133.7267  156.0672 LP  0  0  0  0  0  0  0  0  0  0  0  0  # atno 17394 bound_to 11000
  140.7749  134.3791  157.5500 LP  0  0  0  0  0  0  0  0  0  0  0  0  # atno 17395 bound_to 11000

$$$$
