AV-unprocessed.smi:2534|AV-procd|sdf|9974|dock4
  -GOLD-   2272014 23D 1   1.00000     0.00000
 Structure written by MMmdl.
 40 42  0  0  0  0  0  0  0  0  1 V2000
  151.8969  145.5110  159.6587 C   0  0  0  0  0  0  0  0  0  0  0  0
  152.1939  144.2329  158.8618 C   0  0  2  0  0  0  0  0  0  0  0  0
  151.0709  143.9226  157.8574 C   0  0  0  0  0  0  0  0  0  0  0  0
  151.3704  142.6484  157.0483 C   0  0  0  0  0  0  0  0  0  0  0  0
  151.6470  141.4130  157.9360 C   0  0  1  0  0  0  0  0  0  0  0  0
  150.4494  141.0793  158.6159 O   0  0  0  0  0  0  0  0  0  0  0  0
  152.0468  140.2086  157.0432 C   0  0  0  0  0  0  0  0  0  0  0  0
  150.9912  139.7353  156.1556 N   0  0  0  0  0  0  0  0  0  0  0  0
  150.7056  140.4269  155.0211 N   0  0  0  0  0  0  0  0  0  0  0  0
  149.7156  139.7627  154.4291 C   0  0  0  0  0  0  0  0  0  0  0  0
  149.3186  138.6212  155.1775 C   0  0  0  0  0  0  0  0  0  0  0  0
  148.3172  137.5736  155.0107 C   0  0  0  0  0  0  0  0  0  0  0  0
  148.2291  136.6586  155.9242 N   0  0  0  0  0  0  0  0  0  0  0  0
  149.0632  136.6653  157.0479 N   0  0  0  0  0  0  0  0  0  0  0  0
  148.8127  135.5546  157.9657 C   0  0  0  0  0  0  0  0  0  0  0  0
  150.0252  137.6057  157.3020 C   0  0  0  0  0  0  0  0  0  0  0  0
  150.7424  137.6131  158.3026 O   0  0  0  0  0  0  0  0  0  0  0  0
  150.1419  138.6496  156.2544 C   0  0  0  0  0  0  0  0  0  0  0  0
  152.7232  141.7430  158.9999 C   0  0  0  0  0  0  0  0  0  0  0  0
  152.4171  143.0275  159.7914 C   0  0  0  0  0  0  0  0  0  0  0  0
  150.9870  145.4068  160.2506 H   0  0  0  0  0  0  0  0  0  0  0  0
  151.7662  146.3657  158.9944 H   0  0  0  0  0  0  0  0  0  0  0  0
  152.7136  145.7469  160.3414 H   0  0  0  0  0  0  0  0  0  0  0  0
  153.1138  144.4015  158.3001 H   0  0  0  0  0  0  0  0  0  0  0  0
  150.1227  143.8100  158.3848 H   0  0  0  0  0  0  0  0  0  0  0  0
  150.9420  144.7625  157.1740 H   0  0  0  0  0  0  0  0  0  0  0  0
  150.5436  142.4464  156.3663 H   0  0  0  0  0  0  0  0  0  0  0  0
  152.2398  142.8376  156.4169 H   0  0  0  0  0  0  0  0  0  0  0  0
  149.7694  140.9353  157.9752 H   0  0  0  0  0  0  0  0  0  0  0  0
  152.9226  140.4521  156.4417 H   0  0  0  0  0  0  0  0  0  0  0  0
  152.3531  139.3730  157.6746 H   0  0  0  0  0  0  0  0  0  0  0  0
  149.3229  140.1293  153.4922 H   0  0  0  0  0  0  0  0  0  0  0  0
  147.6631  137.5663  154.1391 H   0  0  0  0  0  0  0  0  0  0  0  0
  149.4664  135.5467  158.8386 H   0  0  0  0  0  0  0  0  0  0  0  0
  148.9498  134.6042  157.4484 H   0  0  0  0  0  0  0  0  0  0  0  0
  147.7847  135.5938  158.3277 H   0  0  0  0  0  0  0  0  0  0  0  0
  152.8363  140.9155  159.7010 H   0  0  0  0  0  0  0  0  0  0  0  0
  153.6899  141.8575  158.5077 H   0  0  0  0  0  0  0  0  0  0  0  0
  153.2397  143.2342  160.4767 H   0  0  0  0  0  0  0  0  0  0  0  0
  151.5346  142.8725  160.4139 H   0  0  0  0  0  0  0  0  0  0  0  0
  1  2  1  0  0  0  0
  1 21  1  0  0  0  0
  1 22  1  0  0  0  0
  1 23  1  0  0  0  0
  2 20  1  0  0  0  0
  2  3  1  0  0  0  0
  2 24  1  0  0  0  0
  3  4  1  0  0  0  0
  3 25  1  0  0  0  0
  3 26  1  0  0  0  0
  4  5  1  0  0  0  0
  4 27  1  0  0  0  0
  4 28  1  0  0  0  0
  5  6  1  0  0  0  0
  5  7  1  0  0  0  0
  5 19  1  0  0  0  0
  6 29  1  0  0  0  0
  7  8  1  0  0  0  0
  7 30  1  0  0  0  0
  7 31  1  0  0  0  0
  8 18  1  0  0  0  0
  8  9  1  0  0  0  0
  9 10  2  0  0  0  0
 10 11  1  0  0  0  0
 10 32  1  0  0  0  0
 11 18  2  0  0  0  0
 11 12  1  0  0  0  0
 12 13  2  0  0  0  0
 12 33  1  0  0  0  0
 13 14  1  0  0  0  0
 14 15  1  0  0  0  0
 14 16  1  0  0  0  0
 15 34  1  0  0  0  0
 15 35  1  0  0  0  0
 15 36  1  0  0  0  0
 16 17  2  0  0  0  0
 16 18  1  0  0  0  0
 19 20  1  0  0  0  0
 19 37  1  0  0  0  0
 19 38  1  0  0  0  0
 20 39  1  0  0  0  0
 20 40  1  0  0  0  0
M  END
> <s_m_source_file>
AV-unprocessed.smi

> <i_m_source_file_index>
2534

> <i_lp_mmshare_version>
43012

> <i_f3d_flags>
0

> <s_epik_input>
W0NIMl0xW0NIMl1bQ0BIXShbQ0gzXSlbQ0gyXVtDSDJdW0NAQF0xKFtPSF0pW0NIMl1uKG5bY0hdMiljKGMyMyljKD1PKW4oW0NIM10pbltjSF0z

> <s_epik_cmdline>
J2VwaWtfcHl0aG9uJywgJy1waCcsICc3LjAnLCAnLXRuJywgJzgnLCAnLW1hJywgJzIwMCcsICctbWV0YWxfYmluZGluZycsICctaW1hZScsICc8aW5maWxlLm1hZT4nLCAnLW9tYWUnLCAnPG91dGZpbGUubWFlPic=

> <r_lp_tautomer_probability>
1

> <r_epik_Ionization_Penalty>
4.4666e-07

> <r_epik_Ionization_Penalty_Charging>
3.10141e-10

> <r_epik_Ionization_Penalty_Neutral>
4.46349e-07

> <r_epik_State_Penalty>
-0

> <r_epik_Charging_Adjusted_Penalty>
3.10141e-10

> <i_epik_Tot_Q>
0

> <i_epik_Tot_abs_Q>
0

> <r_epik_Metal_State_Penalty>
-0

> <b_epik_Metal_Only>
0

> <s_lp_Force_Field>
OPLS_2005

> <r_lp_Energy>
31.1347

> <b_lp_Chiralities_Consistent>
1

> <s_lp_Variant>
AV-unprocessed.smi:2534-1

> <Gold.Version>
5.8.1

> <Gold.Id.Protein>
6NUR|6NUR_protein|mol2

> <Gold.PLP.Fitness>
37.5949

> <Gold.PLP.PLP>
-32.2663

> <Gold.PLP.part.hbond>
-1.0000

> <Gold.PLP.part.metal>
0.0000

> <Gold.PLP.part.buried>
-2.9398

> <Gold.PLP.part.nonpolar>
-27.8205

> <Gold.PLP.part.repulsive>
0.1111

> <Gold.PLP.ligand.clash>
0.0000

> <Gold.PLP.ligand.torsion>
0.2812

> <Gold.PLP.Chemscore.Hbond>
0.8500

> <Gold.PLP.Chemscore.CHOScore>
1.1125

> <Gold.PLP.Chemscore.Metal>
0.0000

> <Gold.Chemscore.Hbonds>
donor molecule, donor type, donor heavy atom, donor atom, acceptor molecule, acceptor atom, score
      P1  H  7989  7998       L1     9  0.90
      L1  C    10    32       P1  7957  1.00

> <Gold.PLP.Chemscore.Internal.Correction>
0.0035

> <Gold.Rescore>
     Score         DG    S(hbond)    S(metal)    S(lipo)     H(rot)  DE(clash)    DE(int)     intcor
     14.88     -15.43       0.92        0.00      95.41       1.68       0.22       0.33       ----

> <Gold.Chemscore.Fitness>
14.8833

> <Gold.Chemscore.DG>
-15.4333

> <Gold.Chemscore.ZeroCoef>
-5.4800

> <Gold.Chemscore.Hbond>
0.9223

> <Gold.Chemscore.Metal>
0.0000

> <Gold.Chemscore.Lipo>
95.4064

> <Gold.Chemscore.Internal_Hbond>
0.0000

> <Gold.Chemscore.DEClash>
0.2204

> <Gold.Chemscore.DEInternal>
0.3296

> <Gold.Chemscore.Rot>
1.6758

> <Gold.Chemscore.Internal.Correction>
   9.000000E+99

> <Gold.Chemscore.Hbonds>
donor molecule, donor type, donor heavy atom, donor atom, acceptor molecule, acceptor atom, score
      P1  H  7989  7998       L1     9  0.17

> <Gold.Chemscore.Hbond.Weighted>
-3.0806

> <Gold.Chemscore.Metal.Weighted>
-0.0000

> <Gold.Chemscore.Lipo.Weighted>
-11.1626

> <Gold.Chemscore.Internal_Hbond.Weighted>
0.0000

> <Gold.Chemscore.DEClash.Weighted>
0.2204

> <Gold.Chemscore.DEInternal.Weighted>
0.3296

> <Gold.Chemscore.Rot.Weighted>
4.2899

> <Gold.Chemscore.Internal.Correction.Weighted>
   9.000000E+99

> <Gold.Protein.RotatedTorsions>
[ 6907 6896 6895 6894 ] final   78.93 input  -60.11 | X-H torsion
[ 7974 7965 7964 7962 ] final  100.34 input  175.53 | X-H torsion
[ 8008 7997 7996 7995 ] final -144.10 input   59.86 | X-H torsion
[ 10167 10162 10161 10158 ] final  162.95 input  -65.29 | X-H torsion
[ 10718 10713 10712 10709 ] final   94.99 input   66.30 | X-H torsion
[ 10763 10752 10751 10750 ] final   12.10 input  -60.55 | X-H torsion
[ 11005 11000 10999 10996 ] final   22.51 input  -57.11 | X-H torsion

> <Gold.Protein.ActiveResidues>
 VAL166  LYS551  ARG553  GLY616  TRP617  ASP618  TYR619  PRO620  LYS621  CYS622 
 ASP623  PHE694  ASN695  SER759  ASP760  ASP761  ALA762  ILE779  LEU786  VAL792 
 PHE793  MET794  SER795  GLU796  ALA797  LYS798  CYS799  TRP800  GLU811  SER814 

> <Gold.Protein.RotatedAtoms>
  152.5179  134.3589  159.9277 H   0  0  0  0  0  0  0  0  0  0  0  0  # atno 6907 bound_to 6896
  151.3541  133.3908  159.2691 H   0  0  0  0  0  0  0  0  0  0  0  0  # atno 6908 bound_to 6896
  150.9704  134.9096  159.7842 H   0  0  0  0  0  0  0  0  0  0  0  0  # atno 6909 bound_to 6896
  145.3869  139.2369  143.3373 H   0  0  0  0  0  0  0  0  0  0  0  0  # atno 7974 bound_to 7965
  155.5215  140.0592  157.2906 H   0  0  0  0  0  0  0  0  0  0  0  0  # atno 8008 bound_to 7997
  154.4516  140.1952  156.0448 H   0  0  0  0  0  0  0  0  0  0  0  0  # atno 8009 bound_to 7997
  156.0715  140.3259  155.7586 H   0  0  0  0  0  0  0  0  0  0  0  0  # atno 8010 bound_to 7997
  139.4867  144.4386  151.8980 H   0  0  0  0  0  0  0  0  0  0  0  0  # atno 10167 bound_to 10162
  157.6943  131.0531  150.4271 H   0  0  0  0  0  0  0  0  0  0  0  0  # atno 10718 bound_to 10713
  153.1857  135.6834  153.8419 H   0  0  0  0  0  0  0  0  0  0  0  0  # atno 10763 bound_to 10752
  153.7735  135.3192  155.3356 H   0  0  0  0  0  0  0  0  0  0  0  0  # atno 10764 bound_to 10752
  154.8087  135.4732  154.0555 H   0  0  0  0  0  0  0  0  0  0  0  0  # atno 10765 bound_to 10752
  140.3798  134.1933  155.7664 H   0  0  0  0  0  0  0  0  0  0  0  0  # atno 11005 bound_to 11000
  146.2816  140.4546  142.8774 LP  0  0  0  0  0  0  0  0  0  0  0  0  # atno 17320 bound_to 7965
  144.8467  140.6940  143.6194 LP  0  0  0  0  0  0  0  0  0  0  0  0  # atno 17321 bound_to 7965
  140.3837  144.2703  150.5906 LP  0  0  0  0  0  0  0  0  0  0  0  0  # atno 17342 bound_to 10162
  140.5210  143.2266  151.8389 LP  0  0  0  0  0  0  0  0  0  0  0  0  # atno 17343 bound_to 10162
  156.4641  130.4038  149.6558 LP  0  0  0  0  0  0  0  0  0  0  0  0  # atno 17370 bound_to 10713
  156.3663  130.7507  151.2485 LP  0  0  0  0  0  0  0  0  0  0  0  0  # atno 17371 bound_to 10713
  141.1927  133.8167  157.0828 LP  0  0  0  0  0  0  0  0  0  0  0  0  # atno 17394 bound_to 11000
  140.0487  134.9817  157.1097 LP  0  0  0  0  0  0  0  0  0  0  0  0  # atno 17395 bound_to 11000

$$$$
