AV-unprocessed.smi:89|AV-procd|sdf|828|dock10
  -GOLD-   2262017243D 1   1.00000     0.00000
 Structure written by MMmdl.
 54 56  0  0  0  0  0  0  0  0  1 V2000
  149.9569  140.7268  155.4708 C   0  0  0  0  0  0  0  0  0  0  0  0
  151.3958  140.4565  155.9413 C   0  0  0  0  0  0  0  0  0  0  0  0
  151.5660  140.5544  157.3927 N   0  0  0  0  0  0  0  0  0  0  0  0
  151.3987  139.3930  158.0760 C   0  0  0  0  0  0  0  0  0  0  0  0
  152.5031  138.8313  158.6285 N   0  0  0  0  0  0  0  0  0  0  0  0
  152.4110  137.6810  159.3007 C   0  0  0  0  0  0  0  0  0  0  0  0
  151.3296  136.9351  159.5331 N   0  0  0  0  0  0  0  0  0  0  0  0
  150.2165  137.4897  158.9727 C   0  0  0  0  0  0  0  0  0  0  0  0
  150.1605  138.7033  158.2300 C   0  0  0  0  0  0  0  0  0  0  0  0
  148.8546  138.9400  157.8162 N   0  0  0  0  0  0  0  0  0  0  0  0
  148.1793  137.9281  158.2878 C   0  0  0  0  0  0  0  0  0  0  0  0
  148.9177  137.0134  159.0035 N   0  0  0  0  0  0  0  0  0  0  0  0
  148.4268  135.7989  159.6364 C   0  0  0  0  0  0  0  0  0  0  0  0
  147.6628  136.0426  160.9624 C   0  0  2  0  0  0  0  0  0  0  0  0
  148.0785  137.2783  161.5154 O   0  0  0  0  0  0  0  0  0  0  0  0
  147.8475  134.9389  162.0049 C   0  0  0  0  0  0  0  0  0  0  0  0
  146.6318  134.0549  161.7728 C   0  0  0  0  0  0  0  0  0  0  0  0
  145.6061  135.0064  161.5493 O   0  0  0  0  0  0  0  0  0  0  0  0
  146.1359  136.0524  160.7418 C   0  0  0  0  0  0  0  0  0  0  0  0
  151.0354  141.7692  158.0323 C   0  0  1  0  0  0  0  0  0  0  0  0
  149.5151  141.7070  158.2747 C   0  0  0  0  0  0  0  0  0  0  0  0
  151.7885  142.1814  159.3164 C   0  0  0  0  0  0  0  0  0  0  0  0
  151.3897  143.9133  159.8185 S   0  0  0  0  0  0  0  0  0  0  0  0
  152.0425  144.8498  158.8913 O   0  0  0  0  0  0  0  0  0  0  0  0
  149.9379  144.0133  160.0320 O   0  0  0  0  0  0  0  0  0  0  0  0
  152.2294  144.0378  161.4526 C   0  0  0  0  0  0  0  0  0  0  0  0
  152.8584  142.6983  161.8475 C   0  0  0  0  0  0  0  0  0  0  0  0
  149.8692  140.5639  154.3967 H   0  0  0  0  0  0  0  0  0  0  0  0
  149.6472  141.7531  155.6698 H   0  0  0  0  0  0  0  0  0  0  0  0
  149.2511  140.0594  155.9660 H   0  0  0  0  0  0  0  0  0  0  0  0
  151.6725  139.4481  155.6320 H   0  0  0  0  0  0  0  0  0  0  0  0
  152.0874  141.1263  155.4310 H   0  0  0  0  0  0  0  0  0  0  0  0
  153.3371  137.3043  159.7091 H   0  0  0  0  0  0  0  0  0  0  0  0
  147.1158  137.8223  158.1294 H   0  0  0  0  0  0  0  0  0  0  0  0
  147.7843  135.2819  158.9223 H   0  0  0  0  0  0  0  0  0  0  0  0
  149.2774  135.1387  159.8099 H   0  0  0  0  0  0  0  0  0  0  0  0
  148.8090  137.1166  162.0928 H   0  0  0  0  0  0  0  0  0  0  0  0
  148.7873  134.3938  161.9316 H   0  0  0  0  0  0  0  0  0  0  0  0
  147.7903  135.3492  163.0145 H   0  0  0  0  0  0  0  0  0  0  0  0
  146.7618  133.4304  160.8875 H   0  0  0  0  0  0  0  0  0  0  0  0
  146.4071  133.4117  162.6239 H   0  0  0  0  0  0  0  0  0  0  0  0
  145.6700  137.0002  161.0148 H   0  0  0  0  0  0  0  0  0  0  0  0
  145.8817  135.8542  159.6997 H   0  0  0  0  0  0  0  0  0  0  0  0
  151.1897  142.5787  157.3179 H   0  0  0  0  0  0  0  0  0  0  0  0
  149.1388  142.6677  158.6268 H   0  0  0  0  0  0  0  0  0  0  0  0
  149.2568  140.9629  159.0281 H   0  0  0  0  0  0  0  0  0  0  0  0
  148.9722  141.4645  157.3613 H   0  0  0  0  0  0  0  0  0  0  0  0
  151.4822  141.5426  160.1448 H   0  0  0  0  0  0  0  0  0  0  0  0
  152.8682  142.0722  159.2244 H   0  0  0  0  0  0  0  0  0  0  0  0
  152.9890  144.8171  161.3889 H   0  0  0  0  0  0  0  0  0  0  0  0
  151.4920  144.3492  162.1928 H   0  0  0  0  0  0  0  0  0  0  0  0
  153.3565  142.7724  162.8143 H   0  0  0  0  0  0  0  0  0  0  0  0
  153.5993  142.3808  161.1135 H   0  0  0  0  0  0  0  0  0  0  0  0
  152.1025  141.9161  161.9202 H   0  0  0  0  0  0  0  0  0  0  0  0
  1  2  1  0  0  0  0
  1 28  1  0  0  0  0
  1 29  1  0  0  0  0
  1 30  1  0  0  0  0
  2  3  1  0  0  0  0
  2 31  1  0  0  0  0
  2 32  1  0  0  0  0
  3  4  1  0  0  0  0
  3 20  1  0  0  0  0
  4  9  1  0  0  0  0
  4  5  2  0  0  0  0
  5  6  1  0  0  0  0
  6  7  2  0  0  0  0
  6 33  1  0  0  0  0
  7  8  1  0  0  0  0
  8 12  1  0  0  0  0
  8  9  2  0  0  0  0
  9 10  1  0  0  0  0
 10 11  2  0  0  0  0
 11 12  1  0  0  0  0
 11 34  1  0  0  0  0
 12 13  1  0  0  0  0
 13 14  1  0  0  0  0
 13 35  1  0  0  0  0
 13 36  1  0  0  0  0
 14 19  1  0  0  0  0
 14 15  1  0  0  0  0
 14 16  1  0  0  0  0
 15 37  1  0  0  0  0
 16 17  1  0  0  0  0
 16 38  1  0  0  0  0
 16 39  1  0  0  0  0
 17 18  1  0  0  0  0
 17 40  1  0  0  0  0
 17 41  1  0  0  0  0
 18 19  1  0  0  0  0
 19 42  1  0  0  0  0
 19 43  1  0  0  0  0
 20 21  1  0  0  0  0
 20 22  1  0  0  0  0
 20 44  1  0  0  0  0
 21 45  1  0  0  0  0
 21 46  1  0  0  0  0
 21 47  1  0  0  0  0
 22 23  1  0  0  0  0
 22 48  1  0  0  0  0
 22 49  1  0  0  0  0
 23 24  2  0  0  0  0
 23 25  2  0  0  0  0
 23 26  1  0  0  0  0
 26 27  1  0  0  0  0
 26 50  1  0  0  0  0
 26 51  1  0  0  0  0
 27 52  1  0  0  0  0
 27 53  1  0  0  0  0
 27 54  1  0  0  0  0
M  END
> <s_m_source_file>
AV-unprocessed.smi

> <i_m_source_file_index>
89

> <i_lp_mmshare_version>
43012

> <i_f3d_flags>
0

> <s_epik_input>
W0NIM11bQ0gyXVMoPU8pKD1PKVtDSDJdW0NAQEhdKFtDSDNdKU4oW0NIMl1bQ0gzXSljKG5bY0hdbjEpYyhjMTIpbltjSF1uMltDSDJdW0NAQF0zKFtPSF0pW0NIMl1bQ0gyXU9bQ0gyXTM=

> <s_epik_cmdline>
J2VwaWtfcHl0aG9uJywgJy1waCcsICc3LjAnLCAnLXRuJywgJzgnLCAnLW1hJywgJzIwMCcsICctbWV0YWxfYmluZGluZycsICctaW1hZScsICc8aW5maWxlLm1hZT4nLCAnLW9tYWUnLCAnPG91dGZpbGUubWFlPic=

> <r_lp_tautomer_probability>
1

> <r_epik_Ionization_Penalty>
0.00103773

> <r_epik_Ionization_Penalty_Charging>
0

> <r_epik_Ionization_Penalty_Neutral>
0.00103773

> <r_epik_State_Penalty>
0.000558914

> <r_epik_Charging_Adjusted_Penalty>
0.000558914

> <i_epik_Tot_Q>
0

> <i_epik_Tot_abs_Q>
0

> <r_epik_Metal_State_Penalty>
-0

> <b_epik_Metal_Only>
0

> <s_lp_Force_Field>
OPLS_2005

> <r_lp_Energy>
26.3804

> <b_lp_Chiralities_Consistent>
1

> <s_lp_Variant>
AV-unprocessed.smi:89-4

> <Gold.Version>
5.8.1

> <Gold.Id.Protein>
6NUR|6NUR_protein|mol2

> <Gold.PLP.Fitness>
48.1351

> <Gold.PLP.PLP>
-45.8493

> <Gold.PLP.part.hbond>
-3.7068

> <Gold.PLP.part.metal>
0.0000

> <Gold.PLP.part.buried>
-7.9205

> <Gold.PLP.part.nonpolar>
-34.3133

> <Gold.PLP.part.repulsive>
0.1933

> <Gold.PLP.ligand.clash>
0.0000

> <Gold.PLP.ligand.torsion>
1.8885

> <Gold.PLP.Chemscore.Hbond>
1.6560

> <Gold.PLP.Chemscore.CHOScore>
0.0000

> <Gold.PLP.Chemscore.Metal>
0.0000

> <Gold.Chemscore.Hbonds>
donor molecule, donor type, donor heavy atom, donor atom, acceptor molecule, acceptor atom, score
      P1  H  6896  6907       L1     7  0.96
      P1  H  6934  6947       L1    15  0.57

> <Gold.PLP.Chemscore.Internal.Correction>
1.0949

> <Gold.Rescore>
     Score         DG    S(hbond)    S(metal)    S(lipo)     H(rot)  DE(clash)    DE(int)     intcor
      7.27     -12.83       1.90        0.00      84.16       3.45       0.04       5.53       ----

> <Gold.Chemscore.Fitness>
7.2655

> <Gold.Chemscore.DG>
-12.8292

> <Gold.Chemscore.ZeroCoef>
-5.4800

> <Gold.Chemscore.Hbond>
1.8983

> <Gold.Chemscore.Metal>
0.0000

> <Gold.Chemscore.Lipo>
84.1635

> <Gold.Chemscore.Internal_Hbond>
0.0000

> <Gold.Chemscore.DEClash>
0.0363

> <Gold.Chemscore.DEInternal>
5.5274

> <Gold.Chemscore.Rot>
3.4524

> <Gold.Chemscore.Internal.Correction>
   9.000000E+99

> <Gold.Chemscore.Hbonds>
donor molecule, donor type, donor heavy atom, donor atom, acceptor molecule, acceptor atom, score
      P1  H  6896  6907       L1     7  0.76
      P1  H  6934  6947       L1    15  0.53

> <Gold.Chemscore.Hbond.Weighted>
-6.3403

> <Gold.Chemscore.Metal.Weighted>
-0.0000

> <Gold.Chemscore.Lipo.Weighted>
-9.8471

> <Gold.Chemscore.Internal_Hbond.Weighted>
0.0000

> <Gold.Chemscore.DEClash.Weighted>
0.0363

> <Gold.Chemscore.DEInternal.Weighted>
5.5274

> <Gold.Chemscore.Rot.Weighted>
8.8382

> <Gold.Chemscore.Internal.Correction.Weighted>
   9.000000E+99

> <Gold.Protein.RotatedTorsions>
[ 6907 6896 6895 6894 ] final  -29.96 input  -60.11 | X-H torsion
[ 7974 7965 7964 7962 ] final  -19.33 input  175.53 | X-H torsion
[ 8008 7997 7996 7995 ] final    5.80 input   59.86 | X-H torsion
[ 10167 10162 10161 10158 ] final  -14.21 input  -65.29 | X-H torsion
[ 10718 10713 10712 10709 ] final   80.45 input   66.30 | X-H torsion
[ 10763 10752 10751 10750 ] final  130.59 input  -60.55 | X-H torsion
[ 11005 11000 10999 10996 ] final -159.95 input  -57.11 | X-H torsion

> <Gold.Protein.ActiveResidues>
 VAL166  LYS551  ARG553  GLY616  TRP617  ASP618  TYR619  PRO620  LYS621  CYS622 
 ASP623  PHE694  ASN695  SER759  ASP760  ASP761  ALA762  ILE779  LEU786  VAL792 
 PHE793  MET794  SER795  GLU796  ALA797  LYS798  CYS799  TRP800  GLU811  SER814 

> <Gold.Protein.RotatedAtoms>
  151.1120  135.0032  159.8498 H   0  0  0  0  0  0  0  0  0  0  0  0  # atno 6907 bound_to 6896
  152.5443  134.1824  159.8651 H   0  0  0  0  0  0  0  0  0  0  0  0  # atno 6908 bound_to 6896
  151.1876  133.4642  159.2627 H   0  0  0  0  0  0  0  0  0  0  0  0  # atno 6909 bound_to 6896
  146.1846  140.4047  142.8481 H   0  0  0  0  0  0  0  0  0  0  0  0  # atno 7974 bound_to 7965
  154.7329  140.2734  155.6440 H   0  0  0  0  0  0  0  0  0  0  0  0  # atno 8008 bound_to 7997
  156.2854  140.2712  156.1960 H   0  0  0  0  0  0  0  0  0  0  0  0  # atno 8009 bound_to 7997
  155.0358  140.0371  157.2481 H   0  0  0  0  0  0  0  0  0  0  0  0  # atno 8010 bound_to 7997
  140.7197  143.5345  150.9480 H   0  0  0  0  0  0  0  0  0  0  0  0  # atno 10167 bound_to 10162
  157.6806  130.9960  150.2080 H   0  0  0  0  0  0  0  0  0  0  0  0  # atno 10718 bound_to 10713
  153.7605  135.3196  155.3336 H   0  0  0  0  0  0  0  0  0  0  0  0  # atno 10763 bound_to 10752
  154.8232  135.4589  154.0842 H   0  0  0  0  0  0  0  0  0  0  0  0  # atno 10764 bound_to 10752
  153.2072  135.6931  153.8242 H   0  0  0  0  0  0  0  0  0  0  0  0  # atno 10765 bound_to 10752
  140.6369  134.4592  157.5232 H   0  0  0  0  0  0  0  0  0  0  0  0  # atno 11005 bound_to 11000
  144.8375  140.6805  143.6251 LP  0  0  0  0  0  0  0  0  0  0  0  0  # atno 17320 bound_to 7965
  145.3975  139.1604  143.4195 LP  0  0  0  0  0  0  0  0  0  0  0  0  # atno 17321 bound_to 7965
  139.9067  143.6770  152.3122 LP  0  0  0  0  0  0  0  0  0  0  0  0  # atno 17342 bound_to 10162
  139.7139  144.7615  151.1067 LP  0  0  0  0  0  0  0  0  0  0  0  0  # atno 17343 bound_to 10162
  156.2757  130.3727  149.7986 LP  0  0  0  0  0  0  0  0  0  0  0  0  # atno 17370 bound_to 10713
  156.5689  130.8416  151.3351 LP  0  0  0  0  0  0  0  0  0  0  0  0  # atno 17371 bound_to 10713
  139.9095  134.8376  156.1582 LP  0  0  0  0  0  0  0  0  0  0  0  0  # atno 17394 bound_to 11000
  141.0635  133.6830  156.1999 LP  0  0  0  0  0  0  0  0  0  0  0  0  # atno 17395 bound_to 11000

$$$$
