AV-unprocessed.smi:999|AV-procd|sdf|4353|dock1
  -GOLD-   22720 2253D 1   1.00000     0.00000
 Structure written by MMmdl.
 37 38  0  0  0  0  0  0  0  0  2 V2000
  144.1340  131.6133  157.7745 C   0  0  0  0  0  0  0  0  0  0  0  0
  142.9251  131.8496  158.7033 C   0  0  2  0  0  0  0  0  0  0  0  0
  143.3349  132.3919  160.0814 C   0  0  0  0  0  0  0  0  0  0  0  0
  142.5444  132.3737  161.0258 O   0  0  0  0  0  0  0  0  0  0  0  0
  144.5844  132.8729  160.1776 N   0  0  0  0  0  0  0  0  0  0  0  0
  145.1880  133.4376  161.3797 C   0  0  2  0  0  0  0  0  0  0  0  0
  144.6288  134.8545  161.6102 C   0  0  0  0  0  0  0  0  0  0  0  0
  145.3009  135.5401  162.8146 C   0  0  0  0  0  0  0  0  0  0  0  0
  146.8425  135.5878  162.6795 C   0  0  2  0  0  0  0  0  0  0  0  0
  147.3138  136.5815  161.5914 C   0  0  0  0  0  0  0  0  0  0  0  0
  148.5451  136.7214  161.4200 O   0  0  0  0  0  0  0  0  0  0  0  0
  146.4382  137.2147  160.9608 O   0  5  0  0  0  0  0  0  0  0  0  0
  147.3847  134.1544  162.4569 C   0  0  0  0  0  0  0  0  0  0  0  0
  146.7257  133.4567  161.2519 C   0  0  0  0  0  0  0  0  0  0  0  0
  142.0965  130.6591  158.8562 N   0  0  0  0  0  0  0  0  0  0  0  0
  142.1490  129.4910  158.1225 C   0  0  0  0  0  0  0  0  0  0  0  0
  141.1611  128.6695  158.5846 C   0  0  0  0  0  0  0  0  0  0  0  0
  140.5353  129.4362  159.6060 C   0  0  0  0  0  0  0  0  0  0  0  0
  141.0886  130.6277  159.7590 N   0  0  0  0  0  0  0  0  0  0  0  0
  144.7100  132.5296  157.6413 H   0  0  0  0  0  0  0  0  0  0  0  0
  143.8066  131.2881  156.7869 H   0  0  0  0  0  0  0  0  0  0  0  0
  144.8115  130.8531  158.1650 H   0  0  0  0  0  0  0  0  0  0  0  0
  142.3038  132.6102  158.2271 H   0  0  0  0  0  0  0  0  0  0  0  0
  145.1663  132.8444  159.3531 H   0  0  0  0  0  0  0  0  0  0  0  0
  144.9149  132.8247  162.2409 H   0  0  0  0  0  0  0  0  0  0  0  0
  144.7723  135.4608  160.7147 H   0  0  0  0  0  0  0  0  0  0  0  0
  143.5518  134.8056  161.7744 H   0  0  0  0  0  0  0  0  0  0  0  0
  144.8865  136.5393  162.9538 H   0  0  0  0  0  0  0  0  0  0  0  0
  145.0436  134.9925  163.7217 H   0  0  0  0  0  0  0  0  0  0  0  0
  147.2530  135.9625  163.6177 H   0  0  0  0  0  0  0  0  0  0  0  0
  148.4690  134.1573  162.3400 H   0  0  0  0  0  0  0  0  0  0  0  0
  147.1931  133.5630  163.3531 H   0  0  0  0  0  0  0  0  0  0  0  0
  147.1070  132.4383  161.1711 H   0  0  0  0  0  0  0  0  0  0  0  0
  147.0147  133.9631  160.3300 H   0  0  0  0  0  0  0  0  0  0  0  0
  142.8785  129.3432  157.3397 H   0  0  0  0  0  0  0  0  0  0  0  0
  140.9181  127.6750  158.2411 H   0  0  0  0  0  0  0  0  0  0  0  0
  139.6979  129.1668  160.2325 H   0  0  0  0  0  0  0  0  0  0  0  0
  1  2  1  0  0  0  0
  1 20  1  0  0  0  0
  1 21  1  0  0  0  0
  1 22  1  0  0  0  0
  2  3  1  0  0  0  0
  2 15  1  0  0  0  0
  2 23  1  0  0  0  0
  3  4  2  0  0  0  0
  3  5  1  0  0  0  0
  5  6  1  0  0  0  0
  5 24  1  0  0  0  0
  6 14  1  0  0  0  0
  6  7  1  0  0  0  0
  6 25  1  0  0  0  0
  7  8  1  0  0  0  0
  7 26  1  0  0  0  0
  7 27  1  0  0  0  0
  8  9  1  0  0  0  0
  8 28  1  0  0  0  0
  8 29  1  0  0  0  0
  9 10  1  0  0  0  0
  9 13  1  0  0  0  0
  9 30  1  0  0  0  0
 10 11  2  0  0  0  0
 10 12  1  0  0  0  0
 13 14  1  0  0  0  0
 13 31  1  0  0  0  0
 13 32  1  0  0  0  0
 14 33  1  0  0  0  0
 14 34  1  0  0  0  0
 15 19  1  0  0  0  0
 15 16  1  0  0  0  0
 16 17  2  0  0  0  0
 16 35  1  0  0  0  0
 17 18  1  0  0  0  0
 17 36  1  0  0  0  0
 18 19  2  0  0  0  0
 18 37  1  0  0  0  0
M  CHG  1  12  -1
M  END
> <s_m_source_file>
AV-unprocessed.smi

> <i_m_source_file_index>
999

> <i_lp_mmshare_version>
43012

> <i_f3d_flags>
0

> <s_epik_input>
bjFbY0hdW2NIXVtjSF1uMVtDQEhdKFtDSDNdKUMoPU8pW05IXVtDQEBIXTJbQ0gyXVtDSDJdW0NAQEhdKEMoPU8pW09IXSlbQ0gyXVtDSDJdMg==

> <s_epik_cmdline>
J2VwaWtfcHl0aG9uJywgJy1waCcsICc3LjAnLCAnLXRuJywgJzgnLCAnLW1hJywgJzIwMCcsICctbWV0YWxfYmluZGluZycsICctaW1hZScsICc8aW5maWxlLm1hZT4nLCAnLW9tYWUnLCAnPG91dGZpbGUubWFlPic=

> <r_lp_tautomer_probability>
1

> <r_epik_Ionization_Penalty>
0.00221712

> <r_epik_Ionization_Penalty_Charging>
0.00217268

> <r_epik_Ionization_Penalty_Neutral>
4.44343e-05

> <r_epik_State_Penalty>
0.0014925

> <r_epik_Charging_Adjusted_Penalty>
0.00366518

> <i_epik_Tot_Q>
-1

> <i_epik_Tot_abs_Q>
1

> <r_epik_Metal_State_Penalty>
-0

> <b_epik_Metal_Only>
0

> <s_lp_Force_Field>
OPLS_2005

> <r_lp_Energy>
7.42219

> <b_lp_Chiralities_Consistent>
1

> <s_lp_Variant>
AV-unprocessed.smi:999-3

> <Gold.Version>
5.8.1

> <Gold.Id.Protein>
6NUR|6NUR_protein|mol2

> <Gold.PLP.Fitness>
46.0407

> <Gold.PLP.PLP>
-33.0312

> <Gold.PLP.part.hbond>
-2.0000

> <Gold.PLP.part.metal>
0.0000

> <Gold.PLP.part.buried>
-4.9556

> <Gold.PLP.part.nonpolar>
-26.4157

> <Gold.PLP.part.repulsive>
0.1657

> <Gold.PLP.ligand.clash>
0.0000

> <Gold.PLP.ligand.torsion>
1.0586

> <Gold.PLP.Chemscore.Hbond>
4.0000

> <Gold.PLP.Chemscore.CHOScore>
0.9954

> <Gold.PLP.Chemscore.Metal>
0.0000

> <Gold.Chemscore.Hbonds>
donor molecule, donor type, donor heavy atom, donor atom, acceptor molecule, acceptor atom, score
      P1  H  6931  6943       L1    11  2.00
      P1  H  6934  6947       L1    12  2.00
      L1  C    16    35       P1 10956  1.00

> <Gold.PLP.Chemscore.Internal.Correction>
0.1404

> <Gold.Rescore>
     Score         DG    S(hbond)    S(metal)    S(lipo)     H(rot)  DE(clash)    DE(int)     intcor
     10.81     -14.11       1.65        0.00      69.97       1.98       0.58       2.72       ----

> <Gold.Chemscore.Fitness>
10.8140

> <Gold.Chemscore.DG>
-14.1103

> <Gold.Chemscore.ZeroCoef>
-5.4800

> <Gold.Chemscore.Hbond>
1.6485

> <Gold.Chemscore.Metal>
0.0000

> <Gold.Chemscore.Lipo>
69.9694

> <Gold.Chemscore.Internal_Hbond>
0.0000

> <Gold.Chemscore.DEClash>
0.5777

> <Gold.Chemscore.DEInternal>
2.7186

> <Gold.Chemscore.Rot>
1.9774

> <Gold.Chemscore.Internal.Correction>
   9.000000E+99

> <Gold.Chemscore.Hbonds>
donor molecule, donor type, donor heavy atom, donor atom, acceptor molecule, acceptor atom, score
      P1  H  6931  6943       L1    11  0.78
      P1  H  6934  6947       L1    12  0.39

> <Gold.Chemscore.Hbond.Weighted>
-5.5059

> <Gold.Chemscore.Metal.Weighted>
-0.0000

> <Gold.Chemscore.Lipo.Weighted>
-8.1864

> <Gold.Chemscore.Internal_Hbond.Weighted>
0.0000

> <Gold.Chemscore.DEClash.Weighted>
0.5777

> <Gold.Chemscore.DEInternal.Weighted>
2.7186

> <Gold.Chemscore.Rot.Weighted>
5.0620

> <Gold.Chemscore.Internal.Correction.Weighted>
   9.000000E+99

> <Gold.Protein.RotatedTorsions>
[ 6907 6896 6895 6894 ] final  163.05 input  -60.11 | X-H torsion
[ 7974 7965 7964 7962 ] final   88.19 input  175.53 | X-H torsion
[ 8008 7997 7996 7995 ] final   -3.48 input   59.86 | X-H torsion
[ 10167 10162 10161 10158 ] final -146.22 input  -65.29 | X-H torsion
[ 10718 10713 10712 10709 ] final -151.10 input   66.30 | X-H torsion
[ 10763 10752 10751 10750 ] final  -95.12 input  -60.55 | X-H torsion
[ 11005 11000 10999 10996 ] final  -93.59 input  -57.11 | X-H torsion

> <Gold.Protein.ActiveResidues>
 VAL166  LYS551  ARG553  GLY616  TRP617  ASP618  TYR619  PRO620  LYS621  CYS622 
 ASP623  PHE694  ASN695  SER759  ASP760  ASP761  ALA762  ILE779  LEU786  VAL792 
 PHE793  MET794  SER795  GLU796  ALA797  LYS798  CYS799  TRP800  GLU811  SER814 

> <Gold.Protein.RotatedAtoms>
  151.9311  133.3611  159.3930 H   0  0  0  0  0  0  0  0  0  0  0  0  # atno 6907 bound_to 6896
  150.7017  134.4536  159.5357 H   0  0  0  0  0  0  0  0  0  0  0  0  # atno 6908 bound_to 6896
  152.2177  134.8442  160.0540 H   0  0  0  0  0  0  0  0  0  0  0  0  # atno 6909 bound_to 6896
  145.5490  139.2294  143.2523 H   0  0  0  0  0  0  0  0  0  0  0  0  # atno 7974 bound_to 7965
  154.6245  140.2508  155.7509 H   0  0  0  0  0  0  0  0  0  0  0  0  # atno 8008 bound_to 7997
  156.2445  140.2920  156.0488 H   0  0  0  0  0  0  0  0  0  0  0  0  # atno 8009 bound_to 7997
  155.1843  140.0390  157.2878 H   0  0  0  0  0  0  0  0  0  0  0  0  # atno 8010 bound_to 7997
  139.7733  143.8206  152.2628 H   0  0  0  0  0  0  0  0  0  0  0  0  # atno 10167 bound_to 10162
  156.4548  130.8185  151.2416 H   0  0  0  0  0  0  0  0  0  0  0  0  # atno 10718 bound_to 10713
  154.7119  135.5132  153.8679 H   0  0  0  0  0  0  0  0  0  0  0  0  # atno 10763 bound_to 10752
  153.0788  135.6625  154.0098 H   0  0  0  0  0  0  0  0  0  0  0  0  # atno 10764 bound_to 10752
  153.9938  135.3017  155.3389 H   0  0  0  0  0  0  0  0  0  0  0  0  # atno 10765 bound_to 10752
  141.1493  133.7898  157.0180 H   0  0  0  0  0  0  0  0  0  0  0  0  # atno 11005 bound_to 11000
  146.1929  140.6313  142.9137 LP  0  0  0  0  0  0  0  0  0  0  0  0  # atno 17320 bound_to 7965
  144.7539  140.5258  143.6783 LP  0  0  0  0  0  0  0  0  0  0  0  0  # atno 17321 bound_to 7965
  139.8247  144.7280  150.9527 LP  0  0  0  0  0  0  0  0  0  0  0  0  # atno 17342 bound_to 10162
  140.7815  143.4126  151.0969 LP  0  0  0  0  0  0  0  0  0  0  0  0  # atno 17343 bound_to 10162
  157.7501  131.0126  150.3392 LP  0  0  0  0  0  0  0  0  0  0  0  0  # atno 17370 bound_to 10713
  156.3778  130.3875  149.7125 LP  0  0  0  0  0  0  0  0  0  0  0  0  # atno 17371 bound_to 10713
  140.0834  134.9635  157.1661 LP  0  0  0  0  0  0  0  0  0  0  0  0  # atno 17394 bound_to 11000
  140.3545  134.2562  155.7194 LP  0  0  0  0  0  0  0  0  0  0  0  0  # atno 17395 bound_to 11000

$$$$
