#       Name:                AV-unprocessed.smi:47
#       Creating user name   scv26
#       Creation time:       Thu Mar 26 16:31:19 2020


#       File generated by GOLD software.
#

@<TRIPOS>MOLECULE
AV-unprocessed.smi:47
    36    38     1
SMALL
NO_CHARGES


@<TRIPOS>ATOM
      1 ****        -4.5281   0.6653   2.6149 O.3            1 S1                 0.0000
      2 ****        -4.0019   0.7609   1.3082 C.3            1 S1                 0.0000
      3 ****        -3.6344   2.1930   0.9308 C.3            1 S1                 0.0000
      4 ****        -2.6373   2.0799  -0.1313 N.3            1 S1                 0.0000
      5 ****        -2.0666   0.7280  -0.0827 C.3            1 S1                 0.0000
      6 ****        -0.5496   0.7008  -0.0706 C.2            1 S1                 0.0000
      7 ****         0.2386   1.6127   0.5344 N.2            1 S1                 0.0000
      8 ****         1.4802   1.2042   0.3522 N.pl3          1 S1                -1.0000
      9 ****         1.4339   0.0579  -0.3435 C.2            1 S1                 0.0000
     10 ****         2.6533  -0.6882  -0.7167 C.ar           1 S1                 0.0000
     11 ****         2.5625  -1.8664  -1.4937 C.ar           1 S1                 0.0000
     12 ****         3.7156  -2.5909  -1.8537 C.ar           1 S1                 0.0000
     13 ****         4.9842  -2.1461  -1.4393 C.ar           1 S1                 0.0000
     14 ****         5.0941  -0.9761  -0.6661 C.ar           1 S1                 0.0000
     15 ****         3.9378  -0.2547  -0.3101 C.ar           1 S1                 0.0000
     16 ****         0.1822  -0.2824  -0.6173 N.2            1 S1                 0.0000
     17 ****        -2.6718   0.0403   1.1476 C.3            1 S1                 0.0000
     18 ****        -4.7265   0.3628   0.5964 H              1 S1                 0.0000
     19 ****        -2.3987   0.1882  -0.9703 H              1 S1                 0.0000
     20 ****        -4.6700  -0.2475   2.8143 H              1 S1                 0.0000
     21 ****        -4.4981   2.7803   0.6191 H              1 S1                 0.0000
     22 ****        -3.1862   2.6949   1.7895 H              1 S1                 0.0000
     23 ****        -3.1010   2.1974  -1.0260 H              1 S1                 0.0000
     24 ****         1.5975  -2.2248  -1.8206 H              1 S1                 0.0000
     25 ****         3.6247  -3.4886  -2.4471 H              1 S1                 0.0000
     26 ****         5.8696  -2.7005  -1.7131 H              1 S1                 0.0000
     27 ****         6.0654  -0.6305  -0.3441 H              1 S1                 0.0000
     28 ****         4.0464   0.6400   0.2850 H              1 S1                 0.0000
     29 ****        -2.0480   0.2280   2.0239 H              1 S1                 0.0000
     30 ****        -2.7684  -1.0394   1.0295 H              1 S1                 0.0000
     31 ****        -5.3951   1.1609   2.6667 LP             1 S1                 0.0000
     32 ****        -3.8808   1.0570   3.2689 LP             1 S1                 0.0000
     33 ****        -1.9240   2.7712  -0.0155 LP             1 S1                 0.0000
     34 ****        -0.0581   2.4334   1.0228 LP             1 S1                 0.0000
     35 ****         2.3066   1.6659   0.6746 LP             1 S1                 0.0000
     36 ****        -0.1419  -1.0862  -1.1161 LP             1 S1                 0.0000
@<TRIPOS>BOND
    1    1    2 1     
    2    1   20 1     
    3    2   18 1     
    4    2   17 1     
    5    2    3 1     
    6    3    4 1     
    7    3   21 1     
    8    3   22 1     
    9    4    5 1     
   10    4   23 1     
   11    5   19 1     
   12    5    6 1     
   13    5   17 1     
   14    6   16 1     
   15    6    7 2     
   16    7    8 1     
   17    8    9 1     
   18    9   10 1     
   19    9   16 2     
   20   10   15 ar    
   21   10   11 ar    
   22   11   12 ar    
   23   11   24 1     
   24   12   13 ar    
   25   12   25 1     
   26   13   14 ar    
   27   13   26 1     
   28   14   15 ar    
   29   14   27 1     
   30   15   28 1     
   31   17   29 1     
   32   17   30 1     
   33    1   31 1     
   34    1   32 1     
   35    4   33 1     
   36    7   34 1     
   37    8   35 1     
   38   16   36 1     
@<TRIPOS>SUBSTRUCTURE
      1 S1             1
@<TRIPOS>SET
LONE_PAIRS      STATIC     ATOMS    <user>   **** ""
6 31 32 33 34 35 36
DONOR_HYDROGENS      STATIC     ATOMS    <user>   **** ""
2 20 23
ATOM$BLUE        STATIC     ATOMS    COLORGROUP SYSTEM
6 31 32 33 34 35 36
ATOM$RED        STATIC     ATOMS    COLORGROUP SYSTEM
2 20 23
