AV-unprocessed.smi:3343|AV-procd|sdf|12896|dock5
  -GOLD-   2272019303D 1   1.00000     0.00000
 Structure written by MMmdl.
 42 43  0  0  0  0  0  0  0  0  2 V2000
  147.7573  138.4166  154.2773 C   0  0  0  0  0  0  0  0  0  0  0  0
  149.1893  138.9592  154.1132 C   0  0  1  0  0  0  0  0  0  0  0  0
  149.3704  140.3489  154.7419 C   0  0  0  0  0  0  0  0  0  0  0  0
  149.7229  141.3091  154.0555 O   0  0  0  0  0  0  0  0  0  0  0  0
  149.1220  140.4428  156.0578 N   0  0  0  0  0  0  0  0  0  0  0  0
  149.2221  141.6665  156.8441 C   0  0  0  0  0  0  0  0  0  0  0  0
  150.6508  142.2429  156.8156 C   0  0  0  0  0  0  0  0  0  0  0  0
  150.7792  143.4759  157.6312 N   0  3  0  0  0  0  0  0  0  0  0  0
  152.1934  143.8348  157.8974 C   0  0  0  0  0  0  0  0  0  0  0  0
  152.2805  145.1725  158.6624 C   0  0  0  0  0  0  0  0  0  0  0  0
  151.5303  145.1390  159.9189 N   0  0  0  0  0  0  0  0  0  0  0  0
  152.1612  144.3115  160.9415 C   0  0  0  0  0  0  0  0  0  0  0  0
  150.1378  144.7708  159.6584 C   0  0  0  0  0  0  0  0  0  0  0  0
  150.0197  143.4284  158.9058 C   0  0  0  0  0  0  0  0  0  0  0  0
  150.1705  138.0307  154.6565 N   0  0  0  0  0  0  0  0  0  0  0  0
  151.5035  138.0112  154.5667 C   0  0  0  0  0  0  0  0  0  0  0  0
  152.0688  136.9840  155.1847 N   0  0  0  0  0  0  0  0  0  0  0  0
  150.9505  136.3640  155.6655 C   0  0  0  0  0  0  0  0  0  0  0  0
  149.7876  136.9465  155.3729 N   0  0  0  0  0  0  0  0  0  0  0  0
  147.0230  139.1089  153.8638 H   0  0  0  0  0  0  0  0  0  0  0  0
  147.5023  138.2481  155.3243 H   0  0  0  0  0  0  0  0  0  0  0  0
  147.6409  137.4672  153.7537 H   0  0  0  0  0  0  0  0  0  0  0  0
  149.3763  139.0574  153.0418 H   0  0  0  0  0  0  0  0  0  0  0  0
  148.8291  139.6074  156.5446 H   0  0  0  0  0  0  0  0  0  0  0  0
  148.5045  142.4034  156.4792 H   0  0  0  0  0  0  0  0  0  0  0  0
  148.9232  141.4201  157.8624 H   0  0  0  0  0  0  0  0  0  0  0  0
  151.3766  141.4997  157.1493 H   0  0  0  0  0  0  0  0  0  0  0  0
  150.9065  142.4791  155.7817 H   0  0  0  0  0  0  0  0  0  0  0  0
  152.6869  143.0326  158.4474 H   0  0  0  0  0  0  0  0  0  0  0  0
  152.7261  143.9354  156.9512 H   0  0  0  0  0  0  0  0  0  0  0  0
  153.3212  145.4301  158.8630 H   0  0  0  0  0  0  0  0  0  0  0  0
  151.8790  145.9741  158.0408 H   0  0  0  0  0  0  0  0  0  0  0  0
  151.5985  144.3707  161.8736 H   0  0  0  0  0  0  0  0  0  0  0  0
  153.1718  144.6679  161.1436 H   0  0  0  0  0  0  0  0  0  0  0  0
  152.2253  143.2632  160.6531 H   0  0  0  0  0  0  0  0  0  0  0  0
  149.5878  144.7296  160.5993 H   0  0  0  0  0  0  0  0  0  0  0  0
  149.6758  145.5617  159.0659 H   0  0  0  0  0  0  0  0  0  0  0  0
  148.9662  143.2363  158.7058 H   0  0  0  0  0  0  0  0  0  0  0  0
  150.3726  142.6010  159.5225 H   0  0  0  0  0  0  0  0  0  0  0  0
  152.0712  138.7624  154.0370 H   0  0  0  0  0  0  0  0  0  0  0  0
  150.9947  135.4539  156.2456 H   0  0  0  0  0  0  0  0  0  0  0  0
  150.3949  144.2314  157.0821 H   0  0  0  0  0  0  0  0  0  0  0  0
  1  2  1  0  0  0  0
  1 20  1  0  0  0  0
  1 21  1  0  0  0  0
  1 22  1  0  0  0  0
  2  3  1  0  0  0  0
  2 15  1  0  0  0  0
  2 23  1  0  0  0  0
  3  4  2  0  0  0  0
  3  5  1  0  0  0  0
  5  6  1  0  0  0  0
  5 24  1  0  0  0  0
  6  7  1  0  0  0  0
  6 25  1  0  0  0  0
  6 26  1  0  0  0  0
  7  8  1  0  0  0  0
  7 27  1  0  0  0  0
  7 28  1  0  0  0  0
  8 14  1  0  0  0  0
  8  9  1  0  0  0  0
  8 42  1  0  0  0  0
  9 10  1  0  0  0  0
  9 29  1  0  0  0  0
  9 30  1  0  0  0  0
 10 11  1  0  0  0  0
 10 31  1  0  0  0  0
 10 32  1  0  0  0  0
 11 12  1  0  0  0  0
 11 13  1  0  0  0  0
 12 33  1  0  0  0  0
 12 34  1  0  0  0  0
 12 35  1  0  0  0  0
 13 14  1  0  0  0  0
 13 36  1  0  0  0  0
 13 37  1  0  0  0  0
 14 38  1  0  0  0  0
 14 39  1  0  0  0  0
 15 19  1  0  0  0  0
 15 16  1  0  0  0  0
 16 17  2  0  0  0  0
 16 40  1  0  0  0  0
 17 18  1  0  0  0  0
 18 19  2  0  0  0  0
 18 41  1  0  0  0  0
M  CHG  1   8   1
M  END
> <s_m_source_file>
AV-unprocessed.smi

> <i_m_source_file_index>
3343

> <i_lp_mmshare_version>
43012

> <i_f3d_flags>
0

> <s_epik_input>
bjFbY0hdbltjSF1uMVtDQEhdKFtDSDNdKUMoPU8pW05IXVtDSDJdW0NIMl1OMltDSDJdW0NIMl1OKFtDSDNdKVtDSDJdW0NIMl0y

> <s_epik_cmdline>
J2VwaWtfcHl0aG9uJywgJy1waCcsICc3LjAnLCAnLXRuJywgJzgnLCAnLW1hJywgJzIwMCcsICctbWV0YWxfYmluZGluZycsICctaW1hZScsICc8aW5maWxlLm1hZT4nLCAnLW9tYWUnLCAnPG91dGZpbGUubWFlPic=

> <r_epik_Ionization_Penalty>
0.559944

> <r_epik_Ionization_Penalty_Charging>
0.558624

> <r_epik_Ionization_Penalty_Neutral>
0.00131959

> <r_epik_State_Penalty>
2.08679

> <r_epik_Charging_Adjusted_Penalty>
2.64542

> <i_epik_Tot_Q>
1

> <i_epik_Tot_abs_Q>
1

> <r_epik_Metal_State_Penalty>
2.0868

> <b_epik_Metal_Only>
0

> <s_lp_Force_Field>
OPLS_2005

> <r_lp_Energy>
21.6118

> <b_lp_Chiralities_Consistent>
1

> <s_lp_Variant>
AV-unprocessed.smi:3343-6

> <Gold.Version>
5.8.1

> <Gold.Id.Protein>
6NUR|6NUR_protein|mol2

> <Gold.PLP.Fitness>
46.8417

> <Gold.PLP.PLP>
-36.0080

> <Gold.PLP.part.hbond>
-4.0000

> <Gold.PLP.part.metal>
0.0000

> <Gold.PLP.part.buried>
-4.7274

> <Gold.PLP.part.nonpolar>
-27.1193

> <Gold.PLP.part.repulsive>
0.5544

> <Gold.PLP.ligand.clash>
0.0000

> <Gold.PLP.ligand.torsion>
0.2891

> <Gold.PLP.Chemscore.Hbond>
3.7682

> <Gold.PLP.Chemscore.CHOScore>
0.0000

> <Gold.PLP.Chemscore.Metal>
0.0000

> <Gold.Chemscore.Hbonds>
donor molecule, donor type, donor heavy atom, donor atom, acceptor molecule, acceptor atom, score
      L1  H     8    42       P1  8028  1.46
      P1  H  7989  7998       L1     4  0.32
      P1  H  8011  8017       L1     4  0.69
      P1  H 10752 10765       L1    17  0.96

> <Gold.PLP.Chemscore.Internal.Correction>
0.1074

> <Gold.Rescore>
     Score         DG    S(hbond)    S(metal)    S(lipo)     H(rot)  DE(clash)    DE(int)     intcor
     14.97     -17.15       2.88        0.00      74.95       2.63       0.74       1.43       ----

> <Gold.Chemscore.Fitness>
14.9740

> <Gold.Chemscore.DG>
-17.1476

> <Gold.Chemscore.ZeroCoef>
-5.4800

> <Gold.Chemscore.Hbond>
2.8820

> <Gold.Chemscore.Metal>
0.0000

> <Gold.Chemscore.Lipo>
74.9462

> <Gold.Chemscore.Internal_Hbond>
0.0000

> <Gold.Chemscore.DEClash>
0.7389

> <Gold.Chemscore.DEInternal>
1.4347

> <Gold.Chemscore.Rot>
2.6278

> <Gold.Chemscore.Internal.Correction>
   9.000000E+99

> <Gold.Chemscore.Hbonds>
donor molecule, donor type, donor heavy atom, donor atom, acceptor molecule, acceptor atom, score
      L1  H     8    42       P1  8028  0.64
      P1  H  7989  7998       L1     4  0.17
      P1  H  8011  8017       L1     4  0.66
      P1  H 10752 10765       L1    17  0.24

> <Gold.Chemscore.Hbond.Weighted>
-9.6260

> <Gold.Chemscore.Metal.Weighted>
-0.0000

> <Gold.Chemscore.Lipo.Weighted>
-8.7687

> <Gold.Chemscore.Internal_Hbond.Weighted>
0.0000

> <Gold.Chemscore.DEClash.Weighted>
0.7389

> <Gold.Chemscore.DEInternal.Weighted>
1.4347

> <Gold.Chemscore.Rot.Weighted>
6.7271

> <Gold.Chemscore.Internal.Correction.Weighted>
   9.000000E+99

> <Gold.Protein.RotatedTorsions>
[ 6907 6896 6895 6894 ] final  -53.17 input  -60.11 | X-H torsion
[ 7974 7965 7964 7962 ] final  169.26 input  175.53 | X-H torsion
[ 8008 7997 7996 7995 ] final   52.61 input   59.86 | X-H torsion
[ 10167 10162 10161 10158 ] final  -46.25 input  -65.29 | X-H torsion
[ 10718 10713 10712 10709 ] final -169.34 input   66.30 | X-H torsion
[ 10763 10752 10751 10750 ] final -175.85 input  -60.55 | X-H torsion
[ 11005 11000 10999 10996 ] final   57.84 input  -57.11 | X-H torsion

> <Gold.Protein.ActiveResidues>
 VAL166  LYS551  ARG553  GLY616  TRP617  ASP618  TYR619  PRO620  LYS621  CYS622 
 ASP623  PHE694  ASN695  SER759  ASP760  ASP761  ALA762  ILE779  LEU786  VAL792 
 PHE793  MET794  SER795  GLU796  ALA797  LYS798  CYS799  TRP800  GLU811  SER814 

> <Gold.Protein.RotatedAtoms>
  150.8451  134.7757  159.6963 H   0  0  0  0  0  0  0  0  0  0  0  0  # atno 6907 bound_to 6896
  152.4530  134.5350  159.9832 H   0  0  0  0  0  0  0  0  0  0  0  0  # atno 6908 bound_to 6896
  151.5482  133.3384  159.2984 H   0  0  0  0  0  0  0  0  0  0  0  0  # atno 6909 bound_to 6896
  144.7361  139.9028  143.6410 H   0  0  0  0  0  0  0  0  0  0  0  0  # atno 7974 bound_to 7965
  155.4547  140.3459  155.4305 H   0  0  0  0  0  0  0  0  0  0  0  0  # atno 8008 bound_to 7997
  156.1198  140.1484  156.9250 H   0  0  0  0  0  0  0  0  0  0  0  0  # atno 8009 bound_to 7997
  154.4815  140.0868  156.7368 H   0  0  0  0  0  0  0  0  0  0  0  0  # atno 8010 bound_to 7997
  140.6825  143.2840  151.3755 H   0  0  0  0  0  0  0  0  0  0  0  0  # atno 10167 bound_to 10162
  156.7101  130.9230  151.3088 H   0  0  0  0  0  0  0  0  0  0  0  0  # atno 10718 bound_to 10713
  154.5794  135.2835  155.0748 H   0  0  0  0  0  0  0  0  0  0  0  0  # atno 10763 bound_to 10752
  154.2090  135.6411  153.5113 H   0  0  0  0  0  0  0  0  0  0  0  0  # atno 10764 bound_to 10752
  153.0083  135.5487  154.6443 H   0  0  0  0  0  0  0  0  0  0  0  0  # atno 10765 bound_to 10752
  140.0422  134.5857  155.9367 H   0  0  0  0  0  0  0  0  0  0  0  0  # atno 11005 bound_to 11000
  146.1059  139.4059  143.0318 LP  0  0  0  0  0  0  0  0  0  0  0  0  # atno 17320 bound_to 7965
  145.7512  140.9971  143.1249 LP  0  0  0  0  0  0  0  0  0  0  0  0  # atno 17321 bound_to 7965
  139.6158  144.1006  152.2344 LP  0  0  0  0  0  0  0  0  0  0  0  0  # atno 17342 bound_to 10162
  140.0434  144.5989  150.7393 LP  0  0  0  0  0  0  0  0  0  0  0  0  # atno 17343 bound_to 10162
  157.6939  130.9262  150.0590 LP  0  0  0  0  0  0  0  0  0  0  0  0  # atno 17370 bound_to 10713
  156.1667  130.3645  149.9222 LP  0  0  0  0  0  0  0  0  0  0  0  0  # atno 17371 bound_to 10713
  141.1889  133.6564  156.5343 LP  0  0  0  0  0  0  0  0  0  0  0  0  # atno 17394 bound_to 11000
  140.4051  134.7322  157.4803 LP  0  0  0  0  0  0  0  0  0  0  0  0  # atno 17395 bound_to 11000

$$$$
