AV-unprocessed.smi:634|AV-procd|sdf|3133|dock4
  -GOLD-   22720 0 53D 1   1.00000     0.00000
 Structure written by MMmdl.
 33 34  0  0  0  0  0  0  0  0  1 V2000
  143.8262  132.4426  149.2125 C   0  0  0  0  0  0  0  0  0  0  0  0
  144.6589  133.2709  150.1298 C   0  0  0  0  0  0  0  0  0  0  0  0
  145.8357  133.0370  150.7840 C   0  0  0  0  0  0  0  0  0  0  0  0
  146.0617  134.2540  151.4804 C   0  0  0  0  0  0  0  0  0  0  0  0
  147.2119  134.4242  152.2923 N   0  0  0  0  0  0  0  0  0  0  0  0
  147.6480  133.6181  153.2750 C   0  0  0  0  0  0  0  0  0  0  0  0
  147.1046  132.5690  153.6210 O   0  0  0  0  0  0  0  0  0  0  0  0
  148.7625  134.1095  153.8421 N   0  0  0  0  0  0  0  0  0  0  0  0
  149.5379  133.5523  154.9593 C   0  0  1  0  0  0  0  0  0  0  0  0
  150.0871  132.1570  154.5931 C   0  0  0  0  0  0  0  0  0  0  0  0
  150.7102  134.5253  155.2323 C   0  0  0  0  0  0  0  0  0  0  0  0
  150.1916  135.7704  155.9632 C   0  0  0  0  0  0  0  0  0  0  0  0
  148.7972  135.1927  156.9974 S   0  0  0  0  0  0  0  0  0  0  0  0
  149.2337  135.0777  158.3971 O   0  0  0  0  0  0  0  0  0  0  0  0
  147.5926  135.9567  156.6392 O   0  0  0  0  0  0  0  0  0  0  0  0
  148.6999  133.5170  156.2592 C   0  0  0  0  0  0  0  0  0  0  0  0
  145.1070  135.1481  151.2742 N   0  0  0  0  0  0  0  0  0  0  0  0
  144.2028  134.5223  150.4079 O   0  0  0  0  0  0  0  0  0  0  0  0
  144.3722  131.5590  148.8816 H   0  0  0  0  0  0  0  0  0  0  0  0
  143.5404  133.0123  148.3281 H   0  0  0  0  0  0  0  0  0  0  0  0
  142.9157  132.1113  149.7117 H   0  0  0  0  0  0  0  0  0  0  0  0
  146.4366  132.1401  150.7627 H   0  0  0  0  0  0  0  0  0  0  0  0
  147.7531  135.2570  152.1144 H   0  0  0  0  0  0  0  0  0  0  0  0
  149.1120  134.9796  153.4681 H   0  0  0  0  0  0  0  0  0  0  0  0
  150.7459  131.7744  155.3732 H   0  0  0  0  0  0  0  0  0  0  0  0
  150.6612  132.1886  153.6665 H   0  0  0  0  0  0  0  0  0  0  0  0
  149.2903  131.4248  154.4642 H   0  0  0  0  0  0  0  0  0  0  0  0
  151.4363  134.0337  155.8812 H   0  0  0  0  0  0  0  0  0  0  0  0
  151.2454  134.7930  154.3202 H   0  0  0  0  0  0  0  0  0  0  0  0
  150.9501  136.2471  156.5841 H   0  0  0  0  0  0  0  0  0  0  0  0
  149.8058  136.5055  155.2566 H   0  0  0  0  0  0  0  0  0  0  0  0
  147.6579  133.2287  156.1244 H   0  0  0  0  0  0  0  0  0  0  0  0
  149.1402  132.8249  156.9776 H   0  0  0  0  0  0  0  0  0  0  0  0
  1  2  1  0  0  0  0
  1 19  1  0  0  0  0
  1 20  1  0  0  0  0
  1 21  1  0  0  0  0
  2 18  1  0  0  0  0
  2  3  2  0  0  0  0
  3  4  1  0  0  0  0
  3 22  1  0  0  0  0
  4  5  1  0  0  0  0
  4 17  2  0  0  0  0
  5  6  1  0  0  0  0
  5 23  1  0  0  0  0
  6  7  2  0  0  0  0
  6  8  1  0  0  0  0
  8  9  1  0  0  0  0
  8 24  1  0  0  0  0
  9 16  1  0  0  0  0
  9 10  1  0  0  0  0
  9 11  1  0  0  0  0
 10 25  1  0  0  0  0
 10 26  1  0  0  0  0
 10 27  1  0  0  0  0
 11 12  1  0  0  0  0
 11 28  1  0  0  0  0
 11 29  1  0  0  0  0
 12 13  1  0  0  0  0
 12 30  1  0  0  0  0
 12 31  1  0  0  0  0
 13 14  2  0  0  0  0
 13 15  2  0  0  0  0
 13 16  1  0  0  0  0
 16 32  1  0  0  0  0
 16 33  1  0  0  0  0
 17 18  1  0  0  0  0
M  END
> <s_m_source_file>
AV-unprocessed.smi

> <i_m_source_file_index>
634

> <i_lp_mmshare_version>
43012

> <i_f3d_flags>
0

> <s_epik_input>
W0NIM11jMVtjSF1jKG5vMSlbTkhdQyg9TylbTkhdW0NAQF0yKFtDSDNdKVtDSDJdW0NIMl1TKD1PKSg9TylbQ0gyXTI=

> <s_epik_cmdline>
J2VwaWtfcHl0aG9uJywgJy1waCcsICc3LjAnLCAnLXRuJywgJzgnLCAnLW1hJywgJzIwMCcsICctbWV0YWxfYmluZGluZycsICctaW1hZScsICc8aW5maWxlLm1hZT4nLCAnLW9tYWUnLCAnPG91dGZpbGUubWFlPic=

> <r_lp_tautomer_probability>
1

> <r_epik_Ionization_Penalty>
3.87281e-05

> <r_epik_Ionization_Penalty_Charging>
0

> <r_epik_Ionization_Penalty_Neutral>
3.87281e-05

> <r_epik_State_Penalty>
-0

> <r_epik_Charging_Adjusted_Penalty>
0

> <i_epik_Tot_Q>
0

> <i_epik_Tot_abs_Q>
0

> <r_epik_Metal_State_Penalty>
0.0249287

> <b_epik_Metal_Only>
0

> <s_lp_Force_Field>
OPLS_2005

> <r_lp_Energy>
3.17223

> <b_lp_Chiralities_Consistent>
1

> <s_lp_Variant>
AV-unprocessed.smi:634-1

> <Gold.Version>
5.8.1

> <Gold.Id.Protein>
6NUR|6NUR_protein|mol2

> <Gold.PLP.Fitness>
31.9199

> <Gold.PLP.PLP>
-24.3112

> <Gold.PLP.part.hbond>
-2.9433

> <Gold.PLP.part.metal>
0.0000

> <Gold.PLP.part.buried>
-4.1094

> <Gold.PLP.part.nonpolar>
-16.9320

> <Gold.PLP.part.repulsive>
0.5093

> <Gold.PLP.ligand.clash>
0.0000

> <Gold.PLP.ligand.torsion>
0.4752

> <Gold.PLP.Chemscore.Hbond>
2.8480

> <Gold.PLP.Chemscore.CHOScore>
0.0000

> <Gold.PLP.Chemscore.Metal>
0.0000

> <Gold.Chemscore.Hbonds>
donor molecule, donor type, donor heavy atom, donor atom, acceptor molecule, acceptor atom, score
      L1  H     5    23       P1  7948  0.99
      L1  H     8    24       P1  7948  0.81
      P1  H  6896  6908       L1    14  1.00

> <Gold.PLP.Chemscore.Internal.Correction>
0.0151

> <Gold.Rescore>
     Score         DG    S(hbond)    S(metal)    S(lipo)     H(rot)  DE(clash)    DE(int)     intcor
     16.36     -16.90       2.45        0.00      49.60       1.00       0.01       0.52       ----

> <Gold.Chemscore.Fitness>
16.3625

> <Gold.Chemscore.DG>
-16.8960

> <Gold.Chemscore.ZeroCoef>
-5.4800

> <Gold.Chemscore.Hbond>
2.4470

> <Gold.Chemscore.Metal>
0.0000

> <Gold.Chemscore.Lipo>
49.5980

> <Gold.Chemscore.Internal_Hbond>
0.0000

> <Gold.Chemscore.DEClash>
0.0126

> <Gold.Chemscore.DEInternal>
0.5209

> <Gold.Chemscore.Rot>
1.0000

> <Gold.Chemscore.Internal.Correction>
   9.000000E+99

> <Gold.Chemscore.Hbonds>
donor molecule, donor type, donor heavy atom, donor atom, acceptor molecule, acceptor atom, score
      L1  H     5    23       P1  7948  0.90
      L1  H     8    24       P1  7948  0.17
      P1  H  6896  6908       L1    14  1.00

> <Gold.Chemscore.Hbond.Weighted>
-8.1731

> <Gold.Chemscore.Metal.Weighted>
-0.0000

> <Gold.Chemscore.Lipo.Weighted>
-5.8030

> <Gold.Chemscore.Internal_Hbond.Weighted>
0.0000

> <Gold.Chemscore.DEClash.Weighted>
0.0126

> <Gold.Chemscore.DEInternal.Weighted>
0.5209

> <Gold.Chemscore.Rot.Weighted>
2.5600

> <Gold.Chemscore.Internal.Correction.Weighted>
   9.000000E+99

> <Gold.Protein.RotatedTorsions>
[ 6907 6896 6895 6894 ] final  160.23 input  -60.11 | X-H torsion
[ 7974 7965 7964 7962 ] final  -67.23 input  175.53 | X-H torsion
[ 8008 7997 7996 7995 ] final -149.81 input   59.86 | X-H torsion
[ 10167 10162 10161 10158 ] final   18.34 input  -65.29 | X-H torsion
[ 10718 10713 10712 10709 ] final  170.83 input   66.30 | X-H torsion
[ 10763 10752 10751 10750 ] final  170.69 input  -60.55 | X-H torsion
[ 11005 11000 10999 10996 ] final -100.36 input  -57.11 | X-H torsion

> <Gold.Protein.ActiveResidues>
 VAL166  LYS551  ARG553  GLY616  TRP617  ASP618  TYR619  PRO620  LYS621  CYS622 
 ASP623  PHE694  ASN695  SER759  ASP760  ASP761  ALA762  ILE779  LEU786  VAL792 
 PHE793  MET794  SER795  GLU796  ALA797  LYS798  CYS799  TRP800  GLU811  SER814 

> <Gold.Protein.RotatedAtoms>
  151.9737  133.3734  159.4080 H   0  0  0  0  0  0  0  0  0  0  0  0  # atno 6907 bound_to 6896
  150.6945  134.4112  159.5172 H   0  0  0  0  0  0  0  0  0  0  0  0  # atno 6908 bound_to 6896
  152.1820  134.8745  160.0576 H   0  0  0  0  0  0  0  0  0  0  0  0  # atno 6909 bound_to 6896
  145.7318  140.8993  143.0576 H   0  0  0  0  0  0  0  0  0  0  0  0  # atno 7974 bound_to 7965
  155.6135  140.0674  157.2699 H   0  0  0  0  0  0  0  0  0  0  0  0  # atno 8008 bound_to 7997
  154.4247  140.1797  156.1345 H   0  0  0  0  0  0  0  0  0  0  0  0  # atno 8009 bound_to 7997
  156.0066  140.3331  155.6902 H   0  0  0  0  0  0  0  0  0  0  0  0  # atno 8010 bound_to 7997
  140.5660  143.9249  150.6677 H   0  0  0  0  0  0  0  0  0  0  0  0  # atno 10167 bound_to 10162
  157.0025  131.0180  151.2826 H   0  0  0  0  0  0  0  0  0  0  0  0  # atno 10718 bound_to 10713
  154.4013  135.2755  155.2095 H   0  0  0  0  0  0  0  0  0  0  0  0  # atno 10763 bound_to 10752
  154.4120  135.6020  153.5962 H   0  0  0  0  0  0  0  0  0  0  0  0  # atno 10764 bound_to 10752
  152.9831  135.5951  154.4281 H   0  0  0  0  0  0  0  0  0  0  0  0  # atno 10765 bound_to 10752
  141.1274  133.8393  157.1092 H   0  0  0  0  0  0  0  0  0  0  0  0  # atno 11005 bound_to 11000
  144.6891  139.9341  143.7473 LP  0  0  0  0  0  0  0  0  0  0  0  0  # atno 17320 bound_to 7965
  146.0531  139.3530  143.0627 LP  0  0  0  0  0  0  0  0  0  0  0  0  # atno 17321 bound_to 7965
  140.2712  143.3455  152.1236 LP  0  0  0  0  0  0  0  0  0  0  0  0  # atno 17342 bound_to 10162
  139.5093  144.6865  151.5872 LP  0  0  0  0  0  0  0  0  0  0  0  0  # atno 17343 bound_to 10162
  157.5380  130.8101  149.7995 LP  0  0  0  0  0  0  0  0  0  0  0  0  # atno 17370 bound_to 10713
  156.0166  130.3811  150.2092 LP  0  0  0  0  0  0  0  0  0  0  0  0  # atno 17371 bound_to 10713
  140.0286  134.9912  157.0735 LP  0  0  0  0  0  0  0  0  0  0  0  0  # atno 17394 bound_to 11000
  140.4322  134.1768  155.7169 LP  0  0  0  0  0  0  0  0  0  0  0  0  # atno 17395 bound_to 11000

$$$$
