AV-unprocessed.smi:726|AV-procd|sdf|3510|dock1
  -GOLD-   22720 0503D 1   1.00000     0.00000
 Structure written by MMmdl.
 24 24  0  0  0  0  0  0  0  0  2 V2000
  149.1510  140.5317  154.3965 C   0  0  0  0  0  0  0  0  0  0  0  0
  149.9976  140.9126  155.6059 C   0  0  0  0  0  0  0  0  0  0  0  0
  149.8472  142.1238  156.1728 C   0  0  0  0  0  0  0  0  0  0  0  0
  150.6741  142.5051  157.2875 C   0  0  0  0  0  0  0  0  0  0  0  0
  150.5102  143.6992  157.8703 O   0  0  0  0  0  0  0  0  0  0  0  0
  151.6181  141.6577  157.7297 C   0  0  0  0  0  0  0  0  0  0  0  0
  151.8301  140.3431  157.1207 C   0  0  0  0  0  0  0  0  0  0  0  0
  152.7378  139.6146  157.5208 O   0  0  0  0  0  0  0  0  0  0  0  0
  150.9760  139.9883  156.0988 N   0  0  0  0  0  0  0  0  0  0  0  0
  151.0396  138.6052  155.5338 C   0  0  2  0  0  0  0  0  0  0  0  0
  150.6452  137.5030  156.5492 C   0  0  0  0  0  0  0  0  0  0  0  0
  152.3524  138.3420  154.7737 C   0  0  0  0  0  0  0  0  0  0  0  0
  152.4454  137.2848  154.1117 O   0  0  0  0  0  0  0  0  0  0  0  0
  153.2479  139.2099  154.8708 O   0  5  0  0  0  0  0  0  0  0  0  0
  148.6068  141.3965  154.0156 H   0  0  0  0  0  0  0  0  0  0  0  0
  148.4121  139.7755  154.6633 H   0  0  0  0  0  0  0  0  0  0  0  0
  149.7659  140.1642  153.5751 H   0  0  0  0  0  0  0  0  0  0  0  0
  149.1180  142.8205  155.7853 H   0  0  0  0  0  0  0  0  0  0  0  0
  150.1943  144.2960  157.2094 H   0  0  0  0  0  0  0  0  0  0  0  0
  152.2427  141.9480  158.5625 H   0  0  0  0  0  0  0  0  0  0  0  0
  150.2788  138.4637  154.7730 H   0  0  0  0  0  0  0  0  0  0  0  0
  150.5259  136.5442  156.0435 H   0  0  0  0  0  0  0  0  0  0  0  0
  149.6924  137.7362  157.0249 H   0  0  0  0  0  0  0  0  0  0  0  0
  151.3820  137.3472  157.3359 H   0  0  0  0  0  0  0  0  0  0  0  0
  1  2  1  0  0  0  0
  1 15  1  0  0  0  0
  1 16  1  0  0  0  0
  1 17  1  0  0  0  0
  2  9  1  0  0  0  0
  2  3  2  0  0  0  0
  3  4  1  0  0  0  0
  3 18  1  0  0  0  0
  4  5  1  0  0  0  0
  4  6  2  0  0  0  0
  5 19  1  0  0  0  0
  6  7  1  0  0  0  0
  6 20  1  0  0  0  0
  7  8  2  0  0  0  0
  7  9  1  0  0  0  0
  9 10  1  0  0  0  0
 10 11  1  0  0  0  0
 10 12  1  0  0  0  0
 10 21  1  0  0  0  0
 11 22  1  0  0  0  0
 11 23  1  0  0  0  0
 11 24  1  0  0  0  0
 12 13  2  0  0  0  0
 12 14  1  0  0  0  0
M  CHG  1  14  -1
M  END
> <s_m_source_file>
AV-unprocessed.smi

> <i_m_source_file_index>
726

> <i_lp_mmshare_version>
43012

> <i_f3d_flags>
0

> <s_epik_input>
W0NIM11jMVtjSF1jKFtPSF0pW2NIXWMoPU8pbjFbQ0BIXShbQ0gzXSlDKD1PKVtPSF0=

> <s_epik_cmdline>
J2VwaWtfcHl0aG9uJywgJy1waCcsICc3LjAnLCAnLXRuJywgJzgnLCAnLW1hJywgJzIwMCcsICctbWV0YWxfYmluZGluZycsICctaW1hZScsICc8aW5maWxlLm1hZT4nLCAnLW9tYWUnLCAnPG91dGZpbGUubWFlPic=

> <r_lp_tautomer_probability>
0.999984

> <r_epik_Ionization_Penalty>
0.316948

> <r_epik_Ionization_Penalty_Charging>
0.000813874

> <r_epik_Ionization_Penalty_Neutral>
0.316134

> <r_epik_State_Penalty>
0.363429

> <r_epik_Charging_Adjusted_Penalty>
0.364242

> <i_epik_Tot_Q>
-1

> <i_epik_Tot_abs_Q>
1

> <r_epik_Metal_State_Penalty>
0.363429

> <b_epik_Metal_Only>
0

> <s_lp_Force_Field>
OPLS_2005

> <r_lp_Energy>
20.5014

> <b_lp_Chiralities_Consistent>
1

> <s_lp_Variant>
AV-unprocessed.smi:726-1

> <Gold.Version>
5.8.1

> <Gold.Id.Protein>
6NUR|6NUR_protein|mol2

> <Gold.PLP.Fitness>
37.3588

> <Gold.PLP.PLP>
-23.9781

> <Gold.PLP.part.hbond>
-4.6907

> <Gold.PLP.part.metal>
0.0000

> <Gold.PLP.part.buried>
-1.8179

> <Gold.PLP.part.nonpolar>
-19.3572

> <Gold.PLP.part.repulsive>
0.3517

> <Gold.PLP.ligand.clash>
0.0000

> <Gold.PLP.ligand.torsion>
0.1645

> <Gold.PLP.Chemscore.Hbond>
4.4720

> <Gold.PLP.Chemscore.CHOScore>
0.0000

> <Gold.PLP.Chemscore.Metal>
0.0000

> <Gold.Chemscore.Hbonds>
donor molecule, donor type, donor heavy atom, donor atom, acceptor molecule, acceptor atom, score
      L1  H     5    19       P1  8028  0.98
      P1  H  7997  8010       L1    14  2.00
      P1  H 10752 10765       L1    13  1.34

> <Gold.PLP.Chemscore.Internal.Correction>
0.2936

> <Gold.Rescore>
     Score         DG    S(hbond)    S(metal)    S(lipo)     H(rot)  DE(clash)    DE(int)     intcor
      9.58     -13.56       2.49        0.00      43.04       2.06       0.60       3.37       ----

> <Gold.Chemscore.Fitness>
9.5844

> <Gold.Chemscore.DG>
-13.5559

> <Gold.Chemscore.ZeroCoef>
-5.4800

> <Gold.Chemscore.Hbond>
2.4885

> <Gold.Chemscore.Metal>
0.0000

> <Gold.Chemscore.Lipo>
43.0417

> <Gold.Chemscore.Internal_Hbond>
0.0000

> <Gold.Chemscore.DEClash>
0.5997

> <Gold.Chemscore.DEInternal>
3.3718

> <Gold.Chemscore.Rot>
2.0592

> <Gold.Chemscore.Internal.Correction>
   9.000000E+99

> <Gold.Chemscore.Hbonds>
donor molecule, donor type, donor heavy atom, donor atom, acceptor molecule, acceptor atom, score
      L1  H     5    19       P1  8028  0.65
      P1  H  7997  8010       L1    14  1.00
      P1  H 10752 10765       L1    13  0.68

> <Gold.Chemscore.Hbond.Weighted>
-8.3115

> <Gold.Chemscore.Metal.Weighted>
-0.0000

> <Gold.Chemscore.Lipo.Weighted>
-5.0359

> <Gold.Chemscore.Internal_Hbond.Weighted>
0.0000

> <Gold.Chemscore.DEClash.Weighted>
0.5997

> <Gold.Chemscore.DEInternal.Weighted>
3.3718

> <Gold.Chemscore.Rot.Weighted>
5.2715

> <Gold.Chemscore.Internal.Correction.Weighted>
   9.000000E+99

> <Gold.Protein.RotatedTorsions>
[ 6907 6896 6895 6894 ] final  -57.57 input  -60.11 | X-H torsion
[ 7974 7965 7964 7962 ] final  169.58 input  175.53 | X-H torsion
[ 8008 7997 7996 7995 ] final  110.80 input   59.86 | X-H torsion
[ 10167 10162 10161 10158 ] final  112.93 input  -65.29 | X-H torsion
[ 10718 10713 10712 10709 ] final   -1.94 input   66.30 | X-H torsion
[ 10763 10752 10751 10750 ] final  133.24 input  -60.55 | X-H torsion
[ 11005 11000 10999 10996 ] final  -43.74 input  -57.11 | X-H torsion

> <Gold.Protein.ActiveResidues>
 VAL166  LYS551  ARG553  GLY616  TRP617  ASP618  TYR619  PRO620  LYS621  CYS622 
 ASP623  PHE694  ASN695  SER759  ASP760  ASP761  ALA762  ILE779  LEU786  VAL792 
 PHE793  MET794  SER795  GLU796  ALA797  LYS798  CYS799  TRP800  GLU811  SER814 

> <Gold.Protein.RotatedAtoms>
  150.8076  134.7210  159.6657 H   0  0  0  0  0  0  0  0  0  0  0  0  # atno 6907 bound_to 6896
  152.4195  134.5977  160.0001 H   0  0  0  0  0  0  0  0  0  0  0  0  # atno 6908 bound_to 6896
  151.6196  133.3303  159.3121 H   0  0  0  0  0  0  0  0  0  0  0  0  # atno 6909 bound_to 6896
  144.7351  139.9075  143.6413 H   0  0  0  0  0  0  0  0  0  0  0  0  # atno 7974 bound_to 7965
  156.2079  140.3031  155.9667 H   0  0  0  0  0  0  0  0  0  0  0  0  # atno 8008 bound_to 7997
  155.2797  140.0437  157.3031 H   0  0  0  0  0  0  0  0  0  0  0  0  # atno 8009 bound_to 7997
  154.5658  140.2334  155.8274 H   0  0  0  0  0  0  0  0  0  0  0  0  # atno 8010 bound_to 7997
  139.6499  144.7128  151.2069 H   0  0  0  0  0  0  0  0  0  0  0  0  # atno 10167 bound_to 10162
  156.7983  130.5384  149.5725 H   0  0  0  0  0  0  0  0  0  0  0  0  # atno 10718 bound_to 10713
  153.8038  135.3138  155.3393 H   0  0  0  0  0  0  0  0  0  0  0  0  # atno 10763 bound_to 10752
  154.8078  135.4686  154.0441 H   0  0  0  0  0  0  0  0  0  0  0  0  # atno 10764 bound_to 10752
  153.1797  135.6891  153.8582 H   0  0  0  0  0  0  0  0  0  0  0  0  # atno 10765 bound_to 10752
  141.0404  133.6782  156.2776 H   0  0  0  0  0  0  0  0  0  0  0  0  # atno 11005 bound_to 11000
  146.1026  139.4023  143.0337 LP  0  0  0  0  0  0  0  0  0  0  0  0  # atno 17320 bound_to 7965
  145.7557  140.9955  143.1227 LP  0  0  0  0  0  0  0  0  0  0  0  0  # atno 17321 bound_to 7965
  140.7532  143.6168  150.8552 LP  0  0  0  0  0  0  0  0  0  0  0  0  # atno 17342 bound_to 10162
  139.9815  143.5946  152.2941 LP  0  0  0  0  0  0  0  0  0  0  0  0  # atno 17343 bound_to 10162
  156.1117  130.6045  151.0057 LP  0  0  0  0  0  0  0  0  0  0  0  0  # atno 17370 bound_to 10713
  157.6567  131.0888  150.7932 LP  0  0  0  0  0  0  0  0  0  0  0  0  # atno 17371 bound_to 10713
  140.6244  134.5328  157.5552 LP  0  0  0  0  0  0  0  0  0  0  0  0  # atno 17394 bound_to 11000
  139.9272  134.8034  156.1035 LP  0  0  0  0  0  0  0  0  0  0  0  0  # atno 17395 bound_to 11000

$$$$
