AV-unprocessed.smi:713|AV-procd|sdf|3476|dock3
  -GOLD-   22720 0463D 1   1.00000     0.00000
 Structure written by MMmdl.
 41 42  0  0  0  0  0  0  0  0  1 V2000
  152.0692  144.8574  158.5822 C   0  0  0  0  0  0  0  0  0  0  0  0
  152.2844  143.3372  158.7293 C   0  0  2  0  0  0  0  0  0  0  0  0
  151.0785  142.5156  158.2478 C   0  0  0  0  0  0  0  0  0  0  0  0
  150.0087  142.5490  158.8573 O   0  0  0  0  0  0  0  0  0  0  0  0
  151.2729  141.7687  157.1492 N   0  0  0  0  0  0  0  0  0  0  0  0
  150.2858  140.8778  156.5490 C   0  0  1  0  0  0  0  0  0  0  0  0
  149.8847  141.4123  155.1626 C   0  0  0  0  0  0  0  0  0  0  0  0
  148.8950  140.4673  154.4650 C   0  0  0  0  0  0  0  0  0  0  0  0
  149.4658  139.0453  154.3582 C   0  0  0  0  0  0  0  0  0  0  0  0
  149.8619  138.4943  155.7399 C   0  0  1  0  0  0  0  0  0  0  0  0
  150.5796  136.7987  155.5535 S   0  0  0  0  0  0  0  0  0  0  0  0
  151.0723  136.3727  157.2751 C   0  0  0  0  0  0  0  0  0  0  0  0
  149.5029  135.8861  155.1398 O   0  0  0  0  0  0  0  0  0  0  0  0
  151.8027  136.8919  154.7420 O   0  0  0  0  0  0  0  0  0  0  0  0
  150.8491  139.4455  156.4451 C   0  0  0  0  0  0  0  0  0  0  0  0
  152.6385  142.9574  160.0923 N   0  0  0  0  0  0  0  0  0  0  0  0
  152.3870  143.6525  161.2580 C   0  0  0  0  0  0  0  0  0  0  0  0
  152.9369  142.9432  162.2868 C   0  0  0  0  0  0  0  0  0  0  0  0
  153.5241  141.8179  161.6453 C   0  0  0  0  0  0  0  0  0  0  0  0
  153.3523  141.8328  160.3340 N   0  0  0  0  0  0  0  0  0  0  0  0
  151.8610  145.1256  157.5458 H   0  0  0  0  0  0  0  0  0  0  0  0
  152.9606  145.4062  158.8873 H   0  0  0  0  0  0  0  0  0  0  0  0
  151.2370  145.2164  159.1890 H   0  0  0  0  0  0  0  0  0  0  0  0
  153.1309  143.0721  158.0938 H   0  0  0  0  0  0  0  0  0  0  0  0
  152.1816  141.8008  156.7105 H   0  0  0  0  0  0  0  0  0  0  0  0
  149.3924  140.8616  157.1765 H   0  0  0  0  0  0  0  0  0  0  0  0
  149.4401  142.4038  155.2578 H   0  0  0  0  0  0  0  0  0  0  0  0
  150.7724  141.5287  154.5387 H   0  0  0  0  0  0  0  0  0  0  0  0
  147.9567  140.4440  155.0208 H   0  0  0  0  0  0  0  0  0  0  0  0
  148.6562  140.8471  153.4712 H   0  0  0  0  0  0  0  0  0  0  0  0
  148.7308  138.3904  153.8899 H   0  0  0  0  0  0  0  0  0  0  0  0
  150.3366  139.0509  153.7011 H   0  0  0  0  0  0  0  0  0  0  0  0
  148.9634  138.3928  156.3498 H   0  0  0  0  0  0  0  0  0  0  0  0
  151.4183  135.3398  157.3037 H   0  0  0  0  0  0  0  0  0  0  0  0
  150.2159  136.4840  157.9397 H   0  0  0  0  0  0  0  0  0  0  0  0
  151.8802  137.0246  157.6047 H   0  0  0  0  0  0  0  0  0  0  0  0
  151.7938  139.4644  155.8995 H   0  0  0  0  0  0  0  0  0  0  0  0
  151.0774  139.0730  157.4432 H   0  0  0  0  0  0  0  0  0  0  0  0
  151.8436  144.5860  161.2581 H   0  0  0  0  0  0  0  0  0  0  0  0
  152.9267  143.1927  163.3374 H   0  0  0  0  0  0  0  0  0  0  0  0
  154.0703  140.9987  162.0895 H   0  0  0  0  0  0  0  0  0  0  0  0
  1  2  1  0  0  0  0
  1 21  1  0  0  0  0
  1 22  1  0  0  0  0
  1 23  1  0  0  0  0
  2  3  1  0  0  0  0
  2 16  1  0  0  0  0
  2 24  1  0  0  0  0
  3  4  2  0  0  0  0
  3  5  1  0  0  0  0
  5  6  1  0  0  0  0
  5 25  1  0  0  0  0
  6 15  1  0  0  0  0
  6  7  1  0  0  0  0
  6 26  1  0  0  0  0
  7  8  1  0  0  0  0
  7 27  1  0  0  0  0
  7 28  1  0  0  0  0
  8  9  1  0  0  0  0
  8 29  1  0  0  0  0
  8 30  1  0  0  0  0
  9 10  1  0  0  0  0
  9 31  1  0  0  0  0
  9 32  1  0  0  0  0
 10 11  1  0  0  0  0
 10 15  1  0  0  0  0
 10 33  1  0  0  0  0
 11 12  1  0  0  0  0
 11 13  2  0  0  0  0
 11 14  2  0  0  0  0
 12 34  1  0  0  0  0
 12 35  1  0  0  0  0
 12 36  1  0  0  0  0
 15 37  1  0  0  0  0
 15 38  1  0  0  0  0
 16 20  1  0  0  0  0
 16 17  1  0  0  0  0
 17 18  2  0  0  0  0
 17 39  1  0  0  0  0
 18 19  1  0  0  0  0
 18 40  1  0  0  0  0
 19 20  2  0  0  0  0
 19 41  1  0  0  0  0
M  END
> <s_m_source_file>
AV-unprocessed.smi

> <i_m_source_file_index>
713

> <i_lp_mmshare_version>
43012

> <i_f3d_flags>
0

> <s_epik_input>
bjFbY0hdW2NIXVtjSF1uMVtDQEhdKFtDSDNdKUMoPU8pW05IXVtDQEBIXTJbQ0gyXVtDSDJdW0NIMl1bQ0BIXShbQ0gyXTIpUyg9TykoPU8pW0NIM10=

> <s_epik_cmdline>
J2VwaWtfcHl0aG9uJywgJy1waCcsICc3LjAnLCAnLXRuJywgJzgnLCAnLW1hJywgJzIwMCcsICctbWV0YWxfYmluZGluZycsICctaW1hZScsICc8aW5maWxlLm1hZT4nLCAnLW9tYWUnLCAnPG91dGZpbGUubWFlPic=

> <r_lp_tautomer_probability>
1

> <r_epik_Ionization_Penalty>
4.07816e-05

> <r_epik_Ionization_Penalty_Charging>
0

> <r_epik_Ionization_Penalty_Neutral>
4.07816e-05

> <r_epik_State_Penalty>
-0

> <r_epik_Charging_Adjusted_Penalty>
0

> <i_epik_Tot_Q>
0

> <i_epik_Tot_abs_Q>
0

> <r_epik_Metal_State_Penalty>
-0

> <b_epik_Metal_Only>
0

> <s_lp_Force_Field>
OPLS_2005

> <r_lp_Energy>
6.63175

> <b_lp_Chiralities_Consistent>
1

> <s_lp_Variant>
AV-unprocessed.smi:713-3

> <Gold.Version>
5.8.1

> <Gold.Id.Protein>
6NUR|6NUR_protein|mol2

> <Gold.PLP.Fitness>
45.4375

> <Gold.PLP.PLP>
-43.7495

> <Gold.PLP.part.hbond>
-1.7635

> <Gold.PLP.part.metal>
0.0000

> <Gold.PLP.part.buried>
-5.9207

> <Gold.PLP.part.nonpolar>
-36.4703

> <Gold.PLP.part.repulsive>
0.4558

> <Gold.PLP.ligand.clash>
0.0000

> <Gold.PLP.ligand.torsion>
0.7816

> <Gold.PLP.Chemscore.Hbond>
1.0000

> <Gold.PLP.Chemscore.CHOScore>
0.0000

> <Gold.PLP.Chemscore.Metal>
0.0000

> <Gold.Chemscore.Hbonds>
donor molecule, donor type, donor heavy atom, donor atom, acceptor molecule, acceptor atom, score
      P1  H 10752 10763       L1    14  1.00

> <Gold.PLP.Chemscore.Internal.Correction>
0.2512

> <Gold.Rescore>
     Score         DG    S(hbond)    S(metal)    S(lipo)     H(rot)  DE(clash)    DE(int)     intcor
     15.57     -16.08       0.99        0.00      99.99       1.72       0.04       0.48       ----

> <Gold.Chemscore.Fitness>
15.5657

> <Gold.Chemscore.DG>
-16.0845

> <Gold.Chemscore.ZeroCoef>
-5.4800

> <Gold.Chemscore.Hbond>
0.9946

> <Gold.Chemscore.Metal>
0.0000

> <Gold.Chemscore.Lipo>
99.9858

> <Gold.Chemscore.Internal_Hbond>
0.0000

> <Gold.Chemscore.DEClash>
0.0359

> <Gold.Chemscore.DEInternal>
0.4828

> <Gold.Chemscore.Rot>
1.7249

> <Gold.Chemscore.Internal.Correction>
   9.000000E+99

> <Gold.Chemscore.Hbonds>
donor molecule, donor type, donor heavy atom, donor atom, acceptor molecule, acceptor atom, score
      P1  H 10752 10763       L1    14  0.98

> <Gold.Chemscore.Hbond.Weighted>
-3.3219

> <Gold.Chemscore.Metal.Weighted>
-0.0000

> <Gold.Chemscore.Lipo.Weighted>
-11.6983

> <Gold.Chemscore.Internal_Hbond.Weighted>
0.0000

> <Gold.Chemscore.DEClash.Weighted>
0.0359

> <Gold.Chemscore.DEInternal.Weighted>
0.4828

> <Gold.Chemscore.Rot.Weighted>
4.4157

> <Gold.Chemscore.Internal.Correction.Weighted>
   9.000000E+99

> <Gold.Protein.RotatedTorsions>
[ 6907 6896 6895 6894 ] final  -99.82 input  -60.11 | X-H torsion
[ 7974 7965 7964 7962 ] final  -96.23 input  175.53 | X-H torsion
[ 8008 7997 7996 7995 ] final   95.89 input   59.86 | X-H torsion
[ 10167 10162 10161 10158 ] final   10.47 input  -65.29 | X-H torsion
[ 10718 10713 10712 10709 ] final  -36.33 input   66.30 | X-H torsion
[ 10763 10752 10751 10750 ] final   49.56 input  -60.55 | X-H torsion
[ 11005 11000 10999 10996 ] final -170.85 input  -57.11 | X-H torsion

> <Gold.Protein.ActiveResidues>
 VAL166  LYS551  ARG553  GLY616  TRP617  ASP618  TYR619  PRO620  LYS621  CYS622 
 ASP623  PHE694  ASN695  SER759  ASP760  ASP761  ALA762  ILE779  LEU786  VAL792 
 PHE793  MET794  SER795  GLU796  ALA797  LYS798  CYS799  TRP800  GLU811  SER814 

> <Gold.Protein.RotatedAtoms>
  150.7093  134.0982  159.3956 H   0  0  0  0  0  0  0  0  0  0  0  0  # atno 6907 bound_to 6896
  151.8968  135.0392  160.0512 H   0  0  0  0  0  0  0  0  0  0  0  0  # atno 6908 bound_to 6896
  152.2446  133.5129  159.5327 H   0  0  0  0  0  0  0  0  0  0  0  0  # atno 6909 bound_to 6896
  145.3496  140.9474  143.2562 H   0  0  0  0  0  0  0  0  0  0  0  0  # atno 7974 bound_to 7965
  156.0737  140.3280  155.7608 H   0  0  0  0  0  0  0  0  0  0  0  0  # atno 8008 bound_to 7997
  155.5264  140.0589  157.2914 H   0  0  0  0  0  0  0  0  0  0  0  0  # atno 8009 bound_to 7997
  154.4544  140.1935  156.0440 H   0  0  0  0  0  0  0  0  0  0  0  0  # atno 8010 bound_to 7997
  140.6192  143.8241  150.7155 H   0  0  0  0  0  0  0  0  0  0  0  0  # atno 10167 bound_to 10162
  156.3281  130.4275  149.7898 H   0  0  0  0  0  0  0  0  0  0  0  0  # atno 10718 bound_to 10713
  152.9786  135.5907  154.4109 H   0  0  0  0  0  0  0  0  0  0  0  0  # atno 10763 bound_to 10752
  154.3744  135.2767  155.2249 H   0  0  0  0  0  0  0  0  0  0  0  0  # atno 10764 bound_to 10752
  154.4190  135.6063  153.6053 H   0  0  0  0  0  0  0  0  0  0  0  0  # atno 10765 bound_to 10752
  140.5148  134.5766  157.5030 H   0  0  0  0  0  0  0  0  0  0  0  0  # atno 11005 bound_to 11000
  144.8728  139.5014  143.6760 LP  0  0  0  0  0  0  0  0  0  0  0  0  # atno 17320 bound_to 7965
  146.2973  139.7319  142.9117 LP  0  0  0  0  0  0  0  0  0  0  0  0  # atno 17321 bound_to 7965
  140.1827  143.4101  152.1921 LP  0  0  0  0  0  0  0  0  0  0  0  0  # atno 17342 bound_to 10162
  139.5424  144.7268  151.4690 LP  0  0  0  0  0  0  0  0  0  0  0  0  # atno 17343 bound_to 10162
  156.5180  130.8202  151.3193 LP  0  0  0  0  0  0  0  0  0  0  0  0  # atno 17370 bound_to 10713
  157.7425  130.9892  150.2522 LP  0  0  0  0  0  0  0  0  0  0  0  0  # atno 17371 bound_to 10713
  139.9638  134.7407  156.0180 LP  0  0  0  0  0  0  0  0  0  0  0  0  # atno 17394 bound_to 11000
  141.1366  133.6574  156.3611 LP  0  0  0  0  0  0  0  0  0  0  0  0  # atno 17395 bound_to 11000

$$$$
