AV-unprocessed.smi:2764|AV-procd|sdf|10641|dock10
  -GOLD-   2272015 93D 1   1.00000     0.00000
 Structure written by MMmdl.
 47 49  0  0  0  0  0  0  0  0  2 V2000
  147.9314  141.2113  156.1881 O   0  0  0  0  0  0  0  0  0  0  0  0
  148.7204  140.2892  156.3963 C   0  0  0  0  0  0  0  0  0  0  0  0
  149.8431  140.3759  157.1316 N   0  0  0  0  0  0  0  0  0  0  0  0
  150.3752  141.5179  157.7879 C   0  0  0  0  0  0  0  0  0  0  0  0
  151.5819  141.2971  158.4904 C   0  0  0  0  0  0  0  0  0  0  0  0
  152.1936  142.3679  159.1710 C   0  0  0  0  0  0  0  0  0  0  0  0
  151.5795  143.6323  159.1321 C   0  0  0  0  0  0  0  0  0  0  0  0
  152.1301  144.6913  159.7715 F   0  0  0  0  0  0  0  0  0  0  0  0
  150.3785  143.7681  158.4116 C   0  0  0  0  0  0  0  0  0  0  0  0
  149.7919  142.7428  157.7578 N   0  0  0  0  0  0  0  0  0  0  0  0
  148.5545  139.0531  155.9021 N   0  0  0  0  0  0  0  0  0  0  0  0
  147.4528  138.6401  155.0373 C   0  0  2  0  0  0  0  0  0  0  0  0
  147.2717  137.1119  155.0599 C   0  0  0  0  0  0  0  0  0  0  0  0
  146.1666  136.6711  154.0849 C   0  0  0  0  0  0  0  0  0  0  0  0
  146.4428  137.1455  152.7034 N   0  3  1  0  0  0  0  0  0  0  0  0
  145.4631  136.6282  151.7124 C   0  0  0  0  0  0  0  0  0  0  0  0
  145.2104  135.1169  151.8762 C   0  0  1  0  0  0  0  0  0  0  0  0
  144.0301  134.6153  151.0677 C   0  0  0  0  0  0  0  0  0  0  0  0
  144.2781  133.1106  151.0362 C   0  0  0  0  0  0  0  0  0  0  0  0
  145.6928  132.9520  151.0717 O   0  0  0  0  0  0  0  0  0  0  0  0
  146.3175  134.2005  151.3515 C   0  0  0  0  0  0  0  0  0  0  0  0
  146.5928  138.6242  152.6558 C   0  0  0  0  0  0  0  0  0  0  0  0
  147.7128  139.1012  153.5951 C   0  0  0  0  0  0  0  0  0  0  0  0
  150.3903  139.5323  157.2186 H   0  0  0  0  0  0  0  0  0  0  0  0
  152.0399  140.3188  158.5092 H   0  0  0  0  0  0  0  0  0  0  0  0
  153.1166  142.2206  159.7122 H   0  0  0  0  0  0  0  0  0  0  0  0
  149.8756  144.7223  158.3578 H   0  0  0  0  0  0  0  0  0  0  0  0
  149.2485  138.3545  156.1247 H   0  0  0  0  0  0  0  0  0  0  0  0
  146.5322  139.1131  155.3854 H   0  0  0  0  0  0  0  0  0  0  0  0
  148.2093  136.6221  154.7923 H   0  0  0  0  0  0  0  0  0  0  0  0
  147.0243  136.7748  156.0673 H   0  0  0  0  0  0  0  0  0  0  0  0
  146.1009  135.5823  154.0937 H   0  0  0  0  0  0  0  0  0  0  0  0
  145.1987  137.0518  154.4153 H   0  0  0  0  0  0  0  0  0  0  0  0
  144.5066  137.1337  151.8543 H   0  0  0  0  0  0  0  0  0  0  0  0
  145.7736  136.8713  150.6951 H   0  0  0  0  0  0  0  0  0  0  0  0
  145.0252  134.8882  152.9272 H   0  0  0  0  0  0  0  0  0  0  0  0
  143.0664  134.8754  151.5065 H   0  0  0  0  0  0  0  0  0  0  0  0
  144.0627  135.0181  150.0543 H   0  0  0  0  0  0  0  0  0  0  0  0
  143.8537  132.6355  151.9213 H   0  0  0  0  0  0  0  0  0  0  0  0
  143.8450  132.6359  150.1555 H   0  0  0  0  0  0  0  0  0  0  0  0
  146.7343  134.5892  150.4212 H   0  0  0  0  0  0  0  0  0  0  0  0
  147.1326  134.0782  152.0651 H   0  0  0  0  0  0  0  0  0  0  0  0
  146.8169  138.9495  151.6411 H   0  0  0  0  0  0  0  0  0  0  0  0
  145.6484  139.0952  152.9340 H   0  0  0  0  0  0  0  0  0  0  0  0
  147.7859  140.1887  153.5575 H   0  0  0  0  0  0  0  0  0  0  0  0
  148.6710  138.7139  153.2447 H   0  0  0  0  0  0  0  0  0  0  0  0
  147.3370  136.7498  152.4502 H   0  0  0  0  0  0  0  0  0  0  0  0
  1  2  2  0  0  0  0
  2  3  1  0  0  0  0
  2 11  1  0  0  0  0
  3  4  1  0  0  0  0
  3 24  1  0  0  0  0
  4 10  1  0  0  0  0
  4  5  2  0  0  0  0
  5  6  1  0  0  0  0
  5 25  1  0  0  0  0
  6  7  2  0  0  0  0
  6 26  1  0  0  0  0
  7  8  1  0  0  0  0
  7  9  1  0  0  0  0
  9 10  2  0  0  0  0
  9 27  1  0  0  0  0
 11 12  1  0  0  0  0
 11 28  1  0  0  0  0
 12 23  1  0  0  0  0
 12 13  1  0  0  0  0
 12 29  1  0  0  0  0
 13 14  1  0  0  0  0
 13 30  1  0  0  0  0
 13 31  1  0  0  0  0
 14 15  1  0  0  0  0
 14 32  1  0  0  0  0
 14 33  1  0  0  0  0
 15 16  1  0  0  0  0
 15 22  1  0  0  0  0
 15 47  1  0  0  0  0
 16 17  1  0  0  0  0
 16 34  1  0  0  0  0
 16 35  1  0  0  0  0
 17 21  1  0  0  0  0
 17 18  1  0  0  0  0
 17 36  1  0  0  0  0
 18 19  1  0  0  0  0
 18 37  1  0  0  0  0
 18 38  1  0  0  0  0
 19 20  1  0  0  0  0
 19 39  1  0  0  0  0
 19 40  1  0  0  0  0
 20 21  1  0  0  0  0
 21 41  1  0  0  0  0
 21 42  1  0  0  0  0
 22 23  1  0  0  0  0
 22 43  1  0  0  0  0
 22 44  1  0  0  0  0
 23 45  1  0  0  0  0
 23 46  1  0  0  0  0
M  CHG  1  15   1
M  END
> <s_m_source_file>
AV-unprocessed.smi

> <i_m_source_file_index>
2764

> <i_lp_mmshare_version>
43012

> <i_f3d_flags>
0

> <s_epik_input>
bjFbY0hdYyhGKVtjSF1bY0hdYzFbTkhdQyg9TylbTkhdW0NIXTJbQ0gyXVtDSDJdTihbQ0gyXVtDSDJdMilbQ0gyXVtDQEBIXTNbQ0gyXVtDSDJdT1tDSDJdMw==

> <s_epik_cmdline>
J2VwaWtfcHl0aG9uJywgJy1waCcsICc3LjAnLCAnLXRuJywgJzgnLCAnLW1hJywgJzIwMCcsICctbWV0YWxfYmluZGluZycsICctaW1hZScsICc8aW5maWxlLm1hZT4nLCAnLW9tYWUnLCAnPG91dGZpbGUubWFlPic=

> <r_epik_Ionization_Penalty>
0.0075076

> <r_epik_Ionization_Penalty_Charging>
0.00747775

> <r_epik_Ionization_Penalty_Neutral>
2.98483e-05

> <r_epik_State_Penalty>
0.00558817

> <r_epik_Charging_Adjusted_Penalty>
0.0130659

> <i_epik_Tot_Q>
1

> <i_epik_Tot_abs_Q>
1

> <r_epik_Metal_State_Penalty>
-0

> <b_epik_Metal_Only>
0

> <s_lp_Force_Field>
OPLS_2005

> <r_lp_Energy>
37.3143

> <b_lp_Chiralities_Consistent>
1

> <s_lp_Variant>
AV-unprocessed.smi:2764-2

> <Gold.Version>
5.8.1

> <Gold.Id.Protein>
6NUR|6NUR_protein|mol2

> <Gold.PLP.Fitness>
40.9878

> <Gold.PLP.PLP>
-32.7165

> <Gold.PLP.part.hbond>
-1.0000

> <Gold.PLP.part.metal>
0.0000

> <Gold.PLP.part.buried>
-4.0526

> <Gold.PLP.part.nonpolar>
-28.8241

> <Gold.PLP.part.repulsive>
1.3001

> <Gold.PLP.ligand.clash>
0.0000

> <Gold.PLP.ligand.torsion>
0.4221

> <Gold.PLP.Chemscore.Hbond>
2.0000

> <Gold.PLP.Chemscore.CHOScore>
1.0293

> <Gold.PLP.Chemscore.Metal>
0.0000

> <Gold.Chemscore.Hbonds>
donor molecule, donor type, donor heavy atom, donor atom, acceptor molecule, acceptor atom, score
      L1  H    15    47       P1  7948  2.00
      L1  C     9    27       P1  8028  0.04
      L1  C     9    27       P1  8029  0.94

> <Gold.PLP.Chemscore.Internal.Correction>
0.0275

> <Gold.Rescore>
     Score         DG    S(hbond)    S(metal)    S(lipo)     H(rot)  DE(clash)    DE(int)     intcor
     12.97     -14.75       1.00        0.00      83.26       1.49       0.08       1.69       ----

> <Gold.Chemscore.Fitness>
12.9742

> <Gold.Chemscore.DG>
-14.7477

> <Gold.Chemscore.ZeroCoef>
-5.4800

> <Gold.Chemscore.Hbond>
0.9995

> <Gold.Chemscore.Metal>
0.0000

> <Gold.Chemscore.Lipo>
83.2595

> <Gold.Chemscore.Internal_Hbond>
0.0000

> <Gold.Chemscore.DEClash>
0.0802

> <Gold.Chemscore.DEInternal>
1.6932

> <Gold.Chemscore.Rot>
1.4891

> <Gold.Chemscore.Internal.Correction>
   9.000000E+99

> <Gold.Chemscore.Hbonds>
donor molecule, donor type, donor heavy atom, donor atom, acceptor molecule, acceptor atom, score
      L1  H    15    47       P1  7948  1.00

> <Gold.Chemscore.Hbond.Weighted>
-3.3384

> <Gold.Chemscore.Metal.Weighted>
-0.0000

> <Gold.Chemscore.Lipo.Weighted>
-9.7414

> <Gold.Chemscore.Internal_Hbond.Weighted>
0.0000

> <Gold.Chemscore.DEClash.Weighted>
0.0802

> <Gold.Chemscore.DEInternal.Weighted>
1.6932

> <Gold.Chemscore.Rot.Weighted>
3.8121

> <Gold.Chemscore.Internal.Correction.Weighted>
   9.000000E+99

> <Gold.Protein.RotatedTorsions>
[ 6907 6896 6895 6894 ] final   47.18 input  -60.11 | X-H torsion
[ 7974 7965 7964 7962 ] final   41.39 input  175.53 | X-H torsion
[ 8008 7997 7996 7995 ] final  145.86 input   59.86 | X-H torsion
[ 10167 10162 10161 10158 ] final   12.60 input  -65.29 | X-H torsion
[ 10718 10713 10712 10709 ] final -100.94 input   66.30 | X-H torsion
[ 10763 10752 10751 10750 ] final   -5.38 input  -60.55 | X-H torsion
[ 11005 11000 10999 10996 ] final   39.95 input  -57.11 | X-H torsion

> <Gold.Protein.ActiveResidues>
 VAL166  LYS551  ARG553  GLY616  TRP617  ASP618  TYR619  PRO620  LYS621  CYS622 
 ASP623  PHE694  ASN695  SER759  ASP760  ASP761  ALA762  ILE779  LEU786  VAL792 
 PHE793  MET794  SER795  GLU796  ALA797  LYS798  CYS799  TRP800  GLU811  SER814 

> <Gold.Protein.RotatedAtoms>
  152.2650  134.7993  160.0423 H   0  0  0  0  0  0  0  0  0  0  0  0  # atno 6907 bound_to 6896
  151.8626  133.3455  159.3717 H   0  0  0  0  0  0  0  0  0  0  0  0  # atno 6908 bound_to 6896
  150.7130  134.5119  159.5655 H   0  0  0  0  0  0  0  0  0  0  0  0  # atno 6909 bound_to 6896
  146.0827  139.5421  142.9527 H   0  0  0  0  0  0  0  0  0  0  0  0  # atno 7974 bound_to 7965
  156.2871  140.2198  156.5284 H   0  0  0  0  0  0  0  0  0  0  0  0  # atno 8008 bound_to 7997
  154.7470  140.0483  157.0882 H   0  0  0  0  0  0  0  0  0  0  0  0  # atno 8009 bound_to 7997
  155.0158  140.3118  155.4815 H   0  0  0  0  0  0  0  0  0  0  0  0  # atno 8010 bound_to 7997
  140.6058  143.8512  150.7012 H   0  0  0  0  0  0  0  0  0  0  0  0  # atno 10167 bound_to 10162
  156.0179  130.5351  150.6891 H   0  0  0  0  0  0  0  0  0  0  0  0  # atno 10718 bound_to 10713
  153.3977  135.7004  153.6449 H   0  0  0  0  0  0  0  0  0  0  0  0  # atno 10763 bound_to 10752
  153.4995  135.3655  155.2533 H   0  0  0  0  0  0  0  0  0  0  0  0  # atno 10764 bound_to 10752
  154.8708  135.4108  154.3306 H   0  0  0  0  0  0  0  0  0  0  0  0  # atno 10765 bound_to 10752
  140.1978  134.3907  155.8112 H   0  0  0  0  0  0  0  0  0  0  0  0  # atno 11005 bound_to 11000
  145.6188  141.0326  143.1926 LP  0  0  0  0  0  0  0  0  0  0  0  0  # atno 17320 bound_to 7965
  144.7304  139.7743  143.7349 LP  0  0  0  0  0  0  0  0  0  0  0  0  # atno 17321 bound_to 7965
  140.2068  143.3915  152.1749 LP  0  0  0  0  0  0  0  0  0  0  0  0  # atno 17342 bound_to 10162
  139.5324  144.7173  151.5011 LP  0  0  0  0  0  0  0  0  0  0  0  0  # atno 17343 bound_to 10162
  157.4576  131.0879  151.0780 LP  0  0  0  0  0  0  0  0  0  0  0  0  # atno 17370 bound_to 10713
  157.1277  130.6089  149.5521 LP  0  0  0  0  0  0  0  0  0  0  0  0  # atno 17371 bound_to 10713
  141.2227  133.7079  156.8206 LP  0  0  0  0  0  0  0  0  0  0  0  0  # atno 17394 bound_to 11000
  140.2087  134.8843  157.3251 LP  0  0  0  0  0  0  0  0  0  0  0  0  # atno 17395 bound_to 11000

$$$$
