AV-unprocessed.smi:2973|AV-procd|sdf|11351|dock9
  -GOLD-   2272016263D 1   1.00000     0.00000
 Structure written by MMmdl.
 49 51  0  0  0  0  0  0  0  0  3 V2000
  150.7445  141.8527  156.1421 C   0  0  0  0  0  0  0  0  0  0  0  0
  151.1286  141.1148  157.4434 C   0  0  2  0  0  0  0  0  0  0  0  0
  152.1307  141.9493  158.2700 C   0  0  0  0  0  0  0  0  0  0  0  0
  152.4461  141.2898  159.6206 C   0  0  0  0  0  0  0  0  0  0  0  0
  152.9788  139.8643  159.4287 C   0  0  0  0  0  0  0  0  0  0  0  0
  151.9944  139.0078  158.6146 C   0  0  0  0  0  0  0  0  0  0  0  0
  151.6290  139.6458  157.2491 C   0  0  2  0  0  0  0  0  0  0  0  0
  152.7646  139.5735  156.3442 N   0  5  0  0  0  0  0  0  0  0  0  0
  152.4417  138.7871  155.2912 C   0  0  0  0  0  0  0  0  0  0  0  0
  153.1677  138.4952  154.3417 O   0  0  0  0  0  0  0  0  0  0  0  0
  151.1797  138.3299  155.3998 N   0  0  0  0  0  0  0  0  0  0  0  0
  150.5169  137.4260  154.4505 C   0  0  0  0  0  0  0  0  0  0  0  0
  150.0991  136.1035  155.1048 C   0  0  0  0  0  0  0  0  0  0  0  0
  150.5064  135.8045  156.2282 O   0  0  0  0  0  0  0  0  0  0  0  0
  149.2830  135.3157  154.3872 N   0  0  0  0  0  0  0  0  0  0  0  0
  148.7308  134.0394  154.8363 C   0  0  0  0  0  0  0  0  0  0  0  0
  148.7409  132.9659  153.7286 C   0  0  0  0  0  0  0  0  0  0  0  0
  147.4616  132.9076  152.9105 C   0  0  0  0  0  0  0  0  0  0  0  0
  146.6560  131.7492  152.8562 C   0  0  0  0  0  0  0  0  0  0  0  0
  145.4963  131.7532  152.0540 C   0  0  0  0  0  0  0  0  0  0  0  0
  145.1656  132.9129  151.3240 C   0  0  0  0  0  0  0  0  0  0  0  0
  146.0031  134.0426  151.4171 C   0  0  0  0  0  0  0  0  0  0  0  0
  147.1037  134.0017  152.1998 N   0  3  0  0  0  0  0  0  0  0  0  0
  150.6122  138.7749  156.5262 C   0  0  0  0  0  0  0  0  0  0  0  0
  149.4754  138.5363  156.9375 O   0  0  0  0  0  0  0  0  0  0  0  0
  151.6030  141.9731  155.4807 H   0  0  0  0  0  0  0  0  0  0  0  0
  150.3600  142.8489  156.3606 H   0  0  0  0  0  0  0  0  0  0  0  0
  149.9681  141.3258  155.5880 H   0  0  0  0  0  0  0  0  0  0  0  0
  150.2146  141.0611  158.0376 H   0  0  0  0  0  0  0  0  0  0  0  0
  153.0542  142.0860  157.7058 H   0  0  0  0  0  0  0  0  0  0  0  0
  151.7289  142.9480  158.4435 H   0  0  0  0  0  0  0  0  0  0  0  0
  153.1773  141.8886  160.1642 H   0  0  0  0  0  0  0  0  0  0  0  0
  151.5458  141.2654  160.2357 H   0  0  0  0  0  0  0  0  0  0  0  0
  153.9446  139.8991  158.9228 H   0  0  0  0  0  0  0  0  0  0  0  0
  153.1575  139.4010  160.3992 H   0  0  0  0  0  0  0  0  0  0  0  0
  152.4129  138.0098  158.4732 H   0  0  0  0  0  0  0  0  0  0  0  0
  151.0886  138.8728  159.2074 H   0  0  0  0  0  0  0  0  0  0  0  0
  149.6438  137.9221  154.0222 H   0  0  0  0  0  0  0  0  0  0  0  0
  151.1736  137.2045  153.6081 H   0  0  0  0  0  0  0  0  0  0  0  0
  149.0082  135.6342  153.4690 H   0  0  0  0  0  0  0  0  0  0  0  0
  149.3214  133.6930  155.6846 H   0  0  0  0  0  0  0  0  0  0  0  0
  147.7161  134.1770  155.2140 H   0  0  0  0  0  0  0  0  0  0  0  0
  149.5789  133.1493  153.0550 H   0  0  0  0  0  0  0  0  0  0  0  0
  148.9195  131.9851  154.1706 H   0  0  0  0  0  0  0  0  0  0  0  0
  146.9288  130.8613  153.4075 H   0  0  0  0  0  0  0  0  0  0  0  0
  144.8746  130.8721  151.9907 H   0  0  0  0  0  0  0  0  0  0  0  0
  144.2874  132.9315  150.6952 H   0  0  0  0  0  0  0  0  0  0  0  0
  145.8311  134.9684  150.8882 H   0  0  0  0  0  0  0  0  0  0  0  0
  147.7013  134.8274  152.2421 H   0  0  0  0  0  0  0  0  0  0  0  0
  1  2  1  0  0  0  0
  1 26  1  0  0  0  0
  1 27  1  0  0  0  0
  1 28  1  0  0  0  0
  2  7  1  0  0  0  0
  2  3  1  0  0  0  0
  2 29  1  0  0  0  0
  3  4  1  0  0  0  0
  3 30  1  0  0  0  0
  3 31  1  0  0  0  0
  4  5  1  0  0  0  0
  4 32  1  0  0  0  0
  4 33  1  0  0  0  0
  5  6  1  0  0  0  0
  5 34  1  0  0  0  0
  5 35  1  0  0  0  0
  6  7  1  0  0  0  0
  6 36  1  0  0  0  0
  6 37  1  0  0  0  0
  7 24  1  0  0  0  0
  7  8  1  0  0  0  0
  8  9  1  0  0  0  0
  9 10  2  0  0  0  0
  9 11  1  0  0  0  0
 11 12  1  0  0  0  0
 11 24  1  0  0  0  0
 12 13  1  0  0  0  0
 12 38  1  0  0  0  0
 12 39  1  0  0  0  0
 13 14  2  0  0  0  0
 13 15  1  0  0  0  0
 15 16  1  0  0  0  0
 15 40  1  0  0  0  0
 16 17  1  0  0  0  0
 16 41  1  0  0  0  0
 16 42  1  0  0  0  0
 17 18  1  0  0  0  0
 17 43  1  0  0  0  0
 17 44  1  0  0  0  0
 18 23  1  0  0  0  0
 18 19  2  0  0  0  0
 19 20  1  0  0  0  0
 19 45  1  0  0  0  0
 20 21  2  0  0  0  0
 20 46  1  0  0  0  0
 21 22  1  0  0  0  0
 21 47  1  0  0  0  0
 22 23  2  0  0  0  0
 22 48  1  0  0  0  0
 23 49  1  0  0  0  0
 24 25  2  0  0  0  0
M  CHG  1   8  -1
M  CHG  1  23   1
M  END
> <s_m_source_file>
AV-unprocessed.smi

> <i_m_source_file_index>
2973

> <i_lp_mmshare_version>
43012

> <i_f3d_flags>
0

> <s_epik_input>
W0NIMl0xW0NIMl1bQ0gyXVtDSDJdW0NAQEhdKFtDSDNdKVtDQF0xMltOSF1DKD1PKU4oQzI9TylbQ0gyXUMoPU8pW05IXVtDSDJdW0NIMl1jM1tjSF1bY0hdW2NIXVtjSF1uMw==

> <s_epik_cmdline>
J2VwaWtfcHl0aG9uJywgJy1waCcsICc3LjAnLCAnLXRuJywgJzgnLCAnLW1hJywgJzIwMCcsICctbWV0YWxfYmluZGluZycsICctaW1hZScsICc8aW5maWxlLm1hZT4nLCAnLW9tYWUnLCAnPG91dGZpbGUubWFlPic=

> <r_lp_tautomer_probability>
1

> <r_epik_Ionization_Penalty>
7.89073

> <r_epik_Ionization_Penalty_Charging>
7.89073

> <r_epik_Ionization_Penalty_Neutral>
1.56557e-07

> <r_epik_State_Penalty>
8.01193

> <r_epik_Charging_Adjusted_Penalty>
15.9027

> <i_epik_Tot_Q>
0

> <i_epik_Tot_abs_Q>
2

> <r_epik_Metal_State_Penalty>
3.98737

> <b_epik_Metal_Only>
1

> <s_lp_Force_Field>
OPLS_2005

> <r_lp_Energy>
16.8567

> <b_lp_Chiralities_Consistent>
1

> <s_lp_Variant>
AV-unprocessed.smi:2973-15

> <Gold.Version>
5.8.1

> <Gold.Id.Protein>
6NUR|6NUR_protein|mol2

> <Gold.PLP.Fitness>
57.2807

> <Gold.PLP.PLP>
-43.1402

> <Gold.PLP.part.hbond>
-3.0000

> <Gold.PLP.part.metal>
0.0000

> <Gold.PLP.part.buried>
-5.4391

> <Gold.PLP.part.nonpolar>
-34.6289

> <Gold.PLP.part.repulsive>
0.1126

> <Gold.PLP.ligand.clash>
0.0000

> <Gold.PLP.ligand.torsion>
0.4605

> <Gold.PLP.Chemscore.Hbond>
5.0000

> <Gold.PLP.Chemscore.CHOScore>
0.0000

> <Gold.PLP.Chemscore.Metal>
0.0000

> <Gold.Chemscore.Hbonds>
donor molecule, donor type, donor heavy atom, donor atom, acceptor molecule, acceptor atom, score
      L1  H    15    40       P1  7948  1.00
      L1  H    23    49       P1  7948  2.00
      P1  H  7997  8009       L1     8  2.00

> <Gold.PLP.Chemscore.Internal.Correction>
0.0616

> <Gold.Rescore>
     Score         DG    S(hbond)    S(metal)    S(lipo)     H(rot)  DE(clash)    DE(int)     intcor
     19.59     -20.23       2.75        0.00      89.38       1.92       0.06       0.57       ----

> <Gold.Chemscore.Fitness>
19.5941

> <Gold.Chemscore.DG>
-20.2265

> <Gold.Chemscore.ZeroCoef>
-5.4800

> <Gold.Chemscore.Hbond>
2.7539

> <Gold.Chemscore.Metal>
0.0000

> <Gold.Chemscore.Lipo>
89.3787

> <Gold.Chemscore.Internal_Hbond>
0.0000

> <Gold.Chemscore.DEClash>
0.0576

> <Gold.Chemscore.DEInternal>
0.5748

> <Gold.Chemscore.Rot>
1.9175

> <Gold.Chemscore.Internal.Correction>
   9.000000E+99

> <Gold.Chemscore.Hbonds>
donor molecule, donor type, donor heavy atom, donor atom, acceptor molecule, acceptor atom, score
      L1  H    15    40       P1  7948  0.78
      L1  H    23    49       P1  7948  0.82
      P1  H  7997  8009       L1     8  0.85

> <Gold.Chemscore.Hbond.Weighted>
-9.1979

> <Gold.Chemscore.Metal.Weighted>
-0.0000

> <Gold.Chemscore.Lipo.Weighted>
-10.4573

> <Gold.Chemscore.Internal_Hbond.Weighted>
0.0000

> <Gold.Chemscore.DEClash.Weighted>
0.0576

> <Gold.Chemscore.DEInternal.Weighted>
0.5748

> <Gold.Chemscore.Rot.Weighted>
4.9087

> <Gold.Chemscore.Internal.Correction.Weighted>
   9.000000E+99

> <Gold.Protein.RotatedTorsions>
[ 6907 6896 6895 6894 ] final  -20.81 input  -60.11 | X-H torsion
[ 7974 7965 7964 7962 ] final   -5.89 input  175.53 | X-H torsion
[ 8008 7997 7996 7995 ] final -158.95 input   59.86 | X-H torsion
[ 10167 10162 10161 10158 ] final  -22.81 input  -65.29 | X-H torsion
[ 10718 10713 10712 10709 ] final -164.55 input   66.30 | X-H torsion
[ 10763 10752 10751 10750 ] final -114.91 input  -60.55 | X-H torsion
[ 11005 11000 10999 10996 ] final -150.98 input  -57.11 | X-H torsion

> <Gold.Protein.ActiveResidues>
 VAL166  LYS551  ARG553  GLY616  TRP617  ASP618  TYR619  PRO620  LYS621  CYS622 
 ASP623  PHE694  ASN695  SER759  ASP760  ASP761  ALA762  ILE779  LEU786  VAL792 
 PHE793  MET794  SER795  GLU796  ALA797  LYS798  CYS799  TRP800  GLU811  SER814 

> <Gold.Protein.RotatedAtoms>
  151.2426  135.0594  159.9030 H   0  0  0  0  0  0  0  0  0  0  0  0  # atno 6907 bound_to 6896
  152.5391  134.0418  159.8081 H   0  0  0  0  0  0  0  0  0  0  0  0  # atno 6908 bound_to 6896
  151.0614  133.5492  159.2665 H   0  0  0  0  0  0  0  0  0  0  0  0  # atno 6909 bound_to 6896
  146.2343  140.2089  142.8335 H   0  0  0  0  0  0  0  0  0  0  0  0  # atno 7974 bound_to 7965
  155.7552  140.0832  157.2182 H   0  0  0  0  0  0  0  0  0  0  0  0  # atno 8008 bound_to 7997
  154.4008  140.1553  156.2825 H   0  0  0  0  0  0  0  0  0  0  0  0  # atno 8009 bound_to 7997
  155.8892  140.3416  155.5947 H   0  0  0  0  0  0  0  0  0  0  0  0  # atno 8010 bound_to 7997
  140.7287  143.4500  151.0530 H   0  0  0  0  0  0  0  0  0  0  0  0  # atno 10167 bound_to 10162
  156.6407  130.8967  151.2995 H   0  0  0  0  0  0  0  0  0  0  0  0  # atno 10718 bound_to 10713
  154.8459  135.4401  154.1580 H   0  0  0  0  0  0  0  0  0  0  0  0  # atno 10763 bound_to 10752
  153.2724  135.6946  153.7474 H   0  0  0  0  0  0  0  0  0  0  0  0  # atno 10764 bound_to 10752
  153.6709  135.3419  155.3128 H   0  0  0  0  0  0  0  0  0  0  0  0  # atno 10765 bound_to 10752
  140.7344  134.3585  157.5160 H   0  0  0  0  0  0  0  0  0  0  0  0  # atno 11005 bound_to 11000
  144.9722  140.8380  143.5448 LP  0  0  0  0  0  0  0  0  0  0  0  0  # atno 17320 bound_to 7965
  145.2072  139.2222  143.5162 LP  0  0  0  0  0  0  0  0  0  0  0  0  # atno 17321 bound_to 7965
  139.8175  143.7865  152.3175 LP  0  0  0  0  0  0  0  0  0  0  0  0  # atno 17342 bound_to 10162
  139.7936  144.7401  150.9921 LP  0  0  0  0  0  0  0  0  0  0  0  0  # atno 17343 bound_to 10162
  157.7172  130.9512  150.1299 LP  0  0  0  0  0  0  0  0  0  0  0  0  # atno 17370 bound_to 10713
  156.2161  130.3670  149.8611 LP  0  0  0  0  0  0  0  0  0  0  0  0  # atno 17371 bound_to 10713
  139.8819  134.9039  156.2866 LP  0  0  0  0  0  0  0  0  0  0  0  0  # atno 17394 bound_to 11000
  140.9892  133.7219  156.0789 LP  0  0  0  0  0  0  0  0  0  0  0  0  # atno 17395 bound_to 11000

$$$$
