#       Name:                AV-unprocessed.smi:2577
#       Creating user name   scv26
#       Creation time:       Fri Mar 27 14:14:06 2020


#       File generated by GOLD software.
#

@<TRIPOS>MOLECULE
AV-unprocessed.smi:2577
    31    32     1
SMALL
NO_CHARGES


@<TRIPOS>ATOM
      1 ****        -3.4447   2.4703  -0.6666 C.3            1 S1                 0.0000
      2 ****        -2.9130   1.0328  -0.7490 C.3            1 S1                 0.0000
      3 ****        -1.3790   0.9417  -0.6640 C.3            1 S1                 0.0000
      4 ****        -0.9606   1.3478   0.6255 O.3            1 S1                 0.0000
      5 ****        -0.8701  -0.4863  -0.9419 C.3            1 S1                 0.0000
      6 ****         0.5791  -0.5794  -0.9021 N.pl3          1 S1                 0.0000
      7 ****         1.3038  -0.1880  -1.9883 N.2            1 S1                 0.0000
      8 ****         2.5663  -0.3525  -1.7276 N.2            1 S1                 0.0000
      9 ****         2.6760  -0.8610  -0.4440 C.ar           1 S1                 0.0000
     10 ****         3.7988  -1.2190   0.3349 C.ar           1 S1                 0.0000
     11 ****         3.6291  -1.7215   1.6438 C.ar           1 S1                 0.0000
     12 ****         5.0273  -2.1473   2.5654 Cl             1 S1                 0.0000
     13 ****         2.3309  -1.8720   2.1887 C.ar           1 S1                 0.0000
     14 ****         2.1054  -2.4840   3.7885 Cl             1 S1                 0.0000
     15 ****         1.2019  -1.5192   1.4228 C.ar           1 S1                 0.0000
     16 ****         1.3930  -1.0217   0.1226 C.ar           1 S1                 0.0000
     17 ****        -4.5305   2.4867  -0.7635 H              1 S1                 0.0000
     18 ****        -3.0315   3.0892  -1.4635 H              1 S1                 0.0000
     19 ****        -3.1922   2.9363   0.2861 H              1 S1                 0.0000
     20 ****        -3.3671   0.4273   0.0367 H              1 S1                 0.0000
     21 ****        -3.2442   0.6003  -1.6938 H              1 S1                 0.0000
     22 ****        -0.9394   1.6236  -1.3933 H              1 S1                 0.0000
     23 ****        -1.2455   2.2377   0.7671 H              1 S1                 0.0000
     24 ****        -1.2833  -1.1867  -0.2149 H              1 S1                 0.0000
     25 ****        -1.2086  -0.8235  -1.9228 H              1 S1                 0.0000
     26 ****         4.7919  -1.1058  -0.0746 H              1 S1                 0.0000
     27 ****         0.2063  -1.6262   1.8273 H              1 S1                 0.0000
     28 ****         0.0363   1.2989   0.6876 LP             1 S1                 0.0000
     29 ****        -1.3673   0.7496   1.3160 LP             1 S1                 0.0000
     30 ****         0.9266   0.1668  -2.8437 LP             1 S1                 0.0000
     31 ****         3.3255  -0.1478  -2.3455 LP             1 S1                 0.0000
@<TRIPOS>BOND
    1    1    2 1     
    2    1   17 1     
    3    1   18 1     
    4    1   19 1     
    5    2    3 1     
    6    2   20 1     
    7    2   21 1     
    8    3    4 1     
    9    3    5 1     
   10    3   22 1     
   11    4   23 1     
   12    5    6 1     
   13    5   24 1     
   14    5   25 1     
   15    6   16 1     
   16    6    7 1     
   17    7    8 2     
   18    8    9 1     
   19    9   16 ar    
   20    9   10 ar    
   21   10   11 ar    
   22   10   26 1     
   23   11   12 1     
   24   11   13 ar    
   25   13   14 1     
   26   13   15 ar    
   27   15   16 ar    
   28   15   27 1     
   29    4   28 1     
   30    4   29 1     
   31    7   30 1     
   32    8   31 1     
@<TRIPOS>SUBSTRUCTURE
      1 S1             1
@<TRIPOS>SET
LONE_PAIRS      STATIC     ATOMS    <user>   **** ""
4 28 29 30 31
DONOR_HYDROGENS      STATIC     ATOMS    <user>   **** ""
1 23
ATOM$BLUE        STATIC     ATOMS    COLORGROUP SYSTEM
4 28 29 30 31
ATOM$RED        STATIC     ATOMS    COLORGROUP SYSTEM
1 23
