#       Name:                AV-unprocessed.smi:790
#       Creating user name   scv26
#       Creation time:       Fri Mar 27 01:17:34 2020


#       File generated by GOLD software.
#

@<TRIPOS>MOLECULE
AV-unprocessed.smi:790
    43    45     1
SMALL
NO_CHARGES


@<TRIPOS>ATOM
      1 ****        -0.5217   1.7403  -0.5335 O.2            1 S1                 0.0000
      2 ****        -1.0388   0.6235  -0.5326 C.2            1 S1                 0.0000
      3 ****        -2.3593   0.3757  -0.5568 N.am           1 S1                 0.0000
      4 ****        -3.4377   1.3010  -0.5249 C.ar           1 S1                 0.0000
      5 ****        -3.3310   2.6375  -0.0689 C.ar           1 S1                 0.0000
      6 ****        -4.4821   3.4486  -0.0670 C.ar           1 S1                 0.0000
      7 ****        -5.6973   2.8940  -0.5135 C.ar           1 S1                 0.0000
      8 ****        -5.8161   1.6190  -0.9397 N.ar           1 S1                 0.0000
      9 ****        -4.7084   0.8471  -0.9381 C.ar           1 S1                 0.0000
     10 ****        -0.3347  -0.5164  -0.5233 N.am           1 S1                 0.0000
     11 ****         1.1229  -0.6018  -0.4789 C.3            1 S1                 0.0000
     12 ****         1.5938  -2.0230  -0.8591 C.3            1 S1                 0.0000
     13 ****         3.0953  -1.9726  -1.1937 C.3            1 S1                 0.0000
     14 ****         3.7384  -1.7810   0.1928 C.3            1 S1                 0.0000
     15 ****         2.5180  -1.7278   1.1374 C.3            1 S1                 0.0000
     16 ****         1.6011  -2.7526   0.4819 C.3            1 S1                 0.0000
     17 ****         1.6912  -0.4306   0.9534 C.3            1 S1                 0.0000
     18 ****         2.4452   0.8945   1.1795 C.3            1 S1                 0.0000
     19 ****         2.9293   0.9643   2.5038 O.3            1 S1                 0.0000
     20 ****        -2.6263  -0.5944  -0.6400 H              1 S1                 0.0000
     21 ****        -2.4024   3.0515   0.2908 H              1 S1                 0.0000
     22 ****        -4.4353   4.4720   0.2743 H              1 S1                 0.0000
     23 ****        -6.5990   3.4884  -0.5229 H              1 S1                 0.0000
     24 ****        -4.8421  -0.1685  -1.2815 H              1 S1                 0.0000
     25 ****        -0.8408  -1.3897  -0.5312 H              1 S1                 0.0000
     26 ****         1.5431   0.1294  -1.1726 H              1 S1                 0.0000
     27 ****         0.9967  -2.4960  -1.6399 H              1 S1                 0.0000
     28 ****         3.4260  -2.9099  -1.6429 H              1 S1                 0.0000
     29 ****         3.3432  -1.1660  -1.8846 H              1 S1                 0.0000
     30 ****         4.3670  -2.6387   0.4355 H              1 S1                 0.0000
     31 ****         4.3707  -0.8959   0.2482 H              1 S1                 0.0000
     32 ****         2.7639  -1.9422   2.1778 H              1 S1                 0.0000
     33 ****         0.6165  -2.8168   0.9482 H              1 S1                 0.0000
     34 ****         2.0354  -3.7527   0.4291 H              1 S1                 0.0000
     35 ****         0.8687  -0.4641   1.6712 H              1 S1                 0.0000
     36 ****         3.2709   1.0212   0.4806 H              1 S1                 0.0000
     37 ****         1.7718   1.7365   1.0195 H              1 S1                 0.0000
     38 ****         3.3646   1.7950   2.6209 H              1 S1                 0.0000
     39 ****        -1.0973   2.5578  -0.5534 LP             1 S1                 0.0000
     40 ****         0.4740   1.8303  -0.5142 LP             1 S1                 0.0000
     41 ****        -6.6965   1.2576  -1.2469 LP             1 S1                 0.0000
     42 ****         3.5758   0.2189   2.6663 LP             1 S1                 0.0000
     43 ****         2.1665   0.8898   3.1461 LP             1 S1                 0.0000
@<TRIPOS>BOND
    1    1    2 2     
    2    2    3 am    
    3    2   10 am    
    4    3    4 1     
    5    3   20 1     
    6    4    9 ar    
    7    4    5 ar    
    8    5    6 ar    
    9    5   21 1     
   10    6    7 ar    
   11    6   22 1     
   12    7    8 ar    
   13    7   23 1     
   14    8    9 ar    
   15    9   24 1     
   16   10   11 1     
   17   10   25 1     
   18   11   17 1     
   19   11   12 1     
   20   11   26 1     
   21   12   16 1     
   22   12   13 1     
   23   12   27 1     
   24   13   14 1     
   25   13   28 1     
   26   13   29 1     
   27   14   15 1     
   28   14   30 1     
   29   14   31 1     
   30   15   16 1     
   31   15   17 1     
   32   15   32 1     
   33   16   33 1     
   34   16   34 1     
   35   17   18 1     
   36   17   35 1     
   37   18   19 1     
   38   18   36 1     
   39   18   37 1     
   40   19   38 1     
   41    1   39 1     
   42    1   40 1     
   43    8   41 1     
   44   19   42 1     
   45   19   43 1     
@<TRIPOS>SUBSTRUCTURE
      1 S1             1
@<TRIPOS>SET
LONE_PAIRS      STATIC     ATOMS    <user>   **** ""
5 39 40 41 42 43
DONOR_HYDROGENS      STATIC     ATOMS    <user>   **** ""
3 20 25 38
ATOM$BLUE        STATIC     ATOMS    COLORGROUP SYSTEM
5 39 40 41 42 43
ATOM$RED        STATIC     ATOMS    COLORGROUP SYSTEM
3 20 25 38
