#       Name:                AV-unprocessed.smi:3096
#       Creating user name   scv26
#       Creation time:       Fri Mar 27 17:17:19 2020


#       File generated by GOLD software.
#

@<TRIPOS>MOLECULE
AV-unprocessed.smi:3096
    34    34     1
SMALL
NO_CHARGES


@<TRIPOS>ATOM
      1 ****        -0.7477  -1.8158  -2.7595 C.2            1 S1                 0.0000
      2 ****        -0.7659  -2.5699  -1.6466 C.2            1 S1                 0.0000
      3 ****        -1.4514  -2.2410  -0.3280 C.3            1 S1                 0.0000
      4 ****        -2.1166  -0.9275  -0.3600 N.pl3          1 S1                 0.0000
      5 ****        -1.5061   0.2729  -0.3003 C.cat          1 S1                 0.0000
      6 ****        -2.2368   1.4034  -0.3550 N.pl3          1 S1                 1.0000
      7 ****        -3.6974   1.4707  -0.4830 C.3            1 S1                 0.0000
      8 ****        -0.1664   0.3431  -0.1820 N.pl3          1 S1                 0.0000
      9 ****         0.6366   1.5699  -0.0912 C.3            1 S1                 0.0000
     10 ****         2.1398   1.2662  -0.1840 C.3            1 S1                 0.0000
     11 ****         2.6389   0.6028   1.0068 N.pl3          1 S1                 0.0000
     12 ****         3.2149   1.1685   2.1246 C.2            1 S1                 0.0000
     13 ****         3.5176   0.1516   2.9841 C.2            1 S1                 0.0000
     14 ****         3.0843  -1.0149   2.2944 C.2            1 S1                 0.0000
     15 ****         2.5582  -0.7419   1.1112 N.2            1 S1                 0.0000
     16 ****        -1.2446  -0.8585  -2.8168 H              1 S1                 0.0000
     17 ****        -0.2251  -2.1555  -3.6416 H              1 S1                 0.0000
     18 ****        -0.2462  -3.5168  -1.6663 H              1 S1                 0.0000
     19 ****        -2.1947  -3.0094  -0.1153 H              1 S1                 0.0000
     20 ****        -0.7203  -2.2642   0.4805 H              1 S1                 0.0000
     21 ****        -3.1230  -0.9424  -0.4432 H              1 S1                 0.0000
     22 ****        -4.0254   2.5099  -0.5048 H              1 S1                 0.0000
     23 ****        -4.1770   0.9745   0.3608 H              1 S1                 0.0000
     24 ****        -4.0218   0.9864  -1.4042 H              1 S1                 0.0000
     25 ****         0.3473  -0.5248  -0.1167 H              1 S1                 0.0000
     26 ****         0.3505   2.2274  -0.9124 H              1 S1                 0.0000
     27 ****         0.4036   2.0933   0.8366 H              1 S1                 0.0000
     28 ****         2.3546   0.6428  -1.0535 H              1 S1                 0.0000
     29 ****         2.6979   2.1930  -0.3214 H              1 S1                 0.0000
     30 ****         3.3590   2.2351   2.2150 H              1 S1                 0.0000
     31 ****         3.9785   0.2292   3.9576 H              1 S1                 0.0000
     32 ****         3.1354  -2.0445   2.6165 H              1 S1                 0.0000
     33 ****        -1.7508   2.2874  -0.3038 H              1 S1                 0.0000
     34 ****         2.1847  -1.3864   0.4440 LP             1 S1                 0.0000
@<TRIPOS>BOND
    1    1    2 2     
    2    1   16 1     
    3    1   17 1     
    4    2    3 1     
    5    2   18 1     
    6    3    4 1     
    7    3   19 1     
    8    3   20 1     
    9    4    5 ar    
   10    4   21 1     
   11    5    6 ar    
   12    5    8 ar    
   13    6    7 1     
   14    6   33 1     
   15    7   22 1     
   16    7   23 1     
   17    7   24 1     
   18    8    9 1     
   19    8   25 1     
   20    9   10 1     
   21    9   26 1     
   22    9   27 1     
   23   10   11 1     
   24   10   28 1     
   25   10   29 1     
   26   11   15 1     
   27   11   12 1     
   28   12   13 2     
   29   12   30 1     
   30   13   14 1     
   31   13   31 1     
   32   14   15 2     
   33   14   32 1     
   34   15   34 1     
@<TRIPOS>SUBSTRUCTURE
      1 S1             1
@<TRIPOS>SET
LONE_PAIRS      STATIC     ATOMS    <user>   **** ""
1 34
DONOR_HYDROGENS      STATIC     ATOMS    <user>   **** ""
3 21 33 25
ATOM$BLUE        STATIC     ATOMS    COLORGROUP SYSTEM
1 34
ATOM$RED        STATIC     ATOMS    COLORGROUP SYSTEM
3 21 33 25
