AV-unprocessed.smi:3154|AV-procd|sdf|12022|dock4
  -GOLD-   2272017433D 1   1.00000     0.00000
 Structure written by MMmdl.
 35 36  0  0  0  0  0  0  0  0  2 V2000
  145.2881  136.1726  150.3719 C   0  0  0  0  0  0  0  0  0  0  0  0
  145.4514  135.8356  151.8638 C   0  0  1  0  0  0  0  0  0  0  0  0
  145.8508  134.3597  152.0957 C   0  0  0  0  0  0  0  0  0  0  0  0
  145.4608  133.4882  151.0019 N   0  0  0  0  0  0  0  0  0  0  0  0
  146.2668  132.7451  150.1649 C   0  0  0  0  0  0  0  0  0  0  0  0
  145.4474  132.0771  149.3007 C   0  0  0  0  0  0  0  0  0  0  0  0
  144.1402  132.4749  149.6978 C   0  0  0  0  0  0  0  0  0  0  0  0
  144.1516  133.3169  150.7188 N   0  0  0  0  0  0  0  0  0  0  0  0
  146.4386  136.7581  152.4672 N   0  3  0  0  0  0  0  0  0  0  0  0
  146.2968  138.1810  152.0862 C   0  0  0  0  0  0  0  0  0  0  0  0
  146.9666  139.1194  153.0920 C   0  0  0  0  0  0  0  0  0  0  0  0
  148.1077  138.8951  153.4983 O   0  0  0  0  0  0  0  0  0  0  0  0
  146.2359  140.1730  153.4851 N   0  0  0  0  0  0  0  0  0  0  0  0
  146.6569  141.1757  154.4096 C   0  0  0  0  0  0  0  0  0  0  0  0
  146.5473  142.6217  153.9764 C   0  0  0  0  0  0  0  0  0  0  0  0
  147.8993  141.9695  154.0674 C   0  0  0  0  0  0  0  0  0  0  0  0
  144.4970  135.5811  149.9102 H   0  0  0  0  0  0  0  0  0  0  0  0
  146.2094  135.9845  149.8194 H   0  0  0  0  0  0  0  0  0  0  0  0
  145.0252  137.2218  150.2336 H   0  0  0  0  0  0  0  0  0  0  0  0
  144.4893  136.0219  152.3435 H   0  0  0  0  0  0  0  0  0  0  0  0
  146.9308  134.2793  152.2290 H   0  0  0  0  0  0  0  0  0  0  0  0
  145.3957  133.9689  153.0057 H   0  0  0  0  0  0  0  0  0  0  0  0
  147.3435  132.7544  150.2504 H   0  0  0  0  0  0  0  0  0  0  0  0
  145.7372  131.4040  148.5074 H   0  0  0  0  0  0  0  0  0  0  0  0
  143.1903  132.1775  149.2786 H   0  0  0  0  0  0  0  0  0  0  0  0
  146.3971  136.6792  153.4732 H   0  0  0  0  0  0  0  0  0  0  0  0
  146.7445  138.3420  151.1046 H   0  0  0  0  0  0  0  0  0  0  0  0
  145.2420  138.4462  152.0143 H   0  0  0  0  0  0  0  0  0  0  0  0
  145.3080  140.2766  153.1000 H   0  0  0  0  0  0  0  0  0  0  0  0
  146.4934  140.9809  155.4687 H   0  0  0  0  0  0  0  0  0  0  0  0
  146.1560  142.8283  152.9818 H   0  0  0  0  0  0  0  0  0  0  0  0
  146.2920  143.3558  154.7380 H   0  0  0  0  0  0  0  0  0  0  0  0
  148.5461  142.2669  154.8907 H   0  0  0  0  0  0  0  0  0  0  0  0
  148.4102  141.7420  153.1335 H   0  0  0  0  0  0  0  0  0  0  0  0
  147.3568  136.4640  152.1660 H   0  0  0  0  0  0  0  0  0  0  0  0
  1  2  1  0  0  0  0
  1 17  1  0  0  0  0
  1 18  1  0  0  0  0
  1 19  1  0  0  0  0
  2  3  1  0  0  0  0
  2  9  1  0  0  0  0
  2 20  1  0  0  0  0
  3  4  1  0  0  0  0
  3 21  1  0  0  0  0
  3 22  1  0  0  0  0
  4  8  1  0  0  0  0
  4  5  1  0  0  0  0
  5  6  2  0  0  0  0
  5 23  1  0  0  0  0
  6  7  1  0  0  0  0
  6 24  1  0  0  0  0
  7  8  2  0  0  0  0
  7 25  1  0  0  0  0
  9 10  1  0  0  0  0
  9 26  1  0  0  0  0
  9 35  1  0  0  0  0
 10 11  1  0  0  0  0
 10 27  1  0  0  0  0
 10 28  1  0  0  0  0
 11 12  2  0  0  0  0
 11 13  1  0  0  0  0
 13 14  1  0  0  0  0
 13 29  1  0  0  0  0
 14 16  1  0  0  0  0
 14 15  1  0  0  0  0
 14 30  1  0  0  0  0
 15 16  1  0  0  0  0
 15 31  1  0  0  0  0
 15 32  1  0  0  0  0
 16 33  1  0  0  0  0
 16 34  1  0  0  0  0
M  CHG  1   9   1
M  END
> <s_m_source_file>
AV-unprocessed.smi

> <i_m_source_file_index>
3154

> <i_lp_mmshare_version>
43012

> <i_f3d_flags>
0

> <s_epik_input>
bjFbY0hdW2NIXVtjSF1uMVtDSDJdW0NAQEhdKFtDSDNdKVtOSF1bQ0gyXUMoPU8pW05IXVtDSF0yW0NIMl1bQ0gyXTI=

> <s_epik_cmdline>
J2VwaWtfcHl0aG9uJywgJy1waCcsICc3LjAnLCAnLXRuJywgJzgnLCAnLW1hJywgJzIwMCcsICctbWV0YWxfYmluZGluZycsICctaW1hZScsICc8aW5maWxlLm1hZT4nLCAnLW9tYWUnLCAnPG91dGZpbGUubWFlPic=

> <r_lp_tautomer_probability>
1

> <r_epik_Ionization_Penalty>
0.12065

> <r_epik_Ionization_Penalty_Charging>
0.120646

> <r_epik_Ionization_Penalty_Neutral>
4.1343e-06

> <r_epik_State_Penalty>
0.110186

> <r_epik_Charging_Adjusted_Penalty>
0.230832

> <i_epik_Tot_Q>
1

> <i_epik_Tot_abs_Q>
1

> <r_epik_Metal_State_Penalty>
0.110197

> <b_epik_Metal_Only>
0

> <s_lp_Force_Field>
OPLS_2005

> <r_lp_Energy>
15.3554

> <b_lp_Chiralities_Consistent>
1

> <s_lp_Variant>
AV-unprocessed.smi:3154-2

> <Gold.Version>
5.8.1

> <Gold.Id.Protein>
6NUR|6NUR_protein|mol2

> <Gold.PLP.Fitness>
45.0843

> <Gold.PLP.PLP>
-34.0196

> <Gold.PLP.part.hbond>
-2.0000

> <Gold.PLP.part.metal>
0.0000

> <Gold.PLP.part.buried>
-4.0693

> <Gold.PLP.part.nonpolar>
-30.2667

> <Gold.PLP.part.repulsive>
1.0293

> <Gold.PLP.ligand.clash>
0.0000

> <Gold.PLP.ligand.torsion>
0.8420

> <Gold.PLP.Chemscore.Hbond>
3.0000

> <Gold.PLP.Chemscore.CHOScore>
1.2248

> <Gold.PLP.Chemscore.Metal>
0.0000

> <Gold.Chemscore.Hbonds>
donor molecule, donor type, donor heavy atom, donor atom, acceptor molecule, acceptor atom, score
      L1  H     9    35       P1  7948  2.00
      L1  H    13    29       P1 10175  1.00
      L1  C     5    23       P1 10747  1.00

> <Gold.PLP.Chemscore.Internal.Correction>
0.0743

> <Gold.Rescore>
     Score         DG    S(hbond)    S(metal)    S(lipo)     H(rot)  DE(clash)    DE(int)     intcor
     13.88     -15.53       2.00        0.00      77.11       2.20       0.71       0.95       ----

> <Gold.Chemscore.Fitness>
13.8795

> <Gold.Chemscore.DG>
-15.5327

> <Gold.Chemscore.ZeroCoef>
-5.4800

> <Gold.Chemscore.Hbond>
1.9982

> <Gold.Chemscore.Metal>
0.0000

> <Gold.Chemscore.Lipo>
77.1064

> <Gold.Chemscore.Internal_Hbond>
0.0000

> <Gold.Chemscore.DEClash>
0.7070

> <Gold.Chemscore.DEInternal>
0.9462

> <Gold.Chemscore.Rot>
2.2042

> <Gold.Chemscore.Internal.Correction>
   9.000000E+99

> <Gold.Chemscore.Hbonds>
donor molecule, donor type, donor heavy atom, donor atom, acceptor molecule, acceptor atom, score
      L1  H     9    35       P1  7948  0.99
      L1  H    13    29       P1 10175  0.99

> <Gold.Chemscore.Hbond.Weighted>
-6.6739

> <Gold.Chemscore.Metal.Weighted>
-0.0000

> <Gold.Chemscore.Lipo.Weighted>
-9.0214

> <Gold.Chemscore.Internal_Hbond.Weighted>
0.0000

> <Gold.Chemscore.DEClash.Weighted>
0.7070

> <Gold.Chemscore.DEInternal.Weighted>
0.9462

> <Gold.Chemscore.Rot.Weighted>
5.6427

> <Gold.Chemscore.Internal.Correction.Weighted>
   9.000000E+99

> <Gold.Protein.RotatedTorsions>
[ 6907 6896 6895 6894 ] final   96.33 input  -60.11 | X-H torsion
[ 7974 7965 7964 7962 ] final  -88.75 input  175.53 | X-H torsion
[ 8008 7997 7996 7995 ] final  -62.33 input   59.86 | X-H torsion
[ 10167 10162 10161 10158 ] final  144.02 input  -65.29 | X-H torsion
[ 10718 10713 10712 10709 ] final  -53.79 input   66.30 | X-H torsion
[ 10763 10752 10751 10750 ] final -119.07 input  -60.55 | X-H torsion
[ 11005 11000 10999 10996 ] final   -3.04 input  -57.11 | X-H torsion

> <Gold.Protein.ActiveResidues>
 VAL166  LYS551  ARG553  GLY616  TRP617  ASP618  TYR619  PRO620  LYS621  CYS622 
 ASP623  PHE694  ASN695  SER759  ASP760  ASP761  ALA762  ILE779  LEU786  VAL792 
 PHE793  MET794  SER795  GLU796  ALA797  LYS798  CYS799  TRP800  GLU811  SER814 

> <Gold.Protein.RotatedAtoms>
  152.5436  134.0902  159.8273 H   0  0  0  0  0  0  0  0  0  0  0  0  # atno 6907 bound_to 6896
  151.0993  133.5248  159.2618 H   0  0  0  0  0  0  0  0  0  0  0  0  # atno 6908 bound_to 6896
  151.2010  135.0451  159.8926 H   0  0  0  0  0  0  0  0  0  0  0  0  # atno 6909 bound_to 6896
  145.4490  140.9560  143.2033 H   0  0  0  0  0  0  0  0  0  0  0  0  # atno 7974 bound_to 7965
  154.4494  140.0998  156.6570 H   0  0  0  0  0  0  0  0  0  0  0  0  # atno 8008 bound_to 7997
  155.5335  140.3482  155.4413 H   0  0  0  0  0  0  0  0  0  0  0  0  # atno 8009 bound_to 7997
  156.0648  140.1335  156.9888 H   0  0  0  0  0  0  0  0  0  0  0  0  # atno 8010 bound_to 7997
  139.4956  144.6001  151.6500 H   0  0  0  0  0  0  0  0  0  0  0  0  # atno 10167 bound_to 10162
  156.1505  130.4151  149.9952 H   0  0  0  0  0  0  0  0  0  0  0  0  # atno 10718 bound_to 10713
  154.8606  135.4251  154.2240 H   0  0  0  0  0  0  0  0  0  0  0  0  # atno 10763 bound_to 10752
  153.3239  135.6984  153.7012 H   0  0  0  0  0  0  0  0  0  0  0  0  # atno 10764 bound_to 10752
  153.6056  135.3529  155.2934 H   0  0  0  0  0  0  0  0  0  0  0  0  # atno 10765 bound_to 10752
  140.6650  133.9287  155.8459 H   0  0  0  0  0  0  0  0  0  0  0  0  # atno 11005 bound_to 11000
  144.8074  139.6026  143.7045 LP  0  0  0  0  0  0  0  0  0  0  0  0  # atno 17320 bound_to 7965
  146.2515  139.6210  142.9424 LP  0  0  0  0  0  0  0  0  0  0  0  0  # atno 17321 bound_to 7965
  140.5648  144.0208  150.6187 LP  0  0  0  0  0  0  0  0  0  0  0  0  # atno 17342 bound_to 10162
  140.3306  143.3080  152.0691 LP  0  0  0  0  0  0  0  0  0  0  0  0  # atno 17343 bound_to 10162
  156.7811  130.9221  151.3646 LP  0  0  0  0  0  0  0  0  0  0  0  0  # atno 17370 bound_to 10713
  157.6653  130.9002  149.9919 LP  0  0  0  0  0  0  0  0  0  0  0  0  # atno 17371 bound_to 10713
  141.0436  134.0586  157.3871 LP  0  0  0  0  0  0  0  0  0  0  0  0  # atno 17394 bound_to 11000
  139.9000  135.0161  156.7223 LP  0  0  0  0  0  0  0  0  0  0  0  0  # atno 17395 bound_to 11000

$$$$
