AV-unprocessed.smi:1645|AV-procd|sdf|6619|dock2
  -GOLD-   22720 7313D 1   1.00000     0.00000
 Structure written by MMmdl.
 55 58  0  0  0  0  0  0  0  0  4 V2000
  152.5197  135.5062  157.0146 O   0  0  0  0  0  0  0  0  0  0  0  0
  151.4137  135.5179  156.4616 C   0  0  0  0  0  0  0  0  0  0  0  0
  150.7441  136.6737  156.3079 N   0  0  0  0  0  0  0  0  0  0  0  0
  151.1100  137.9743  156.7439 C   0  0  0  0  0  0  0  0  0  0  0  0
  150.2572  139.0480  156.4123 C   0  0  0  0  0  0  0  0  0  0  0  0
  150.5782  140.3518  156.8415 C   0  0  0  0  0  0  0  0  0  0  0  0
  151.7465  140.5595  157.6103 C   0  0  0  0  0  0  0  0  0  0  0  0
  152.1470  141.8174  158.0786 N   0  0  0  0  0  0  0  0  0  0  0  0
  152.3831  141.8319  159.5201 C   0  0  0  0  0  0  0  0  0  0  0  0
  152.9925  143.1736  159.9626 C   0  0  0  0  0  0  0  0  0  0  0  0
  152.1229  144.3526  159.4966 C   0  0  0  0  0  0  0  0  0  0  0  0
  151.8903  144.2719  157.9794 C   0  0  0  0  0  0  0  0  0  0  0  0
  151.3035  142.9048  157.5880 C   0  0  0  0  0  0  0  0  0  0  0  0
  152.5256  139.5025  157.9266 N   0  3  0  0  0  0  0  0  0  0  0  0
  152.2551  138.2390  157.5331 C   0  0  0  0  0  0  0  0  0  0  0  0
  150.7438  134.4619  155.9264 N   0  5  0  0  0  0  0  0  0  0  0  0
  149.9015  134.5314  154.7297 C   0  0  1  0  0  0  0  0  0  0  0  0
  149.6263  133.1478  154.1266 C   0  0  0  0  0  0  0  0  0  0  0  0
  148.2666  133.2976  153.4201 C   0  0  0  0  0  0  0  0  0  0  0  0
  147.7636  134.6431  153.7814 N   0  3  1  0  0  0  0  0  0  0  0  0
  146.2896  134.8284  153.7849 C   0  0  0  0  0  0  0  0  0  0  0  0
  145.6275  134.2883  155.0624 C   0  0  0  0  0  0  0  0  0  0  0  0
  146.2950  134.8810  156.3071 C   0  0  0  0  0  0  0  0  0  0  0  0
  147.7912  134.5500  156.2901 C   0  0  0  0  0  0  0  0  0  0  0  0
  148.4849  135.0814  154.9988 C   0  0  1  0  0  0  0  0  0  0  0  0
  149.9021  136.6171  155.7540 H   0  0  0  0  0  0  0  0  0  0  0  0
  149.3663  138.8773  155.8254 H   0  0  0  0  0  0  0  0  0  0  0  0
  149.9315  141.1775  156.5831 H   0  0  0  0  0  0  0  0  0  0  0  0
  151.4423  141.6619  160.0453 H   0  0  0  0  0  0  0  0  0  0  0  0
  153.0528  141.0146  159.7912 H   0  0  0  0  0  0  0  0  0  0  0  0
  153.1030  143.1945  161.0472 H   0  0  0  0  0  0  0  0  0  0  0  0
  153.9958  143.2737  159.5466 H   0  0  0  0  0  0  0  0  0  0  0  0
  151.1643  144.3304  160.0165 H   0  0  0  0  0  0  0  0  0  0  0  0
  152.5976  145.2991  159.7567 H   0  0  0  0  0  0  0  0  0  0  0  0
  151.2223  145.0716  157.6585 H   0  0  0  0  0  0  0  0  0  0  0  0
  152.8348  144.4279  157.4560 H   0  0  0  0  0  0  0  0  0  0  0  0
  151.2121  142.8376  156.5030 H   0  0  0  0  0  0  0  0  0  0  0  0
  150.2988  142.8049  158.0009 H   0  0  0  0  0  0  0  0  0  0  0  0
  152.9575  137.4924  157.8732 H   0  0  0  0  0  0  0  0  0  0  0  0
  150.3585  135.1443  153.9502 H   0  0  0  0  0  0  0  0  0  0  0  0
  150.4170  132.8377  153.4428 H   0  0  0  0  0  0  0  0  0  0  0  0
  149.5502  132.3878  154.9061 H   0  0  0  0  0  0  0  0  0  0  0  0
  148.3583  133.2190  152.3361 H   0  0  0  0  0  0  0  0  0  0  0  0
  147.5818  132.5161  153.7523 H   0  0  0  0  0  0  0  0  0  0  0  0
  146.0893  135.8973  153.7037 H   0  0  0  0  0  0  0  0  0  0  0  0
  145.8569  134.3643  152.8981 H   0  0  0  0  0  0  0  0  0  0  0  0
  144.5644  134.5306  155.0588 H   0  0  0  0  0  0  0  0  0  0  0  0
  145.6950  133.2003  155.0895 H   0  0  0  0  0  0  0  0  0  0  0  0
  146.1510  135.9619  156.3334 H   0  0  0  0  0  0  0  0  0  0  0  0
  145.8318  134.4795  157.2089 H   0  0  0  0  0  0  0  0  0  0  0  0
  148.2589  134.9818  157.1765 H   0  0  0  0  0  0  0  0  0  0  0  0
  147.8967  133.4674  156.3894 H   0  0  0  0  0  0  0  0  0  0  0  0
  148.4999  136.1718  155.0291 H   0  0  0  0  0  0  0  0  0  0  0  0
  148.1164  135.2428  153.0495 H   0  0  0  0  0  0  0  0  0  0  0  0
  153.3594  139.6648  158.4917 H   0  0  0  0  0  0  0  0  0  0  0  0
  1  2  2  0  0  0  0
  2  3  1  0  0  0  0
  2 16  1  0  0  0  0
  3  4  1  0  0  0  0
  3 26  1  0  0  0  0
  4 15  1  0  0  0  0
  4  5  2  0  0  0  0
  5  6  1  0  0  0  0
  5 27  1  0  0  0  0
  6  7  2  0  0  0  0
  6 28  1  0  0  0  0
  7  8  1  0  0  0  0
  7 14  1  0  0  0  0
  8 13  1  0  0  0  0
  8  9  1  0  0  0  0
  9 10  1  0  0  0  0
  9 29  1  0  0  0  0
  9 30  1  0  0  0  0
 10 11  1  0  0  0  0
 10 31  1  0  0  0  0
 10 32  1  0  0  0  0
 11 12  1  0  0  0  0
 11 33  1  0  0  0  0
 11 34  1  0  0  0  0
 12 13  1  0  0  0  0
 12 35  1  0  0  0  0
 12 36  1  0  0  0  0
 13 37  1  0  0  0  0
 13 38  1  0  0  0  0
 14 15  2  0  0  0  0
 14 55  1  0  0  0  0
 15 39  1  0  0  0  0
 16 17  1  0  0  0  0
 17 25  1  0  0  0  0
 17 18  1  0  0  0  0
 17 40  1  0  0  0  0
 18 19  1  0  0  0  0
 18 41  1  0  0  0  0
 18 42  1  0  0  0  0
 19 20  1  0  0  0  0
 19 43  1  0  0  0  0
 19 44  1  0  0  0  0
 20 25  1  0  0  0  0
 20 21  1  0  0  0  0
 20 54  1  0  0  0  0
 21 22  1  0  0  0  0
 21 45  1  0  0  0  0
 21 46  1  0  0  0  0
 22 23  1  0  0  0  0
 22 47  1  0  0  0  0
 22 48  1  0  0  0  0
 23 24  1  0  0  0  0
 23 49  1  0  0  0  0
 23 50  1  0  0  0  0
 24 25  1  0  0  0  0
 24 51  1  0  0  0  0
 24 52  1  0  0  0  0
 25 53  1  0  0  0  0
M  CHG  1  14   1
M  CHG  1  16  -1
M  CHG  1  20   1
M  END
> <s_m_source_file>
AV-unprocessed.smi

> <i_m_source_file_index>
1645

> <i_lp_mmshare_version>
43012

> <i_f3d_flags>
0

> <s_epik_input>
W0NIMl0xW0NIMl1bQ0gyXVtDSDJdW0NASF0oTjEyKVtDQEBIXShbQ0gyXVtDSDJdMilbTkhdQyg9TylbTkhdYzNbY0hdW2NIXWMobltjSF0zKU40W0NIMl1bQ0gyXVtDSDJdW0NIMl1bQ0gyXTQ=

> <s_epik_cmdline>
J2VwaWtfcHl0aG9uJywgJy1waCcsICc3LjAnLCAnLXRuJywgJzgnLCAnLW1hJywgJzIwMCcsICctbWV0YWxfYmluZGluZycsICctaW1hZScsICc8aW5maWxlLm1hZT4nLCAnLW9tYWUnLCAnPG91dGZpbGUubWFlPic=

> <r_lp_tautomer_probability>
0.999994

> <r_epik_Ionization_Penalty>
8.55589

> <r_epik_Ionization_Penalty_Charging>
8.55589

> <r_epik_Ionization_Penalty_Neutral>
3.8092e-06

> <r_epik_State_Penalty>
8.15703

> <r_epik_Charging_Adjusted_Penalty>
16.7129

> <i_epik_Tot_Q>
1

> <i_epik_Tot_abs_Q>
3

> <r_epik_Metal_State_Penalty>
4.13781

> <b_epik_Metal_Only>
1

> <s_lp_Force_Field>
OPLS_2005

> <r_lp_Energy>
57.4093

> <b_lp_Chiralities_Consistent>
1

> <s_lp_Variant>
AV-unprocessed.smi:1645-20

> <Gold.Version>
5.8.1

> <Gold.Id.Protein>
6NUR|6NUR_protein|mol2

> <Gold.PLP.Fitness>
44.6745

> <Gold.PLP.PLP>
-36.7014

> <Gold.PLP.part.hbond>
-2.0000

> <Gold.PLP.part.metal>
0.0000

> <Gold.PLP.part.buried>
-4.1717

> <Gold.PLP.part.nonpolar>
-30.5957

> <Gold.PLP.part.repulsive>
0.1959

> <Gold.PLP.ligand.clash>
0.0000

> <Gold.PLP.ligand.torsion>
0.5778

> <Gold.PLP.Chemscore.Hbond>
2.9913

> <Gold.PLP.Chemscore.CHOScore>
0.0000

> <Gold.PLP.Chemscore.Metal>
0.0000

> <Gold.Chemscore.Hbonds>
donor molecule, donor type, donor heavy atom, donor atom, acceptor molecule, acceptor atom, score
      L1  H    20    54       P1  7948  2.00
      P1  H 10752 10763       L1     1  1.00

> <Gold.PLP.Chemscore.Internal.Correction>
0.1551

> <Gold.Rescore>
     Score         DG    S(hbond)    S(metal)    S(lipo)     H(rot)  DE(clash)    DE(int)     intcor
     17.58     -19.63       1.61        0.00     100.55       1.17       0.03       2.02       ----

> <Gold.Chemscore.Fitness>
17.5835

> <Gold.Chemscore.DG>
-19.6254

> <Gold.Chemscore.ZeroCoef>
-5.4800

> <Gold.Chemscore.Hbond>
1.6120

> <Gold.Chemscore.Metal>
0.0000

> <Gold.Chemscore.Lipo>
100.5513

> <Gold.Chemscore.Internal_Hbond>
0.0000

> <Gold.Chemscore.DEClash>
0.0266

> <Gold.Chemscore.DEInternal>
2.0153

> <Gold.Chemscore.Rot>
1.1731

> <Gold.Chemscore.Internal.Correction>
   9.000000E+99

> <Gold.Chemscore.Hbonds>
donor molecule, donor type, donor heavy atom, donor atom, acceptor molecule, acceptor atom, score
      L1  H    20    54       P1  7948  0.99
      P1  H 10752 10763       L1     1  0.23

> <Gold.Chemscore.Hbond.Weighted>
-5.3841

> <Gold.Chemscore.Metal.Weighted>
-0.0000

> <Gold.Chemscore.Lipo.Weighted>
-11.7645

> <Gold.Chemscore.Internal_Hbond.Weighted>
0.0000

> <Gold.Chemscore.DEClash.Weighted>
0.0266

> <Gold.Chemscore.DEInternal.Weighted>
2.0153

> <Gold.Chemscore.Rot.Weighted>
3.0032

> <Gold.Chemscore.Internal.Correction.Weighted>
   9.000000E+99

> <Gold.Protein.RotatedTorsions>
[ 6907 6896 6895 6894 ] final   51.05 input  -60.11 | X-H torsion
[ 7974 7965 7964 7962 ] final -157.29 input  175.53 | X-H torsion
[ 8008 7997 7996 7995 ] final  163.08 input   59.86 | X-H torsion
[ 10167 10162 10161 10158 ] final  -14.65 input  -65.29 | X-H torsion
[ 10718 10713 10712 10709 ] final   84.27 input   66.30 | X-H torsion
[ 10763 10752 10751 10750 ] final  130.28 input  -60.55 | X-H torsion
[ 11005 11000 10999 10996 ] final   43.59 input  -57.11 | X-H torsion

> <Gold.Protein.ActiveResidues>
 VAL166  LYS551  ARG553  GLY616  TRP617  ASP618  TYR619  PRO620  LYS621  CYS622 
 ASP623  PHE694  ASN695  SER759  ASP760  ASP761  ALA762  ILE779  LEU786  VAL792 
 PHE793  MET794  SER795  GLU796  ALA797  LYS798  CYS799  TRP800  GLU811  SER814 

> <Gold.Protein.RotatedAtoms>
  152.3085  134.7526  160.0341 H   0  0  0  0  0  0  0  0  0  0  0  0  # atno 6907 bound_to 6896
  151.8015  133.3365  159.3536 H   0  0  0  0  0  0  0  0  0  0  0  0  # atno 6908 bound_to 6896
  150.7308  134.5679  159.5920 H   0  0  0  0  0  0  0  0  0  0  0  0  # atno 6909 bound_to 6896
  144.7555  140.3990  143.6016 H   0  0  0  0  0  0  0  0  0  0  0  0  # atno 7974 bound_to 7965
  156.1983  140.1733  156.7951 H   0  0  0  0  0  0  0  0  0  0  0  0  # atno 8008 bound_to 7997
  154.5559  140.0709  156.8773 H   0  0  0  0  0  0  0  0  0  0  0  0  # atno 8009 bound_to 7997
  155.2940  140.3357  155.4253 H   0  0  0  0  0  0  0  0  0  0  0  0  # atno 8010 bound_to 7997
  140.7205  143.5299  150.9532 H   0  0  0  0  0  0  0  0  0  0  0  0  # atno 10167 bound_to 10162
  157.6895  131.0126  150.2647 H   0  0  0  0  0  0  0  0  0  0  0  0  # atno 10718 bound_to 10713
  153.7554  135.3204  155.3328 H   0  0  0  0  0  0  0  0  0  0  0  0  # atno 10763 bound_to 10752
  154.8249  135.4577  154.0890 H   0  0  0  0  0  0  0  0  0  0  0  0  # atno 10764 bound_to 10752
  153.2105  135.6935  153.8202 H   0  0  0  0  0  0  0  0  0  0  0  0  # atno 10765 bound_to 10752
  140.1631  134.4317  155.8305 H   0  0  0  0  0  0  0  0  0  0  0  0  # atno 11005 bound_to 11000
  145.6795  139.1615  143.2709 LP  0  0  0  0  0  0  0  0  0  0  0  0  # atno 17320 bound_to 7965
  146.1559  140.6858  142.9300 LP  0  0  0  0  0  0  0  0  0  0  0  0  # atno 17321 bound_to 7965
  139.9019  143.6825  152.3130 LP  0  0  0  0  0  0  0  0  0  0  0  0  # atno 17342 bound_to 10162
  139.7178  144.7608  151.1005 LP  0  0  0  0  0  0  0  0  0  0  0  0  # atno 17343 bound_to 10162
  156.3221  130.3787  149.7566 LP  0  0  0  0  0  0  0  0  0  0  0  0  # atno 17370 bound_to 10713
  156.5133  130.8182  151.3177 LP  0  0  0  0  0  0  0  0  0  0  0  0  # atno 17371 bound_to 10713
  141.2211  133.6922  156.7629 LP  0  0  0  0  0  0  0  0  0  0  0  0  # atno 17394 bound_to 11000
  140.2466  134.8572  157.3627 LP  0  0  0  0  0  0  0  0  0  0  0  0  # atno 17395 bound_to 11000

$$$$
