AV-unprocessed.smi:1266|AV-procd|sdf|5321|dock9
  -GOLD-   22720 4443D 1   1.00000     0.00000
 Structure written by MMmdl.
 40 41  0  0  0  0  0  0  0  0  3 V2000
  151.6728  140.6601  156.0227 O   0  0  0  0  0  0  0  0  0  0  0  0
  150.7784  141.4922  155.8644 C   0  0  0  0  0  0  0  0  0  0  0  0
  149.6597  141.2638  154.8378 C   0  0  0  0  0  0  0  0  0  0  0  0
  148.3089  141.4876  155.3804 N   0  0  0  0  0  0  0  0  0  0  0  0
  147.4445  142.3064  154.6272 C   0  0  0  0  0  0  0  0  0  0  0  0
  146.1867  142.5786  155.0267 C   0  0  0  0  0  0  0  0  0  0  0  0
  145.3145  143.4255  154.2428 N   0  3  0  0  0  0  0  0  0  0  0  0
  145.7258  143.8642  153.1734 O   0  0  0  0  0  0  0  0  0  0  0  0
  144.1920  143.6812  154.6685 O   0  5  0  0  0  0  0  0  0  0  0  0
  145.7350  141.9950  156.2749 C   0  0  0  0  0  0  0  0  0  0  0  0
  146.5589  141.2160  157.0031 C   0  0  0  0  0  0  0  0  0  0  0  0
  147.9296  140.9263  156.5693 C   0  0  0  0  0  0  0  0  0  0  0  0
  148.6895  140.2215  157.2336 O   0  0  0  0  0  0  0  0  0  0  0  0
  150.7017  142.6337  156.5661 N   0  0  0  0  0  0  0  0  0  0  0  0
  151.6456  143.0671  157.5937 C   0  0  0  0  0  0  0  0  0  0  0  0
  151.6486  142.0271  158.7340 C   0  0  0  0  0  0  0  0  0  0  0  0
  152.8349  142.1875  159.7000 C   0  0  0  0  0  0  0  0  0  0  0  0
  152.6172  143.1695  160.8648 C   0  0  0  0  0  0  0  0  0  0  0  0
  151.8578  144.4669  160.5374 C   0  0  0  0  0  0  0  0  0  0  0  0
  152.1634  145.0785  159.1608 C   0  0  0  0  0  0  0  0  0  0  0  0
  151.2816  144.4976  158.0423 C   0  0  0  0  0  0  0  0  0  0  0  0
  149.8414  141.9200  153.9854 H   0  0  0  0  0  0  0  0  0  0  0  0
  149.7416  140.2510  154.4387 H   0  0  0  0  0  0  0  0  0  0  0  0
  147.8774  142.6970  153.7174 H   0  0  0  0  0  0  0  0  0  0  0  0
  144.7333  142.1782  156.6350 H   0  0  0  0  0  0  0  0  0  0  0  0
  146.2022  140.7921  157.9303 H   0  0  0  0  0  0  0  0  0  0  0  0
  149.9308  143.2558  156.3703 H   0  0  0  0  0  0  0  0  0  0  0  0
  152.6454  143.0848  157.1558 H   0  0  0  0  0  0  0  0  0  0  0  0
  150.7025  142.0326  159.2769 H   0  0  0  0  0  0  0  0  0  0  0  0
  151.7273  141.0352  158.2864 H   0  0  0  0  0  0  0  0  0  0  0  0
  153.0745  141.2133  160.1281 H   0  0  0  0  0  0  0  0  0  0  0  0
  153.7239  142.4765  159.1383 H   0  0  0  0  0  0  0  0  0  0  0  0
  152.0858  142.6590  161.6687 H   0  0  0  0  0  0  0  0  0  0  0  0
  153.5942  143.4237  161.2779 H   0  0  0  0  0  0  0  0  0  0  0  0
  150.7846  144.2940  160.6261 H   0  0  0  0  0  0  0  0  0  0  0  0
  152.0938  145.1980  161.3113 H   0  0  0  0  0  0  0  0  0  0  0  0
  151.9588  146.1482  159.2171 H   0  0  0  0  0  0  0  0  0  0  0  0
  153.2225  144.9912  158.9157 H   0  0  0  0  0  0  0  0  0  0  0  0
  151.3571  145.1593  157.1785 H   0  0  0  0  0  0  0  0  0  0  0  0
  150.2350  144.5368  158.3476 H   0  0  0  0  0  0  0  0  0  0  0  0
  1  2  2  0  0  0  0
  2  3  1  0  0  0  0
  2 14  1  0  0  0  0
  3  4  1  0  0  0  0
  3 22  1  0  0  0  0
  3 23  1  0  0  0  0
  4 12  1  0  0  0  0
  4  5  1  0  0  0  0
  5  6  2  0  0  0  0
  5 24  1  0  0  0  0
  6  7  1  0  0  0  0
  6 10  1  0  0  0  0
  7  8  2  0  0  0  0
  7  9  1  0  0  0  0
 10 11  2  0  0  0  0
 10 25  1  0  0  0  0
 11 12  1  0  0  0  0
 11 26  1  0  0  0  0
 12 13  2  0  0  0  0
 14 15  1  0  0  0  0
 14 27  1  0  0  0  0
 15 21  1  0  0  0  0
 15 16  1  0  0  0  0
 15 28  1  0  0  0  0
 16 17  1  0  0  0  0
 16 29  1  0  0  0  0
 16 30  1  0  0  0  0
 17 18  1  0  0  0  0
 17 31  1  0  0  0  0
 17 32  1  0  0  0  0
 18 19  1  0  0  0  0
 18 33  1  0  0  0  0
 18 34  1  0  0  0  0
 19 20  1  0  0  0  0
 19 35  1  0  0  0  0
 19 36  1  0  0  0  0
 20 21  1  0  0  0  0
 20 37  1  0  0  0  0
 20 38  1  0  0  0  0
 21 39  1  0  0  0  0
 21 40  1  0  0  0  0
M  CHG  1   7   1
M  CHG  1   9  -1
M  END
> <s_m_source_file>
AV-unprocessed.smi

> <i_m_source_file_index>
1266

> <i_lp_mmshare_version>
43012

> <i_f3d_flags>
0

> <s_epik_input>
W0NIMl0xW0NIMl1bQ0gyXVtDSDJdW0NIMl1bQ0gyXVtDSF0xW05IXUMoPU8pW0NIMl1uMltjSF1jKFtOK10oPU8pW08tXSlbY0hdW2NIXWMyPU8=

> <s_epik_cmdline>
J2VwaWtfcHl0aG9uJywgJy1waCcsICc3LjAnLCAnLXRuJywgJzgnLCAnLW1hJywgJzIwMCcsICctbWV0YWxfYmluZGluZycsICctaW1hZScsICc8aW5maWxlLm1hZT4nLCAnLW9tYWUnLCAnPG91dGZpbGUubWFlPic=

> <r_lp_tautomer_probability>
1

> <r_epik_Ionization_Penalty>
2.02954e-08

> <r_epik_Ionization_Penalty_Charging>
8.05481e-11

> <r_epik_Ionization_Penalty_Neutral>
2.02148e-08

> <r_epik_State_Penalty>
-0

> <r_epik_Charging_Adjusted_Penalty>
8.05481e-11

> <i_epik_Tot_Q>
0

> <i_epik_Tot_abs_Q>
2

> <r_epik_Metal_State_Penalty>
-0

> <b_epik_Metal_Only>
0

> <s_lp_Force_Field>
OPLS_2005

> <r_lp_Energy>
25.8216

> <b_lp_Chiralities_Consistent>
1

> <s_lp_Variant>
AV-unprocessed.smi:1266-1

> <Gold.Version>
5.8.1

> <Gold.Id.Protein>
6NUR|6NUR_protein|mol2

> <Gold.PLP.Fitness>
47.0232

> <Gold.PLP.PLP>
-44.5039

> <Gold.PLP.part.hbond>
-1.5053

> <Gold.PLP.part.metal>
0.0000

> <Gold.PLP.part.buried>
-5.4725

> <Gold.PLP.part.nonpolar>
-38.2382

> <Gold.PLP.part.repulsive>
0.4429

> <Gold.PLP.ligand.clash>
0.0000

> <Gold.PLP.ligand.torsion>
0.2519

> <Gold.PLP.Chemscore.Hbond>
1.0000

> <Gold.PLP.Chemscore.CHOScore>
0.0000

> <Gold.PLP.Chemscore.Metal>
0.0000

> <Gold.Chemscore.Hbonds>
donor molecule, donor type, donor heavy atom, donor atom, acceptor molecule, acceptor atom, score
      L1  H    14    27       P1  8028  1.00

> <Gold.PLP.Chemscore.Internal.Correction>
0.0231

> <Gold.Rescore>
     Score         DG    S(hbond)    S(metal)    S(lipo)     H(rot)  DE(clash)    DE(int)     intcor
     15.04     -16.84       1.00        0.00     102.58       1.55       0.13       1.67       ----

> <Gold.Chemscore.Fitness>
15.0355

> <Gold.Chemscore.DG>
-16.8394

> <Gold.Chemscore.ZeroCoef>
-5.4800

> <Gold.Chemscore.Hbond>
0.9961

> <Gold.Chemscore.Metal>
0.0000

> <Gold.Chemscore.Lipo>
102.5793

> <Gold.Chemscore.Internal_Hbond>
0.0000

> <Gold.Chemscore.DEClash>
0.1321

> <Gold.Chemscore.DEInternal>
1.6719

> <Gold.Chemscore.Rot>
1.5505

> <Gold.Chemscore.Internal.Correction>
   9.000000E+99

> <Gold.Chemscore.Hbonds>
donor molecule, donor type, donor heavy atom, donor atom, acceptor molecule, acceptor atom, score
      L1  H    14    27       P1  8028  0.99

> <Gold.Chemscore.Hbond.Weighted>
-3.3268

> <Gold.Chemscore.Metal.Weighted>
-0.0000

> <Gold.Chemscore.Lipo.Weighted>
-12.0018

> <Gold.Chemscore.Internal_Hbond.Weighted>
0.0000

> <Gold.Chemscore.DEClash.Weighted>
0.1321

> <Gold.Chemscore.DEInternal.Weighted>
1.6719

> <Gold.Chemscore.Rot.Weighted>
3.9692

> <Gold.Chemscore.Internal.Correction.Weighted>
   9.000000E+99

> <Gold.Protein.RotatedTorsions>
[ 6907 6896 6895 6894 ] final   -3.87 input  -60.11 | X-H torsion
[ 7974 7965 7964 7962 ] final -131.53 input  175.53 | X-H torsion
[ 8008 7997 7996 7995 ] final  172.20 input   59.86 | X-H torsion
[ 10167 10162 10161 10158 ] final  142.07 input  -65.29 | X-H torsion
[ 10718 10713 10712 10709 ] final   41.43 input   66.30 | X-H torsion
[ 10763 10752 10751 10750 ] final -150.34 input  -60.55 | X-H torsion
[ 11005 11000 10999 10996 ] final   39.93 input  -57.11 | X-H torsion

> <Gold.Protein.ActiveResidues>
 VAL166  LYS551  ARG553  GLY616  TRP617  ASP618  TYR619  PRO620  LYS621  CYS622 
 ASP623  PHE694  ASN695  SER759  ASP760  ASP761  ALA762  ILE779  LEU786  VAL792 
 PHE793  MET794  SER795  GLU796  ALA797  LYS798  CYS799  TRP800  GLU811  SER814 

> <Gold.Protein.RotatedAtoms>
  151.5067  135.1063  159.9842 H   0  0  0  0  0  0  0  0  0  0  0  0  # atno 6907 bound_to 6896
  152.4679  133.7959  159.6937 H   0  0  0  0  0  0  0  0  0  0  0  0  # atno 6908 bound_to 6896
  150.8672  133.7494  159.2998 H   0  0  0  0  0  0  0  0  0  0  0  0  # atno 6909 bound_to 6896
  144.9371  140.7196  143.4870 H   0  0  0  0  0  0  0  0  0  0  0  0  # atno 7974 bound_to 7965
  156.1198  140.1492  156.9221 H   0  0  0  0  0  0  0  0  0  0  0  0  # atno 8008 bound_to 7997
  154.4827  140.0874  156.7456 H   0  0  0  0  0  0  0  0  0  0  0  0  # atno 8009 bound_to 7997
  155.4449  140.3432  155.4296 H   0  0  0  0  0  0  0  0  0  0  0  0  # atno 8010 bound_to 7997
  139.5003  144.6130  151.6227 H   0  0  0  0  0  0  0  0  0  0  0  0  # atno 10167 bound_to 10162
  157.3934  130.7819  149.7288 H   0  0  0  0  0  0  0  0  0  0  0  0  # atno 10718 bound_to 10713
  154.8125  135.3287  154.7267 H   0  0  0  0  0  0  0  0  0  0  0  0  # atno 10763 bound_to 10752
  153.7914  135.6911  153.4875 H   0  0  0  0  0  0  0  0  0  0  0  0  # atno 10764 bound_to 10752
  153.1914  135.4549  155.0100 H   0  0  0  0  0  0  0  0  0  0  0  0  # atno 10765 bound_to 10752
  140.1980  134.3906  155.8111 H   0  0  0  0  0  0  0  0  0  0  0  0  # atno 11005 bound_to 11000
  145.3050  139.1837  143.4669 LP  0  0  0  0  0  0  0  0  0  0  0  0  # atno 17320 bound_to 7965
  146.3271  140.3046  142.8623 LP  0  0  0  0  0  0  0  0  0  0  0  0  # atno 17321 bound_to 7965
  140.5810  143.9945  150.6268 LP  0  0  0  0  0  0  0  0  0  0  0  0  # atno 17342 bound_to 10162
  140.3094  143.3208  152.0894 LP  0  0  0  0  0  0  0  0  0  0  0  0  # atno 17343 bound_to 10162
  155.9804  130.4030  150.3530 LP  0  0  0  0  0  0  0  0  0  0  0  0  # atno 17370 bound_to 10713
  157.1649  131.0354  151.2823 LP  0  0  0  0  0  0  0  0  0  0  0  0  # atno 17371 bound_to 10713
  141.2227  133.7079  156.8208 LP  0  0  0  0  0  0  0  0  0  0  0  0  # atno 17394 bound_to 11000
  140.2086  134.8844  157.3249 LP  0  0  0  0  0  0  0  0  0  0  0  0  # atno 17395 bound_to 11000

$$$$
