AV-unprocessed.smi:3004|AV-procd|sdf|11441|dock8
  -GOLD-   2272016373D 1   1.00000     0.00000
 Structure written by MMmdl.
 47 48  0  0  0  0  0  0  0  0  2 V2000
  153.5813  138.7003  159.4557 C   0  0  0  0  0  0  0  0  0  0  0  0
  152.8532  139.9543  159.0716 C   0  0  0  0  0  0  0  0  0  0  0  0
  152.8258  141.2021  159.7547 C   0  0  0  0  0  0  0  0  0  0  0  0
  152.0215  141.9924  158.9831 C   0  0  0  0  0  0  0  0  0  0  0  0
  151.6052  143.4146  159.1683 C   0  0  0  0  0  0  0  0  0  0  0  0
  151.6107  141.2207  157.9104 N   0  0  0  0  0  0  0  0  0  0  0  0
  150.7497  141.5825  156.7950 C   0  0  0  0  0  0  0  0  0  0  0  0
  150.6400  140.4394  155.7848 C   0  0  0  0  0  0  0  0  0  0  0  0
  151.6384  140.0561  155.1752 O   0  0  0  0  0  0  0  0  0  0  0  0
  149.4213  139.9026  155.6167 N   0  0  0  0  0  0  0  0  0  0  0  0
  149.1094  138.8072  154.7078 C   0  0  0  0  0  0  0  0  0  0  0  0
  150.0170  137.5880  154.9666 C   0  0  0  0  0  0  0  0  0  0  0  0
  149.3668  136.2861  154.6548 N   0  3  2  0  0  0  0  0  0  0  0  0
  148.0087  136.1879  155.2555 C   0  0  0  0  0  0  0  0  0  0  0  0
  147.2607  134.9421  154.7554 C   0  0  0  0  0  0  0  0  0  0  0  0
  148.0680  133.6688  155.0281 C   0  0  0  0  0  0  0  0  0  0  0  0
  149.4680  133.8007  154.4138 C   0  0  0  0  0  0  0  0  0  0  0  0
  150.2032  135.0681  154.9002 C   0  0  2  0  0  0  0  0  0  0  0  0
  150.6934  134.9363  156.3582 C   0  0  0  0  0  0  0  0  0  0  0  0
  152.1256  139.9725  157.9669 N   0  0  0  0  0  0  0  0  0  0  0  0
  154.0511  138.8019  160.4341 H   0  0  0  0  0  0  0  0  0  0  0  0
  154.3646  138.4653  158.7347 H   0  0  0  0  0  0  0  0  0  0  0  0
  152.9020  137.8486  159.5017 H   0  0  0  0  0  0  0  0  0  0  0  0
  153.3220  141.4756  160.6741 H   0  0  0  0  0  0  0  0  0  0  0  0
  152.0643  143.8415  160.0601 H   0  0  0  0  0  0  0  0  0  0  0  0
  150.5235  143.4921  159.2791 H   0  0  0  0  0  0  0  0  0  0  0  0
  151.9049  144.0224  158.3146 H   0  0  0  0  0  0  0  0  0  0  0  0
  149.7584  141.8427  157.1696 H   0  0  0  0  0  0  0  0  0  0  0  0
  151.1485  142.4747  156.3108 H   0  0  0  0  0  0  0  0  0  0  0  0
  148.6596  140.2790  156.1632 H   0  0  0  0  0  0  0  0  0  0  0  0
  148.0639  138.5328  154.8504 H   0  0  0  0  0  0  0  0  0  0  0  0
  149.2034  139.1700  153.6841 H   0  0  0  0  0  0  0  0  0  0  0  0
  150.9566  137.6757  154.4207 H   0  0  0  0  0  0  0  0  0  0  0  0
  150.2874  137.5918  156.0236 H   0  0  0  0  0  0  0  0  0  0  0  0
  148.0801  136.1777  156.3436 H   0  0  0  0  0  0  0  0  0  0  0  0
  147.4281  137.0730  154.9927 H   0  0  0  0  0  0  0  0  0  0  0  0
  146.2843  134.8747  155.2360 H   0  0  0  0  0  0  0  0  0  0  0  0
  147.0725  135.0339  153.6848 H   0  0  0  0  0  0  0  0  0  0  0  0
  148.1418  133.4962  156.1024 H   0  0  0  0  0  0  0  0  0  0  0  0
  147.5548  132.8027  154.6096 H   0  0  0  0  0  0  0  0  0  0  0  0
  150.0586  132.9106  154.6340 H   0  0  0  0  0  0  0  0  0  0  0  0
  149.3745  133.8371  153.3276 H   0  0  0  0  0  0  0  0  0  0  0  0
  151.0919  135.1434  154.2750 H   0  0  0  0  0  0  0  0  0  0  0  0
  151.2757  134.0236  156.4863 H   0  0  0  0  0  0  0  0  0  0  0  0
  149.8708  134.8973  157.0716 H   0  0  0  0  0  0  0  0  0  0  0  0
  151.3440  135.7626  156.6434 H   0  0  0  0  0  0  0  0  0  0  0  0
  149.2092  136.3018  153.6573 H   0  0  0  0  0  0  0  0  0  0  0  0
  1  2  1  0  0  0  0
  1 21  1  0  0  0  0
  1 22  1  0  0  0  0
  1 23  1  0  0  0  0
  2 20  2  0  0  0  0
  2  3  1  0  0  0  0
  3  4  2  0  0  0  0
  3 24  1  0  0  0  0
  4  5  1  0  0  0  0
  4  6  1  0  0  0  0
  5 25  1  0  0  0  0
  5 26  1  0  0  0  0
  5 27  1  0  0  0  0
  6  7  1  0  0  0  0
  6 20  1  0  0  0  0
  7  8  1  0  0  0  0
  7 28  1  0  0  0  0
  7 29  1  0  0  0  0
  8  9  2  0  0  0  0
  8 10  1  0  0  0  0
 10 11  1  0  0  0  0
 10 30  1  0  0  0  0
 11 12  1  0  0  0  0
 11 31  1  0  0  0  0
 11 32  1  0  0  0  0
 12 13  1  0  0  0  0
 12 33  1  0  0  0  0
 12 34  1  0  0  0  0
 13 18  1  0  0  0  0
 13 14  1  0  0  0  0
 13 47  1  0  0  0  0
 14 15  1  0  0  0  0
 14 35  1  0  0  0  0
 14 36  1  0  0  0  0
 15 16  1  0  0  0  0
 15 37  1  0  0  0  0
 15 38  1  0  0  0  0
 16 17  1  0  0  0  0
 16 39  1  0  0  0  0
 16 40  1  0  0  0  0
 17 18  1  0  0  0  0
 17 41  1  0  0  0  0
 17 42  1  0  0  0  0
 18 19  1  0  0  0  0
 18 43  1  0  0  0  0
 19 44  1  0  0  0  0
 19 45  1  0  0  0  0
 19 46  1  0  0  0  0
M  CHG  1  13   1
M  END
> <s_m_source_file>
AV-unprocessed.smi

> <i_m_source_file_index>
3004

> <i_lp_mmshare_version>
43012

> <i_f3d_flags>
0

> <s_epik_input>
W0NIM11jMVtjSF1jKFtDSDNdKW4objEpW0NIMl1DKD1PKVtOSF1bQ0gyXVtDSDJdTjJbQ0gyXVtDSDJdW0NIMl1bQ0gyXVtDQEhdMltDSDNd

> <s_epik_cmdline>
J2VwaWtfcHl0aG9uJywgJy1waCcsICc3LjAnLCAnLXRuJywgJzgnLCAnLW1hJywgJzIwMCcsICctbWV0YWxfYmluZGluZycsICctaW1hZScsICc8aW5maWxlLm1hZT4nLCAnLW9tYWUnLCAnPG91dGZpbGUubWFlPic=

> <r_lp_tautomer_probability>
1

> <r_epik_Ionization_Penalty>
0.00303644

> <r_epik_Ionization_Penalty_Charging>
0.00284254

> <r_epik_Ionization_Penalty_Neutral>
0.000193908

> <r_epik_State_Penalty>
-0

> <r_epik_Charging_Adjusted_Penalty>
0.00284254

> <i_epik_Tot_Q>
1

> <i_epik_Tot_abs_Q>
1

> <r_epik_Metal_State_Penalty>
-0

> <b_epik_Metal_Only>
0

> <s_lp_Force_Field>
OPLS_2005

> <r_lp_Energy>
17.6316

> <b_lp_Chiralities_Consistent>
1

> <s_lp_Variant>
AV-unprocessed.smi:3004-3

> <Gold.Version>
5.8.1

> <Gold.Id.Protein>
6NUR|6NUR_protein|mol2

> <Gold.PLP.Fitness>
41.7568

> <Gold.PLP.PLP>
-33.3815

> <Gold.PLP.part.hbond>
-2.3360

> <Gold.PLP.part.metal>
0.0000

> <Gold.PLP.part.buried>
-3.5794

> <Gold.PLP.part.nonpolar>
-27.0447

> <Gold.PLP.part.repulsive>
0.1425

> <Gold.PLP.ligand.clash>
0.0000

> <Gold.PLP.ligand.torsion>
0.2688

> <Gold.PLP.Chemscore.Hbond>
2.9561

> <Gold.PLP.Chemscore.CHOScore>
0.0000

> <Gold.PLP.Chemscore.Metal>
0.0000

> <Gold.Chemscore.Hbonds>
donor molecule, donor type, donor heavy atom, donor atom, acceptor molecule, acceptor atom, score
      L1  H    13    47       P1  7948  2.00
      P1  H  7989  7998       L1     9  0.99

> <Gold.PLP.Chemscore.Internal.Correction>
0.0447

> <Gold.Rescore>
     Score         DG    S(hbond)    S(metal)    S(lipo)     H(rot)  DE(clash)    DE(int)     intcor
     14.80     -17.25       1.88        0.00      83.29       1.67       0.00       2.45       ----

> <Gold.Chemscore.Fitness>
14.8044

> <Gold.Chemscore.DG>
-17.2542

> <Gold.Chemscore.ZeroCoef>
-5.4800

> <Gold.Chemscore.Hbond>
1.8841

> <Gold.Chemscore.Metal>
0.0000

> <Gold.Chemscore.Lipo>
83.2944

> <Gold.Chemscore.Internal_Hbond>
0.0000

> <Gold.Chemscore.DEClash>
0.0025

> <Gold.Chemscore.DEInternal>
2.4472

> <Gold.Chemscore.Rot>
1.6657

> <Gold.Chemscore.Internal.Correction>
   9.000000E+99

> <Gold.Chemscore.Hbonds>
donor molecule, donor type, donor heavy atom, donor atom, acceptor molecule, acceptor atom, score
      L1  H    13    47       P1  7948  0.93
      P1  H  7989  7998       L1     9  0.66

> <Gold.Chemscore.Hbond.Weighted>
-6.2928

> <Gold.Chemscore.Metal.Weighted>
-0.0000

> <Gold.Chemscore.Lipo.Weighted>
-9.7454

> <Gold.Chemscore.Internal_Hbond.Weighted>
0.0000

> <Gold.Chemscore.DEClash.Weighted>
0.0025

> <Gold.Chemscore.DEInternal.Weighted>
2.4472

> <Gold.Chemscore.Rot.Weighted>
4.2641

> <Gold.Chemscore.Internal.Correction.Weighted>
   9.000000E+99

> <Gold.Protein.RotatedTorsions>
[ 6907 6896 6895 6894 ] final  126.50 input  -60.11 | X-H torsion
[ 7974 7965 7964 7962 ] final    9.79 input  175.53 | X-H torsion
[ 8008 7997 7996 7995 ] final   59.30 input   59.86 | X-H torsion
[ 10167 10162 10161 10158 ] final -123.19 input  -65.29 | X-H torsion
[ 10718 10713 10712 10709 ] final   -4.31 input   66.30 | X-H torsion
[ 10763 10752 10751 10750 ] final   64.68 input  -60.55 | X-H torsion
[ 11005 11000 10999 10996 ] final  -58.01 input  -57.11 | X-H torsion

> <Gold.Protein.ActiveResidues>
 VAL166  LYS551  ARG553  GLY616  TRP617  ASP618  TYR619  PRO620  LYS621  CYS622 
 ASP623  PHE694  ASN695  SER759  ASP760  ASP761  ALA762  ILE779  LEU786  VAL792 
 PHE793  MET794  SER795  GLU796  ALA797  LYS798  CYS799  TRP800  GLU811  SER814 

> <Gold.Protein.RotatedAtoms>
  152.3898  133.6662  159.6227 H   0  0  0  0  0  0  0  0  0  0  0  0  # atno 6907 bound_to 6896
  150.7809  133.8974  159.3340 H   0  0  0  0  0  0  0  0  0  0  0  0  # atno 6908 bound_to 6896
  151.6763  135.0970  160.0259 H   0  0  0  0  0  0  0  0  0  0  0  0  # atno 6909 bound_to 6896
  146.2398  139.9731  142.8444 H   0  0  0  0  0  0  0  0  0  0  0  0  # atno 7974 bound_to 7965
  155.5640  140.3489  155.4498 H   0  0  0  0  0  0  0  0  0  0  0  0  # atno 8008 bound_to 7997
  156.0493  140.1314  157.0093 H   0  0  0  0  0  0  0  0  0  0  0  0  # atno 8009 bound_to 7997
  154.4427  140.1008  156.6338 H   0  0  0  0  0  0  0  0  0  0  0  0  # atno 8010 bound_to 7997
  140.0061  143.5490  152.2283 H   0  0  0  0  0  0  0  0  0  0  0  0  # atno 10167 bound_to 10162
  156.7631  130.5276  149.5781 H   0  0  0  0  0  0  0  0  0  0  0  0  # atno 10718 bound_to 10713
  153.0065  135.5384  154.6548 H   0  0  0  0  0  0  0  0  0  0  0  0  # atno 10763 bound_to 10752
  154.5771  135.2846  155.0772 H   0  0  0  0  0  0  0  0  0  0  0  0  # atno 10764 bound_to 10752
  154.1915  135.6499  153.5114 H   0  0  0  0  0  0  0  0  0  0  0  0  # atno 10765 bound_to 10752
  141.1189  133.6611  156.4856 H   0  0  0  0  0  0  0  0  0  0  0  0  # atno 11005 bound_to 11000
  145.1662  140.9698  143.4348 LP  0  0  0  0  0  0  0  0  0  0  0  0  # atno 17320 bound_to 7965
  145.0070  139.3545  143.6139 LP  0  0  0  0  0  0  0  0  0  0  0  0  # atno 17321 bound_to 7965
  139.6237  144.7633  151.2684 LP  0  0  0  0  0  0  0  0  0  0  0  0  # atno 17342 bound_to 10162
  140.7400  143.6602  150.8171 LP  0  0  0  0  0  0  0  0  0  0  0  0  # atno 17343 bound_to 10162
  156.1326  130.6189  151.0355 LP  0  0  0  0  0  0  0  0  0  0  0  0  # atno 17370 bound_to 10713
  157.6725  131.0858  150.7576 LP  0  0  0  0  0  0  0  0  0  0  0  0  # atno 17371 bound_to 10713
  140.4565  134.6881  157.5065 LP  0  0  0  0  0  0  0  0  0  0  0  0  # atno 17394 bound_to 11000
  140.0132  134.6659  155.9350 LP  0  0  0  0  0  0  0  0  0  0  0  0  # atno 17395 bound_to 11000

$$$$
