AV-unprocessed.smi:1128|AV-procd|sdf|4845|dock9
  -GOLD-   22720 3413D 1   1.00000     0.00000
 Structure written by MMmdl.
 37 38  0  0  0  0  0  0  0  0  2 V2000
  151.6372  141.4160  157.6424 O   0  0  0  0  0  0  0  0  0  0  0  0
  151.0155  142.1677  156.8921 C   0  0  0  0  0  0  0  0  0  0  0  0
  151.1349  143.5023  156.9296 N   0  0  0  0  0  0  0  0  0  0  0  0
  152.0014  144.2438  157.8399 C   0  0  0  0  0  0  0  0  0  0  0  0
  151.8836  143.7560  159.2991 C   0  0  1  0  0  0  0  0  0  0  0  0
  152.9742  142.7208  159.6641 C   0  0  0  0  0  0  0  0  0  0  0  0
  153.0550  142.4549  161.1568 C   0  0  0  0  0  0  0  0  0  0  0  0
  152.4751  143.2381  162.0816 C   0  0  0  0  0  0  0  0  0  0  0  0
  151.6800  144.4837  161.7381 C   0  0  0  0  0  0  0  0  0  0  0  0
  151.9101  144.9391  160.2851 C   0  0  0  0  0  0  0  0  0  0  0  0
  150.1316  141.7963  155.9483 N   0  0  0  0  0  0  0  0  0  0  0  0
  149.7040  140.5120  155.5679 C   0  0  0  0  0  0  0  0  0  0  0  0
  148.4043  140.1183  155.4586 C   0  0  0  0  0  0  0  0  0  0  0  0
  148.0289  138.7669  155.0615 C   0  0  0  0  0  0  0  0  0  0  0  0
  146.5944  138.2716  155.0083 C   0  0  0  0  0  0  0  0  0  0  0  0
  146.3095  137.7544  153.8129 F   0  0  0  0  0  0  0  0  0  0  0  0
  146.3766  137.3368  155.9334 F   0  0  0  0  0  0  0  0  0  0  0  0
  145.7567  139.2827  155.2335 F   0  0  0  0  0  0  0  0  0  0  0  0
  149.1284  137.9597  154.8438 C   0  0  0  0  0  0  0  0  0  0  0  0
  150.4406  138.2712  154.9196 N   0  5  0  0  0  0  0  0  0  0  0  0
  150.7803  139.5386  155.2881 C   0  0  0  0  0  0  0  0  0  0  0  0
  151.9578  139.8849  155.3904 O   0  0  0  0  0  0  0  0  0  0  0  0
  150.5832  144.0461  156.2824 H   0  0  0  0  0  0  0  0  0  0  0  0
  153.0286  144.1307  157.4921 H   0  0  0  0  0  0  0  0  0  0  0  0
  151.7732  145.3091  157.7753 H   0  0  0  0  0  0  0  0  0  0  0  0
  150.9129  143.2700  159.4119 H   0  0  0  0  0  0  0  0  0  0  0  0
  152.7806  141.7770  159.1532 H   0  0  0  0  0  0  0  0  0  0  0  0
  153.9543  143.0653  159.3329 H   0  0  0  0  0  0  0  0  0  0  0  0
  153.6217  141.5891  161.4665 H   0  0  0  0  0  0  0  0  0  0  0  0
  152.5559  142.9846  163.1286 H   0  0  0  0  0  0  0  0  0  0  0  0
  150.6243  144.2663  161.9028 H   0  0  0  0  0  0  0  0  0  0  0  0
  151.9507  145.2854  162.4256 H   0  0  0  0  0  0  0  0  0  0  0  0
  152.8748  145.4432  160.2128 H   0  0  0  0  0  0  0  0  0  0  0  0
  151.1567  145.6794  160.0140 H   0  0  0  0  0  0  0  0  0  0  0  0
  149.6771  142.5445  155.4455 H   0  0  0  0  0  0  0  0  0  0  0  0
  147.5969  140.7981  155.6721 H   0  0  0  0  0  0  0  0  0  0  0  0
  148.9224  136.9020  154.5729 H   0  0  0  0  0  0  0  0  0  0  0  0
  1  2  2  0  0  0  0
  2  3  1  0  0  0  0
  2 11  1  0  0  0  0
  3  4  1  0  0  0  0
  3 23  1  0  0  0  0
  4  5  1  0  0  0  0
  4 24  1  0  0  0  0
  4 25  1  0  0  0  0
  5 10  1  0  0  0  0
  5  6  1  0  0  0  0
  5 26  1  0  0  0  0
  6  7  1  0  0  0  0
  6 27  1  0  0  0  0
  6 28  1  0  0  0  0
  7  8  2  0  0  0  0
  7 29  1  0  0  0  0
  8  9  1  0  0  0  0
  8 30  1  0  0  0  0
  9 10  1  0  0  0  0
  9 31  1  0  0  0  0
  9 32  1  0  0  0  0
 10 33  1  0  0  0  0
 10 34  1  0  0  0  0
 11 12  1  0  0  0  0
 11 35  1  0  0  0  0
 12 21  1  0  0  0  0
 12 13  2  0  0  0  0
 13 14  1  0  0  0  0
 13 36  1  0  0  0  0
 14 15  1  0  0  0  0
 14 19  2  0  0  0  0
 15 16  1  0  0  0  0
 15 17  1  0  0  0  0
 15 18  1  0  0  0  0
 19 20  1  0  0  0  0
 19 37  1  0  0  0  0
 20 21  1  0  0  0  0
 21 22  2  0  0  0  0
M  CHG  1  20  -1
M  END
> <s_m_source_file>
AV-unprocessed.smi

> <i_m_source_file_index>
1128

> <i_lp_mmshare_version>
43012

> <i_f3d_flags>
0

> <s_epik_input>
Tz1jMVtuSF1bY0hdYyhDKEYpKEYpRilbY0hdYzFbTkhdQyg9TylbTkhdW0NIMl1bQ0BASF0yW0NIMl1bQ0hdPVtDSF1bQ0gyXVtDSDJdMg==

> <s_epik_cmdline>
J2VwaWtfcHl0aG9uJywgJy1waCcsICc3LjAnLCAnLXRuJywgJzgnLCAnLW1hJywgJzIwMCcsICctbWV0YWxfYmluZGluZycsICctaW1hZScsICc8aW5maWxlLm1hZT4nLCAnLW9tYWUnLCAnPG91dGZpbGUubWFlPic=

> <r_lp_tautomer_probability>
1

> <r_epik_Ionization_Penalty>
3.16664

> <r_epik_Ionization_Penalty_Charging>
0.172425

> <r_epik_Ionization_Penalty_Neutral>
2.99422

> <r_epik_State_Penalty>
2.99038

> <r_epik_Charging_Adjusted_Penalty>
3.16281

> <i_epik_Tot_Q>
-1

> <i_epik_Tot_abs_Q>
1

> <r_epik_Metal_State_Penalty>
0.453031

> <b_epik_Metal_Only>
1

> <s_lp_Force_Field>
OPLS_2005

> <r_lp_Energy>
22.2299

> <b_lp_Chiralities_Consistent>
1

> <s_lp_Variant>
AV-unprocessed.smi:1128-4

> <Gold.Version>
5.8.1

> <Gold.Id.Protein>
6NUR|6NUR_protein|mol2

> <Gold.PLP.Fitness>
49.5393

> <Gold.PLP.PLP>
-42.6957

> <Gold.PLP.part.hbond>
-3.0000

> <Gold.PLP.part.metal>
0.0000

> <Gold.PLP.part.buried>
-5.5380

> <Gold.PLP.part.nonpolar>
-35.1582

> <Gold.PLP.part.repulsive>
0.3865

> <Gold.PLP.ligand.clash>
0.0000

> <Gold.PLP.ligand.torsion>
1.1099

> <Gold.PLP.Chemscore.Hbond>
3.0000

> <Gold.PLP.Chemscore.CHOScore>
0.0000

> <Gold.PLP.Chemscore.Metal>
0.0000

> <Gold.Chemscore.Hbonds>
donor molecule, donor type, donor heavy atom, donor atom, acceptor molecule, acceptor atom, score
      L1  H     3    23       P1  8028  1.00
      L1  H    11    35       P1  8028  0.24
      P1  H  7989  7998       L1    22  0.19

> <Gold.PLP.Chemscore.Internal.Correction>
0.0635

> <Gold.Rescore>
     Score         DG    S(hbond)    S(metal)    S(lipo)     H(rot)  DE(clash)    DE(int)     intcor
     18.09     -23.12       2.84        0.00      98.00       1.29       0.23       4.80       ----

> <Gold.Chemscore.Fitness>
18.0896

> <Gold.Chemscore.DG>
-23.1160

> <Gold.Chemscore.ZeroCoef>
-5.4800

> <Gold.Chemscore.Hbond>
2.8392

> <Gold.Chemscore.Metal>
0.0000

> <Gold.Chemscore.Lipo>
98.0048

> <Gold.Chemscore.Internal_Hbond>
0.0000

> <Gold.Chemscore.DEClash>
0.2293

> <Gold.Chemscore.DEInternal>
4.7971

> <Gold.Chemscore.Rot>
1.2943

> <Gold.Chemscore.Internal.Correction>
   9.000000E+99

> <Gold.Chemscore.Hbonds>
donor molecule, donor type, donor heavy atom, donor atom, acceptor molecule, acceptor atom, score
      L1  H     3    23       P1  8028  0.96
      L1  H    11    35       P1  8028  0.23

> <Gold.Chemscore.Hbond.Weighted>
-9.4828

> <Gold.Chemscore.Metal.Weighted>
-0.0000

> <Gold.Chemscore.Lipo.Weighted>
-11.4666

> <Gold.Chemscore.Internal_Hbond.Weighted>
0.0000

> <Gold.Chemscore.DEClash.Weighted>
0.2293

> <Gold.Chemscore.DEInternal.Weighted>
4.7971

> <Gold.Chemscore.Rot.Weighted>
3.3133

> <Gold.Chemscore.Internal.Correction.Weighted>
   9.000000E+99

> <Gold.Protein.RotatedTorsions>
[ 6907 6896 6895 6894 ] final  131.53 input  -60.11 | X-H torsion
[ 7974 7965 7964 7962 ] final  126.15 input  175.53 | X-H torsion
[ 8008 7997 7996 7995 ] final -141.15 input   59.86 | X-H torsion
[ 10167 10162 10161 10158 ] final  157.77 input  -65.29 | X-H torsion
[ 10718 10713 10712 10709 ] final  111.06 input   66.30 | X-H torsion
[ 10763 10752 10751 10750 ] final -142.05 input  -60.55 | X-H torsion
[ 11005 11000 10999 10996 ] final   48.74 input  -57.11 | X-H torsion

> <Gold.Protein.ActiveResidues>
 VAL166  LYS551  ARG553  GLY616  TRP617  ASP618  TYR619  PRO620  LYS621  CYS622 
 ASP623  PHE694  ASN695  SER759  ASP760  ASP761  ALA762  ILE779  LEU786  VAL792 
 PHE793  MET794  SER795  GLU796  ALA797  LYS798  CYS799  TRP800  GLU811  SER814 

> <Gold.Protein.RotatedAtoms>
  152.3417  133.6074  159.5880 H   0  0  0  0  0  0  0  0  0  0  0  0  # atno 6907 bound_to 6896
  150.7482  133.9712  159.3555 H   0  0  0  0  0  0  0  0  0  0  0  0  # atno 6908 bound_to 6896
  151.7575  135.0819  160.0391 H   0  0  0  0  0  0  0  0  0  0  0  0  # atno 6909 bound_to 6896
  145.0649  139.3776  143.4987 H   0  0  0  0  0  0  0  0  0  0  0  0  # atno 7974 bound_to 7965
  155.4730  140.0554  157.2977 H   0  0  0  0  0  0  0  0  0  0  0  0  # atno 8008 bound_to 7997
  154.4691  140.2032  155.9995 H   0  0  0  0  0  0  0  0  0  0  0  0  # atno 8009 bound_to 7997
  156.1025  140.3217  155.7965 H   0  0  0  0  0  0  0  0  0  0  0  0  # atno 8010 bound_to 7997
  139.4824  144.4886  151.8340 H   0  0  0  0  0  0  0  0  0  0  0  0  # atno 10167 bound_to 10162
  157.6463  131.0944  150.6693 H   0  0  0  0  0  0  0  0  0  0  0  0  # atno 10718 bound_to 10713
  154.8523  135.3507  154.5966 H   0  0  0  0  0  0  0  0  0  0  0  0  # atno 10763 bound_to 10752
  153.6576  135.6991  153.5193 H   0  0  0  0  0  0  0  0  0  0  0  0  # atno 10764 bound_to 10752
  153.2844  135.4254  155.1066 H   0  0  0  0  0  0  0  0  0  0  0  0  # atno 10765 bound_to 10752
  140.1164  134.4887  155.8634 H   0  0  0  0  0  0  0  0  0  0  0  0  # atno 11005 bound_to 11000
  146.3526  140.0365  142.8646 LP  0  0  0  0  0  0  0  0  0  0  0  0  # atno 17320 bound_to 7965
  145.1363  140.9546  143.4515 LP  0  0  0  0  0  0  0  0  0  0  0  0  # atno 17321 bound_to 7965
  140.4369  144.2040  150.5889 LP  0  0  0  0  0  0  0  0  0  0  0  0  # atno 17342 bound_to 10162
  140.4723  143.2408  151.9072 LP  0  0  0  0  0  0  0  0  0  0  0  0  # atno 17343 bound_to 10162
  156.7010  130.4623  149.5573 LP  0  0  0  0  0  0  0  0  0  0  0  0  # atno 17370 bound_to 10713
  156.1795  130.6490  151.0935 LP  0  0  0  0  0  0  0  0  0  0  0  0  # atno 17371 bound_to 10713
  141.2142  133.6745  156.6805 LP  0  0  0  0  0  0  0  0  0  0  0  0  # atno 17394 bound_to 11000
  140.3022  134.8154  157.4107 LP  0  0  0  0  0  0  0  0  0  0  0  0  # atno 17395 bound_to 11000

$$$$
