AV-unprocessed.smi:290|AV-procd|sdf|2245|dock4
  -GOLD-   2262022123D 1   1.00000     0.00000
 Structure written by MMmdl.
 59 62  0  0  0  0  0  0  0  0  2 V2000
  153.3576  141.8809  159.2092 C   0  0  0  0  0  0  0  0  0  0  0  0
  152.5063  143.0818  158.7680 C   0  0  2  0  0  0  0  0  0  0  0  0
  152.3330  144.0119  159.8364 O   0  0  0  0  0  0  0  0  0  0  0  0
  150.9680  144.3988  159.9418 C   0  0  0  0  0  0  0  0  0  0  0  0
  150.3468  144.0360  158.5975 C   0  0  0  0  0  0  0  0  0  0  0  0
  151.0950  142.7640  158.2223 C   0  0  2  0  0  0  0  0  0  0  0  0
  150.5234  141.6796  158.9352 O   0  0  0  0  0  0  0  0  0  0  0  0
  151.0310  142.3709  156.7233 C   0  0  0  0  0  0  0  0  0  0  0  0
  149.8369  141.6397  156.3279 N   0  0  0  0  0  0  0  0  0  0  0  0
  148.5381  141.9347  156.6703 C   0  0  0  0  0  0  0  0  0  0  0  0
  147.6392  141.1245  156.1839 N   0  0  0  0  0  0  0  0  0  0  0  0
  148.3649  140.2104  155.4267 C   0  0  0  0  0  0  0  0  0  0  0  0
  148.0299  139.0746  154.6283 C   0  0  0  0  0  0  0  0  0  0  0  0
  146.7687  138.6035  154.4293 N   0  0  0  0  0  0  0  0  0  0  0  0
  145.6399  139.0366  155.2454 C   0  0  0  0  0  0  0  0  0  0  0  0
  144.4701  138.1243  154.8542 C   0  0  0  0  0  0  0  0  0  0  0  0
  144.9218  137.4847  153.5292 C   0  0  2  0  0  0  0  0  0  0  0  0
  144.2379  136.2121  153.1485 N   0  3  2  0  0  0  0  0  0  0  0  0
  144.7567  135.6715  151.8651 C   0  0  0  0  0  0  0  0  0  0  0  0
  142.7501  136.3084  153.1492 C   0  0  0  0  0  0  0  0  0  0  0  0
  142.0530  134.9358  153.1425 C   0  0  0  0  0  0  0  0  0  0  0  0
  142.0490  134.3874  154.4439 O   0  0  0  0  0  0  0  0  0  0  0  0
  146.4472  137.3646  153.7353 C   0  0  2  0  0  0  0  0  0  0  0  0
  146.8705  136.1350  154.5729 C   0  0  0  0  0  0  0  0  0  0  0  0
  149.0588  138.4104  154.0378 N   0  0  0  0  0  0  0  0  0  0  0  0
  150.3189  138.8240  154.1945 C   0  0  0  0  0  0  0  0  0  0  0  0
  150.7728  139.8620  154.8965 N   0  0  0  0  0  0  0  0  0  0  0  0
  149.7523  140.5291  155.5062 C   0  0  0  0  0  0  0  0  0  0  0  0
  144.7397  138.2118  152.7347 H   0  0  0  0  0  0  0  0  0  0  0  0
  146.9335  137.3418  152.7614 H   0  0  0  0  0  0  0  0  0  0  0  0
  153.4855  141.1703  158.3922 H   0  0  0  0  0  0  0  0  0  0  0  0
  152.9060  141.3534  160.0495 H   0  0  0  0  0  0  0  0  0  0  0  0
  154.3493  142.2064  159.5231 H   0  0  0  0  0  0  0  0  0  0  0  0
  153.0665  143.6336  158.0149 H   0  0  0  0  0  0  0  0  0  0  0  0
  150.5019  143.8284  160.7462 H   0  0  0  0  0  0  0  0  0  0  0  0
  150.8695  145.4585  160.1774 H   0  0  0  0  0  0  0  0  0  0  0  0
  149.2641  143.9128  158.6425 H   0  0  0  0  0  0  0  0  0  0  0  0
  150.5622  144.8393  157.8937 H   0  0  0  0  0  0  0  0  0  0  0  0
  149.9923  142.0273  159.6352 H   0  0  0  0  0  0  0  0  0  0  0  0
  151.0974  143.2655  156.1024 H   0  0  0  0  0  0  0  0  0  0  0  0
  151.8967  141.7599  156.4631 H   0  0  0  0  0  0  0  0  0  0  0  0
  148.2776  142.7707  157.3034 H   0  0  0  0  0  0  0  0  0  0  0  0
  145.8583  138.9624  156.3117 H   0  0  0  0  0  0  0  0  0  0  0  0
  145.4102  140.0776  155.0142 H   0  0  0  0  0  0  0  0  0  0  0  0
  144.3280  137.3598  155.6192 H   0  0  0  0  0  0  0  0  0  0  0  0
  143.5392  138.6846  154.7629 H   0  0  0  0  0  0  0  0  0  0  0  0
  144.4958  136.3271  151.0335 H   0  0  0  0  0  0  0  0  0  0  0  0
  144.3589  134.6804  151.6536 H   0  0  0  0  0  0  0  0  0  0  0  0
  145.8406  135.5654  151.8774 H   0  0  0  0  0  0  0  0  0  0  0  0
  142.3917  136.8379  154.0300 H   0  0  0  0  0  0  0  0  0  0  0  0
  142.4271  136.8987  152.2905 H   0  0  0  0  0  0  0  0  0  0  0  0
  141.0174  135.0557  152.8233 H   0  0  0  0  0  0  0  0  0  0  0  0
  142.5096  134.2354  152.4448 H   0  0  0  0  0  0  0  0  0  0  0  0
  142.5297  133.5731  154.4301 H   0  0  0  0  0  0  0  0  0  0  0  0
  146.6263  135.2003  154.0693 H   0  0  0  0  0  0  0  0  0  0  0  0
  146.3862  136.1194  155.5494 H   0  0  0  0  0  0  0  0  0  0  0  0
  147.9460  136.1268  154.7478 H   0  0  0  0  0  0  0  0  0  0  0  0
  151.0707  138.2385  153.6858 H   0  0  0  0  0  0  0  0  0  0  0  0
  144.4734  135.5438  153.8689 H   0  0  0  0  0  0  0  0  0  0  0  0
  1  2  1  0  0  0  0
  1 31  1  0  0  0  0
  1 32  1  0  0  0  0
  1 33  1  0  0  0  0
  2  6  1  0  0  0  0
  2  3  1  0  0  0  0
  2 34  1  0  0  0  0
  3  4  1  0  0  0  0
  4  5  1  0  0  0  0
  4 35  1  0  0  0  0
  4 36  1  0  0  0  0
  5  6  1  0  0  0  0
  5 37  1  0  0  0  0
  5 38  1  0  0  0  0
  6  7  1  0  0  0  0
  6  8  1  0  0  0  0
  7 39  1  0  0  0  0
  8  9  1  0  0  0  0
  8 40  1  0  0  0  0
  8 41  1  0  0  0  0
  9 28  1  0  0  0  0
  9 10  1  0  0  0  0
 10 11  2  0  0  0  0
 10 42  1  0  0  0  0
 11 12  1  0  0  0  0
 12 28  2  0  0  0  0
 12 13  1  0  0  0  0
 13 14  1  0  0  0  0
 13 25  2  0  0  0  0
 14 23  1  0  0  0  0
 14 15  1  0  0  0  0
 15 16  1  0  0  0  0
 15 43  1  0  0  0  0
 15 44  1  0  0  0  0
 16 17  1  0  0  0  0
 16 45  1  0  0  0  0
 16 46  1  0  0  0  0
 17 29  1  0  0  0  0
 17 18  1  0  0  0  0
 17 23  1  0  0  0  0
 18 19  1  0  0  0  0
 18 20  1  0  0  0  0
 18 59  1  0  0  0  0
 19 47  1  0  0  0  0
 19 48  1  0  0  0  0
 19 49  1  0  0  0  0
 20 21  1  0  0  0  0
 20 50  1  0  0  0  0
 20 51  1  0  0  0  0
 21 22  1  0  0  0  0
 21 52  1  0  0  0  0
 21 53  1  0  0  0  0
 22 54  1  0  0  0  0
 23 30  1  0  0  0  0
 23 24  1  0  0  0  0
 24 55  1  0  0  0  0
 24 56  1  0  0  0  0
 24 57  1  0  0  0  0
 25 26  1  0  0  0  0
 26 27  2  0  0  0  0
 26 58  1  0  0  0  0
 27 28  1  0  0  0  0
M  CHG  1  18   1
M  END
> <s_m_source_file>
AV-unprocessed.smi

> <i_m_source_file_index>
290

> <i_lp_mmshare_version>
43012

> <i_f3d_flags>
0

> <s_epik_input>
W0NIMl0xW0NIMl1PW0NAQEhdKFtDSDNdKVtDQEBdMShbT0hdKVtDSDJdbihbY0hdbjIpYyhjMjMpbltjSF1uYzNONFtDSDJdW0NIMl1bQ0BIXShbQ0BIXTRbQ0gzXSlOKFtDSDNdKVtDSDJdW0NIMl1bT0hd

> <s_epik_cmdline>
J2VwaWtfcHl0aG9uJywgJy1waCcsICc3LjAnLCAnLXRuJywgJzgnLCAnLW1hJywgJzIwMCcsICctbWV0YWxfYmluZGluZycsICctaW1hZScsICc8aW5maWxlLm1hZT4nLCAnLW9tYWUnLCAnPG91dGZpbGUubWFlPic=

> <r_lp_tautomer_probability>
1

> <r_epik_Ionization_Penalty>
0.0036983

> <r_epik_Ionization_Penalty_Charging>
0.0032725

> <r_epik_Ionization_Penalty_Neutral>
0.000425798

> <r_epik_State_Penalty>
-0

> <r_epik_Charging_Adjusted_Penalty>
0.0032725

> <i_epik_Tot_Q>
1

> <i_epik_Tot_abs_Q>
1

> <r_epik_Metal_State_Penalty>
-0

> <b_epik_Metal_Only>
0

> <s_lp_Force_Field>
OPLS_2005

> <r_lp_Energy>
66.7181

> <b_lp_Chiralities_Consistent>
1

> <s_lp_Variant>
AV-unprocessed.smi:290-31

> <Gold.Version>
5.8.1

> <Gold.Id.Protein>
6NUR|6NUR_protein|mol2

> <Gold.PLP.Fitness>
45.9546

> <Gold.PLP.PLP>
-37.3880

> <Gold.PLP.part.hbond>
-3.7013

> <Gold.PLP.part.metal>
0.0000

> <Gold.PLP.part.buried>
-7.3374

> <Gold.PLP.part.nonpolar>
-28.4904

> <Gold.PLP.part.repulsive>
0.8887

> <Gold.PLP.ligand.clash>
0.0000

> <Gold.PLP.ligand.torsion>
0.7891

> <Gold.PLP.Chemscore.Hbond>
2.9440

> <Gold.PLP.Chemscore.CHOScore>
0.3588

> <Gold.PLP.Chemscore.Metal>
0.0000

> <Gold.Chemscore.Hbonds>
donor molecule, donor type, donor heavy atom, donor atom, acceptor molecule, acceptor atom, score
      L1  H    22    54       P1 10957  1.00
      P1  H  7989  7998       L1    27  1.00
      P1  H 11000 11005       L1    22  0.91
      L1  C    10    42       P1  8028  0.32

> <Gold.PLP.Chemscore.Internal.Correction>
0.2365

> <Gold.Rescore>
     Score         DG    S(hbond)    S(metal)    S(lipo)     H(rot)  DE(clash)    DE(int)     intcor
     10.91     -12.67       1.85        0.00      82.14       3.35       0.22       1.54       ----

> <Gold.Chemscore.Fitness>
10.9063

> <Gold.Chemscore.DG>
-12.6740

> <Gold.Chemscore.ZeroCoef>
-5.4800

> <Gold.Chemscore.Hbond>
1.8455

> <Gold.Chemscore.Metal>
0.0000

> <Gold.Chemscore.Lipo>
82.1413

> <Gold.Chemscore.Internal_Hbond>
0.0000

> <Gold.Chemscore.DEClash>
0.2240

> <Gold.Chemscore.DEInternal>
1.5437

> <Gold.Chemscore.Rot>
3.3518

> <Gold.Chemscore.Internal.Correction>
   9.000000E+99

> <Gold.Chemscore.Hbonds>
donor molecule, donor type, donor heavy atom, donor atom, acceptor molecule, acceptor atom, score
      L1  H    22    54       P1 10957  0.94
      P1  H  7989  7998       L1    27  0.22
      P1  H 11000 11005       L1    22  0.31

> <Gold.Chemscore.Hbond.Weighted>
-6.1640

> <Gold.Chemscore.Metal.Weighted>
-0.0000

> <Gold.Chemscore.Lipo.Weighted>
-9.6105

> <Gold.Chemscore.Internal_Hbond.Weighted>
0.0000

> <Gold.Chemscore.DEClash.Weighted>
0.2240

> <Gold.Chemscore.DEInternal.Weighted>
1.5437

> <Gold.Chemscore.Rot.Weighted>
8.5806

> <Gold.Chemscore.Internal.Correction.Weighted>
   9.000000E+99

> <Gold.Protein.RotatedTorsions>
[ 6907 6896 6895 6894 ] final  133.84 input  -60.11 | X-H torsion
[ 7974 7965 7964 7962 ] final -114.99 input  175.53 | X-H torsion
[ 8008 7997 7996 7995 ] final   14.38 input   59.86 | X-H torsion
[ 10167 10162 10161 10158 ] final   -4.07 input  -65.29 | X-H torsion
[ 10718 10713 10712 10709 ] final -171.79 input   66.30 | X-H torsion
[ 10763 10752 10751 10750 ] final -158.68 input  -60.55 | X-H torsion
[ 11005 11000 10999 10996 ] final    2.79 input  -57.11 | X-H torsion

> <Gold.Protein.ActiveResidues>
 VAL166  LYS551  ARG553  GLY616  TRP617  ASP618  TYR619  PRO620  LYS621  CYS622 
 ASP623  PHE694  ASN695  SER759  ASP760  ASP761  ALA762  ILE779  LEU786  VAL792 
 PHE793  MET794  SER795  GLU796  ALA797  LYS798  CYS799  TRP800  GLU811  SER814 

> <Gold.Protein.RotatedAtoms>
  152.3177  133.5819  159.5722 H   0  0  0  0  0  0  0  0  0  0  0  0  # atno 6907 bound_to 6896
  150.7355  134.0058  159.3662 H   0  0  0  0  0  0  0  0  0  0  0  0  # atno 6908 bound_to 6896
  151.7946  135.0727  160.0443 H   0  0  0  0  0  0  0  0  0  0  0  0  # atno 6909 bound_to 6896
  145.1136  140.8627  143.3855 H   0  0  0  0  0  0  0  0  0  0  0  0  # atno 7974 bound_to 7965
  154.8477  140.2925  155.5618 H   0  0  0  0  0  0  0  0  0  0  0  0  # atno 8008 bound_to 7997
  156.3015  140.2502  156.3363 H   0  0  0  0  0  0  0  0  0  0  0  0  # atno 8009 bound_to 7997
  154.9055  140.0390  157.1906 H   0  0  0  0  0  0  0  0  0  0  0  0  # atno 8010 bound_to 7997
  140.6914  143.6467  150.8387 H   0  0  0  0  0  0  0  0  0  0  0  0  # atno 10167 bound_to 10162
  156.7461  130.9360  151.3112 H   0  0  0  0  0  0  0  0  0  0  0  0  # atno 10718 bound_to 10713
  154.7536  135.3099  154.8511 H   0  0  0  0  0  0  0  0  0  0  0  0  # atno 10763 bound_to 10752
  153.9291  135.6787  153.4750 H   0  0  0  0  0  0  0  0  0  0  0  0  # atno 10764 bound_to 10752
  153.1133  135.4856  154.9001 H   0  0  0  0  0  0  0  0  0  0  0  0  # atno 10765 bound_to 10752
  140.6003  133.9842  155.8129 H   0  0  0  0  0  0  0  0  0  0  0  0  # atno 11005 bound_to 11000
  145.0819  139.2954  143.5779 LP  0  0  0  0  0  0  0  0  0  0  0  0  # atno 17320 bound_to 7965
  146.3525  140.0328  142.8649 LP  0  0  0  0  0  0  0  0  0  0  0  0  # atno 17321 bound_to 7965
  140.0180  143.5572  152.2812 LP  0  0  0  0  0  0  0  0  0  0  0  0  # atno 17342 bound_to 10162
  139.6320  144.7645  151.2516 LP  0  0  0  0  0  0  0  0  0  0  0  0  # atno 17343 bound_to 10162
  157.6797  130.9128  150.0238 LP  0  0  0  0  0  0  0  0  0  0  0  0  # atno 17370 bound_to 10713
  156.1432  130.3642  149.9550 LP  0  0  0  0  0  0  0  0  0  0  0  0  # atno 17371 bound_to 10713
  141.0876  133.9966  157.3288 LP  0  0  0  0  0  0  0  0  0  0  0  0  # atno 17394 bound_to 11000
  139.9235  135.0201  156.8151 LP  0  0  0  0  0  0  0  0  0  0  0  0  # atno 17395 bound_to 11000

$$$$
