#       Name:                AV-unprocessed.smi:73
#       Creating user name   scv26
#       Creation time:       Thu Mar 26 17:10:00 2020


#       File generated by GOLD software.
#

@<TRIPOS>MOLECULE
AV-unprocessed.smi:73
    42    43     1
SMALL
NO_CHARGES


@<TRIPOS>ATOM
      1 ****        -0.8012   2.5338   0.7878 C.3            1 S1                 0.0000
      2 ****        -0.8353   1.6782  -0.4879 C.3            1 S1                 0.0000
      3 ****        -0.1589   0.3671  -0.4307 N.3            1 S1                 0.0000
      4 ****         1.3066   0.5236  -0.3561 C.3            1 S1                 0.0000
      5 ****         1.8321   0.9345   0.9813 C.2            1 S1                 0.0000
      6 ****         2.7495   1.8697   1.2375 N.2            1 S1                 0.0000
      7 ****         2.9020   1.8793   2.6062 N.2            1 S1                 0.0000
      8 ****         2.0712   0.9431   3.0710 C.2            1 S1                 0.0000
      9 ****         1.8505   0.5504   4.4910 C.3            1 S1                 0.0000
     10 ****         1.3738   0.3062   2.0955 O.3            1 S1                 0.0000
     11 ****        -0.5391  -0.4619  -1.5944 C.3            1 S1                 0.0000
     12 ****        -2.0565  -0.7248  -1.7582 C.3            1 S1                 0.0000
     13 ****        -2.2328  -2.0988  -2.2661 N.4            1 S1                 1.0000
     14 ****        -0.9030  -2.6654  -2.5282 C.3            1 S1                 0.0000
     15 ****         0.0445  -1.8931  -1.6147 C.3            1 S1                 0.0000
     16 ****         0.0088  -2.4946  -0.3318 O.3            1 S1                 0.0000
     17 ****         1.0658  -1.9246  -1.9956 H              1 S1                 0.0000
     18 ****        -1.5179   3.3519   0.7134 H              1 S1                 0.0000
     19 ****         0.1734   2.9899   0.9541 H              1 S1                 0.0000
     20 ****        -1.0637   1.9461   1.6681 H              1 S1                 0.0000
     21 ****        -1.8927   1.5350  -0.7028 H              1 S1                 0.0000
     22 ****        -0.4475   2.2602  -1.3255 H              1 S1                 0.0000
     23 ****         1.8110  -0.4134  -0.5820 H              1 S1                 0.0000
     24 ****         1.6495   1.2341  -1.1097 H              1 S1                 0.0000
     25 ****         2.3700   1.2367   5.1603 H              1 S1                 0.0000
     26 ****         2.2264  -0.4585   4.6617 H              1 S1                 0.0000
     27 ****         0.7857   0.5740   4.7239 H              1 S1                 0.0000
     28 ****        -0.1991   0.0352  -2.5049 H              1 S1                 0.0000
     29 ****        -2.5773  -0.6621  -0.8018 H              1 S1                 0.0000
     30 ****        -2.5155  -0.0058  -2.4374 H              1 S1                 0.0000
     31 ****        -2.6750  -2.6456  -1.5410 H              1 S1                 0.0000
     32 ****        -0.8788  -3.7449  -2.3739 H              1 S1                 0.0000
     33 ****        -0.6501  -2.4704  -3.5712 H              1 S1                 0.0000
     34 ****         0.5265  -1.9706   0.2612 H              1 S1                 0.0000
     35 ****        -2.8025  -2.1139  -3.0999 H              1 S1                 0.0000
     36 ****        -0.4574  -0.0986   0.4024 LP             1 S1                 0.0000
     37 ****         3.2272   2.4444   0.5731 LP             1 S1                 0.0000
     38 ****         3.5095   2.4662   3.1414 LP             1 S1                 0.0000
     39 ****         1.5829  -0.6715   2.0758 LP             1 S1                 0.0000
     40 ****         0.3884   0.4341   2.2079 LP             1 S1                 0.0000
     41 ****         0.3868  -3.4190  -0.3824 LP             1 S1                 0.0000
     42 ****        -0.9357  -2.5381  -0.0062 LP             1 S1                 0.0000
@<TRIPOS>BOND
    1    1    2 1     
    2    1   18 1     
    3    1   19 1     
    4    1   20 1     
    5    2    3 1     
    6    2   21 1     
    7    2   22 1     
    8    3    4 1     
    9    3   11 1     
   10    4    5 1     
   11    4   23 1     
   12    4   24 1     
   13    5   10 1     
   14    5    6 2     
   15    6    7 1     
   16    7    8 2     
   17    8    9 1     
   18    8   10 1     
   19    9   25 1     
   20    9   26 1     
   21    9   27 1     
   22   11   15 1     
   23   11   12 1     
   24   11   28 1     
   25   12   13 1     
   26   12   29 1     
   27   12   30 1     
   28   13   14 1     
   29   13   31 1     
   30   13   35 1     
   31   14   15 1     
   32   14   32 1     
   33   14   33 1     
   34   15   17 1     
   35   15   16 1     
   36   16   34 1     
   37    3   36 1     
   38    6   37 1     
   39    7   38 1     
   40   10   39 1     
   41   10   40 1     
   42   16   41 1     
   43   16   42 1     
@<TRIPOS>SUBSTRUCTURE
      1 S1             1
@<TRIPOS>SET
LONE_PAIRS      STATIC     ATOMS    <user>   **** ""
7 36 37 38 39 40 41 42
DONOR_HYDROGENS      STATIC     ATOMS    <user>   **** ""
3 31 35 34
ATOM$BLUE        STATIC     ATOMS    COLORGROUP SYSTEM
7 36 37 38 39 40 41 42
ATOM$RED        STATIC     ATOMS    COLORGROUP SYSTEM
3 31 35 34
