AV-unprocessed.smi:2786|AV-procd|sdf|10748|dock3
  -GOLD-   2272015183D 1   1.00000     0.00000
 Structure written by MMmdl.
 27 28  0  0  0  0  0  0  0  0  2 V2000
  151.6641  144.5586  159.4014 C   0  0  0  0  0  0  0  0  0  0  0  0
  152.2248  143.2331  159.5795 N   0  0  0  0  0  0  0  0  0  0  0  0
  153.0824  142.8443  160.6001 C   0  0  0  0  0  0  0  0  0  0  0  0
  153.3597  141.5143  160.3971 C   0  0  0  0  0  0  0  0  0  0  0  0
  152.6861  141.0714  159.2643 N   0  0  0  0  0  0  0  0  0  0  0  0
  152.0337  142.1407  158.8138 C   0  0  0  0  0  0  0  0  0  0  0  0
  151.1492  142.1338  157.6003 C   0  0  2  0  0  0  0  0  0  0  0  0
  149.6647  142.3193  157.9857 C   0  0  0  0  0  0  0  0  0  0  0  0
  148.8181  142.3532  156.7750 N   0  3  0  0  0  0  0  0  0  0  0  0
  149.0275  141.1512  155.9430 C   0  0  0  0  0  0  0  0  0  0  0  0
  150.5217  141.0019  155.6030 C   0  0  0  0  0  0  0  0  0  0  0  0
  151.2960  140.8949  156.8357 N   0  0  0  0  0  0  0  0  0  0  0  0
  151.9371  145.1982  160.2414 H   0  0  0  0  0  0  0  0  0  0  0  0
  150.5769  144.4973  159.3457 H   0  0  0  0  0  0  0  0  0  0  0  0
  152.0488  145.0011  158.4823 H   0  0  0  0  0  0  0  0  0  0  0  0
  153.4150  143.5275  161.3680 H   0  0  0  0  0  0  0  0  0  0  0  0
  153.9846  140.8481  160.9734 H   0  0  0  0  0  0  0  0  0  0  0  0
  151.4567  142.9557  156.9530 H   0  0  0  0  0  0  0  0  0  0  0  0
  149.3303  141.5129  158.6406 H   0  0  0  0  0  0  0  0  0  0  0  0
  149.5275  143.2523  158.5331 H   0  0  0  0  0  0  0  0  0  0  0  0
  147.8463  142.4146  157.0428 H   0  0  0  0  0  0  0  0  0  0  0  0
  148.6634  140.2707  156.4750 H   0  0  0  0  0  0  0  0  0  0  0  0
  148.4371  141.2415  155.0311 H   0  0  0  0  0  0  0  0  0  0  0  0
  150.6802  140.1009  155.0099 H   0  0  0  0  0  0  0  0  0  0  0  0
  150.8767  141.8439  155.0067 H   0  0  0  0  0  0  0  0  0  0  0  0
  150.9154  140.1350  157.3824 H   0  0  0  0  0  0  0  0  0  0  0  0
  149.0645  143.1680  156.2317 H   0  0  0  0  0  0  0  0  0  0  0  0
  1  2  1  0  0  0  0
  1 13  1  0  0  0  0
  1 14  1  0  0  0  0
  1 15  1  0  0  0  0
  2  6  1  0  0  0  0
  2  3  1  0  0  0  0
  3  4  2  0  0  0  0
  3 16  1  0  0  0  0
  4  5  1  0  0  0  0
  4 17  1  0  0  0  0
  5  6  2  0  0  0  0
  6  7  1  0  0  0  0
  7 12  1  0  0  0  0
  7  8  1  0  0  0  0
  7 18  1  0  0  0  0
  8  9  1  0  0  0  0
  8 19  1  0  0  0  0
  8 20  1  0  0  0  0
  9 10  1  0  0  0  0
  9 21  1  0  0  0  0
  9 27  1  0  0  0  0
 10 11  1  0  0  0  0
 10 22  1  0  0  0  0
 10 23  1  0  0  0  0
 11 12  1  0  0  0  0
 11 24  1  0  0  0  0
 11 25  1  0  0  0  0
 12 26  1  0  0  0  0
M  CHG  1   9   1
M  END
> <s_m_source_file>
AV-unprocessed.smi

> <i_m_source_file_index>
2786

> <i_lp_mmshare_version>
43012

> <i_f3d_flags>
0

> <s_epik_input>
W0NIM11uMVtjSF1bY0hdbmMxW0NAQEhdMltDSDJdW05IXVtDSDJdW0NIMl1bTkhdMg==

> <s_epik_cmdline>
J2VwaWtfcHl0aG9uJywgJy1waCcsICc3LjAnLCAnLXRuJywgJzgnLCAnLW1hJywgJzIwMCcsICctbWV0YWxfYmluZGluZycsICctaW1hZScsICc8aW5maWxlLm1hZT4nLCAnLW9tYWUnLCAnPG91dGZpbGUubWFlPic=

> <r_lp_tautomer_probability>
1

> <r_epik_Ionization_Penalty>
0.130484

> <r_epik_Ionization_Penalty_Charging>
0.130409

> <r_epik_Ionization_Penalty_Neutral>
7.57914e-05

> <r_epik_State_Penalty>
0.270147

> <r_epik_Charging_Adjusted_Penalty>
0.400555

> <i_epik_Tot_Q>
1

> <i_epik_Tot_abs_Q>
1

> <r_epik_Metal_State_Penalty>
0.136376

> <b_epik_Metal_Only>
0

> <s_lp_Force_Field>
OPLS_2005

> <r_lp_Energy>
9.37099

> <b_lp_Chiralities_Consistent>
1

> <s_lp_Variant>
AV-unprocessed.smi:2786-1

> <Gold.Version>
5.8.1

> <Gold.Id.Protein>
6NUR|6NUR_protein|mol2

> <Gold.PLP.Fitness>
33.2587

> <Gold.PLP.PLP>
-27.5670

> <Gold.PLP.part.hbond>
-1.0000

> <Gold.PLP.part.metal>
0.0000

> <Gold.PLP.part.buried>
-3.6315

> <Gold.PLP.part.nonpolar>
-23.2843

> <Gold.PLP.part.repulsive>
0.0005

> <Gold.PLP.ligand.clash>
0.0000

> <Gold.PLP.ligand.torsion>
0.1580

> <Gold.PLP.Chemscore.Hbond>
2.0000

> <Gold.PLP.Chemscore.CHOScore>
0.0000

> <Gold.PLP.Chemscore.Metal>
0.0000

> <Gold.Chemscore.Hbonds>
donor molecule, donor type, donor heavy atom, donor atom, acceptor molecule, acceptor atom, score
      L1  H     9    27       P1  8028  2.00

> <Gold.PLP.Chemscore.Internal.Correction>
0.0077

> <Gold.Rescore>
     Score         DG    S(hbond)    S(metal)    S(lipo)     H(rot)  DE(clash)    DE(int)     intcor
     13.00     -13.05       0.99        0.00      58.23       1.00       0.00       0.04       ----

> <Gold.Chemscore.Fitness>
13.0040

> <Gold.Chemscore.DG>
-13.0471

> <Gold.Chemscore.ZeroCoef>
-5.4800

> <Gold.Chemscore.Hbond>
0.9921

> <Gold.Chemscore.Metal>
0.0000

> <Gold.Chemscore.Lipo>
58.2347

> <Gold.Chemscore.Internal_Hbond>
0.0000

> <Gold.Chemscore.DEClash>
0.0000

> <Gold.Chemscore.DEInternal>
0.0431

> <Gold.Chemscore.Rot>
1.0000

> <Gold.Chemscore.Internal.Correction>
   9.000000E+99

> <Gold.Chemscore.Hbonds>
donor molecule, donor type, donor heavy atom, donor atom, acceptor molecule, acceptor atom, score
      L1  H     9    27       P1  8028  0.98

> <Gold.Chemscore.Hbond.Weighted>
-3.3137

> <Gold.Chemscore.Metal.Weighted>
-0.0000

> <Gold.Chemscore.Lipo.Weighted>
-6.8135

> <Gold.Chemscore.Internal_Hbond.Weighted>
0.0000

> <Gold.Chemscore.DEClash.Weighted>
0.0000

> <Gold.Chemscore.DEInternal.Weighted>
0.0431

> <Gold.Chemscore.Rot.Weighted>
2.5600

> <Gold.Chemscore.Internal.Correction.Weighted>
   9.000000E+99

> <Gold.Protein.RotatedTorsions>
[ 6907 6896 6895 6894 ] final   48.93 input  -60.11 | X-H torsion
[ 7974 7965 7964 7962 ] final  167.66 input  175.53 | X-H torsion
[ 8008 7997 7996 7995 ] final -127.04 input   59.86 | X-H torsion
[ 10167 10162 10161 10158 ] final -156.44 input  -65.29 | X-H torsion
[ 10718 10713 10712 10709 ] final  -61.85 input   66.30 | X-H torsion
[ 10763 10752 10751 10750 ] final  -15.38 input  -60.55 | X-H torsion
[ 11005 11000 10999 10996 ] final -160.13 input  -57.11 | X-H torsion

> <Gold.Protein.ActiveResidues>
 VAL166  LYS551  ARG553  GLY616  TRP617  ASP618  TYR619  PRO620  LYS621  CYS622 
 ASP623  PHE694  ASN695  SER759  ASP760  ASP761  ALA762  ILE779  LEU786  VAL792 
 PHE793  MET794  SER795  GLU796  ALA797  LYS798  CYS799  TRP800  GLU811  SER814 

> <Gold.Protein.RotatedAtoms>
  152.2851  134.7785  160.0388 H   0  0  0  0  0  0  0  0  0  0  0  0  # atno 6907 bound_to 6896
  151.8350  133.3409  159.3633 H   0  0  0  0  0  0  0  0  0  0  0  0  # atno 6908 bound_to 6896
  150.7206  134.5375  159.5775 H   0  0  0  0  0  0  0  0  0  0  0  0  # atno 6909 bound_to 6896
  144.7416  139.8793  143.6395 H   0  0  0  0  0  0  0  0  0  0  0  0  # atno 7974 bound_to 7965
  155.2397  140.0428  157.2973 H   0  0  0  0  0  0  0  0  0  0  0  0  # atno 8008 bound_to 7997
  154.5836  140.2407  155.7988 H   0  0  0  0  0  0  0  0  0  0  0  0  # atno 8009 bound_to 7997
  156.2210  140.2969  155.9962 H   0  0  0  0  0  0  0  0  0  0  0  0  # atno 8010 bound_to 7997
  139.6850  143.9516  152.2356 H   0  0  0  0  0  0  0  0  0  0  0  0  # atno 10167 bound_to 10162
  156.0894  130.4202  150.1052 H   0  0  0  0  0  0  0  0  0  0  0  0  # atno 10718 bound_to 10713
  153.5425  135.7013  153.5630 H   0  0  0  0  0  0  0  0  0  0  0  0  # atno 10763 bound_to 10752
  153.3589  135.3975  155.1703 H   0  0  0  0  0  0  0  0  0  0  0  0  # atno 10764 bound_to 10752
  154.8672  135.3784  154.4930 H   0  0  0  0  0  0  0  0  0  0  0  0  # atno 10765 bound_to 10752
  140.6349  134.4612  157.5231 H   0  0  0  0  0  0  0  0  0  0  0  0  # atno 11005 bound_to 11000
  146.1223  139.4243  143.0220 LP  0  0  0  0  0  0  0  0  0  0  0  0  # atno 17320 bound_to 7965
  145.7286  141.0050  143.1364 LP  0  0  0  0  0  0  0  0  0  0  0  0  # atno 17321 bound_to 7965
  139.9317  144.6737  150.8356 LP  0  0  0  0  0  0  0  0  0  0  0  0  # atno 17342 bound_to 10162
  140.7665  143.3304  151.2422 LP  0  0  0  0  0  0  0  0  0  0  0  0  # atno 17343 bound_to 10162
  156.9066  130.9638  151.3569 LP  0  0  0  0  0  0  0  0  0  0  0  0  # atno 17370 bound_to 10713
  157.6038  130.8532  149.8844 LP  0  0  0  0  0  0  0  0  0  0  0  0  # atno 17371 bound_to 10713
  139.9102  134.8362  156.1557 LP  0  0  0  0  0  0  0  0  0  0  0  0  # atno 17394 bound_to 11000
  141.0649  133.6824  156.2024 LP  0  0  0  0  0  0  0  0  0  0  0  0  # atno 17395 bound_to 11000

$$$$
