AV-unprocessed.smi:100|AV-procd|sdf|901|dock4
  -GOLD-   2262017393D 1   1.00000     0.00000
 Structure written by MMmdl.
 31 33  0  0  0  0  0  0  0  0  1 V2000
  151.0156  137.9242  153.6727 N   0  0  0  0  0  0  0  0  0  0  0  0
  151.3416  138.2039  154.9422 C   0  0  0  0  0  0  0  0  0  0  0  0
  151.9415  137.2400  155.6793 N   0  0  0  0  0  0  0  0  0  0  0  0
  152.2756  137.4942  156.9490 C   0  0  0  0  0  0  0  0  0  0  0  0
  152.1011  138.6178  157.6506 N   0  0  0  0  0  0  0  0  0  0  0  0
  151.4954  139.5884  156.9045 C   0  0  0  0  0  0  0  0  0  0  0  0
  151.0870  139.4602  155.5483 C   0  0  0  0  0  0  0  0  0  0  0  0
  150.5086  140.6451  155.1156 N   0  0  0  0  0  0  0  0  0  0  0  0
  150.5700  141.4251  156.1616 C   0  0  0  0  0  0  0  0  0  0  0  0
  151.1538  140.8704  157.2826 N   0  0  0  0  0  0  0  0  0  0  0  0
  151.3726  141.4760  158.6356 C   0  0  2  0  0  0  0  0  0  0  0  0
  150.2218  142.1968  158.9715 O   0  0  0  0  0  0  0  0  0  0  0  0
  150.4778  143.5962  158.8777 C   0  0  1  0  0  0  0  0  0  0  0  0
  149.5019  144.3957  159.7554 C   0  0  0  0  0  0  0  0  0  0  0  0
  149.5769  145.7680  159.4336 O   0  0  0  0  0  0  0  0  0  0  0  0
  151.9376  143.6761  159.3211 C   0  0  1  0  0  0  0  0  0  0  0  0
  151.9980  143.5111  160.6463 F   0  0  0  0  0  0  0  0  0  0  0  0
  152.5379  142.4794  158.5990 C   0  0  1  0  0  0  0  0  0  0  0  0
  153.7042  142.0277  159.2578 O   0  0  0  0  0  0  0  0  0  0  0  0
  150.5667  138.6275  153.1036 H   0  0  0  0  0  0  0  0  0  0  0  0
  151.2147  137.0113  153.2901 H   0  0  0  0  0  0  0  0  0  0  0  0
  152.7509  136.6817  157.4784 H   0  0  0  0  0  0  0  0  0  0  0  0
  150.1875  142.4336  156.1342 H   0  0  0  0  0  0  0  0  0  0  0  0
  151.5093  140.6469  159.3306 H   0  0  0  0  0  0  0  0  0  0  0  0
  150.4085  143.9249  157.8403 H   0  0  0  0  0  0  0  0  0  0  0  0
  148.4787  144.0355  159.6440 H   0  0  0  0  0  0  0  0  0  0  0  0
  149.7714  144.2913  160.8068 H   0  0  0  0  0  0  0  0  0  0  0  0
  149.1515  145.9057  158.6011 H   0  0  0  0  0  0  0  0  0  0  0  0
  152.4193  144.6226  159.0743 H   0  0  0  0  0  0  0  0  0  0  0  0
  152.7728  142.7469  157.5676 H   0  0  0  0  0  0  0  0  0  0  0  0
  154.2715  141.6245  158.6183 H   0  0  0  0  0  0  0  0  0  0  0  0
  1  2  1  0  0  0  0
  1 20  1  0  0  0  0
  1 21  1  0  0  0  0
  2  7  1  0  0  0  0
  2  3  2  0  0  0  0
  3  4  1  0  0  0  0
  4  5  2  0  0  0  0
  4 22  1  0  0  0  0
  5  6  1  0  0  0  0
  6 10  1  0  0  0  0
  6  7  2  0  0  0  0
  7  8  1  0  0  0  0
  8  9  2  0  0  0  0
  9 10  1  0  0  0  0
  9 23  1  0  0  0  0
 10 11  1  0  0  0  0
 11 18  1  0  0  0  0
 11 12  1  0  0  0  0
 11 24  1  0  0  0  0
 12 13  1  0  0  0  0
 13 14  1  0  0  0  0
 13 16  1  0  0  0  0
 13 25  1  0  0  0  0
 14 15  1  0  0  0  0
 14 26  1  0  0  0  0
 14 27  1  0  0  0  0
 15 28  1  0  0  0  0
 16 17  1  0  0  0  0
 16 18  1  0  0  0  0
 16 29  1  0  0  0  0
 18 19  1  0  0  0  0
 18 30  1  0  0  0  0
 19 31  1  0  0  0  0
M  END
> <s_m_source_file>
AV-unprocessed.smi

> <i_m_source_file_index>
100

> <i_lp_mmshare_version>
43012

> <i_f3d_flags>
0

> <s_epik_input>
bjFbY0hdbmMoW05IMl0pYyhjMTIpbltjSF1uMltDQEBIXTNPW0NAQEhdKFtDSDJdW09IXSlbQ0BIXShGKVtDQEhdM1tPSF0=

> <s_epik_cmdline>
J2VwaWtfcHl0aG9uJywgJy1waCcsICc3LjAnLCAnLXRuJywgJzgnLCAnLW1hJywgJzIwMCcsICctbWV0YWxfYmluZGluZycsICctaW1hZScsICc8aW5maWxlLm1hZT4nLCAnLW9tYWUnLCAnPG91dGZpbGUubWFlPic=

> <r_lp_tautomer_probability>
1

> <r_epik_Ionization_Penalty>
0.000750324

> <r_epik_Ionization_Penalty_Charging>
0

> <r_epik_Ionization_Penalty_Neutral>
0.000750324

> <r_epik_State_Penalty>
-0

> <r_epik_Charging_Adjusted_Penalty>
0

> <i_epik_Tot_Q>
0

> <i_epik_Tot_abs_Q>
0

> <r_epik_Metal_State_Penalty>
-0

> <b_epik_Metal_Only>
0

> <s_epik_Chemistry_Notes>
This compound contains an acetal/aminal-like group ( X-CH(R)-Y where X, Y are N, S, or O) that may be acid/base labile, releasing an aldehyde.

> <s_lp_Force_Field>
OPLS_2005

> <r_lp_Energy>
31.3803

> <b_lp_Chiralities_Consistent>
1

> <s_lp_Variant>
AV-unprocessed.smi:100-5

> <Gold.Version>
5.8.1

> <Gold.Id.Protein>
6NUR|6NUR_protein|mol2

> <Gold.PLP.Fitness>
42.0998

> <Gold.PLP.PLP>
-30.0916

> <Gold.PLP.part.hbond>
-6.6366

> <Gold.PLP.part.metal>
0.0000

> <Gold.PLP.part.buried>
0.9866

> <Gold.PLP.part.nonpolar>
-23.4221

> <Gold.PLP.part.repulsive>
0.3130

> <Gold.PLP.ligand.clash>
0.0000

> <Gold.PLP.ligand.torsion>
0.5437

> <Gold.PLP.Chemscore.Hbond>
3.4060

> <Gold.PLP.Chemscore.CHOScore>
0.9526

> <Gold.PLP.Chemscore.Metal>
0.0000

> <Gold.Chemscore.Hbonds>
donor molecule, donor type, donor heavy atom, donor atom, acceptor molecule, acceptor atom, score
      L1  H     1    21       P1  7949  0.73
      L1  H    15    28       P1  8029  1.00
      P1  H  7989  7998       L1     8  0.79
      P1  H 10752 10763       L1     3  0.60
      L1  C     9    23       P1  8028  0.64

> <Gold.PLP.Chemscore.Internal.Correction>
0.0199

> <Gold.Rescore>
     Score         DG    S(hbond)    S(metal)    S(lipo)     H(rot)  DE(clash)    DE(int)     intcor
     10.87     -11.98       2.96        0.00      40.84       3.19       0.38       0.74       ----

> <Gold.Chemscore.Fitness>
10.8662

> <Gold.Chemscore.DG>
-11.9824

> <Gold.Chemscore.ZeroCoef>
-5.4800

> <Gold.Chemscore.Hbond>
2.9612

> <Gold.Chemscore.Metal>
0.0000

> <Gold.Chemscore.Lipo>
40.8444

> <Gold.Chemscore.Internal_Hbond>
0.0000

> <Gold.Chemscore.DEClash>
0.3774

> <Gold.Chemscore.DEInternal>
0.7388

> <Gold.Chemscore.Rot>
3.1901

> <Gold.Chemscore.Internal.Correction>
   9.000000E+99

> <Gold.Chemscore.Hbonds>
donor molecule, donor type, donor heavy atom, donor atom, acceptor molecule, acceptor atom, score
      L1  H     1    21       P1  7949  0.43
      L1  H    15    28       P1  8029  1.00
      P1  H  7989  7998       L1     8  0.13
      P1  H 10752 10763       L1     3  0.52

> <Gold.Chemscore.Hbond.Weighted>
-9.8903

> <Gold.Chemscore.Metal.Weighted>
-0.0000

> <Gold.Chemscore.Lipo.Weighted>
-4.7788

> <Gold.Chemscore.Internal_Hbond.Weighted>
0.0000

> <Gold.Chemscore.DEClash.Weighted>
0.3774

> <Gold.Chemscore.DEInternal.Weighted>
0.7388

> <Gold.Chemscore.Rot.Weighted>
8.1667

> <Gold.Chemscore.Internal.Correction.Weighted>
   9.000000E+99

> <Gold.Protein.RotatedTorsions>
[ 6907 6896 6895 6894 ] final -150.72 input  -60.11 | X-H torsion
[ 7974 7965 7964 7962 ] final   75.66 input  175.53 | X-H torsion
[ 8008 7997 7996 7995 ] final -100.04 input   59.86 | X-H torsion
[ 10167 10162 10161 10158 ] final  -80.18 input  -65.29 | X-H torsion
[ 10718 10713 10712 10709 ] final   29.56 input   66.30 | X-H torsion
[ 10763 10752 10751 10750 ] final   67.42 input  -60.55 | X-H torsion
[ 11005 11000 10999 10996 ] final  110.46 input  -57.11 | X-H torsion

> <Gold.Protein.ActiveResidues>
 VAL166  LYS551  ARG553  GLY616  TRP617  ASP618  TYR619  PRO620  LYS621  CYS622 
 ASP623  PHE694  ASN695  SER759  ASP760  ASP761  ALA762  ILE779  LEU786  VAL792 
 PHE793  MET794  SER795  GLU796  ALA797  LYS798  CYS799  TRP800  GLU811  SER814 

> <Gold.Protein.RotatedAtoms>
  151.2027  133.4601  159.2596 H   0  0  0  0  0  0  0  0  0  0  0  0  # atno 6907 bound_to 6896
  151.1054  134.9996  159.8478 H   0  0  0  0  0  0  0  0  0  0  0  0  # atno 6908 bound_to 6896
  152.5446  134.1950  159.8742 H   0  0  0  0  0  0  0  0  0  0  0  0  # atno 6909 bound_to 6896
  145.7127  139.2620  143.1641 H   0  0  0  0  0  0  0  0  0  0  0  0  # atno 7974 bound_to 7965
  154.8232  140.0443  157.1425 H   0  0  0  0  0  0  0  0  0  0  0  0  # atno 8008 bound_to 7997
  154.9236  140.3030  155.5183 H   0  0  0  0  0  0  0  0  0  0  0  0  # atno 8009 bound_to 7997
  156.2982  140.2336  156.4289 H   0  0  0  0  0  0  0  0  0  0  0  0  # atno 8010 bound_to 7997
  140.4526  143.2478  151.8466 H   0  0  0  0  0  0  0  0  0  0  0  0  # atno 10167 bound_to 10162
  157.2482  130.7102  149.6392 H   0  0  0  0  0  0  0  0  0  0  0  0  # atno 10718 bound_to 10713
  153.0186  135.5284  154.6977 H   0  0  0  0  0  0  0  0  0  0  0  0  # atno 10763 bound_to 10752
  154.6094  135.2876  155.0450 H   0  0  0  0  0  0  0  0  0  0  0  0  # atno 10764 bound_to 10752
  154.1478  135.6568  153.5009 H   0  0  0  0  0  0  0  0  0  0  0  0  # atno 10765 bound_to 10752
  139.8882  134.9484  156.6283 H   0  0  0  0  0  0  0  0  0  0  0  0  # atno 11005 bound_to 11000
  146.0698  140.7882  142.9694 LP  0  0  0  0  0  0  0  0  0  0  0  0  # atno 17320 bound_to 7965
  144.6937  140.3324  143.7213 LP  0  0  0  0  0  0  0  0  0  0  0  0  # atno 17321 bound_to 7965
  139.4798  144.5102  151.8943 LP  0  0  0  0  0  0  0  0  0  0  0  0  # atno 17342 bound_to 10162
  140.4188  144.2270  150.5887 LP  0  0  0  0  0  0  0  0  0  0  0  0  # atno 17343 bound_to 10162
  155.9667  130.4436  150.5428 LP  0  0  0  0  0  0  0  0  0  0  0  0  # atno 17370 bound_to 10713
  157.3306  131.0699  151.1863 LP  0  0  0  0  0  0  0  0  0  0  0  0  # atno 17371 bound_to 10713
  140.7686  133.8757  155.8474 LP  0  0  0  0  0  0  0  0  0  0  0  0  # atno 17394 bound_to 11000
  140.9861  134.1341  157.4451 LP  0  0  0  0  0  0  0  0  0  0  0  0  # atno 17395 bound_to 11000

$$$$
