AV-unprocessed.smi:2933|AV-procd|sdf|11253|dock2
  -GOLD-   2272016143D 1   1.00000     0.00000
 Structure written by MMmdl.
 49 51  0  0  0  0  0  0  0  0  1 V2000
  151.4845  138.3538  154.4243 C   0  0  0  0  0  0  0  0  0  0  0  0
  150.7446  139.5370  155.0233 C   0  0  0  0  0  0  0  0  0  0  0  0
  151.4417  140.2569  155.9284 N   0  0  0  0  0  0  0  0  0  0  0  0
  150.8615  141.3328  156.5134 C   0  0  0  0  0  0  0  0  0  0  0  0
  151.6114  142.0624  157.4622 N   0  0  0  0  0  0  0  0  0  0  0  0
  151.3155  143.4855  157.6210 C   0  0  0  0  0  0  0  0  0  0  0  0
  152.4067  144.1711  158.4600 C   0  0  0  0  0  0  0  0  0  0  0  0
  152.5448  143.4976  159.7064 O   0  0  0  0  0  0  0  0  0  0  0  0
  152.9460  142.1428  159.5325 C   0  0  0  0  0  0  0  0  0  0  0  0
  151.8794  141.3807  158.7265 C   0  0  0  0  0  0  0  0  0  0  0  0
  149.5394  141.7197  156.1944 C   0  0  0  0  0  0  0  0  0  0  0  0
  148.8106  140.9703  155.2519 C   0  0  0  0  0  0  0  0  0  0  0  0
  149.4141  139.8402  154.6527 C   0  0  0  0  0  0  0  0  0  0  0  0
  148.7644  139.0291  153.6810 N   0  0  0  0  0  0  0  0  0  0  0  0
  147.4702  139.0361  153.3199 C   0  0  0  0  0  0  0  0  0  0  0  0
  146.6139  139.8039  153.7585 O   0  0  0  0  0  0  0  0  0  0  0  0
  147.2153  138.0719  152.4233 N   0  0  0  0  0  0  0  0  0  0  0  0
  145.9098  137.7712  151.8412 C   0  0  1  0  0  0  0  0  0  0  0  0
  146.0533  136.5987  150.8612 C   0  0  0  0  0  0  0  0  0  0  0  0
  144.8977  137.4715  152.9489 C   0  0  0  0  0  0  0  0  0  0  0  0
  145.0009  136.1647  153.7507 C   0  0  0  0  0  0  0  0  0  0  0  0
  143.4719  136.1469  153.8325 C   0  0  0  0  0  0  0  0  0  0  0  0
  143.4618  137.0508  152.5971 C   0  0  0  0  0  0  0  0  0  0  0  0
  150.9357  137.4300  154.6095 H   0  0  0  0  0  0  0  0  0  0  0  0
  152.4809  138.2441  154.8545 H   0  0  0  0  0  0  0  0  0  0  0  0
  151.5943  138.4810  153.3471 H   0  0  0  0  0  0  0  0  0  0  0  0
  151.2542  143.9709  156.6460 H   0  0  0  0  0  0  0  0  0  0  0  0
  150.3448  143.6005  158.1052 H   0  0  0  0  0  0  0  0  0  0  0  0
  153.3602  144.1771  157.9289 H   0  0  0  0  0  0  0  0  0  0  0  0
  152.1393  145.2116  158.6448 H   0  0  0  0  0  0  0  0  0  0  0  0
  153.9149  142.1009  159.0320 H   0  0  0  0  0  0  0  0  0  0  0  0
  153.0748  141.6827  160.5122 H   0  0  0  0  0  0  0  0  0  0  0  0
  150.9517  141.3223  159.2969 H   0  0  0  0  0  0  0  0  0  0  0  0
  152.2206  140.3584  158.5718 H   0  0  0  0  0  0  0  0  0  0  0  0
  149.0703  142.5692  156.6677 H   0  0  0  0  0  0  0  0  0  0  0  0
  147.8085  141.2824  155.0022 H   0  0  0  0  0  0  0  0  0  0  0  0
  149.3290  138.2904  153.2881 H   0  0  0  0  0  0  0  0  0  0  0  0
  147.9841  137.4879  152.1288 H   0  0  0  0  0  0  0  0  0  0  0  0
  145.5671  138.6320  151.2640 H   0  0  0  0  0  0  0  0  0  0  0  0
  145.1048  136.3777  150.3712 H   0  0  0  0  0  0  0  0  0  0  0  0
  146.3826  135.6924  151.3707 H   0  0  0  0  0  0  0  0  0  0  0  0
  146.7800  136.8252  150.0803 H   0  0  0  0  0  0  0  0  0  0  0  0
  144.8481  138.3022  153.6569 H   0  0  0  0  0  0  0  0  0  0  0  0
  145.3997  135.3367  153.1624 H   0  0  0  0  0  0  0  0  0  0  0  0
  145.5097  136.2576  154.7106 H   0  0  0  0  0  0  0  0  0  0  0  0
  143.0172  135.1670  153.6856 H   0  0  0  0  0  0  0  0  0  0  0  0
  143.0890  136.6445  154.7250 H   0  0  0  0  0  0  0  0  0  0  0  0
  142.7312  137.8595  152.6258 H   0  0  0  0  0  0  0  0  0  0  0  0
  143.4005  136.4865  151.6649 H   0  0  0  0  0  0  0  0  0  0  0  0
  1  2  1  0  0  0  0
  1 24  1  0  0  0  0
  1 25  1  0  0  0  0
  1 26  1  0  0  0  0
  2 13  1  0  0  0  0
  2  3  2  0  0  0  0
  3  4  1  0  0  0  0
  4  5  1  0  0  0  0
  4 11  2  0  0  0  0
  5 10  1  0  0  0  0
  5  6  1  0  0  0  0
  6  7  1  0  0  0  0
  6 27  1  0  0  0  0
  6 28  1  0  0  0  0
  7  8  1  0  0  0  0
  7 29  1  0  0  0  0
  7 30  1  0  0  0  0
  8  9  1  0  0  0  0
  9 10  1  0  0  0  0
  9 31  1  0  0  0  0
  9 32  1  0  0  0  0
 10 33  1  0  0  0  0
 10 34  1  0  0  0  0
 11 12  1  0  0  0  0
 11 35  1  0  0  0  0
 12 13  2  0  0  0  0
 12 36  1  0  0  0  0
 13 14  1  0  0  0  0
 14 15  1  0  0  0  0
 14 37  1  0  0  0  0
 15 16  2  0  0  0  0
 15 17  1  0  0  0  0
 17 18  1  0  0  0  0
 17 38  1  0  0  0  0
 18 19  1  0  0  0  0
 18 20  1  0  0  0  0
 18 39  1  0  0  0  0
 19 40  1  0  0  0  0
 19 41  1  0  0  0  0
 19 42  1  0  0  0  0
 20 23  1  0  0  0  0
 20 21  1  0  0  0  0
 20 43  1  0  0  0  0
 21 22  1  0  0  0  0
 21 44  1  0  0  0  0
 21 45  1  0  0  0  0
 22 23  1  0  0  0  0
 22 46  1  0  0  0  0
 22 47  1  0  0  0  0
 23 48  1  0  0  0  0
 23 49  1  0  0  0  0
M  END
> <s_m_source_file>
AV-unprocessed.smi

> <i_m_source_file_index>
2933

> <i_lp_mmshare_version>
43012

> <i_f3d_flags>
0

> <s_epik_input>
W0NIMl0xW0NIMl1PW0NIMl1bQ0gyXU4xYyhuYzJbQ0gzXSlbY0hdW2NIXWMyW05IXUMoPU8pW05IXVtDQEhdKFtDSDNdKVtDSF0zW0NIMl1bQ0gyXVtDSDJdMw==

> <s_epik_cmdline>
J2VwaWtfcHl0aG9uJywgJy1waCcsICc3LjAnLCAnLXRuJywgJzgnLCAnLW1hJywgJzIwMCcsICctbWV0YWxfYmluZGluZycsICctaW1hZScsICc8aW5maWxlLm1hZT4nLCAnLW9tYWUnLCAnPG91dGZpbGUubWFlPic=

> <r_lp_tautomer_probability>
1

> <r_epik_Ionization_Penalty>
0.00789884

> <r_epik_Ionization_Penalty_Charging>
0

> <r_epik_Ionization_Penalty_Neutral>
0.00789884

> <r_epik_State_Penalty>
0.00589145

> <r_epik_Charging_Adjusted_Penalty>
0.00589145

> <i_epik_Tot_Q>
0

> <i_epik_Tot_abs_Q>
0

> <r_epik_Metal_State_Penalty>
-0

> <b_epik_Metal_Only>
0

> <s_lp_Force_Field>
OPLS_2005

> <r_lp_Energy>
30.6508

> <b_lp_Chiralities_Consistent>
1

> <s_lp_Variant>
AV-unprocessed.smi:2933-2

> <Gold.Version>
5.8.1

> <Gold.Id.Protein>
6NUR|6NUR_protein|mol2

> <Gold.PLP.Fitness>
42.5618

> <Gold.PLP.PLP>
-40.1803

> <Gold.PLP.part.hbond>
-2.0641

> <Gold.PLP.part.metal>
0.0000

> <Gold.PLP.part.buried>
-0.4139

> <Gold.PLP.part.nonpolar>
-37.9771

> <Gold.PLP.part.repulsive>
0.3289

> <Gold.PLP.ligand.clash>
0.0000

> <Gold.PLP.ligand.torsion>
0.5475

> <Gold.PLP.Chemscore.Hbond>
1.0000

> <Gold.PLP.Chemscore.CHOScore>
0.0000

> <Gold.PLP.Chemscore.Metal>
0.0000

> <Gold.Chemscore.Hbonds>
donor molecule, donor type, donor heavy atom, donor atom, acceptor molecule, acceptor atom, score
      L1  H    17    38       P1  7948  1.00

> <Gold.PLP.Chemscore.Internal.Correction>
0.4765

> <Gold.Rescore>
     Score         DG    S(hbond)    S(metal)    S(lipo)     H(rot)  DE(clash)    DE(int)     intcor
     14.92     -17.47       1.00        0.00     102.76       1.32       0.65       1.89       ----

> <Gold.Chemscore.Fitness>
14.9241

> <Gold.Chemscore.DG>
-17.4696

> <Gold.Chemscore.ZeroCoef>
-5.4800

> <Gold.Chemscore.Hbond>
0.9986

> <Gold.Chemscore.Metal>
0.0000

> <Gold.Chemscore.Lipo>
102.7575

> <Gold.Chemscore.Internal_Hbond>
0.0000

> <Gold.Chemscore.DEClash>
0.6544

> <Gold.Chemscore.DEInternal>
1.8911

> <Gold.Chemscore.Rot>
1.3157

> <Gold.Chemscore.Internal.Correction>
   9.000000E+99

> <Gold.Chemscore.Hbonds>
donor molecule, donor type, donor heavy atom, donor atom, acceptor molecule, acceptor atom, score
      L1  H    14    37       P1  7948  0.01
      L1  H    17    38       P1  7948  0.98

> <Gold.Chemscore.Hbond.Weighted>
-3.3352

> <Gold.Chemscore.Metal.Weighted>
-0.0000

> <Gold.Chemscore.Lipo.Weighted>
-12.0226

> <Gold.Chemscore.Internal_Hbond.Weighted>
0.0000

> <Gold.Chemscore.DEClash.Weighted>
0.6544

> <Gold.Chemscore.DEInternal.Weighted>
1.8911

> <Gold.Chemscore.Rot.Weighted>
3.3682

> <Gold.Chemscore.Internal.Correction.Weighted>
   9.000000E+99

> <Gold.Protein.RotatedTorsions>
[ 6907 6896 6895 6894 ] final  -51.97 input  -60.11 | X-H torsion
[ 7974 7965 7964 7962 ] final  -41.22 input  175.53 | X-H torsion
[ 8008 7997 7996 7995 ] final   27.43 input   59.86 | X-H torsion
[ 10167 10162 10161 10158 ] final   26.29 input  -65.29 | X-H torsion
[ 10718 10713 10712 10709 ] final  112.50 input   66.30 | X-H torsion
[ 10763 10752 10751 10750 ] final   97.09 input  -60.55 | X-H torsion
[ 11005 11000 10999 10996 ] final -105.96 input  -57.11 | X-H torsion

> <Gold.Protein.ActiveResidues>
 VAL166  LYS551  ARG553  GLY616  TRP617  ASP618  TYR619  PRO620  LYS621  CYS622 
 ASP623  PHE694  ASN695  SER759  ASP760  ASP761  ALA762  ILE779  LEU786  VAL792 
 PHE793  MET794  SER795  GLU796  ALA797  LYS798  CYS799  TRP800  GLU811  SER814 

> <Gold.Protein.RotatedAtoms>
  150.8562  134.7901  159.7046 H   0  0  0  0  0  0  0  0  0  0  0  0  # atno 6907 bound_to 6896
  152.4613  134.5175  159.9782 H   0  0  0  0  0  0  0  0  0  0  0  0  # atno 6908 bound_to 6896
  151.5287  133.3415  159.2950 H   0  0  0  0  0  0  0  0  0  0  0  0  # atno 6909 bound_to 6896
  146.0232  140.6824  142.9168 H   0  0  0  0  0  0  0  0  0  0  0  0  # atno 7974 bound_to 7965
  155.0428  140.3171  155.4718 H   0  0  0  0  0  0  0  0  0  0  0  0  # atno 8008 bound_to 7997
  156.2851  140.2160  156.5496 H   0  0  0  0  0  0  0  0  0  0  0  0  # atno 8009 bound_to 7997
  154.7275  140.0484  157.0684 H   0  0  0  0  0  0  0  0  0  0  0  0  # atno 8010 bound_to 7997
  140.5035  144.0276  150.6342 H   0  0  0  0  0  0  0  0  0  0  0  0  # atno 10167 bound_to 10162
  157.6389  131.0969  150.6905 H   0  0  0  0  0  0  0  0  0  0  0  0  # atno 10718 bound_to 10713
  153.2727  135.4195  155.1003 H   0  0  0  0  0  0  0  0  0  0  0  0  # atno 10763 bound_to 10752
  154.8462  135.3476  154.6222 H   0  0  0  0  0  0  0  0  0  0  0  0  # atno 10764 bound_to 10752
  153.6642  135.7047  153.5225 H   0  0  0  0  0  0  0  0  0  0  0  0  # atno 10765 bound_to 10752
  141.1028  133.8852  157.1797 H   0  0  0  0  0  0  0  0  0  0  0  0  # atno 11005 bound_to 11000
  144.6998  140.3602  143.7165 LP  0  0  0  0  0  0  0  0  0  0  0  0  # atno 17320 bound_to 7965
  145.7160  139.1697  143.2511 LP  0  0  0  0  0  0  0  0  0  0  0  0  # atno 17321 bound_to 7965
  140.3579  143.2925  152.0416 LP  0  0  0  0  0  0  0  0  0  0  0  0  # atno 17342 bound_to 10162
  139.4878  144.6325  151.7041 LP  0  0  0  0  0  0  0  0  0  0  0  0  # atno 17343 bound_to 10162
  156.7232  130.4687  149.5518 LP  0  0  0  0  0  0  0  0  0  0  0  0  # atno 17370 bound_to 10713
  156.1652  130.6400  151.0768 LP  0  0  0  0  0  0  0  0  0  0  0  0  # atno 17371 bound_to 10713
  139.9886  135.0073  156.9922 LP  0  0  0  0  0  0  0  0  0  0  0  0  # atno 17394 bound_to 11000
  140.4978  134.1127  155.7245 LP  0  0  0  0  0  0  0  0  0  0  0  0  # atno 17395 bound_to 11000

$$$$
