#       Name:                AV-unprocessed.smi:221
#       Creating user name   scv26
#       Creation time:       Thu Mar 26 20:14:26 2020


#       File generated by GOLD software.
#

@<TRIPOS>MOLECULE
AV-unprocessed.smi:221
    59    62     1
SMALL
NO_CHARGES


@<TRIPOS>ATOM
      1 ****        -3.3108   2.2937  -3.5365 N.am           1 S1                 0.0000
      2 ****        -3.3590   2.5578  -2.2287 C.2            1 S1                 0.0000
      3 ****        -4.2926   2.1795  -1.5227 O.2            1 S1                 0.0000
      4 ****        -2.1845   3.3644  -1.6435 C.3            1 S1                 0.0000
      5 ****        -2.3960   4.8823  -1.7919 C.3            1 S1                 0.0000
      6 ****        -3.0762   5.3149  -0.4925 C.3            1 S1                 0.0000
      7 ****        -4.3939   5.1284  -0.5828 F              1 S1                 0.0000
      8 ****        -2.4878   4.3613   0.5487 C.3            1 S1                 0.0000
      9 ****        -2.0483   3.1854  -0.1976 N.pl3          1 S1                 0.0000
     10 ****        -1.4888   2.1033   0.4127 C.ar           1 S1                 0.0000
     11 ****        -1.4438   2.0975   1.7719 N.ar           1 S1                 0.0000
     12 ****        -0.9114   1.0691   2.4364 C.ar           1 S1                 0.0000
     13 ****        -0.3683  -0.0454   1.9482 N.ar           1 S1                 0.0000
     14 ****        -0.4024  -0.0527   0.5860 C.ar           1 S1                 0.0000
     15 ****        -0.9381   0.9662  -0.2560 C.ar           1 S1                 0.0000
     16 ****        -0.7844   0.5863  -1.5863 N.2            1 S1                 0.0000
     17 ****        -0.2022  -0.5793  -1.5330 C.2            1 S1                 0.0000
     18 ****         0.0735  -1.0338  -0.2653 N.pl3          1 S1                 0.0000
     19 ****         0.7161  -2.2860   0.0940 C.3            1 S1                 0.0000
     20 ****         2.1709  -2.0929   0.5942 C.3            1 S1                 0.0000
     21 ****         3.0710  -1.4954  -0.5127 C.3            1 S1                 0.0000
     22 ****         4.3102  -1.0661   0.0116 O.3            1 S1                 0.0000
     23 ****         2.7918  -3.3795   1.2059 C.3            1 S1                 0.0000
     24 ****         2.1826  -3.8591   2.5150 C.3            1 S1                 0.0000
     25 ****         2.5613  -5.3434   2.5595 C.3            1 S1                 0.0000
     26 ****         3.0912  -5.6659   1.2760 O.3            1 S1                 0.0000
     27 ****         2.7311  -4.6474   0.3558 C.3            1 S1                 0.0000
     28 ****        -1.2611   3.0905  -2.1543 H              1 S1                 0.0000
     29 ****        -2.9139   6.3655  -0.2504 H              1 S1                 0.0000
     30 ****        -4.0559   1.7657  -3.9669 H              1 S1                 0.0000
     31 ****        -2.5311   2.6191  -4.0891 H              1 S1                 0.0000
     32 ****        -1.4247   5.3728  -1.8682 H              1 S1                 0.0000
     33 ****        -2.9668   5.1627  -2.6784 H              1 S1                 0.0000
     34 ****        -1.6231   4.8171   1.0329 H              1 S1                 0.0000
     35 ****        -3.2182   4.1105   1.3194 H              1 S1                 0.0000
     36 ****        -0.9213   1.1523   3.5132 H              1 S1                 0.0000
     37 ****         0.0511  -1.1378  -2.4225 H              1 S1                 0.0000
     38 ****         0.0940  -2.7609   0.8508 H              1 S1                 0.0000
     39 ****         0.6957  -2.9406  -0.7777 H              1 S1                 0.0000
     40 ****         2.1347  -1.3578   1.3996 H              1 S1                 0.0000
     41 ****         3.2454  -2.2214  -1.3069 H              1 S1                 0.0000
     42 ****         2.6046  -0.6262  -0.9753 H              1 S1                 0.0000
     43 ****         4.8327  -0.7182  -0.6950 H              1 S1                 0.0000
     44 ****         3.8443  -3.1873   1.4188 H              1 S1                 0.0000
     45 ****         2.5633  -3.3063   3.3744 H              1 S1                 0.0000
     46 ****         1.0979  -3.7635   2.5178 H              1 S1                 0.0000
     47 ****         3.3143  -5.5443   3.3220 H              1 S1                 0.0000
     48 ****         1.6900  -5.9631   2.7738 H              1 S1                 0.0000
     49 ****         1.7239  -4.8491  -0.0097 H              1 S1                 0.0000
     50 ****         3.4111  -4.6226  -0.4957 H              1 S1                 0.0000
     51 ****        -5.0447   1.6580  -1.9256 LP             1 S1                 0.0000
     52 ****        -4.2994   2.3935  -0.5459 LP             1 S1                 0.0000
     53 ****        -1.8146   2.8744   2.2808 LP             1 S1                 0.0000
     54 ****         0.0143  -0.7803   2.5082 LP             1 S1                 0.0000
     55 ****        -1.0595   1.0947  -2.4022 LP             1 S1                 0.0000
     56 ****         4.7844  -1.8398   0.4318 LP             1 S1                 0.0000
     57 ****         4.1573  -0.3559   0.6988 LP             1 S1                 0.0000
     58 ****         2.7174  -6.5414   0.9697 LP             1 S1                 0.0000
     59 ****         4.0876  -5.7300   1.3316 LP             1 S1                 0.0000
@<TRIPOS>BOND
    1    1    2 am    
    2    1   30 1     
    3    1   31 1     
    4    2    3 2     
    5    2    4 1     
    6    4   28 1     
    7    4    9 1     
    8    4    5 1     
    9    5    6 1     
   10    5   32 1     
   11    5   33 1     
   12    6   29 1     
   13    6    7 1     
   14    6    8 1     
   15    8    9 1     
   16    8   34 1     
   17    8   35 1     
   18    9   10 1     
   19   10   15 ar    
   20   10   11 ar    
   21   11   12 ar    
   22   12   13 ar    
   23   12   36 1     
   24   13   14 ar    
   25   14   18 1     
   26   14   15 ar    
   27   15   16 1     
   28   16   17 2     
   29   17   18 1     
   30   17   37 1     
   31   18   19 1     
   32   19   20 1     
   33   19   38 1     
   34   19   39 1     
   35   20   21 1     
   36   20   23 1     
   37   20   40 1     
   38   21   22 1     
   39   21   41 1     
   40   21   42 1     
   41   22   43 1     
   42   23   27 1     
   43   23   24 1     
   44   23   44 1     
   45   24   25 1     
   46   24   45 1     
   47   24   46 1     
   48   25   26 1     
   49   25   47 1     
   50   25   48 1     
   51   26   27 1     
   52   27   49 1     
   53   27   50 1     
   54    3   51 1     
   55    3   52 1     
   56   11   53 1     
   57   13   54 1     
   58   16   55 1     
   59   22   56 1     
   60   22   57 1     
   61   26   58 1     
   62   26   59 1     
@<TRIPOS>SUBSTRUCTURE
      1 S1             1
@<TRIPOS>SET
LONE_PAIRS      STATIC     ATOMS    <user>   **** ""
9 51 52 53 54 55 56 57 58 59
DONOR_HYDROGENS      STATIC     ATOMS    <user>   **** ""
3 30 31 43
ATOM$BLUE        STATIC     ATOMS    COLORGROUP SYSTEM
9 51 52 53 54 55 56 57 58 59
ATOM$RED        STATIC     ATOMS    COLORGROUP SYSTEM
3 30 31 43
