#       Name:                AV-unprocessed.smi:2980
#       Creating user name   scv26
#       Creation time:       Fri Mar 27 16:29:07 2020


#       File generated by GOLD software.
#

@<TRIPOS>MOLECULE
AV-unprocessed.smi:2980
    43    44     1
SMALL
NO_CHARGES


@<TRIPOS>ATOM
      1 ****        -4.9580   1.6897   0.3988 C.3            1 S1                 0.0000
      2 ****        -3.4370   1.7567   0.2452 C.3            1 S1                 0.0000
      3 ****        -2.9060   0.4471   0.3563 O.3            1 S1                 0.0000
      4 ****        -1.4938   0.4188   0.2426 C.3            1 S1                 0.0000
      5 ****        -1.0166  -1.0316   0.3723 C.3            1 S1                 0.0000
      6 ****         0.4348  -1.1310   0.3328 N.pl3          1 S1                 0.0000
      7 ****         1.2583  -1.2511  -0.7427 C.2            1 S1                 0.0000
      8 ****         0.7650  -1.2979  -2.1630 C.3            1 S1                 0.0000
      9 ****         1.3698  -0.2067  -3.0655 C.3            1 S1                 0.0000
     10 ****         1.0182   1.2243  -2.6327 C.3            1 S1                 0.0000
     11 ****         1.6357   2.1509  -3.4990 O.3            1 S1                 0.0000
     12 ****         2.5570  -1.3695  -0.4609 N.2            1 S1                 0.0000
     13 ****         2.5849  -1.2751   0.9157 C.ar           1 S1                 0.0000
     14 ****         3.6729  -1.3093   1.8170 C.ar           1 S1                 0.0000
     15 ****         3.4539  -1.1892   3.2050 C.ar           1 S1                 0.0000
     16 ****         2.1466  -1.0354   3.7101 C.ar           1 S1                 0.0000
     17 ****         1.0486  -1.0021   2.8291 C.ar           1 S1                 0.0000
     18 ****         1.2728  -1.1211   1.4440 C.ar           1 S1                 0.0000
     19 ****        -5.4019   2.6819   0.3167 H              1 S1                 0.0000
     20 ****        -5.2351   1.2784   1.3698 H              1 S1                 0.0000
     21 ****        -5.4020   1.0592  -0.3718 H              1 S1                 0.0000
     22 ****        -3.1790   2.1857  -0.7242 H              1 S1                 0.0000
     23 ****        -3.0139   2.4019   1.0166 H              1 S1                 0.0000
     24 ****        -1.1905   0.8325  -0.7184 H              1 S1                 0.0000
     25 ****        -1.0444   1.0330   1.0246 H              1 S1                 0.0000
     26 ****        -1.3638  -1.4467   1.3189 H              1 S1                 0.0000
     27 ****        -1.4524  -1.6619  -0.4021 H              1 S1                 0.0000
     28 ****         1.0090  -2.2796  -2.5701 H              1 S1                 0.0000
     29 ****        -0.3194  -1.2187  -2.2018 H              1 S1                 0.0000
     30 ****         2.4541  -0.3230  -3.0974 H              1 S1                 0.0000
     31 ****         1.0204  -0.3642  -4.0867 H              1 S1                 0.0000
     32 ****        -0.0596   1.3811  -2.6664 H              1 S1                 0.0000
     33 ****         1.3509   1.4202  -1.6131 H              1 S1                 0.0000
     34 ****         1.4148   3.0239  -3.2126 H              1 S1                 0.0000
     35 ****         4.6777  -1.4266   1.4389 H              1 S1                 0.0000
     36 ****         4.2926  -1.2148   3.8851 H              1 S1                 0.0000
     37 ****         1.9873  -0.9437   4.7746 H              1 S1                 0.0000
     38 ****         0.0467  -0.8848   3.2143 H              1 S1                 0.0000
     39 ****        -3.2969  -0.1194  -0.3692 LP             1 S1                 0.0000
     40 ****        -3.1629   0.0720   1.2470 LP             1 S1                 0.0000
     41 ****         1.3077   2.0094  -4.4330 LP             1 S1                 0.0000
     42 ****         2.6278   2.0282  -3.4720 LP             1 S1                 0.0000
     43 ****         3.3223  -1.4957  -1.0921 LP             1 S1                 0.0000
@<TRIPOS>BOND
    1    1    2 1     
    2    1   19 1     
    3    1   20 1     
    4    1   21 1     
    5    2    3 1     
    6    2   22 1     
    7    2   23 1     
    8    3    4 1     
    9    4    5 1     
   10    4   24 1     
   11    4   25 1     
   12    5    6 1     
   13    5   26 1     
   14    5   27 1     
   15    6   18 1     
   16    6    7 1     
   17    7    8 1     
   18    7   12 2     
   19    8    9 1     
   20    8   28 1     
   21    8   29 1     
   22    9   10 1     
   23    9   30 1     
   24    9   31 1     
   25   10   11 1     
   26   10   32 1     
   27   10   33 1     
   28   11   34 1     
   29   12   13 1     
   30   13   18 ar    
   31   13   14 ar    
   32   14   15 ar    
   33   14   35 1     
   34   15   16 ar    
   35   15   36 1     
   36   16   17 ar    
   37   16   37 1     
   38   17   18 ar    
   39   17   38 1     
   40    3   39 1     
   41    3   40 1     
   42   11   41 1     
   43   11   42 1     
   44   12   43 1     
@<TRIPOS>SUBSTRUCTURE
      1 S1             1
@<TRIPOS>SET
LONE_PAIRS      STATIC     ATOMS    <user>   **** ""
5 39 40 41 42 43
DONOR_HYDROGENS      STATIC     ATOMS    <user>   **** ""
1 34
ATOM$BLUE        STATIC     ATOMS    COLORGROUP SYSTEM
5 39 40 41 42 43
ATOM$RED        STATIC     ATOMS    COLORGROUP SYSTEM
1 34
