AV-unprocessed.smi:1471|AV-procd|sdf|5963|dock1
  -GOLD-   22720 6 53D 1   1.00000     0.00000
 Structure written by MMmdl.
 42 43  0  0  0  0  0  0  0  0  1 V2000
  155.3977  133.2054  159.8721 C   0  0  0  0  0  0  0  0  0  0  0  0
  154.9180  133.3030  161.2954 C   0  0  0  0  0  0  0  0  0  0  0  0
  154.8973  134.4837  161.8210 N   0  0  0  0  0  0  0  0  0  0  0  0
  154.4801  134.6841  163.1216 N   0  0  0  0  0  0  0  0  0  0  0  0
  154.5265  136.0859  163.5526 C   0  0  0  0  0  0  0  0  0  0  0  0
  154.8016  137.0466  162.3740 C   0  0  1  0  0  0  0  0  0  0  0  0
  153.7445  136.9394  161.4414 O   0  0  0  0  0  0  0  0  0  0  0  0
  154.8609  138.5125  162.8277 C   0  0  0  0  0  0  0  0  0  0  0  0
  154.5568  139.3465  161.7190 O   0  0  0  0  0  0  0  0  0  0  0  0
  154.9594  140.6980  161.8866 C   0  0  0  0  0  0  0  0  0  0  0  0
  154.0341  141.6862  161.1957 C   0  0  0  0  0  0  0  0  0  0  0  0
  153.8351  141.6102  159.8006 C   0  0  0  0  0  0  0  0  0  0  0  0
  152.9823  142.5266  159.1551 C   0  0  0  0  0  0  0  0  0  0  0  0
  152.3281  143.5258  159.9009 C   0  0  0  0  0  0  0  0  0  0  0  0
  152.5287  143.6094  161.2922 C   0  0  0  0  0  0  0  0  0  0  0  0
  153.3815  142.6941  161.9397 C   0  0  0  0  0  0  0  0  0  0  0  0
  153.5687  142.7877  163.2781 F   0  0  0  0  0  0  0  0  0  0  0  0
  154.0664  133.6968  163.9664 C   0  0  0  0  0  0  0  0  0  0  0  0
  153.7139  133.9203  165.1255 O   0  0  0  0  0  0  0  0  0  0  0  0
  154.0874  132.3622  163.3631 C   0  0  0  0  0  0  0  0  0  0  0  0
  153.6615  131.2979  164.2136 C   0  0  0  0  0  0  0  0  0  0  0  0
  153.3227  130.4455  164.9200 N   0  0  0  0  0  0  0  0  0  0  0  0
  154.4872  132.1528  162.0839 C   0  0  0  0  0  0  0  0  0  0  0  0
  154.5275  130.7870  161.4122 C   0  0  0  0  0  0  0  0  0  0  0  0
  156.2050  132.4780  159.7829 H   0  0  0  0  0  0  0  0  0  0  0  0
  155.7768  134.1603  159.5040 H   0  0  0  0  0  0  0  0  0  0  0  0
  154.5871  132.8946  159.2127 H   0  0  0  0  0  0  0  0  0  0  0  0
  153.6077  136.3679  164.0711 H   0  0  0  0  0  0  0  0  0  0  0  0
  155.3088  136.1882  164.3070 H   0  0  0  0  0  0  0  0  0  0  0  0
  155.7356  136.7965  161.8693 H   0  0  0  0  0  0  0  0  0  0  0  0
  153.2923  136.1237  161.5926 H   0  0  0  0  0  0  0  0  0  0  0  0
  154.1295  138.6944  163.6170 H   0  0  0  0  0  0  0  0  0  0  0  0
  155.8470  138.7395  163.2361 H   0  0  0  0  0  0  0  0  0  0  0  0
  154.9500  140.9205  162.9537 H   0  0  0  0  0  0  0  0  0  0  0  0
  155.9901  140.8286  161.5532 H   0  0  0  0  0  0  0  0  0  0  0  0
  154.3331  140.8472  159.2207 H   0  0  0  0  0  0  0  0  0  0  0  0
  152.8310  142.4632  158.0874 H   0  0  0  0  0  0  0  0  0  0  0  0
  151.6747  144.2290  159.4058 H   0  0  0  0  0  0  0  0  0  0  0  0
  152.0291  144.3777  161.8638 H   0  0  0  0  0  0  0  0  0  0  0  0
  154.0730  130.0121  162.0286 H   0  0  0  0  0  0  0  0  0  0  0  0
  155.5583  130.4916  161.2143 H   0  0  0  0  0  0  0  0  0  0  0  0
  153.9864  130.8046  160.4657 H   0  0  0  0  0  0  0  0  0  0  0  0
  1  2  1  0  0  0  0
  1 25  1  0  0  0  0
  1 26  1  0  0  0  0
  1 27  1  0  0  0  0
  2 23  1  0  0  0  0
  2  3  2  0  0  0  0
  3  4  1  0  0  0  0
  4  5  1  0  0  0  0
  4 18  1  0  0  0  0
  5  6  1  0  0  0  0
  5 28  1  0  0  0  0
  5 29  1  0  0  0  0
  6  7  1  0  0  0  0
  6  8  1  0  0  0  0
  6 30  1  0  0  0  0
  7 31  1  0  0  0  0
  8  9  1  0  0  0  0
  8 32  1  0  0  0  0
  8 33  1  0  0  0  0
  9 10  1  0  0  0  0
 10 11  1  0  0  0  0
 10 34  1  0  0  0  0
 10 35  1  0  0  0  0
 11 16  1  0  0  0  0
 11 12  2  0  0  0  0
 12 13  1  0  0  0  0
 12 36  1  0  0  0  0
 13 14  2  0  0  0  0
 13 37  1  0  0  0  0
 14 15  1  0  0  0  0
 14 38  1  0  0  0  0
 15 16  2  0  0  0  0
 15 39  1  0  0  0  0
 16 17  1  0  0  0  0
 18 19  2  0  0  0  0
 18 20  1  0  0  0  0
 20 21  1  0  0  0  0
 20 23  2  0  0  0  0
 21 22  3  0  0  0  0
 23 24  1  0  0  0  0
 24 40  1  0  0  0  0
 24 41  1  0  0  0  0
 24 42  1  0  0  0  0
M  END
> <s_m_source_file>
AV-unprocessed.smi

> <i_m_source_file_index>
1471

> <i_lp_mmshare_version>
43012

> <i_f3d_flags>
0

> <s_epik_input>
TiNDYyhjMVtDSDNdKWMoPU8pbihuYzFbQ0gzXSlbQ0gyXVtDQEhdKFtPSF0pW0NIMl1PW0NIMl1jMltjSF1bY0hdW2NIXVtjSF1jMkY=

> <s_epik_cmdline>
J2VwaWtfcHl0aG9uJywgJy1waCcsICc3LjAnLCAnLXRuJywgJzgnLCAnLW1hJywgJzIwMCcsICctbWV0YWxfYmluZGluZycsICctaW1hZScsICc8aW5maWxlLm1hZT4nLCAnLW9tYWUnLCAnPG91dGZpbGUubWFlPic=

> <r_lp_tautomer_probability>
1

> <r_epik_Ionization_Penalty>
6.13319e-08

> <r_epik_Ionization_Penalty_Charging>
2.19172e-10

> <r_epik_Ionization_Penalty_Neutral>
6.11128e-08

> <r_epik_State_Penalty>
-0

> <r_epik_Charging_Adjusted_Penalty>
2.19172e-10

> <i_epik_Tot_Q>
0

> <i_epik_Tot_abs_Q>
0

> <r_epik_Metal_State_Penalty>
-0

> <b_epik_Metal_Only>
0

> <s_lp_Force_Field>
OPLS_2005

> <r_lp_Energy>
30.1465

> <b_lp_Chiralities_Consistent>
1

> <s_lp_Variant>
AV-unprocessed.smi:1471-2

> <Gold.Version>
5.8.1

> <Gold.Id.Protein>
6NUR|6NUR_protein|mol2

> <Gold.PLP.Fitness>
45.9595

> <Gold.PLP.PLP>
-47.0448

> <Gold.PLP.part.hbond>
0.0000

> <Gold.PLP.part.metal>
0.0000

> <Gold.PLP.part.buried>
-4.4956

> <Gold.PLP.part.nonpolar>
-42.1103

> <Gold.PLP.part.repulsive>
0.2476

> <Gold.PLP.ligand.clash>
0.0000

> <Gold.PLP.ligand.torsion>
0.6301

> <Gold.PLP.Chemscore.Hbond>
0.0000

> <Gold.PLP.Chemscore.CHOScore>
0.0000

> <Gold.PLP.Chemscore.Metal>
0.0000

> <Gold.PLP.Chemscore.Internal.Correction>
0.1749

> <Gold.Rescore>
     Score         DG    S(hbond)    S(metal)    S(lipo)     H(rot)  DE(clash)    DE(int)     intcor
     11.74     -12.18       0.00        0.00     115.20       2.65       0.04       0.40       ----

> <Gold.Chemscore.Fitness>
11.7358

> <Gold.Chemscore.DG>
-12.1820

> <Gold.Chemscore.ZeroCoef>
-5.4800

> <Gold.Chemscore.Hbond>
0.0000

> <Gold.Chemscore.Metal>
0.0000

> <Gold.Chemscore.Lipo>
115.1987

> <Gold.Chemscore.Internal_Hbond>
0.0000

> <Gold.Chemscore.DEClash>
0.0423

> <Gold.Chemscore.DEInternal>
0.4039

> <Gold.Chemscore.Rot>
2.6470

> <Gold.Chemscore.Internal.Correction>
   9.000000E+99

> <Gold.Chemscore.Hbond.Weighted>
-0.0000

> <Gold.Chemscore.Metal.Weighted>
-0.0000

> <Gold.Chemscore.Lipo.Weighted>
-13.4782

> <Gold.Chemscore.Internal_Hbond.Weighted>
0.0000

> <Gold.Chemscore.DEClash.Weighted>
0.0423

> <Gold.Chemscore.DEInternal.Weighted>
0.4039

> <Gold.Chemscore.Rot.Weighted>
6.7762

> <Gold.Chemscore.Internal.Correction.Weighted>
   9.000000E+99

> <Gold.Protein.RotatedTorsions>
[ 6907 6896 6895 6894 ] final  -42.44 input  -60.11 | X-H torsion
[ 7974 7965 7964 7962 ] final  129.83 input  175.53 | X-H torsion
[ 8008 7997 7996 7995 ] final   26.61 input   59.86 | X-H torsion
[ 10167 10162 10161 10158 ] final  -90.26 input  -65.29 | X-H torsion
[ 10718 10713 10712 10709 ] final  -86.75 input   66.30 | X-H torsion
[ 10763 10752 10751 10750 ] final -119.48 input  -60.55 | X-H torsion
[ 11005 11000 10999 10996 ] final  121.49 input  -57.11 | X-H torsion

> <Gold.Protein.ActiveResidues>
 VAL166  LYS551  ARG553  GLY616  TRP617  ASP618  TYR619  PRO620  LYS621  CYS622 
 ASP623  PHE694  ASN695  SER759  ASP760  ASP761  ALA762  ILE779  LEU786  VAL792 
 PHE793  MET794  SER795  GLU796  ALA797  LYS798  CYS799  TRP800  GLU811  SER814 

> <Gold.Protein.RotatedAtoms>
  150.9552  134.8947  159.7696 H   0  0  0  0  0  0  0  0  0  0  0  0  # atno 6907 bound_to 6896
  152.5135  134.3750  159.9341 H   0  0  0  0  0  0  0  0  0  0  0  0  # atno 6908 bound_to 6896
  151.3764  133.3796  159.2740 H   0  0  0  0  0  0  0  0  0  0  0  0  # atno 6909 bound_to 6896
  145.0244  139.4102  143.5181 H   0  0  0  0  0  0  0  0  0  0  0  0  # atno 7974 bound_to 7965
  155.0300  140.3157  155.4762 H   0  0  0  0  0  0  0  0  0  0  0  0  # atno 8008 bound_to 7997
  156.2876  140.2182  156.5364 H   0  0  0  0  0  0  0  0  0  0  0  0  # atno 8009 bound_to 7997
  154.7378  140.0476  157.0772 H   0  0  0  0  0  0  0  0  0  0  0  0  # atno 8010 bound_to 7997
  140.3566  143.2863  151.9663 H   0  0  0  0  0  0  0  0  0  0  0  0  # atno 10167 bound_to 10162
  155.9988  130.4776  150.4762 H   0  0  0  0  0  0  0  0  0  0  0  0  # atno 10718 bound_to 10713
  154.8618  135.4237  154.2305 H   0  0  0  0  0  0  0  0  0  0  0  0  # atno 10763 bound_to 10752
  153.3291  135.6987  153.6969 H   0  0  0  0  0  0  0  0  0  0  0  0  # atno 10764 bound_to 10752
  153.5993  135.3540  155.2913 H   0  0  0  0  0  0  0  0  0  0  0  0  # atno 10765 bound_to 10752
  139.9228  134.9639  156.7966 H   0  0  0  0  0  0  0  0  0  0  0  0  # atno 11005 bound_to 11000
  146.3490  139.9760  142.8701 LP  0  0  0  0  0  0  0  0  0  0  0  0  # atno 17320 bound_to 7965
  145.1852  140.9786  143.4243 LP  0  0  0  0  0  0  0  0  0  0  0  0  # atno 17321 bound_to 7965
  139.4819  144.6029  151.7573 LP  0  0  0  0  0  0  0  0  0  0  0  0  # atno 17342 bound_to 10162
  140.5167  144.0942  150.6010 LP  0  0  0  0  0  0  0  0  0  0  0  0  # atno 17343 bound_to 10162
  157.2772  131.0599  151.2221 LP  0  0  0  0  0  0  0  0  0  0  0  0  # atno 17370 bound_to 10713
  157.3280  130.6971  149.6308 LP  0  0  0  0  0  0  0  0  0  0  0  0  # atno 17371 bound_to 10713
  140.6424  133.9806  155.7714 LP  0  0  0  0  0  0  0  0  0  0  0  0  # atno 17394 bound_to 11000
  141.0763  134.0130  157.3453 LP  0  0  0  0  0  0  0  0  0  0  0  0  # atno 17395 bound_to 11000

$$$$
