#       Name:                AV-unprocessed.smi:1660
#       Creating user name   scv26
#       Creation time:       Fri Mar 27 07:35:57 2020


#       File generated by GOLD software.
#

@<TRIPOS>MOLECULE
AV-unprocessed.smi:1660
    51    52     1
SMALL
NO_CHARGES


@<TRIPOS>ATOM
      1 ****        -8.3847   1.9454   1.4405 C.3            1 S1                 0.0000
      2 ****        -7.7655   0.6864   1.6808 O.3            1 S1                 0.0000
      3 ****        -6.4064   0.5738   1.4707 C.ar           1 S1                 0.0000
      4 ****        -5.7882  -0.6692   1.7108 C.ar           1 S1                 0.0000
      5 ****        -4.4017  -0.7932   1.5000 C.ar           1 S1                 0.0000
      6 ****        -3.6752   0.3332   1.0449 C.ar           1 S1                 0.0000
      7 ****        -2.2730   0.3430   0.8105 N.am           1 S1                 0.0000
      8 ****        -1.4517  -0.6990   0.5939 C.2            1 S1                 0.0000
      9 ****        -1.7967  -1.8790   0.5338 O.2            1 S1                 0.0000
     10 ****        -0.1856  -0.2940   0.4278 N.am           1 S1                 0.0000
     11 ****         0.9322  -1.1915   0.1672 C.3            1 S1                 0.0000
     12 ****         2.2288  -0.3946  -0.0661 C.3            1 S1                 0.0000
     13 ****         3.4538  -1.2778  -0.3646 C.2            1 S1                 0.0000
     14 ****         3.3227  -2.5029  -0.3575 O.2            1 S1                 0.0000
     15 ****         4.6415  -0.6834  -0.6312 N.am           1 S1                 0.0000
     16 ****         5.8439  -1.4292  -1.0129 C.3            1 S1                 0.0000
     17 ****         6.1934  -1.0666  -2.4676 C.3            1 S1                 0.0000
     18 ****         6.3837   0.3424  -2.5788 O.3            1 S1                 0.0000
     19 ****         5.2423   1.0975  -2.1784 C.3            1 S1                 0.0000
     20 ****         4.8853   0.7596  -0.7198 C.3            1 S1                 0.0000
     21 ****        -4.3862   1.5350   0.8472 C.ar           1 S1                 0.0000
     22 ****        -5.7150   1.6608   1.0475 N.ar           1 S1                 0.0000
     23 ****        -9.4508   1.8687   1.6530 H              1 S1                 0.0000
     24 ****        -8.2760   2.2511   0.3988 H              1 S1                 0.0000
     25 ****        -7.9740   2.7222   2.0871 H              1 S1                 0.0000
     26 ****        -6.3671  -1.5133   2.0558 H              1 S1                 0.0000
     27 ****        -3.9279  -1.7404   1.7042 H              1 S1                 0.0000
     28 ****        -1.8519   1.2588   0.7521 H              1 S1                 0.0000
     29 ****         0.0179   0.6930   0.4860 H              1 S1                 0.0000
     30 ****         1.0482  -1.8677   1.0163 H              1 S1                 0.0000
     31 ****         0.7027  -1.8036  -0.7072 H              1 S1                 0.0000
     32 ****         2.0783   0.2880  -0.9036 H              1 S1                 0.0000
     33 ****         2.4420   0.2119   0.8151 H              1 S1                 0.0000
     34 ****         6.6661  -1.1586  -0.3489 H              1 S1                 0.0000
     35 ****         5.7240  -2.5095  -0.9202 H              1 S1                 0.0000
     36 ****         7.1091  -1.5726  -2.7736 H              1 S1                 0.0000
     37 ****         5.4049  -1.3912  -3.1488 H              1 S1                 0.0000
     38 ****         5.4695   2.1591  -2.2759 H              1 S1                 0.0000
     39 ****         4.4029   0.8868  -2.8432 H              1 S1                 0.0000
     40 ****         4.0454   1.3711  -0.3946 H              1 S1                 0.0000
     41 ****         5.7148   1.0243  -0.0625 H              1 S1                 0.0000
     42 ****        -3.8745   2.4257   0.5130 H              1 S1                 0.0000
     43 ****        -8.2131   0.0183   1.0863 LP             1 S1                 0.0000
     44 ****        -7.9377   0.4498   2.6370 LP             1 S1                 0.0000
     45 ****        -2.7589  -2.1252   0.6505 LP             1 S1                 0.0000
     46 ****        -1.1149  -2.5915   0.3682 LP             1 S1                 0.0000
     47 ****         2.4305  -2.9092  -0.1599 LP             1 S1                 0.0000
     48 ****         4.1084  -3.0910  -0.5494 LP             1 S1                 0.0000
     49 ****         6.5904   0.5607  -3.5326 LP             1 S1                 0.0000
     50 ****         7.1568   0.6051  -2.0016 LP             1 S1                 0.0000
     51 ****        -6.1776   2.5329   0.8879 LP             1 S1                 0.0000
@<TRIPOS>BOND
    1    1    2 1     
    2    1   23 1     
    3    1   24 1     
    4    1   25 1     
    5    2    3 1     
    6    3   22 ar    
    7    3    4 ar    
    8    4    5 ar    
    9    4   26 1     
   10    5    6 ar    
   11    5   27 1     
   12    6    7 1     
   13    6   21 ar    
   14    7    8 am    
   15    7   28 1     
   16    8    9 2     
   17    8   10 am    
   18   10   11 1     
   19   10   29 1     
   20   11   12 1     
   21   11   30 1     
   22   11   31 1     
   23   12   13 1     
   24   12   32 1     
   25   12   33 1     
   26   13   14 2     
   27   13   15 am    
   28   15   20 1     
   29   15   16 1     
   30   16   17 1     
   31   16   34 1     
   32   16   35 1     
   33   17   18 1     
   34   17   36 1     
   35   17   37 1     
   36   18   19 1     
   37   19   20 1     
   38   19   38 1     
   39   19   39 1     
   40   20   40 1     
   41   20   41 1     
   42   21   22 ar    
   43   21   42 1     
   44    2   43 1     
   45    2   44 1     
   46    9   45 1     
   47    9   46 1     
   48   14   47 1     
   49   14   48 1     
   50   18   49 1     
   51   18   50 1     
   52   22   51 1     
@<TRIPOS>SUBSTRUCTURE
      1 S1             1
@<TRIPOS>SET
LONE_PAIRS      STATIC     ATOMS    <user>   **** ""
9 43 44 45 46 47 48 49 50 51
DONOR_HYDROGENS      STATIC     ATOMS    <user>   **** ""
2 28 29
ATOM$BLUE        STATIC     ATOMS    COLORGROUP SYSTEM
9 43 44 45 46 47 48 49 50 51
ATOM$RED        STATIC     ATOMS    COLORGROUP SYSTEM
2 28 29
