#       Name:                AV-unprocessed.smi:1721
#       Creating user name   scv26
#       Creation time:       Fri Mar 27 08:15:00 2020


#       File generated by GOLD software.
#

@<TRIPOS>MOLECULE
AV-unprocessed.smi:1721
    49    51     1
SMALL
NO_CHARGES


@<TRIPOS>ATOM
      1 ****        -2.1752   5.5684  -0.6059 C.3            1 S1                 0.0000
      2 ****        -1.4177   4.3634  -0.6287 O.3            1 S1                 0.0000
      3 ****        -0.0387   4.4496  -0.5912 C.ar           1 S1                 0.0000
      4 ****         0.5281   5.6812  -0.5407 N.ar           1 S1                 0.0000
      5 ****         1.8731   5.7689  -0.4990 C.ar           1 S1                 0.0000
      6 ****         2.7176   4.6442  -0.4992 C.ar           1 S1                 0.0000
      7 ****         2.1325   3.3653  -0.5506 C.ar           1 S1                 0.0000
      8 ****         0.7210   3.2558  -0.6073 C.ar           1 S1                 0.0000
      9 ****         0.0148   2.0202  -0.6498 N.am           1 S1                 0.0000
     10 ****         0.4721   0.7851  -0.9170 C.2            1 S1                 0.0000
     11 ****         1.6352   0.4927  -1.1917 O.2            1 S1                 0.0000
     12 ****        -0.5147  -0.1200  -0.8516 N.am           1 S1                 0.0000
     13 ****        -0.3459  -1.5517  -1.0884 C.3            1 S1                 0.0000
     14 ****        -1.6614  -2.2946  -1.2827 C.3            1 S1                 0.0000
     15 ****        -1.2696  -3.7560  -1.0395 C.3            1 S1                 0.0000
     16 ****        -0.0962  -3.7404  -0.1314 N.4            1 S1                 1.0000
     17 ****        -0.2840  -4.5314   1.1146 C.3            1 S1                 0.0000
     18 ****         0.7744  -4.1618   2.1646 C.3            1 S1                 0.0000
     19 ****         0.6694  -2.6807   2.5751 C.3            1 S1                 0.0000
     20 ****        -0.0037  -1.8153   1.4929 C.3            1 S1                 0.0000
     21 ****         0.3221  -2.3232   0.0664 C.3            1 S1                 0.0000
     22 ****        -3.2375   5.3275  -0.6417 H              1 S1                 0.0000
     23 ****        -1.9499   6.1982  -1.4677 H              1 S1                 0.0000
     24 ****        -1.9961   6.1351   0.3089 H              1 S1                 0.0000
     25 ****         2.2881   6.7651  -0.4588 H              1 S1                 0.0000
     26 ****         3.7904   4.7596  -0.4565 H              1 S1                 0.0000
     27 ****         2.7805   2.5039  -0.5328 H              1 S1                 0.0000
     28 ****        -0.9804   2.0976  -0.4973 H              1 S1                 0.0000
     29 ****        -1.4442   0.2025  -0.6248 H              1 S1                 0.0000
     30 ****         0.2495  -1.6914  -1.9935 H              1 S1                 0.0000
     31 ****        -2.3901  -1.9775  -0.5350 H              1 S1                 0.0000
     32 ****        -2.0991  -2.1341  -2.2685 H              1 S1                 0.0000
     33 ****        -2.1073  -4.3375  -0.6519 H              1 S1                 0.0000
     34 ****        -0.9590  -4.2198  -1.9763 H              1 S1                 0.0000
     35 ****        -1.2776  -4.3520   1.5293 H              1 S1                 0.0000
     36 ****        -0.2301  -5.5932   0.8725 H              1 S1                 0.0000
     37 ****         0.6818  -4.7997   3.0442 H              1 S1                 0.0000
     38 ****         1.7650  -4.3564   1.7509 H              1 S1                 0.0000
     39 ****         0.1046  -2.5872   3.5034 H              1 S1                 0.0000
     40 ****         1.6688  -2.3000   2.7895 H              1 S1                 0.0000
     41 ****        -1.0845  -1.8268   1.6417 H              1 S1                 0.0000
     42 ****         0.3087  -0.7792   1.6252 H              1 S1                 0.0000
     43 ****         1.4048  -2.2727  -0.0592 H              1 S1                 0.0000
     44 ****         0.6585  -4.1796  -0.6391 H              1 S1                 0.0000
     45 ****        -1.6602   3.8782  -1.4689 LP             1 S1                 0.0000
     46 ****        -1.7011   3.8217   0.1626 LP             1 S1                 0.0000
     47 ****        -0.0385   6.5051  -0.5346 LP             1 S1                 0.0000
     48 ****         2.3345   1.2065  -1.2304 LP             1 S1                 0.0000
     49 ****         1.8814  -0.4589  -1.3763 LP             1 S1                 0.0000
@<TRIPOS>BOND
    1    1    2 1     
    2    1   22 1     
    3    1   23 1     
    4    1   24 1     
    5    2    3 1     
    6    3    8 ar    
    7    3    4 ar    
    8    4    5 ar    
    9    5    6 ar    
   10    5   25 1     
   11    6    7 ar    
   12    6   26 1     
   13    7    8 ar    
   14    7   27 1     
   15    8    9 1     
   16    9   10 am    
   17    9   28 1     
   18   10   11 2     
   19   10   12 am    
   20   12   13 1     
   21   12   29 1     
   22   13   21 1     
   23   13   14 1     
   24   13   30 1     
   25   14   15 1     
   26   14   31 1     
   27   14   32 1     
   28   15   16 1     
   29   15   33 1     
   30   15   34 1     
   31   16   21 1     
   32   16   17 1     
   33   16   44 1     
   34   17   18 1     
   35   17   35 1     
   36   17   36 1     
   37   18   19 1     
   38   18   37 1     
   39   18   38 1     
   40   19   20 1     
   41   19   39 1     
   42   19   40 1     
   43   20   21 1     
   44   20   41 1     
   45   20   42 1     
   46   21   43 1     
   47    2   45 1     
   48    2   46 1     
   49    4   47 1     
   50   11   48 1     
   51   11   49 1     
@<TRIPOS>SUBSTRUCTURE
      1 S1             1
@<TRIPOS>SET
LONE_PAIRS      STATIC     ATOMS    <user>   **** ""
5 45 46 47 48 49
DONOR_HYDROGENS      STATIC     ATOMS    <user>   **** ""
3 28 29 44
ATOM$BLUE        STATIC     ATOMS    COLORGROUP SYSTEM
5 45 46 47 48 49
ATOM$RED        STATIC     ATOMS    COLORGROUP SYSTEM
3 28 29 44
