AV-unprocessed.smi:1269|AV-procd|sdf|5328|dock4
  -GOLD-   22720 4453D 1   1.00000     0.00000
 Structure written by MMmdl.
 43 44  0  0  0  0  0  0  0  0  1 V2000
  143.1723  132.4380  148.5542 C   0  0  0  0  0  0  0  0  0  0  0  0
  143.6531  131.7864  149.7249 O   0  0  0  0  0  0  0  0  0  0  0  0
  144.6525  132.4000  150.4522 C   0  0  0  0  0  0  0  0  0  0  0  0
  145.1068  131.7780  151.6318 C   0  0  0  0  0  0  0  0  0  0  0  0
  146.1266  132.3998  152.3767 C   0  0  0  0  0  0  0  0  0  0  0  0
  146.6688  133.6175  151.9192 C   0  0  0  0  0  0  0  0  0  0  0  0
  147.6850  134.2294  152.7020 N   0  0  0  0  0  0  0  0  0  0  0  0
  148.0093  133.9965  153.9855 C   0  0  0  0  0  0  0  0  0  0  0  0
  147.4372  133.2031  154.7323 O   0  0  0  0  0  0  0  0  0  0  0  0
  149.0385  134.7654  154.3707 N   0  0  0  0  0  0  0  0  0  0  0  0
  149.6453  134.7698  155.7003 C   0  0  1  0  0  0  0  0  0  0  0  0
  149.7950  133.3079  156.1497 C   0  0  0  0  0  0  0  0  0  0  0  0
  150.9654  135.5794  155.6505 C   0  0  0  0  0  0  0  0  0  0  0  0
  150.8421  137.0367  155.7504 N   0  0  0  0  0  0  0  0  0  0  0  0
  150.0697  137.5715  154.6316 C   0  0  0  0  0  0  0  0  0  0  0  0
  149.9171  139.1004  154.7114 C   0  0  0  0  0  0  0  0  0  0  0  0
  151.2043  139.7061  154.7563 O   0  0  0  0  0  0  0  0  0  0  0  0
  151.9871  139.2447  155.8518 C   0  0  0  0  0  0  0  0  0  0  0  0
  152.1382  137.7155  155.7709 C   0  0  0  0  0  0  0  0  0  0  0  0
  146.1361  134.1691  150.7281 C   0  0  0  0  0  0  0  0  0  0  0  0
  145.1570  133.5783  150.0102 N   0  0  0  0  0  0  0  0  0  0  0  0
  142.3907  131.8301  148.0985 H   0  0  0  0  0  0  0  0  0  0  0  0
  143.9648  132.5663  147.8154 H   0  0  0  0  0  0  0  0  0  0  0  0
  142.7395  133.4118  148.7878 H   0  0  0  0  0  0  0  0  0  0  0  0
  144.6802  130.8416  151.9596 H   0  0  0  0  0  0  0  0  0  0  0  0
  146.4881  131.9426  153.2862 H   0  0  0  0  0  0  0  0  0  0  0  0
  148.1955  134.9699  152.2438 H   0  0  0  0  0  0  0  0  0  0  0  0
  149.4397  135.3939  153.6903 H   0  0  0  0  0  0  0  0  0  0  0  0
  148.9564  135.2609  156.3903 H   0  0  0  0  0  0  0  0  0  0  0  0
  149.9692  133.2357  157.2219 H   0  0  0  0  0  0  0  0  0  0  0  0
  150.6129  132.8090  155.6291 H   0  0  0  0  0  0  0  0  0  0  0  0
  148.8831  132.7427  155.9532 H   0  0  0  0  0  0  0  0  0  0  0  0
  151.6685  135.2081  156.3977 H   0  0  0  0  0  0  0  0  0  0  0  0
  151.4284  135.3476  154.6900 H   0  0  0  0  0  0  0  0  0  0  0  0
  150.5491  137.3047  153.6881 H   0  0  0  0  0  0  0  0  0  0  0  0
  149.0778  137.1181  154.6161 H   0  0  0  0  0  0  0  0  0  0  0  0
  149.3774  139.4741  153.8412 H   0  0  0  0  0  0  0  0  0  0  0  0
  149.3417  139.3855  155.5935 H   0  0  0  0  0  0  0  0  0  0  0  0
  152.9652  139.7243  155.8169 H   0  0  0  0  0  0  0  0  0  0  0  0
  151.5190  139.5374  156.7929 H   0  0  0  0  0  0  0  0  0  0  0  0
  152.7403  137.3868  156.6123 H   0  0  0  0  0  0  0  0  0  0  0  0
  152.7028  137.4614  154.8724 H   0  0  0  0  0  0  0  0  0  0  0  0
  146.4720  135.1152  150.3343 H   0  0  0  0  0  0  0  0  0  0  0  0
  1  2  1  0  0  0  0
  1 22  1  0  0  0  0
  1 23  1  0  0  0  0
  1 24  1  0  0  0  0
  2  3  1  0  0  0  0
  3 21  1  0  0  0  0
  3  4  2  0  0  0  0
  4  5  1  0  0  0  0
  4 25  1  0  0  0  0
  5  6  2  0  0  0  0
  5 26  1  0  0  0  0
  6  7  1  0  0  0  0
  6 20  1  0  0  0  0
  7  8  1  0  0  0  0
  7 27  1  0  0  0  0
  8  9  2  0  0  0  0
  8 10  1  0  0  0  0
 10 11  1  0  0  0  0
 10 28  1  0  0  0  0
 11 12  1  0  0  0  0
 11 13  1  0  0  0  0
 11 29  1  0  0  0  0
 12 30  1  0  0  0  0
 12 31  1  0  0  0  0
 12 32  1  0  0  0  0
 13 14  1  0  0  0  0
 13 33  1  0  0  0  0
 13 34  1  0  0  0  0
 14 19  1  0  0  0  0
 14 15  1  0  0  0  0
 15 16  1  0  0  0  0
 15 35  1  0  0  0  0
 15 36  1  0  0  0  0
 16 17  1  0  0  0  0
 16 37  1  0  0  0  0
 16 38  1  0  0  0  0
 17 18  1  0  0  0  0
 18 19  1  0  0  0  0
 18 39  1  0  0  0  0
 18 40  1  0  0  0  0
 19 41  1  0  0  0  0
 19 42  1  0  0  0  0
 20 21  2  0  0  0  0
 20 43  1  0  0  0  0
M  END
> <s_m_source_file>
AV-unprocessed.smi

> <i_m_source_file_index>
1269

> <i_lp_mmshare_version>
43012

> <i_f3d_flags>
0

> <s_epik_input>
W0NIM11PYzFbY0hdW2NIXWMoW2NIXW4xKVtOSF1DKD1PKVtOSF1bQ0BIXShbQ0gzXSlbQ0gyXU4yW0NIMl1bQ0gyXU9bQ0gyXVtDSDJdMg==

> <s_epik_cmdline>
J2VwaWtfcHl0aG9uJywgJy1waCcsICc3LjAnLCAnLXRuJywgJzgnLCAnLW1hJywgJzIwMCcsICctbWV0YWxfYmluZGluZycsICctaW1hZScsICc8aW5maWxlLm1hZT4nLCAnLW9tYWUnLCAnPG91dGZpbGUubWFlPic=

> <r_lp_tautomer_probability>
1

> <r_epik_Ionization_Penalty>
0.266086

> <r_epik_Ionization_Penalty_Charging>
0

> <r_epik_Ionization_Penalty_Neutral>
0.266086

> <r_epik_State_Penalty>
0.257924

> <r_epik_Charging_Adjusted_Penalty>
0.257924

> <i_epik_Tot_Q>
0

> <i_epik_Tot_abs_Q>
0

> <r_epik_Metal_State_Penalty>
0.25792

> <b_epik_Metal_Only>
0

> <s_lp_Force_Field>
OPLS_2005

> <r_lp_Energy>
29.6845

> <b_lp_Chiralities_Consistent>
1

> <s_lp_Variant>
AV-unprocessed.smi:1269-2

> <Gold.Version>
5.8.1

> <Gold.Id.Protein>
6NUR|6NUR_protein|mol2

> <Gold.PLP.Fitness>
37.3261

> <Gold.PLP.PLP>
-28.5830

> <Gold.PLP.part.hbond>
-3.8378

> <Gold.PLP.part.metal>
0.0000

> <Gold.PLP.part.buried>
-1.3584

> <Gold.PLP.part.nonpolar>
-26.2403

> <Gold.PLP.part.repulsive>
2.3644

> <Gold.PLP.ligand.clash>
0.0000

> <Gold.PLP.ligand.torsion>
0.4794

> <Gold.PLP.Chemscore.Hbond>
2.9338

> <Gold.PLP.Chemscore.CHOScore>
0.2842

> <Gold.PLP.Chemscore.Metal>
0.0000

> <Gold.Chemscore.Hbonds>
donor molecule, donor type, donor heavy atom, donor atom, acceptor molecule, acceptor atom, score
      L1  H     7    27       P1  7948  0.86
      L1  H    10    28       P1  7948  0.75
      P1  H  7989  7998       L1    17  1.00
      P1  H 10785 10796       L1     2  0.19
      L1  C    20    43       P1  7921  0.25

> <Gold.PLP.Chemscore.Internal.Correction>
0.0481

> <Gold.Rescore>
     Score         DG    S(hbond)    S(metal)    S(lipo)     H(rot)  DE(clash)    DE(int)     intcor
     12.58     -17.63       2.38        0.00      73.57       1.72       0.59       4.45       ----

> <Gold.Chemscore.Fitness>
12.5846

> <Gold.Chemscore.DG>
-17.6309

> <Gold.Chemscore.ZeroCoef>
-5.4800

> <Gold.Chemscore.Hbond>
2.3784

> <Gold.Chemscore.Metal>
0.0000

> <Gold.Chemscore.Lipo>
73.5667

> <Gold.Chemscore.Internal_Hbond>
0.0000

> <Gold.Chemscore.DEClash>
0.5929

> <Gold.Chemscore.DEInternal>
4.4534

> <Gold.Chemscore.Rot>
1.7189

> <Gold.Chemscore.Internal.Correction>
   9.000000E+99

> <Gold.Chemscore.Hbonds>
donor molecule, donor type, donor heavy atom, donor atom, acceptor molecule, acceptor atom, score
      L1  H     7    27       P1  7948  0.42
      L1  H    10    28       P1  7948  0.16
      P1  H  7989  7998       L1    17  0.97

> <Gold.Chemscore.Hbond.Weighted>
-7.9440

> <Gold.Chemscore.Metal.Weighted>
-0.0000

> <Gold.Chemscore.Lipo.Weighted>
-8.6073

> <Gold.Chemscore.Internal_Hbond.Weighted>
0.0000

> <Gold.Chemscore.DEClash.Weighted>
0.5929

> <Gold.Chemscore.DEInternal.Weighted>
4.4534

> <Gold.Chemscore.Rot.Weighted>
4.4004

> <Gold.Chemscore.Internal.Correction.Weighted>
   9.000000E+99

> <Gold.Protein.RotatedTorsions>
[ 6907 6896 6895 6894 ] final  103.74 input  -60.11 | X-H torsion
[ 7974 7965 7964 7962 ] final  -22.93 input  175.53 | X-H torsion
[ 8008 7997 7996 7995 ] final -135.66 input   59.86 | X-H torsion
[ 10167 10162 10161 10158 ] final -130.84 input  -65.29 | X-H torsion
[ 10718 10713 10712 10709 ] final  -38.79 input   66.30 | X-H torsion
[ 10763 10752 10751 10750 ] final   90.58 input  -60.55 | X-H torsion
[ 11005 11000 10999 10996 ] final   78.34 input  -57.11 | X-H torsion

> <Gold.Protein.ActiveResidues>
 VAL166  LYS551  ARG553  GLY616  TRP617  ASP618  TYR619  PRO620  LYS621  CYS622 
 ASP623  PHE694  ASN695  SER759  ASP760  ASP761  ALA762  ILE779  LEU786  VAL792 
 PHE793  MET794  SER795  GLU796  ALA797  LYS798  CYS799  TRP800  GLU811  SER814 

> <Gold.Protein.RotatedAtoms>
  152.5286  133.9780  159.7793 H   0  0  0  0  0  0  0  0  0  0  0  0  # atno 6907 bound_to 6896
  151.0039  133.6021  159.2698 H   0  0  0  0  0  0  0  0  0  0  0  0  # atno 6908 bound_to 6896
  151.3120  135.0803  159.9329 H   0  0  0  0  0  0  0  0  0  0  0  0  # atno 6909 bound_to 6896
  146.1646  140.4547  142.8557 H   0  0  0  0  0  0  0  0  0  0  0  0  # atno 7974 bound_to 7965
  155.3823  140.0495  157.3043 H   0  0  0  0  0  0  0  0  0  0  0  0  # atno 8008 bound_to 7997
  154.5076  140.2180  155.9181 H   0  0  0  0  0  0  0  0  0  0  0  0  # atno 8009 bound_to 7997
  156.1544  140.3129  155.8707 H   0  0  0  0  0  0  0  0  0  0  0  0  # atno 8010 bound_to 7997
  139.9252  143.6336  152.2544 H   0  0  0  0  0  0  0  0  0  0  0  0  # atno 10167 bound_to 10162
  156.2997  130.4238  149.8155 H   0  0  0  0  0  0  0  0  0  0  0  0  # atno 10718 bound_to 10713
  153.1991  135.4429  155.0244 H   0  0  0  0  0  0  0  0  0  0  0  0  # atno 10763 bound_to 10752
  154.8136  135.3305  154.7240 H   0  0  0  0  0  0  0  0  0  0  0  0  # atno 10764 bound_to 10752
  153.7687  135.6986  153.4966 H   0  0  0  0  0  0  0  0  0  0  0  0  # atno 10765 bound_to 10752
  139.9217  134.7755  156.1637 H   0  0  0  0  0  0  0  0  0  0  0  0  # atno 11005 bound_to 11000
  144.8075  140.6325  143.6437 LP  0  0  0  0  0  0  0  0  0  0  0  0  # atno 17320 bound_to 7965
  145.4500  139.1525  143.3924 LP  0  0  0  0  0  0  0  0  0  0  0  0  # atno 17321 bound_to 7965
  139.6828  144.7654  151.1577 LP  0  0  0  0  0  0  0  0  0  0  0  0  # atno 17342 bound_to 10162
  140.7652  143.5700  150.9006 LP  0  0  0  0  0  0  0  0  0  0  0  0  # atno 17343 bound_to 10162
  156.5538  130.8353  151.3308 LP  0  0  0  0  0  0  0  0  0  0  0  0  # atno 17370 bound_to 10713
  157.7365  130.9779  150.2138 LP  0  0  0  0  0  0  0  0  0  0  0  0  # atno 17371 bound_to 10713
  141.0742  133.6783  156.2203 LP  0  0  0  0  0  0  0  0  0  0  0  0  # atno 17394 bound_to 11000
  140.6456  134.5121  157.5573 LP  0  0  0  0  0  0  0  0  0  0  0  0  # atno 17395 bound_to 11000

$$$$
