AV-unprocessed.smi:1246|AV-procd|sdf|5241|dock6
  -GOLD-   22720 4353D 1   1.00000     0.00000
 Structure written by MMmdl.
 35 36  0  0  0  0  0  0  0  0  1 V2000
  144.4746  144.0078  162.6930 C   0  0  0  0  0  0  0  0  0  0  0  0
  145.4467  143.9839  161.5505 C   0  0  0  0  0  0  0  0  0  0  0  0
  146.5571  144.8483  161.3244 C   0  0  0  0  0  0  0  0  0  0  0  0
  147.0756  144.3711  160.1516 C   0  0  0  0  0  0  0  0  0  0  0  0
  148.1501  144.8159  159.4473 N   0  0  0  0  0  0  0  0  0  0  0  0
  149.3305  144.2069  159.2401 C   0  0  0  0  0  0  0  0  0  0  0  0
  149.6465  143.0955  159.6653 O   0  0  0  0  0  0  0  0  0  0  0  0
  150.1415  144.9689  158.4931 N   0  0  0  0  0  0  0  0  0  0  0  0
  151.4853  144.5952  158.0673 C   0  0  0  0  0  0  0  0  0  0  0  0
  152.3863  144.2624  159.2678 C   0  0  2  0  0  0  0  0  0  0  0  0
  152.4264  142.7769  159.6140 C   0  0  0  0  0  0  0  0  0  0  0  0
  152.8957  142.8164  161.0511 C   0  0  0  0  0  0  0  0  0  0  0  0
  152.2082  144.0712  161.5887 C   0  0  0  0  0  0  0  0  0  0  0  0
  151.8938  144.8763  160.4542 O   0  0  0  0  0  0  0  0  0  0  0  0
  146.3148  143.3035  159.7303 N   0  0  0  0  0  0  0  0  0  0  0  0
  146.4646  142.4754  158.5496 C   0  0  0  0  0  0  0  0  0  0  0  0
  145.3079  143.0675  160.5989 N   0  0  0  0  0  0  0  0  0  0  0  0
  144.7048  144.8143  163.3894 H   0  0  0  0  0  0  0  0  0  0  0  0
  144.5008  143.0710  163.2500 H   0  0  0  0  0  0  0  0  0  0  0  0
  143.4547  144.1574  162.3381 H   0  0  0  0  0  0  0  0  0  0  0  0
  146.8965  145.6735  161.9320 H   0  0  0  0  0  0  0  0  0  0  0  0
  148.0383  145.7239  159.0208 H   0  0  0  0  0  0  0  0  0  0  0  0
  149.8011  145.8665  158.1815 H   0  0  0  0  0  0  0  0  0  0  0  0
  151.4087  143.7325  157.4051 H   0  0  0  0  0  0  0  0  0  0  0  0
  151.9243  145.4010  157.4767 H   0  0  0  0  0  0  0  0  0  0  0  0
  153.4049  144.6150  159.0952 H   0  0  0  0  0  0  0  0  0  0  0  0
  151.4277  142.3411  159.5584 H   0  0  0  0  0  0  0  0  0  0  0  0
  153.0884  142.2053  158.9632 H   0  0  0  0  0  0  0  0  0  0  0  0
  152.6395  141.9168  161.6111 H   0  0  0  0  0  0  0  0  0  0  0  0
  153.9791  142.9407  161.0833 H   0  0  0  0  0  0  0  0  0  0  0  0
  151.2804  143.8168  162.1020 H   0  0  0  0  0  0  0  0  0  0  0  0
  152.8448  144.6126  162.2890 H   0  0  0  0  0  0  0  0  0  0  0  0
  147.4756  142.0699  158.5116 H   0  0  0  0  0  0  0  0  0  0  0  0
  146.2873  143.0764  157.6578 H   0  0  0  0  0  0  0  0  0  0  0  0
  145.7534  141.6485  158.5669 H   0  0  0  0  0  0  0  0  0  0  0  0
  1  2  1  0  0  0  0
  1 18  1  0  0  0  0
  1 19  1  0  0  0  0
  1 20  1  0  0  0  0
  2 17  2  0  0  0  0
  2  3  1  0  0  0  0
  3  4  2  0  0  0  0
  3 21  1  0  0  0  0
  4  5  1  0  0  0  0
  4 15  1  0  0  0  0
  5  6  1  0  0  0  0
  5 22  1  0  0  0  0
  6  7  2  0  0  0  0
  6  8  1  0  0  0  0
  8  9  1  0  0  0  0
  8 23  1  0  0  0  0
  9 10  1  0  0  0  0
  9 24  1  0  0  0  0
  9 25  1  0  0  0  0
 10 14  1  0  0  0  0
 10 11  1  0  0  0  0
 10 26  1  0  0  0  0
 11 12  1  0  0  0  0
 11 27  1  0  0  0  0
 11 28  1  0  0  0  0
 12 13  1  0  0  0  0
 12 29  1  0  0  0  0
 12 30  1  0  0  0  0
 13 14  1  0  0  0  0
 13 31  1  0  0  0  0
 13 32  1  0  0  0  0
 15 16  1  0  0  0  0
 15 17  1  0  0  0  0
 16 33  1  0  0  0  0
 16 34  1  0  0  0  0
 16 35  1  0  0  0  0
M  END
> <s_m_source_file>
AV-unprocessed.smi

> <i_m_source_file_index>
1246

> <i_lp_mmshare_version>
43012

> <i_f3d_flags>
0

> <s_epik_input>
W0NIM11jMVtjSF1jKG4objEpW0NIM10pW05IXUMoPU8pW05IXVtDSDJdW0NAQEhdMltDSDJdW0NIMl1bQ0gyXU8y

> <s_epik_cmdline>
J2VwaWtfcHl0aG9uJywgJy1waCcsICc3LjAnLCAnLXRuJywgJzgnLCAnLW1hJywgJzIwMCcsICctbWV0YWxfYmluZGluZycsICctaW1hZScsICc8aW5maWxlLm1hZT4nLCAnLW9tYWUnLCAnPG91dGZpbGUubWFlPic=

> <r_lp_tautomer_probability>
1

> <r_epik_Ionization_Penalty>
9.6187e-05

> <r_epik_Ionization_Penalty_Charging>
0

> <r_epik_Ionization_Penalty_Neutral>
9.6187e-05

> <r_epik_State_Penalty>
-0

> <r_epik_Charging_Adjusted_Penalty>
0

> <i_epik_Tot_Q>
0

> <i_epik_Tot_abs_Q>
0

> <r_epik_Metal_State_Penalty>
-0

> <b_epik_Metal_Only>
0

> <s_lp_Force_Field>
OPLS_2005

> <r_lp_Energy>
17.9178

> <b_lp_Chiralities_Consistent>
1

> <s_lp_Variant>
AV-unprocessed.smi:1246-1

> <Gold.Version>
5.8.1

> <Gold.Id.Protein>
6NUR|6NUR_protein|mol2

> <Gold.PLP.Fitness>
40.3020

> <Gold.PLP.PLP>
-39.8317

> <Gold.PLP.part.hbond>
-3.7639

> <Gold.PLP.part.metal>
0.0000

> <Gold.PLP.part.buried>
-4.8538

> <Gold.PLP.part.nonpolar>
-32.3094

> <Gold.PLP.part.repulsive>
0.5547

> <Gold.PLP.ligand.clash>
0.0000

> <Gold.PLP.ligand.torsion>
1.1318

> <Gold.PLP.Chemscore.Hbond>
0.9095

> <Gold.PLP.Chemscore.CHOScore>
0.0000

> <Gold.PLP.Chemscore.Metal>
0.0000

> <Gold.Chemscore.Hbonds>
donor molecule, donor type, donor heavy atom, donor atom, acceptor molecule, acceptor atom, score
      L1  H     5    22       P1  8029  0.48
      L1  H     8    23       P1  8029  0.33
      P1  H  6933  6944       L1     7  0.05

> <Gold.PLP.Chemscore.Internal.Correction>
0.0053

> <Gold.Rescore>
     Score         DG    S(hbond)    S(metal)    S(lipo)     H(rot)  DE(clash)    DE(int)     intcor
     12.71     -16.22       1.17        0.00      85.74       1.25       0.17       3.34       ----

> <Gold.Chemscore.Fitness>
12.7103

> <Gold.Chemscore.DG>
-16.2160

> <Gold.Chemscore.ZeroCoef>
-5.4800

> <Gold.Chemscore.Hbond>
1.1674

> <Gold.Chemscore.Metal>
0.0000

> <Gold.Chemscore.Lipo>
85.7381

> <Gold.Chemscore.Internal_Hbond>
0.0000

> <Gold.Chemscore.DEClash>
0.1661

> <Gold.Chemscore.DEInternal>
3.3396

> <Gold.Chemscore.Rot>
1.2478

> <Gold.Chemscore.Internal.Correction>
   9.000000E+99

> <Gold.Chemscore.Hbonds>
donor molecule, donor type, donor heavy atom, donor atom, acceptor molecule, acceptor atom, score
      L1  H     5    22       P1  8029  0.48
      L1  H     8    23       P1  8029  0.18
      P1  H  6933  6944       L1     7  0.06

> <Gold.Chemscore.Hbond.Weighted>
-3.8990

> <Gold.Chemscore.Metal.Weighted>
-0.0000

> <Gold.Chemscore.Lipo.Weighted>
-10.0314

> <Gold.Chemscore.Internal_Hbond.Weighted>
0.0000

> <Gold.Chemscore.DEClash.Weighted>
0.1661

> <Gold.Chemscore.DEInternal.Weighted>
3.3396

> <Gold.Chemscore.Rot.Weighted>
3.1944

> <Gold.Chemscore.Internal.Correction.Weighted>
   9.000000E+99

> <Gold.Protein.RotatedTorsions>
[ 6907 6896 6895 6894 ] final  156.64 input  -60.11 | X-H torsion
[ 7974 7965 7964 7962 ] final   57.13 input  175.53 | X-H torsion
[ 8008 7997 7996 7995 ] final -179.11 input   59.86 | X-H torsion
[ 10167 10162 10161 10158 ] final  -47.95 input  -65.29 | X-H torsion
[ 10718 10713 10712 10709 ] final -171.76 input   66.30 | X-H torsion
[ 10763 10752 10751 10750 ] final   68.37 input  -60.55 | X-H torsion
[ 11005 11000 10999 10996 ] final -154.73 input  -57.11 | X-H torsion

> <Gold.Protein.ActiveResidues>
 VAL166  LYS551  ARG553  GLY616  TRP617  ASP618  TYR619  PRO620  LYS621  CYS622 
 ASP623  PHE694  ASN695  SER759  ASP760  ASP761  ALA762  ILE779  LEU786  VAL792 
 PHE793  MET794  SER795  GLU796  ALA797  LYS798  CYS799  TRP800  GLU811  SER814 

> <Gold.Protein.RotatedAtoms>
  152.0268  133.3921  159.4280 H   0  0  0  0  0  0  0  0  0  0  0  0  # atno 6907 bound_to 6896
  150.6885  134.3565  159.4941 H   0  0  0  0  0  0  0  0  0  0  0  0  # atno 6908 bound_to 6896
  152.1346  134.9108  160.0607 H   0  0  0  0  0  0  0  0  0  0  0  0  # atno 6909 bound_to 6896
  145.9324  139.3819  143.0413 H   0  0  0  0  0  0  0  0  0  0  0  0  # atno 7974 bound_to 7965
  156.0267  140.1273  157.0301 H   0  0  0  0  0  0  0  0  0  0  0  0  # atno 8008 bound_to 7997
  154.4333  140.1057  156.6111 H   0  0  0  0  0  0  0  0  0  0  0  0  # atno 8009 bound_to 7997
  155.5866  140.3469  155.4557 H   0  0  0  0  0  0  0  0  0  0  0  0  # atno 8010 bound_to 7997
  140.6752  143.2761  151.4001 H   0  0  0  0  0  0  0  0  0  0  0  0  # atno 10167 bound_to 10162
  156.7455  130.9358  151.3112 H   0  0  0  0  0  0  0  0  0  0  0  0  # atno 10718 bound_to 10713
  153.0232  135.5250  154.7124 H   0  0  0  0  0  0  0  0  0  0  0  0  # atno 10763 bound_to 10752
  154.6202  135.2888  155.0336 H   0  0  0  0  0  0  0  0  0  0  0  0  # atno 10764 bound_to 10752
  154.1326  135.6590  153.4977 H   0  0  0  0  0  0  0  0  0  0  0  0  # atno 10765 bound_to 10752
  140.6941  134.4009  157.5216 H   0  0  0  0  0  0  0  0  0  0  0  0  # atno 11005 bound_to 11000
  145.8408  140.9581  143.0800 LP  0  0  0  0  0  0  0  0  0  0  0  0  # atno 17320 bound_to 7965
  144.6767  140.0282  143.7483 LP  0  0  0  0  0  0  0  0  0  0  0  0  # atno 17321 bound_to 7965
  139.6041  144.1234  152.2230 LP  0  0  0  0  0  0  0  0  0  0  0  0  # atno 17342 bound_to 10162
  140.0627  144.5843  150.7251 LP  0  0  0  0  0  0  0  0  0  0  0  0  # atno 17343 bound_to 10162
  157.6800  130.9130  150.0243 LP  0  0  0  0  0  0  0  0  0  0  0  0  # atno 17370 bound_to 10713
  156.1436  130.3642  149.9545 LP  0  0  0  0  0  0  0  0  0  0  0  0  # atno 17371 bound_to 10713
  139.8915  134.8778  156.2317 LP  0  0  0  0  0  0  0  0  0  0  0  0  # atno 17394 bound_to 11000
  141.0217  133.7037  156.1280 LP  0  0  0  0  0  0  0  0  0  0  0  0  # atno 17395 bound_to 11000

$$$$
