AV-unprocessed.smi:1444|AV-procd|sdf|5883|dock5
  -GOLD-   22720 5563D 1   1.00000     0.00000
 Structure written by MMmdl.
 44 45  0  0  0  0  0  0  0  0  2 V2000
  151.7340  138.4246  154.6495 C   0  0  0  0  0  0  0  0  0  0  0  0
  150.3614  138.2434  154.3184 O   0  0  0  0  0  0  0  0  0  0  0  0
  149.5325  139.3493  154.3080 C   0  0  0  0  0  0  0  0  0  0  0  0
  150.0618  140.5532  154.6401 N   0  0  0  0  0  0  0  0  0  0  0  0
  149.2560  141.6342  154.6303 C   0  0  0  0  0  0  0  0  0  0  0  0
  147.8930  141.5740  154.2890 C   0  0  0  0  0  0  0  0  0  0  0  0
  147.3408  140.3267  153.9444 C   0  0  0  0  0  0  0  0  0  0  0  0
  148.1730  139.1796  153.9525 C   0  0  0  0  0  0  0  0  0  0  0  0
  147.7394  137.8628  153.6257 N   0  0  0  0  0  0  0  0  0  0  0  0
  146.5591  137.2610  153.8504 C   0  0  0  0  0  0  0  0  0  0  0  0
  145.5816  137.7715  154.3953 O   0  0  0  0  0  0  0  0  0  0  0  0
  146.5685  136.0034  153.3844 N   0  0  0  0  0  0  0  0  0  0  0  0
  145.4737  135.0370  153.4827 C   0  0  2  0  0  0  0  0  0  0  0  0
  145.0276  134.9391  154.9479 C   0  0  0  0  0  0  0  0  0  0  0  0
  145.8905  133.6539  152.9316 C   0  0  0  0  0  0  0  0  0  0  0  0
  145.3009  133.3544  151.6021 N   0  3  0  0  0  0  0  0  0  0  0  0
  146.0027  132.2622  150.8886 C   0  0  0  0  0  0  0  0  0  0  0  0
  145.3888  132.0585  149.4928 C   0  0  0  0  0  0  0  0  0  0  0  0
  143.9982  131.7867  149.6170 O   0  0  0  0  0  0  0  0  0  0  0  0
  143.2972  132.8624  150.2298 C   0  0  0  0  0  0  0  0  0  0  0  0
  143.8423  133.0891  151.6493 C   0  0  0  0  0  0  0  0  0  0  0  0
  152.2426  137.4613  154.6133 H   0  0  0  0  0  0  0  0  0  0  0  0
  151.8522  138.8230  155.6583 H   0  0  0  0  0  0  0  0  0  0  0  0
  152.2322  139.0876  153.9407 H   0  0  0  0  0  0  0  0  0  0  0  0
  149.7116  142.5749  154.9020 H   0  0  0  0  0  0  0  0  0  0  0  0
  147.2839  142.4657  154.2923 H   0  0  0  0  0  0  0  0  0  0  0  0
  146.2961  140.2883  153.6834 H   0  0  0  0  0  0  0  0  0  0  0  0
  148.4376  137.2949  153.1677 H   0  0  0  0  0  0  0  0  0  0  0  0
  147.4178  135.6742  152.9487 H   0  0  0  0  0  0  0  0  0  0  0  0
  144.6171  135.4086  152.9185 H   0  0  0  0  0  0  0  0  0  0  0  0
  144.1859  134.2545  155.0562 H   0  0  0  0  0  0  0  0  0  0  0  0
  144.7106  135.9108  155.3284 H   0  0  0  0  0  0  0  0  0  0  0  0
  145.8340  134.5779  155.5873 H   0  0  0  0  0  0  0  0  0  0  0  0
  146.9788  133.6358  152.8528 H   0  0  0  0  0  0  0  0  0  0  0  0
  145.6258  132.8617  153.6336 H   0  0  0  0  0  0  0  0  0  0  0  0
  147.0621  132.5021  150.7902 H   0  0  0  0  0  0  0  0  0  0  0  0
  145.9330  131.3402  151.4683 H   0  0  0  0  0  0  0  0  0  0  0  0
  145.5452  132.9383  148.8663 H   0  0  0  0  0  0  0  0  0  0  0  0
  145.8697  131.2193  148.9895 H   0  0  0  0  0  0  0  0  0  0  0  0
  143.3924  133.7670  149.6270 H   0  0  0  0  0  0  0  0  0  0  0  0
  142.2360  132.6160  150.2701 H   0  0  0  0  0  0  0  0  0  0  0  0
  143.6473  132.2118  152.2680 H   0  0  0  0  0  0  0  0  0  0  0  0
  143.3173  133.9261  152.1084 H   0  0  0  0  0  0  0  0  0  0  0  0
  145.4290  134.1850  151.0412 H   0  0  0  0  0  0  0  0  0  0  0  0
  1  2  1  0  0  0  0
  1 22  1  0  0  0  0
  1 23  1  0  0  0  0
  1 24  1  0  0  0  0
  2  3  1  0  0  0  0
  3  8  1  0  0  0  0
  3  4  2  0  0  0  0
  4  5  1  0  0  0  0
  5  6  2  0  0  0  0
  5 25  1  0  0  0  0
  6  7  1  0  0  0  0
  6 26  1  0  0  0  0
  7  8  2  0  0  0  0
  7 27  1  0  0  0  0
  8  9  1  0  0  0  0
  9 10  1  0  0  0  0
  9 28  1  0  0  0  0
 10 11  2  0  0  0  0
 10 12  1  0  0  0  0
 12 13  1  0  0  0  0
 12 29  1  0  0  0  0
 13 14  1  0  0  0  0
 13 15  1  0  0  0  0
 13 30  1  0  0  0  0
 14 31  1  0  0  0  0
 14 32  1  0  0  0  0
 14 33  1  0  0  0  0
 15 16  1  0  0  0  0
 15 34  1  0  0  0  0
 15 35  1  0  0  0  0
 16 21  1  0  0  0  0
 16 17  1  0  0  0  0
 16 44  1  0  0  0  0
 17 18  1  0  0  0  0
 17 36  1  0  0  0  0
 17 37  1  0  0  0  0
 18 19  1  0  0  0  0
 18 38  1  0  0  0  0
 18 39  1  0  0  0  0
 19 20  1  0  0  0  0
 20 21  1  0  0  0  0
 20 40  1  0  0  0  0
 20 41  1  0  0  0  0
 21 42  1  0  0  0  0
 21 43  1  0  0  0  0
M  CHG  1  16   1
M  END
> <s_m_source_file>
AV-unprocessed.smi

> <i_m_source_file_index>
1444

> <i_lp_mmshare_version>
43012

> <i_f3d_flags>
0

> <s_epik_input>
W0NIM11PYzFuW2NIXVtjSF1bY0hdYzFbTkhdQyg9TylbTkhdW0NASF0oW0NIM10pW0NIMl1OMltDSDJdW0NIMl1PW0NIMl1bQ0gyXTI=

> <s_epik_cmdline>
J2VwaWtfcHl0aG9uJywgJy1waCcsICc3LjAnLCAnLXRuJywgJzgnLCAnLW1hJywgJzIwMCcsICctbWV0YWxfYmluZGluZycsICctaW1hZScsICc8aW5maWxlLm1hZT4nLCAnLW9tYWUnLCAnPG91dGZpbGUubWFlPic=

> <r_lp_tautomer_probability>
1

> <r_epik_Ionization_Penalty>
0.602604

> <r_epik_Ionization_Penalty_Charging>
0.602531

> <r_epik_Ionization_Penalty_Neutral>
7.37688e-05

> <r_epik_State_Penalty>
0.617039

> <r_epik_Charging_Adjusted_Penalty>
1.21957

> <i_epik_Tot_Q>
1

> <i_epik_Tot_abs_Q>
1

> <r_epik_Metal_State_Penalty>
0.617045

> <b_epik_Metal_Only>
0

> <s_lp_Force_Field>
OPLS_2005

> <r_lp_Energy>
24.7121

> <b_lp_Chiralities_Consistent>
1

> <s_lp_Variant>
AV-unprocessed.smi:1444-3

> <Gold.Version>
5.8.1

> <Gold.Id.Protein>
6NUR|6NUR_protein|mol2

> <Gold.PLP.Fitness>
44.2530

> <Gold.PLP.PLP>
-32.6955

> <Gold.PLP.part.hbond>
-4.0000

> <Gold.PLP.part.metal>
0.0000

> <Gold.PLP.part.buried>
-3.6857

> <Gold.PLP.part.nonpolar>
-26.8277

> <Gold.PLP.part.repulsive>
0.6009

> <Gold.PLP.ligand.clash>
0.0000

> <Gold.PLP.ligand.torsion>
1.0475

> <Gold.PLP.Chemscore.Hbond>
3.5376

> <Gold.PLP.Chemscore.CHOScore>
1.0000

> <Gold.PLP.Chemscore.Metal>
0.0000

> <Gold.Chemscore.Hbonds>
donor molecule, donor type, donor heavy atom, donor atom, acceptor molecule, acceptor atom, score
      L1  H     9    28       P1  7948  1.00
      L1  H    12    29       P1  7948  0.88
      P1  H  7989  7998       L1     4  0.88
      P1  H 10785 10796       L1    19  0.74
      L1  C     5    25       P1  8028  1.00

> <Gold.PLP.Chemscore.Internal.Correction>
0.0398

> <Gold.Rescore>
     Score         DG    S(hbond)    S(metal)    S(lipo)     H(rot)  DE(clash)    DE(int)     intcor
     17.97     -20.60       3.05        0.00      81.22       1.78       0.42       2.21       ----

> <Gold.Chemscore.Fitness>
17.9714

> <Gold.Chemscore.DG>
-20.5969

> <Gold.Chemscore.ZeroCoef>
-5.4800

> <Gold.Chemscore.Hbond>
3.0453

> <Gold.Chemscore.Metal>
0.0000

> <Gold.Chemscore.Lipo>
81.2204

> <Gold.Chemscore.Internal_Hbond>
0.0000

> <Gold.Chemscore.DEClash>
0.4165

> <Gold.Chemscore.DEInternal>
2.2091

> <Gold.Chemscore.Rot>
1.7801

> <Gold.Chemscore.Internal.Correction>
   9.000000E+99

> <Gold.Chemscore.Hbonds>
donor molecule, donor type, donor heavy atom, donor atom, acceptor molecule, acceptor atom, score
      L1  H     9    28       P1  7948  0.96
      L1  H    12    29       P1  7948  0.86
      P1  H  7989  7998       L1     4  0.42
      P1  H 10785 10796       L1    19  0.68

> <Gold.Chemscore.Hbond.Weighted>
-10.1711

> <Gold.Chemscore.Metal.Weighted>
-0.0000

> <Gold.Chemscore.Lipo.Weighted>
-9.5028

> <Gold.Chemscore.Internal_Hbond.Weighted>
0.0000

> <Gold.Chemscore.DEClash.Weighted>
0.4165

> <Gold.Chemscore.DEInternal.Weighted>
2.2091

> <Gold.Chemscore.Rot.Weighted>
4.5570

> <Gold.Chemscore.Internal.Correction.Weighted>
   9.000000E+99

> <Gold.Protein.RotatedTorsions>
[ 6907 6896 6895 6894 ] final -147.32 input  -60.11 | X-H torsion
[ 7974 7965 7964 7962 ] final   38.28 input  175.53 | X-H torsion
[ 8008 7997 7996 7995 ] final  -79.89 input   59.86 | X-H torsion
[ 10167 10162 10161 10158 ] final   10.60 input  -65.29 | X-H torsion
[ 10718 10713 10712 10709 ] final  -13.45 input   66.30 | X-H torsion
[ 10763 10752 10751 10750 ] final -117.86 input  -60.55 | X-H torsion
[ 11005 11000 10999 10996 ] final -162.16 input  -57.11 | X-H torsion

> <Gold.Protein.ActiveResidues>
 VAL166  LYS551  ARG553  GLY616  TRP617  ASP618  TYR619  PRO620  LYS621  CYS622 
 ASP623  PHE694  ASN695  SER759  ASP760  ASP761  ALA762  ILE779  LEU786  VAL792 
 PHE793  MET794  SER795  GLU796  ALA797  LYS798  CYS799  TRP800  GLU811  SER814 

> <Gold.Protein.RotatedAtoms>
  151.1540  133.4888  159.2594 H   0  0  0  0  0  0  0  0  0  0  0  0  # atno 6907 bound_to 6896
  151.1523  135.0233  159.8684 H   0  0  0  0  0  0  0  0  0  0  0  0  # atno 6908 bound_to 6896
  152.5463  134.1423  159.8537 H   0  0  0  0  0  0  0  0  0  0  0  0  # atno 6909 bound_to 6896
  146.1073  139.5791  142.9375 H   0  0  0  0  0  0  0  0  0  0  0  0  # atno 7974 bound_to 7965
  154.5829  140.0671  156.9130 H   0  0  0  0  0  0  0  0  0  0  0  0  # atno 8008 bound_to 7997
  155.2430  140.3346  155.4272 H   0  0  0  0  0  0  0  0  0  0  0  0  # atno 8009 bound_to 7997
  156.2202  140.1795  156.7479 H   0  0  0  0  0  0  0  0  0  0  0  0  # atno 8010 bound_to 7997
  140.6184  143.8258  150.7145 H   0  0  0  0  0  0  0  0  0  0  0  0  # atno 10167 bound_to 10162
  156.6300  130.4899  149.6132 H   0  0  0  0  0  0  0  0  0  0  0  0  # atno 10718 bound_to 10713
  154.8569  135.4294  154.2048 H   0  0  0  0  0  0  0  0  0  0  0  0  # atno 10763 bound_to 10752
  153.3086  135.6974  153.7142 H   0  0  0  0  0  0  0  0  0  0  0  0  # atno 10764 bound_to 10752
  153.6243  135.3496  155.2995 H   0  0  0  0  0  0  0  0  0  0  0  0  # atno 10765 bound_to 10752
  140.6123  134.4836  157.5216 H   0  0  0  0  0  0  0  0  0  0  0  0  # atno 11005 bound_to 11000
  145.5734  141.0391  143.2162 LP  0  0  0  0  0  0  0  0  0  0  0  0  # atno 17320 bound_to 7965
  144.7482  139.7264  143.7284 LP  0  0  0  0  0  0  0  0  0  0  0  0  # atno 17321 bound_to 7965
  140.1842  143.4089  152.1910 LP  0  0  0  0  0  0  0  0  0  0  0  0  # atno 17342 bound_to 10162
  139.5418  144.7263  151.4710 LP  0  0  0  0  0  0  0  0  0  0  0  0  # atno 17343 bound_to 10162
  156.2242  130.6755  151.1399 LP  0  0  0  0  0  0  0  0  0  0  0  0  # atno 17370 bound_to 10713
  157.7202  131.0686  150.6164 LP  0  0  0  0  0  0  0  0  0  0  0  0  # atno 17371 bound_to 10713
  139.9187  134.8193  156.1281 LP  0  0  0  0  0  0  0  0  0  0  0  0  # atno 17394 bound_to 11000
  141.0799  133.6759  156.2315 LP  0  0  0  0  0  0  0  0  0  0  0  0  # atno 17395 bound_to 11000

$$$$
