#       Name:                AV-unprocessed.smi:1240
#       Creating user name   scv26
#       Creation time:       Fri Mar 27 04:28:11 2020


#       File generated by GOLD software.
#

@<TRIPOS>MOLECULE
AV-unprocessed.smi:1240
    55    57     1
SMALL
NO_CHARGES


@<TRIPOS>ATOM
      1 ****        -2.7456   0.3738   0.4183 O.2            1 S1                 0.0000
      2 ****        -2.0494   1.1495  -0.2360 C.2            1 S1                 0.0000
      3 ****        -0.9396   0.7770  -0.8893 N.am           1 S1                 0.0000
      4 ****        -0.3881  -0.5749  -0.9295 C.3            1 S1                 0.0000
      5 ****         1.1448  -0.5743  -0.6854 C.3            1 S1                 0.0000
      6 ****         1.5336   0.1314   0.6520 C.3            1 S1                 0.0000
      7 ****         2.9938   0.0078   1.0984 C.3            1 S1                 0.0000
      8 ****         2.8968  -0.4556   2.5511 C.3            1 S1                 0.0000
      9 ****         1.6273   0.0104   2.9769 O.3            1 S1                 0.0000
     10 ****         0.7222  -0.2233   1.9099 C.3            1 S1                 0.0000
     11 ****         1.8149  -1.8675  -0.9354 N.3            1 S1                 0.0000
     12 ****         1.7633  -2.2854  -2.3351 C.3            1 S1                 0.0000
     13 ****         2.5942  -3.5548  -2.5830 C.3            1 S1                 0.0000
     14 ****         2.1286  -4.5950  -1.7302 O.3            1 S1                 0.0000
     15 ****         2.2140  -4.2509  -0.3515 C.3            1 S1                 0.0000
     16 ****         1.4017  -2.9735  -0.0737 C.3            1 S1                 0.0000
     17 ****        -2.2726   2.4676  -0.3791 N.am           1 S1                 0.0000
     18 ****        -3.3338   3.2581   0.1413 C.ar           1 S1                 0.0000
     19 ****        -3.1588   4.6575   0.1555 C.ar           1 S1                 0.0000
     20 ****        -4.1992   5.4684   0.6510 C.ar           1 S1                 0.0000
     21 ****        -5.3686   4.9759   1.1102 N.ar           1 S1                 0.0000
     22 ****        -5.5401   3.6374   1.0849 C.ar           1 S1                 0.0000
     23 ****        -4.5646   2.7378   0.6102 C.ar           1 S1                 0.0000
     24 ****        -0.4301   1.4856  -1.3967 H              1 S1                 0.0000
     25 ****        -0.8841  -1.2251  -0.2079 H              1 S1                 0.0000
     26 ****        -0.6288  -0.9749  -1.9132 H              1 S1                 0.0000
     27 ****         1.5483   0.0978  -1.4445 H              1 S1                 0.0000
     28 ****         1.3674   1.1986   0.4962 H              1 S1                 0.0000
     29 ****         3.5980  -0.6767   0.5041 H              1 S1                 0.0000
     30 ****         3.4768   0.9845   1.0492 H              1 S1                 0.0000
     31 ****         2.9212  -1.5446   2.6126 H              1 S1                 0.0000
     32 ****         3.7002  -0.0605   3.1730 H              1 S1                 0.0000
     33 ****        -0.1671   0.3974   2.0193 H              1 S1                 0.0000
     34 ****         0.3980  -1.2616   1.9324 H              1 S1                 0.0000
     35 ****         0.7347  -2.4855  -2.6338 H              1 S1                 0.0000
     36 ****         2.1294  -1.4843  -2.9779 H              1 S1                 0.0000
     37 ****         2.4986  -3.8744  -3.6209 H              1 S1                 0.0000
     38 ****         3.6535  -3.3681  -2.4001 H              1 S1                 0.0000
     39 ****         1.8339  -5.0787   0.2471 H              1 S1                 0.0000
     40 ****         3.2591  -4.1083  -0.0720 H              1 S1                 0.0000
     41 ****         1.5483  -2.7153   0.9715 H              1 S1                 0.0000
     42 ****         0.3406  -3.1834  -0.2117 H              1 S1                 0.0000
     43 ****        -1.5681   2.9799  -0.8889 H              1 S1                 0.0000
     44 ****        -2.2434   5.1067  -0.2017 H              1 S1                 0.0000
     45 ****        -4.0888   6.5424   0.6772 H              1 S1                 0.0000
     46 ****        -6.4884   3.2706   1.4490 H              1 S1                 0.0000
     47 ****        -4.7861   1.6821   0.6066 H              1 S1                 0.0000
     48 ****        -2.4930  -0.5917   0.4829 LP             1 S1                 0.0000
     49 ****        -3.5638   0.7089   0.8853 LP             1 S1                 0.0000
     50 ****         1.6713   0.9880   3.1824 LP             1 S1                 0.0000
     51 ****         1.3338  -0.4887   3.7922 LP             1 S1                 0.0000
     52 ****         2.7626  -1.6618  -0.6911 LP             1 S1                 0.0000
     53 ****         2.6812  -5.4128  -1.8912 LP             1 S1                 0.0000
     54 ****         1.1734  -4.7890  -1.9535 LP             1 S1                 0.0000
     55 ****        -6.0839   5.5822   1.4575 LP             1 S1                 0.0000
@<TRIPOS>BOND
    1    1    2 2     
    2    2    3 am    
    3    2   17 am    
    4    3    4 1     
    5    3   24 1     
    6    4    5 1     
    7    4   25 1     
    8    4   26 1     
    9    5    6 1     
   10    5   11 1     
   11    5   27 1     
   12    6   10 1     
   13    6    7 1     
   14    6   28 1     
   15    7    8 1     
   16    7   29 1     
   17    7   30 1     
   18    8    9 1     
   19    8   31 1     
   20    8   32 1     
   21    9   10 1     
   22   10   33 1     
   23   10   34 1     
   24   11   16 1     
   25   11   12 1     
   26   12   13 1     
   27   12   35 1     
   28   12   36 1     
   29   13   14 1     
   30   13   37 1     
   31   13   38 1     
   32   14   15 1     
   33   15   16 1     
   34   15   39 1     
   35   15   40 1     
   36   16   41 1     
   37   16   42 1     
   38   17   18 1     
   39   17   43 1     
   40   18   23 ar    
   41   18   19 ar    
   42   19   20 ar    
   43   19   44 1     
   44   20   21 ar    
   45   20   45 1     
   46   21   22 ar    
   47   22   23 ar    
   48   22   46 1     
   49   23   47 1     
   50    1   48 1     
   51    1   49 1     
   52    9   50 1     
   53    9   51 1     
   54   11   52 1     
   55   14   53 1     
   56   14   54 1     
   57   21   55 1     
@<TRIPOS>SUBSTRUCTURE
      1 S1             1
@<TRIPOS>SET
LONE_PAIRS      STATIC     ATOMS    <user>   **** ""
8 48 49 50 51 52 53 54 55
DONOR_HYDROGENS      STATIC     ATOMS    <user>   **** ""
2 24 43
ATOM$BLUE        STATIC     ATOMS    COLORGROUP SYSTEM
8 48 49 50 51 52 53 54 55
ATOM$RED        STATIC     ATOMS    COLORGROUP SYSTEM
2 24 43
