AV-unprocessed.smi:951|AV-procd|sdf|4254|dock6
  -GOLD-   22720 2163D 1   1.00000     0.00000
 Structure written by MMmdl.
 52 54  0  0  0  0  0  0  0  0  2 V2000
  146.9460  140.7509  157.8765 O   0  0  0  0  0  0  0  0  0  0  0  0
  147.5039  139.7302  157.4714 C   0  0  0  0  0  0  0  0  0  0  0  0
  148.8309  139.5385  157.5379 N   0  0  0  0  0  0  0  0  0  0  0  0
  149.7970  140.4835  158.0927 C   0  0  0  0  0  0  0  0  0  0  0  0
  150.4667  141.3522  157.0095 C   0  0  0  0  0  0  0  0  0  0  0  0
  151.2136  142.5569  157.5575 C   0  0  0  0  0  0  0  0  0  0  0  0
  152.2560  142.4256  158.5000 C   0  0  0  0  0  0  0  0  0  0  0  0
  152.9310  143.5810  158.9464 C   0  0  0  0  0  0  0  0  0  0  0  0
  152.5501  144.8416  158.4419 C   0  0  0  0  0  0  0  0  0  0  0  0
  151.5025  144.9155  157.5019 C   0  0  0  0  0  0  0  0  0  0  0  0
  150.8805  143.7861  157.0990 N   0  3  0  0  0  0  0  0  0  0  0  0
  146.6756  138.5643  156.8984 C   0  0  1  0  0  0  0  0  0  0  0  0
  147.0917  138.3124  155.4398 C   0  0  0  0  0  0  0  0  0  0  0  0
  146.8571  136.8315  155.2221 C   0  0  0  0  0  0  0  0  0  0  0  0
  147.0650  136.2005  156.5974 C   0  0  0  0  0  0  0  0  0  0  0  0
  146.8593  137.2676  157.5824 N   0  0  0  0  0  0  0  0  0  0  0  0
  146.7561  137.0654  158.9222 C   0  0  0  0  0  0  0  0  0  0  0  0
  146.4555  137.9789  159.6913 O   0  0  0  0  0  0  0  0  0  0  0  0
  147.0079  135.6511  159.5029 C   0  0  0  0  0  0  0  0  0  0  0  0
  145.7217  135.0366  160.1036 C   0  0  0  0  0  0  0  0  0  0  0  0
  145.3543  135.6250  161.4769 C   0  0  0  0  0  0  0  0  0  0  0  0
  146.5151  135.4685  162.4690 C   0  0  0  0  0  0  0  0  0  0  0  0
  147.7942  136.1292  161.9347 C   0  0  0  0  0  0  0  0  0  0  0  0
  148.1664  135.6028  160.5330 C   0  0  0  0  0  0  0  0  0  0  0  0
  149.2000  138.6711  157.1755 H   0  0  0  0  0  0  0  0  0  0  0  0
  149.2725  141.1259  158.8005 H   0  0  0  0  0  0  0  0  0  0  0  0
  150.5592  139.9593  158.6717 H   0  0  0  0  0  0  0  0  0  0  0  0
  151.1613  140.7416  156.4306 H   0  0  0  0  0  0  0  0  0  0  0  0
  149.7118  141.6993  156.3033 H   0  0  0  0  0  0  0  0  0  0  0  0
  152.5419  141.4518  158.8707 H   0  0  0  0  0  0  0  0  0  0  0  0
  153.7327  143.5009  159.6658 H   0  0  0  0  0  0  0  0  0  0  0  0
  153.0558  145.7381  158.7697 H   0  0  0  0  0  0  0  0  0  0  0  0
  151.1480  145.8357  157.0608 H   0  0  0  0  0  0  0  0  0  0  0  0
  145.6119  138.8069  156.9397 H   0  0  0  0  0  0  0  0  0  0  0  0
  146.5337  138.9287  154.7340 H   0  0  0  0  0  0  0  0  0  0  0  0
  148.1528  138.5205  155.2878 H   0  0  0  0  0  0  0  0  0  0  0  0
  145.8247  136.6754  154.9065 H   0  0  0  0  0  0  0  0  0  0  0  0
  147.5060  136.4044  154.4569 H   0  0  0  0  0  0  0  0  0  0  0  0
  146.3865  135.3594  156.7443 H   0  0  0  0  0  0  0  0  0  0  0  0
  148.0889  135.8335  156.6809 H   0  0  0  0  0  0  0  0  0  0  0  0
  147.3314  135.0050  158.6888 H   0  0  0  0  0  0  0  0  0  0  0  0
  144.8823  135.1637  159.4190 H   0  0  0  0  0  0  0  0  0  0  0  0
  145.8595  133.9595  160.2057 H   0  0  0  0  0  0  0  0  0  0  0  0
  145.0922  136.6787  161.3774 H   0  0  0  0  0  0  0  0  0  0  0  0
  144.4670  135.1246  161.8657 H   0  0  0  0  0  0  0  0  0  0  0  0
  146.2450  135.9058  163.4306 H   0  0  0  0  0  0  0  0  0  0  0  0
  146.6992  134.4090  162.6516 H   0  0  0  0  0  0  0  0  0  0  0  0
  147.6641  137.2106  161.9156 H   0  0  0  0  0  0  0  0  0  0  0  0
  148.6176  135.9427  162.6246 H   0  0  0  0  0  0  0  0  0  0  0  0
  148.4970  134.5680  160.6312 H   0  0  0  0  0  0  0  0  0  0  0  0
  149.0300  136.1513  160.1544 H   0  0  0  0  0  0  0  0  0  0  0  0
  150.1294  143.8625  156.4129 H   0  0  0  0  0  0  0  0  0  0  0  0
  1  2  2  0  0  0  0
  2  3  1  0  0  0  0
  2 12  1  0  0  0  0
  3  4  1  0  0  0  0
  3 25  1  0  0  0  0
  4  5  1  0  0  0  0
  4 26  1  0  0  0  0
  4 27  1  0  0  0  0
  5  6  1  0  0  0  0
  5 28  1  0  0  0  0
  5 29  1  0  0  0  0
  6 11  1  0  0  0  0
  6  7  2  0  0  0  0
  7  8  1  0  0  0  0
  7 30  1  0  0  0  0
  8  9  2  0  0  0  0
  8 31  1  0  0  0  0
  9 10  1  0  0  0  0
  9 32  1  0  0  0  0
 10 11  2  0  0  0  0
 10 33  1  0  0  0  0
 11 52  1  0  0  0  0
 12 16  1  0  0  0  0
 12 13  1  0  0  0  0
 12 34  1  0  0  0  0
 13 14  1  0  0  0  0
 13 35  1  0  0  0  0
 13 36  1  0  0  0  0
 14 15  1  0  0  0  0
 14 37  1  0  0  0  0
 14 38  1  0  0  0  0
 15 16  1  0  0  0  0
 15 39  1  0  0  0  0
 15 40  1  0  0  0  0
 16 17  1  0  0  0  0
 17 18  2  0  0  0  0
 17 19  1  0  0  0  0
 19 24  1  0  0  0  0
 19 20  1  0  0  0  0
 19 41  1  0  0  0  0
 20 21  1  0  0  0  0
 20 42  1  0  0  0  0
 20 43  1  0  0  0  0
 21 22  1  0  0  0  0
 21 44  1  0  0  0  0
 21 45  1  0  0  0  0
 22 23  1  0  0  0  0
 22 46  1  0  0  0  0
 22 47  1  0  0  0  0
 23 24  1  0  0  0  0
 23 48  1  0  0  0  0
 23 49  1  0  0  0  0
 24 50  1  0  0  0  0
 24 51  1  0  0  0  0
M  CHG  1  11   1
M  END
> <s_m_source_file>
AV-unprocessed.smi

> <i_m_source_file_index>
951

> <i_lp_mmshare_version>
43012

> <i_f3d_flags>
0

> <s_epik_input>
bjFbY0hdW2NIXVtjSF1bY0hdYzFbQ0gyXVtDSDJdW05IXUMoPU8pW0NAQEhdMltDSDJdW0NIMl1bQ0gyXU4yQyg9TylbQ0hdM1tDSDJdW0NIMl1bQ0gyXVtDSDJdW0NIMl0z

> <s_epik_cmdline>
J2VwaWtfcHl0aG9uJywgJy1waCcsICc3LjAnLCAnLXRuJywgJzgnLCAnLW1hJywgJzIwMCcsICctbWV0YWxfYmluZGluZycsICctaW1hZScsICc8aW5maWxlLm1hZT4nLCAnLW9tYWUnLCAnPG91dGZpbGUubWFlPic=

> <r_epik_Ionization_Penalty>
1.85306

> <r_epik_Ionization_Penalty_Charging>
1.85306

> <r_epik_Ionization_Penalty_Neutral>
5.78903e-08

> <r_epik_State_Penalty>
1.97071

> <r_epik_Charging_Adjusted_Penalty>
3.82377

> <i_epik_Tot_Q>
1

> <i_epik_Tot_abs_Q>
1

> <r_epik_Metal_State_Penalty>
1.99634

> <b_epik_Metal_Only>
0

> <s_lp_Force_Field>
OPLS_2005

> <r_lp_Energy>
29.0494

> <b_lp_Chiralities_Consistent>
1

> <s_lp_Variant>
AV-unprocessed.smi:951-4

> <Gold.Version>
5.8.1

> <Gold.Id.Protein>
6NUR|6NUR_protein|mol2

> <Gold.PLP.Fitness>
42.8501

> <Gold.PLP.PLP>
-34.4161

> <Gold.PLP.part.hbond>
-2.8397

> <Gold.PLP.part.metal>
0.0000

> <Gold.PLP.part.buried>
-5.6262

> <Gold.PLP.part.nonpolar>
-26.8125

> <Gold.PLP.part.repulsive>
0.1301

> <Gold.PLP.ligand.clash>
0.0000

> <Gold.PLP.ligand.torsion>
0.2883

> <Gold.PLP.Chemscore.Hbond>
2.9760

> <Gold.PLP.Chemscore.CHOScore>
0.0000

> <Gold.PLP.Chemscore.Metal>
0.0000

> <Gold.Chemscore.Hbonds>
donor molecule, donor type, donor heavy atom, donor atom, acceptor molecule, acceptor atom, score
      L1  H    11    52       P1  8028  2.00
      P1  H  6934  6947       L1    18  0.85

> <Gold.PLP.Chemscore.Internal.Correction>
0.0825

> <Gold.Rescore>
     Score         DG    S(hbond)    S(metal)    S(lipo)     H(rot)  DE(clash)    DE(int)     intcor
     18.82     -20.30       1.98        0.00     106.37       1.65       0.16       1.31       ----

> <Gold.Chemscore.Fitness>
18.8194

> <Gold.Chemscore.DG>
-20.2962

> <Gold.Chemscore.ZeroCoef>
-5.4800

> <Gold.Chemscore.Hbond>
1.9781

> <Gold.Chemscore.Metal>
0.0000

> <Gold.Chemscore.Lipo>
106.3719

> <Gold.Chemscore.Internal_Hbond>
0.0000

> <Gold.Chemscore.DEClash>
0.1638

> <Gold.Chemscore.DEInternal>
1.3130

> <Gold.Chemscore.Rot>
1.6548

> <Gold.Chemscore.Internal.Correction>
   9.000000E+99

> <Gold.Chemscore.Hbonds>
donor molecule, donor type, donor heavy atom, donor atom, acceptor molecule, acceptor atom, score
      L1  H    11    52       P1  8028  0.95
      P1  H  6934  6947       L1    18  0.85

> <Gold.Chemscore.Hbond.Weighted>
-6.6069

> <Gold.Chemscore.Metal.Weighted>
-0.0000

> <Gold.Chemscore.Lipo.Weighted>
-12.4455

> <Gold.Chemscore.Internal_Hbond.Weighted>
0.0000

> <Gold.Chemscore.DEClash.Weighted>
0.1638

> <Gold.Chemscore.DEInternal.Weighted>
1.3130

> <Gold.Chemscore.Rot.Weighted>
4.2362

> <Gold.Chemscore.Internal.Correction.Weighted>
   9.000000E+99

> <Gold.Protein.RotatedTorsions>
[ 6907 6896 6895 6894 ] final -152.04 input  -60.11 | X-H torsion
[ 7974 7965 7964 7962 ] final  -91.35 input  175.53 | X-H torsion
[ 8008 7997 7996 7995 ] final  -46.72 input   59.86 | X-H torsion
[ 10167 10162 10161 10158 ] final  120.59 input  -65.29 | X-H torsion
[ 10718 10713 10712 10709 ] final -125.58 input   66.30 | X-H torsion
[ 10763 10752 10751 10750 ] final  148.71 input  -60.55 | X-H torsion
[ 11005 11000 10999 10996 ] final  -90.11 input  -57.11 | X-H torsion

> <Gold.Protein.ActiveResidues>
 VAL166  LYS551  ARG553  GLY616  TRP617  ASP618  TYR619  PRO620  LYS621  CYS622 
 ASP623  PHE694  ASN695  SER759  ASP760  ASP761  ALA762  ILE779  LEU786  VAL792 
 PHE793  MET794  SER795  GLU796  ALA797  LYS798  CYS799  TRP800  GLU811  SER814 

> <Gold.Protein.RotatedAtoms>
  151.2219  133.4497  159.2600 H   0  0  0  0  0  0  0  0  0  0  0  0  # atno 6907 bound_to 6896
  151.0876  134.9897  159.8397 H   0  0  0  0  0  0  0  0  0  0  0  0  # atno 6908 bound_to 6896
  152.5431  134.2155  159.8820 H   0  0  0  0  0  0  0  0  0  0  0  0  # atno 6909 bound_to 6896
  145.4143  140.9547  143.2216 H   0  0  0  0  0  0  0  0  0  0  0  0  # atno 7974 bound_to 7965
  154.4010  140.1364  156.4057 H   0  0  0  0  0  0  0  0  0  0  0  0  # atno 8008 bound_to 7997
  155.7782  140.3482  155.5262 H   0  0  0  0  0  0  0  0  0  0  0  0  # atno 8009 bound_to 7997
  155.8700  140.0970  157.1547 H   0  0  0  0  0  0  0  0  0  0  0  0  # atno 8010 bound_to 7997
  139.5972  144.7045  151.3147 H   0  0  0  0  0  0  0  0  0  0  0  0  # atno 10167 bound_to 10162
  156.1688  130.6653  151.0151 H   0  0  0  0  0  0  0  0  0  0  0  0  # atno 10718 bound_to 10713
  154.0592  135.2875  155.3327 H   0  0  0  0  0  0  0  0  0  0  0  0  # atno 10763 bound_to 10752
  154.6819  135.5260  153.8278 H   0  0  0  0  0  0  0  0  0  0  0  0  # atno 10764 bound_to 10752
  153.0529  135.6583  154.0782 H   0  0  0  0  0  0  0  0  0  0  0  0  # atno 10765 bound_to 10752
  141.1572  133.7672  156.9691 H   0  0  0  0  0  0  0  0  0  0  0  0  # atno 11005 bound_to 11000
  144.8287  139.5665  143.6953 LP  0  0  0  0  0  0  0  0  0  0  0  0  # atno 17320 bound_to 7965
  146.2689  139.6586  142.9310 LP  0  0  0  0  0  0  0  0  0  0  0  0  # atno 17321 bound_to 7965
  140.7221  143.7105  150.7773 LP  0  0  0  0  0  0  0  0  0  0  0  0  # atno 17342 bound_to 10162
  140.0674  143.5094  152.2597 LP  0  0  0  0  0  0  0  0  0  0  0  0  # atno 17343 bound_to 10162
  157.6787  131.0843  150.7426 LP  0  0  0  0  0  0  0  0  0  0  0  0  # atno 17370 bound_to 10713
  156.7486  130.4761  149.5461 LP  0  0  0  0  0  0  0  0  0  0  0  0  # atno 17371 bound_to 10713
  140.1141  134.9458  157.2108 LP  0  0  0  0  0  0  0  0  0  0  0  0  # atno 17394 bound_to 11000
  140.3156  134.2974  155.7257 LP  0  0  0  0  0  0  0  0  0  0  0  0  # atno 17395 bound_to 11000

$$$$
