AV-unprocessed.smi:2030|AV-procd|sdf|8226|dock4
  -GOLD-   2272010493D 1   1.00000     0.00000
 Structure written by MMmdl.
 34 35  0  0  0  0  0  0  0  0  2 V2000
  148.5795  140.2234  154.7417 C   0  0  0  0  0  0  0  0  0  0  0  0
  149.4616  140.4034  155.8926 N   0  0  0  0  0  0  0  0  0  0  0  0
  148.8237  140.7842  157.0543 N   0  0  0  0  0  0  0  0  0  0  0  0
  149.4714  141.1989  158.0986 C   0  0  0  0  0  0  0  0  0  0  0  0
  148.7152  141.6183  159.3168 C   0  0  0  0  0  0  0  0  0  0  0  0
  147.7354  140.9174  159.5987 O   0  0  0  0  0  0  0  0  0  0  0  0
  149.1524  142.7101  160.0123 N   0  5  0  0  0  0  0  0  0  0  0  0
  149.4020  144.0332  159.4398 C   0  0  0  0  0  0  0  0  0  0  0  0
  150.6298  144.6959  160.1083 C   0  0  0  0  0  0  0  0  0  0  0  0
  151.6000  143.7353  160.7938 C   0  0  0  0  0  0  0  0  0  0  0  0
  152.5979  143.0670  160.0478 C   0  0  0  0  0  0  0  0  0  0  0  0
  153.4757  142.1964  160.7215 C   0  0  0  0  0  0  0  0  0  0  0  0
  153.3305  142.0280  162.1117 C   0  0  0  0  0  0  0  0  0  0  0  0
  152.3109  142.7436  162.7695 C   0  0  0  0  0  0  0  0  0  0  0  0
  151.4672  143.5841  162.1345 N   0  0  0  0  0  0  0  0  0  0  0  0
  150.9870  141.2928  158.0699 C   0  0  0  0  0  0  0  0  0  0  0  0
  151.6140  140.3013  157.0699 C   0  0  0  0  0  0  0  0  0  0  0  0
  150.7934  140.1754  155.7839 C   0  0  0  0  0  0  0  0  0  0  0  0
  151.3499  139.8558  154.7330 O   0  0  0  0  0  0  0  0  0  0  0  0
  148.8470  140.9157  153.9426 H   0  0  0  0  0  0  0  0  0  0  0  0
  147.5334  140.4019  154.9963 H   0  0  0  0  0  0  0  0  0  0  0  0
  148.6536  139.2064  154.3540 H   0  0  0  0  0  0  0  0  0  0  0  0
  149.5617  143.9906  158.3614 H   0  0  0  0  0  0  0  0  0  0  0  0
  148.5408  144.6868  159.5841 H   0  0  0  0  0  0  0  0  0  0  0  0
  151.1864  145.2475  159.3500 H   0  0  0  0  0  0  0  0  0  0  0  0
  150.2987  145.4449  160.8295 H   0  0  0  0  0  0  0  0  0  0  0  0
  152.6831  143.2142  158.9812 H   0  0  0  0  0  0  0  0  0  0  0  0
  154.2465  141.6672  160.1813 H   0  0  0  0  0  0  0  0  0  0  0  0
  153.9845  141.3671  162.6606 H   0  0  0  0  0  0  0  0  0  0  0  0
  152.1714  142.6408  163.8356 H   0  0  0  0  0  0  0  0  0  0  0  0
  151.2778  142.3126  157.8159 H   0  0  0  0  0  0  0  0  0  0  0  0
  151.4079  141.0888  159.0551 H   0  0  0  0  0  0  0  0  0  0  0  0
  152.6378  140.5952  156.8357 H   0  0  0  0  0  0  0  0  0  0  0  0
  151.6668  139.3101  157.5217 H   0  0  0  0  0  0  0  0  0  0  0  0
  1  2  1  0  0  0  0
  1 20  1  0  0  0  0
  1 21  1  0  0  0  0
  1 22  1  0  0  0  0
  2 18  1  0  0  0  0
  2  3  1  0  0  0  0
  3  4  2  0  0  0  0
  4  5  1  0  0  0  0
  4 16  1  0  0  0  0
  5  6  2  0  0  0  0
  5  7  1  0  0  0  0
  7  8  1  0  0  0  0
  8  9  1  0  0  0  0
  8 23  1  0  0  0  0
  8 24  1  0  0  0  0
  9 10  1  0  0  0  0
  9 25  1  0  0  0  0
  9 26  1  0  0  0  0
 10 15  1  0  0  0  0
 10 11  2  0  0  0  0
 11 12  1  0  0  0  0
 11 27  1  0  0  0  0
 12 13  2  0  0  0  0
 12 28  1  0  0  0  0
 13 14  1  0  0  0  0
 13 29  1  0  0  0  0
 14 15  2  0  0  0  0
 14 30  1  0  0  0  0
 16 17  1  0  0  0  0
 16 31  1  0  0  0  0
 16 32  1  0  0  0  0
 17 18  1  0  0  0  0
 17 33  1  0  0  0  0
 17 34  1  0  0  0  0
 18 19  2  0  0  0  0
M  CHG  1   7  -1
M  END
> <s_m_source_file>
AV-unprocessed.smi

> <i_m_source_file_index>
2030

> <i_lp_mmshare_version>
43012

> <i_f3d_flags>
0

> <s_epik_input>
Tz1DMVtDSDJdW0NIMl1DKD1OTjFbQ0gzXSlDKD1PKVtOSF1bQ0gyXVtDSDJdYzJbY0hdW2NIXVtjSF1bY0hdbjI=

> <s_epik_cmdline>
J2VwaWtfcHl0aG9uJywgJy1waCcsICc3LjAnLCAnLXRuJywgJzgnLCAnLW1hJywgJzIwMCcsICctbWV0YWxfYmluZGluZycsICctaW1hZScsICc8aW5maWxlLm1hZT4nLCAnLW9tYWUnLCAnPG91dGZpbGUubWFlPic=

> <r_epik_Ionization_Penalty>
5.44594

> <r_epik_Ionization_Penalty_Charging>
5.3715

> <r_epik_Ionization_Penalty_Neutral>
0.0744438

> <r_epik_State_Penalty>
5.38529

> <r_epik_Charging_Adjusted_Penalty>
10.7568

> <i_epik_Tot_Q>
-1

> <i_epik_Tot_abs_Q>
1

> <r_epik_Metal_State_Penalty>
1.42988

> <b_epik_Metal_Only>
1

> <s_epik_Chemistry_Notes>
This compound has an imine and may undergo hydrolysis.

> <s_lp_Force_Field>
OPLS_2005

> <r_lp_Energy>
26.3213

> <b_lp_Chiralities_Consistent>
1

> <s_lp_Variant>
AV-unprocessed.smi:2030-3

> <Gold.Version>
5.8.1

> <Gold.Id.Protein>
6NUR|6NUR_protein|mol2

> <Gold.PLP.Fitness>
44.7124

> <Gold.PLP.PLP>
-45.3483

> <Gold.PLP.part.hbond>
-1.8816

> <Gold.PLP.part.metal>
0.0000

> <Gold.PLP.part.buried>
-5.1034

> <Gold.PLP.part.nonpolar>
-39.0122

> <Gold.PLP.part.repulsive>
0.6222

> <Gold.PLP.ligand.clash>
0.0000

> <Gold.PLP.ligand.torsion>
1.8332

> <Gold.PLP.Chemscore.Hbond>
1.0000

> <Gold.PLP.Chemscore.CHOScore>
0.0000

> <Gold.PLP.Chemscore.Metal>
0.0000

> <Gold.Chemscore.Hbonds>
donor molecule, donor type, donor heavy atom, donor atom, acceptor molecule, acceptor atom, score
      P1  H  6933  6944       L1     7  0.17
      P1  H  6933  6945       L1    15  0.03
      P1  H  7989  7998       L1    19  1.00

> <Gold.PLP.Chemscore.Internal.Correction>
0.0304

> <Gold.Rescore>
     Score         DG    S(hbond)    S(metal)    S(lipo)     H(rot)  DE(clash)    DE(int)     intcor
     15.36     -16.81       0.81        0.00     104.82       1.42       0.02       1.44       ----

> <Gold.Chemscore.Fitness>
15.3579

> <Gold.Chemscore.DG>
-16.8105

> <Gold.Chemscore.ZeroCoef>
-5.4800

> <Gold.Chemscore.Hbond>
0.8073

> <Gold.Chemscore.Metal>
0.0000

> <Gold.Chemscore.Lipo>
104.8176

> <Gold.Chemscore.Internal_Hbond>
0.0000

> <Gold.Chemscore.DEClash>
0.0172

> <Gold.Chemscore.DEInternal>
1.4353

> <Gold.Chemscore.Rot>
1.4178

> <Gold.Chemscore.Internal.Correction>
   9.000000E+99

> <Gold.Chemscore.Hbonds>
donor molecule, donor type, donor heavy atom, donor atom, acceptor molecule, acceptor atom, score
      P1  H  6933  6944       L1     7  0.02
      P1  H  7989  7998       L1    19  0.99

> <Gold.Chemscore.Hbond.Weighted>
-2.6963

> <Gold.Chemscore.Metal.Weighted>
-0.0000

> <Gold.Chemscore.Lipo.Weighted>
-12.2637

> <Gold.Chemscore.Internal_Hbond.Weighted>
0.0000

> <Gold.Chemscore.DEClash.Weighted>
0.0172

> <Gold.Chemscore.DEInternal.Weighted>
1.4353

> <Gold.Chemscore.Rot.Weighted>
3.6295

> <Gold.Chemscore.Internal.Correction.Weighted>
   9.000000E+99

> <Gold.Protein.RotatedTorsions>
[ 6907 6896 6895 6894 ] final -101.26 input  -60.11 | X-H torsion
[ 7974 7965 7964 7962 ] final   42.02 input  175.53 | X-H torsion
[ 8008 7997 7996 7995 ] final  -59.53 input   59.86 | X-H torsion
[ 10167 10162 10161 10158 ] final  150.63 input  -65.29 | X-H torsion
[ 10718 10713 10712 10709 ] final   68.03 input   66.30 | X-H torsion
[ 10763 10752 10751 10750 ] final  -54.26 input  -60.55 | X-H torsion
[ 11005 11000 10999 10996 ] final  112.72 input  -57.11 | X-H torsion

> <Gold.Protein.ActiveResidues>
 VAL166  LYS551  ARG553  GLY616  TRP617  ASP618  TYR619  PRO620  LYS621  CYS622 
 ASP623  PHE694  ASN695  SER759  ASP760  ASP761  ALA762  ILE779  LEU786  VAL792 
 PHE793  MET794  SER795  GLU796  ALA797  LYS798  CYS799  TRP800  GLU811  SER814 

> <Gold.Protein.RotatedAtoms>
  150.7147  134.0762  159.3881 H   0  0  0  0  0  0  0  0  0  0  0  0  # atno 6907 bound_to 6896
  151.8745  135.0475  160.0492 H   0  0  0  0  0  0  0  0  0  0  0  0  # atno 6908 bound_to 6896
  152.2617  133.5267  159.5422 H   0  0  0  0  0  0  0  0  0  0  0  0  # atno 6909 bound_to 6896
  146.0775  139.5348  142.9558 H   0  0  0  0  0  0  0  0  0  0  0  0  # atno 7974 bound_to 7965
  154.4356  140.1060  156.6130 H   0  0  0  0  0  0  0  0  0  0  0  0  # atno 8008 bound_to 7997
  155.5789  140.3490  155.4516 H   0  0  0  0  0  0  0  0  0  0  0  0  # atno 8009 bound_to 7997
  156.0333  140.1265  157.0224 H   0  0  0  0  0  0  0  0  0  0  0  0  # atno 8010 bound_to 7997
  139.4848  144.5507  151.7406 H   0  0  0  0  0  0  0  0  0  0  0  0  # atno 10167 bound_to 10162
  157.6266  130.9352  150.0323 H   0  0  0  0  0  0  0  0  0  0  0  0  # atno 10718 bound_to 10713
  154.1719  135.6457  153.5012 H   0  0  0  0  0  0  0  0  0  0  0  0  # atno 10763 bound_to 10752
  153.0082  135.5385  154.6603 H   0  0  0  0  0  0  0  0  0  0  0  0  # atno 10764 bound_to 10752
  154.5945  135.2937  155.0573 H   0  0  0  0  0  0  0  0  0  0  0  0  # atno 10765 bound_to 10752
  139.8934  134.9535  156.6629 H   0  0  0  0  0  0  0  0  0  0  0  0  # atno 11005 bound_to 11000
  145.6279  141.0310  143.1879 LP  0  0  0  0  0  0  0  0  0  0  0  0  # atno 17320 bound_to 7965
  144.7271  139.7841  143.7361 LP  0  0  0  0  0  0  0  0  0  0  0  0  # atno 17321 bound_to 7965
  140.5060  144.1097  150.5983 LP  0  0  0  0  0  0  0  0  0  0  0  0  # atno 17342 bound_to 10162
  140.4006  143.2705  151.9952 LP  0  0  0  0  0  0  0  0  0  0  0  0  # atno 17343 bound_to 10162
  156.1441  130.3642  149.9537 LP  0  0  0  0  0  0  0  0  0  0  0  0  # atno 17370 bound_to 10713
  156.7571  130.9137  151.3640 LP  0  0  0  0  0  0  0  0  0  0  0  0  # atno 17371 bound_to 10713
  140.7433  133.8959  155.8293 LP  0  0  0  0  0  0  0  0  0  0  0  0  # atno 17394 bound_to 11000
  141.0060  134.1085  157.4269 LP  0  0  0  0  0  0  0  0  0  0  0  0  # atno 17395 bound_to 11000

$$$$
