AV-unprocessed.smi:1002|AV-procd|sdf|4359|dock10
  -GOLD-   22720 2263D 1   1.00000     0.00000
 Structure written by MMmdl.
 36 37  0  0  0  0  0  0  0  0  2 V2000
  152.8773  140.5424  158.2280 O   0  0  0  0  0  0  0  0  0  0  0  0
  152.1713  141.5248  158.0001 C   0  0  0  0  0  0  0  0  0  0  0  0
  152.5920  142.9032  158.5111 C   0  0  0  0  0  0  0  0  0  0  0  0
  152.7023  142.8965  160.0256 C   0  0  0  0  0  0  0  0  0  0  0  0
  153.4234  141.8835  160.6917 C   0  0  0  0  0  0  0  0  0  0  0  0
  153.4956  141.9232  162.0985 C   0  0  0  0  0  0  0  0  0  0  0  0
  152.9079  142.8830  162.8450 N   0  0  0  0  0  0  0  0  0  0  0  0
  152.2175  143.8487  162.2013 C   0  0  0  0  0  0  0  0  0  0  0  0
  152.0828  143.9007  160.7994 C   0  0  0  0  0  0  0  0  0  0  0  0
  151.0210  141.4689  157.3106 N   0  0  0  0  0  0  0  0  0  0  0  0
  150.4411  140.2645  156.7254 C   0  0  2  0  0  0  0  0  0  0  0  0
  149.8910  139.3647  157.8480 C   0  0  0  0  0  0  0  0  0  0  0  0
  149.3378  138.0394  157.2900 C   0  0  0  0  0  0  0  0  0  0  0  0
  150.3850  137.2689  156.4482 C   0  0  2  0  0  0  0  0  0  0  0  0
  151.5147  136.6550  157.3089 C   0  0  0  0  0  0  0  0  0  0  0  0
  151.4582  136.8222  158.5474 O   0  0  0  0  0  0  0  0  0  0  0  0
  152.4388  136.0505  156.7202 O   0  5  0  0  0  0  0  0  0  0  0  0
  150.9266  138.1901  155.3276 C   0  0  0  0  0  0  0  0  0  0  0  0
  151.4893  139.5144  155.8771 C   0  0  0  0  0  0  0  0  0  0  0  0
  153.5470  143.1928  158.0702 H   0  0  0  0  0  0  0  0  0  0  0  0
  151.8616  143.6494  158.1955 H   0  0  0  0  0  0  0  0  0  0  0  0
  153.9130  141.0949  160.1393 H   0  0  0  0  0  0  0  0  0  0  0  0
  154.0401  141.1627  162.6384 H   0  0  0  0  0  0  0  0  0  0  0  0
  151.7578  144.6034  162.8223 H   0  0  0  0  0  0  0  0  0  0  0  0
  151.5207  144.6958  160.3317 H   0  0  0  0  0  0  0  0  0  0  0  0
  150.5078  142.3280  157.1759 H   0  0  0  0  0  0  0  0  0  0  0  0
  149.6060  140.5484  156.0818 H   0  0  0  0  0  0  0  0  0  0  0  0
  150.6762  139.1582  158.5765 H   0  0  0  0  0  0  0  0  0  0  0  0
  149.1029  139.8878  158.3911 H   0  0  0  0  0  0  0  0  0  0  0  0
  148.9564  137.4213  158.1036 H   0  0  0  0  0  0  0  0  0  0  0  0
  148.4724  138.2557  156.6627 H   0  0  0  0  0  0  0  0  0  0  0  0
  149.8831  136.4229  155.9774 H   0  0  0  0  0  0  0  0  0  0  0  0
  151.6858  137.6820  154.7321 H   0  0  0  0  0  0  0  0  0  0  0  0
  150.1163  138.4124  154.6325 H   0  0  0  0  0  0  0  0  0  0  0  0
  151.8160  140.1402  155.0458 H   0  0  0  0  0  0  0  0  0  0  0  0
  152.3791  139.3165  156.4764 H   0  0  0  0  0  0  0  0  0  0  0  0
  1  2  2  0  0  0  0
  2  3  1  0  0  0  0
  2 10  1  0  0  0  0
  3  4  1  0  0  0  0
  3 20  1  0  0  0  0
  3 21  1  0  0  0  0
  4  9  1  0  0  0  0
  4  5  2  0  0  0  0
  5  6  1  0  0  0  0
  5 22  1  0  0  0  0
  6  7  2  0  0  0  0
  6 23  1  0  0  0  0
  7  8  1  0  0  0  0
  8  9  2  0  0  0  0
  8 24  1  0  0  0  0
  9 25  1  0  0  0  0
 10 11  1  0  0  0  0
 10 26  1  0  0  0  0
 11 19  1  0  0  0  0
 11 12  1  0  0  0  0
 11 27  1  0  0  0  0
 12 13  1  0  0  0  0
 12 28  1  0  0  0  0
 12 29  1  0  0  0  0
 13 14  1  0  0  0  0
 13 30  1  0  0  0  0
 13 31  1  0  0  0  0
 14 15  1  0  0  0  0
 14 18  1  0  0  0  0
 14 32  1  0  0  0  0
 15 16  2  0  0  0  0
 15 17  1  0  0  0  0
 18 19  1  0  0  0  0
 18 33  1  0  0  0  0
 18 34  1  0  0  0  0
 19 35  1  0  0  0  0
 19 36  1  0  0  0  0
M  CHG  1  17  -1
M  END
> <s_m_source_file>
AV-unprocessed.smi

> <i_m_source_file_index>
1002

> <i_lp_mmshare_version>
43012

> <i_f3d_flags>
0

> <s_epik_input>
Tz1DKFtPSF0pW0NAQEhdKFtDSDJdW0NIMl0xKVtDSDJdW0NIMl1bQ0BIXTFbTkhdQyg9TylbQ0gyXWMyW2NIXVtjSF1uW2NIXVtjSF0y

> <s_epik_cmdline>
J2VwaWtfcHl0aG9uJywgJy1waCcsICc3LjAnLCAnLXRuJywgJzgnLCAnLW1hJywgJzIwMCcsICctbWV0YWxfYmluZGluZycsICctaW1hZScsICc8aW5maWxlLm1hZT4nLCAnLW9tYWUnLCAnPG91dGZpbGUubWFlPic=

> <r_lp_tautomer_probability>
1

> <r_epik_Ionization_Penalty>
0.0065671

> <r_epik_Ionization_Penalty_Charging>
0.00222897

> <r_epik_Ionization_Penalty_Neutral>
0.00433813

> <r_epik_State_Penalty>
-0

> <r_epik_Charging_Adjusted_Penalty>
0.00222897

> <i_epik_Tot_Q>
-1

> <i_epik_Tot_abs_Q>
1

> <r_epik_Metal_State_Penalty>
-0

> <b_epik_Metal_Only>
0

> <s_lp_Force_Field>
OPLS_2005

> <r_lp_Energy>
6.9224

> <b_lp_Chiralities_Consistent>
1

> <s_lp_Variant>
AV-unprocessed.smi:1002-2

> <Gold.Version>
5.8.1

> <Gold.Id.Protein>
6NUR|6NUR_protein|mol2

> <Gold.PLP.Fitness>
45.5515

> <Gold.PLP.PLP>
-33.3302

> <Gold.PLP.part.hbond>
-3.0000

> <Gold.PLP.part.metal>
0.0000

> <Gold.PLP.part.buried>
-3.7026

> <Gold.PLP.part.nonpolar>
-26.0689

> <Gold.PLP.part.repulsive>
0.1600

> <Gold.PLP.ligand.clash>
0.0000

> <Gold.PLP.ligand.torsion>
0.2592

> <Gold.PLP.Chemscore.Hbond>
4.2354

> <Gold.PLP.Chemscore.CHOScore>
0.0000

> <Gold.PLP.Chemscore.Metal>
0.0000

> <Gold.Chemscore.Hbonds>
donor molecule, donor type, donor heavy atom, donor atom, acceptor molecule, acceptor atom, score
      P1  H  6896  6908       L1    16  1.07
      P1  H  7997  8009       L1     1  0.59
      P1  H 10752 10765       L1    17  2.00

> <Gold.PLP.Chemscore.Internal.Correction>
0.0334

> <Gold.Rescore>
     Score         DG    S(hbond)    S(metal)    S(lipo)     H(rot)  DE(clash)    DE(int)     intcor
     16.54     -19.57       2.42        0.00      92.44       1.88       0.21       2.83       ----

> <Gold.Chemscore.Fitness>
16.5361

> <Gold.Chemscore.DG>
-19.5718

> <Gold.Chemscore.ZeroCoef>
-5.4800

> <Gold.Chemscore.Hbond>
2.4240

> <Gold.Chemscore.Metal>
0.0000

> <Gold.Chemscore.Lipo>
92.4393

> <Gold.Chemscore.Internal_Hbond>
0.0000

> <Gold.Chemscore.DEClash>
0.2104

> <Gold.Chemscore.DEInternal>
2.8253

> <Gold.Chemscore.Rot>
1.8828

> <Gold.Chemscore.Internal.Correction>
   9.000000E+99

> <Gold.Chemscore.Hbonds>
donor molecule, donor type, donor heavy atom, donor atom, acceptor molecule, acceptor atom, score
      P1  H  6896  6908       L1    16  0.52
      P1  H  7997  8009       L1     1  0.56
      P1  H 10752 10765       L1    17  1.00

> <Gold.Chemscore.Hbond.Weighted>
-8.0963

> <Gold.Chemscore.Metal.Weighted>
-0.0000

> <Gold.Chemscore.Lipo.Weighted>
-10.8154

> <Gold.Chemscore.Internal_Hbond.Weighted>
0.0000

> <Gold.Chemscore.DEClash.Weighted>
0.2104

> <Gold.Chemscore.DEInternal.Weighted>
2.8253

> <Gold.Chemscore.Rot.Weighted>
4.8199

> <Gold.Chemscore.Internal.Correction.Weighted>
   9.000000E+99

> <Gold.Protein.RotatedTorsions>
[ 6907 6896 6895 6894 ] final -128.19 input  -60.11 | X-H torsion
[ 7974 7965 7964 7962 ] final  -84.18 input  175.53 | X-H torsion
[ 8008 7997 7996 7995 ] final  164.84 input   59.86 | X-H torsion
[ 10167 10162 10161 10158 ] final  -17.92 input  -65.29 | X-H torsion
[ 10718 10713 10712 10709 ] final -165.81 input   66.30 | X-H torsion
[ 10763 10752 10751 10750 ] final -137.26 input  -60.55 | X-H torsion
[ 11005 11000 10999 10996 ] final  106.00 input  -57.11 | X-H torsion

> <Gold.Protein.ActiveResidues>
 VAL166  LYS551  ARG553  GLY616  TRP617  ASP618  TYR619  PRO620  LYS621  CYS622 
 ASP623  PHE694  ASN695  SER759  ASP760  ASP761  ALA762  ILE779  LEU786  VAL792 
 PHE793  MET794  SER795  GLU796  ALA797  LYS798  CYS799  TRP800  GLU811  SER814 

> <Gold.Protein.RotatedAtoms>
  150.9153  133.6947  159.2844 H   0  0  0  0  0  0  0  0  0  0  0  0  # atno 6907 bound_to 6896
  151.4420  135.1020  159.9682 H   0  0  0  0  0  0  0  0  0  0  0  0  # atno 6908 bound_to 6896
  152.4951  133.8559  159.7280 H   0  0  0  0  0  0  0  0  0  0  0  0  # atno 6909 bound_to 6896
  145.5100  140.9540  143.1712 H   0  0  0  0  0  0  0  0  0  0  0  0  # atno 7974 bound_to 7965
  156.1848  140.1686  156.8206 H   0  0  0  0  0  0  0  0  0  0  0  0  # atno 8008 bound_to 7997
  154.5401  140.0738  156.8528 H   0  0  0  0  0  0  0  0  0  0  0  0  # atno 8009 bound_to 7997
  155.3231  140.3374  155.4243 H   0  0  0  0  0  0  0  0  0  0  0  0  # atno 8010 bound_to 7997
  140.7253  143.4967  150.9921 H   0  0  0  0  0  0  0  0  0  0  0  0  # atno 10167 bound_to 10162
  156.6588  130.9037  151.3026 H   0  0  0  0  0  0  0  0  0  0  0  0  # atno 10718 bound_to 10713
  154.8666  135.3647  154.5195 H   0  0  0  0  0  0  0  0  0  0  0  0  # atno 10763 bound_to 10752
  153.5826  135.7018  153.5462 H   0  0  0  0  0  0  0  0  0  0  0  0  # atno 10764 bound_to 10752
  153.3444  135.4089  155.1559 H   0  0  0  0  0  0  0  0  0  0  0  0  # atno 10765 bound_to 10752
  139.8808  134.9355  156.5600 H   0  0  0  0  0  0  0  0  0  0  0  0  # atno 11005 bound_to 11000
  144.7732  139.6687  143.7186 LP  0  0  0  0  0  0  0  0  0  0  0  0  # atno 17320 bound_to 7965
  146.2172  139.5571  142.9642 LP  0  0  0  0  0  0  0  0  0  0  0  0  # atno 17321 bound_to 7965
  139.8675  143.7236  152.3169 LP  0  0  0  0  0  0  0  0  0  0  0  0  # atno 17342 bound_to 10162
  139.7472  144.7544  151.0561 LP  0  0  0  0  0  0  0  0  0  0  0  0  # atno 17343 bound_to 10162
  157.7116  130.9447  150.1110 LP  0  0  0  0  0  0  0  0  0  0  0  0  # atno 17370 bound_to 10713
  156.2027  130.3661  149.8768 LP  0  0  0  0  0  0  0  0  0  0  0  0  # atno 17371 bound_to 10713
  140.8176  133.8379  155.8866 LP  0  0  0  0  0  0  0  0  0  0  0  0  # atno 17394 bound_to 11000
  140.9448  134.1855  157.4771 LP  0  0  0  0  0  0  0  0  0  0  0  0  # atno 17395 bound_to 11000

$$$$
