#       Name:                AV-unprocessed.smi:2044
#       Creating user name   scv26
#       Creation time:       Fri Mar 27 10:56:57 2020


#       File generated by GOLD software.
#

@<TRIPOS>MOLECULE
AV-unprocessed.smi:2044
    47    48     1
SMALL
NO_CHARGES


@<TRIPOS>ATOM
      1 ****        -6.2579   2.9167  -0.1391 C.3            1 S1                 0.0000
      2 ****        -5.2495   2.0784  -0.8474 C.2            1 S1                 0.0000
      3 ****        -4.3964   1.0984  -0.4257 C.2            1 S1                 0.0000
      4 ****        -3.7142   0.7268  -1.6166 C.2            1 S1                 0.0000
      5 ****        -2.7718  -0.2227  -1.7229 N.pl3          1 S1                -1.0000
      6 ****        -1.4821   0.0603  -1.4276 C.2            1 S1                 0.0000
      7 ****        -1.0396   1.1482  -1.0511 O.2            1 S1                 0.0000
      8 ****        -0.6542  -0.9845  -1.5718 N.am           1 S1                 0.0000
      9 ****         0.7816  -0.9841  -1.3006 C.3            1 S1                 0.0000
     10 ****         1.1267  -0.9962   0.2177 C.3            1 S1                 0.0000
     11 ****         0.4175  -2.2038   0.8825 C.3            1 S1                 0.0000
     12 ****         2.5831  -0.9683   0.4902 N.3            1 S1                 0.0000
     13 ****         2.8833  -0.9541   1.9267 C.3            1 S1                 0.0000
     14 ****         4.3918  -0.8971   2.2226 C.3            1 S1                 0.0000
     15 ****         4.9598   0.2448   1.5967 O.3            1 S1                 0.0000
     16 ****         4.7596   0.2353   0.1901 C.3            1 S1                 0.0000
     17 ****         3.2536   0.1845  -0.1222 C.3            1 S1                 0.0000
     18 ****        -4.1283   1.4099  -2.6705 N.2            1 S1                 0.0000
     19 ****        -5.1088   2.2831  -2.1846 O.3            1 S1                 0.0000
     20 ****        -7.1076   2.3116   0.1767 H              1 S1                 0.0000
     21 ****        -6.6305   3.7125  -0.7846 H              1 S1                 0.0000
     22 ****        -5.8226   3.3779   0.7475 H              1 S1                 0.0000
     23 ****        -4.2755   0.7107   0.5745 H              1 S1                 0.0000
     24 ****        -1.0582  -1.8548  -1.8852 H              1 S1                 0.0000
     25 ****         1.2164  -1.8581  -1.7864 H              1 S1                 0.0000
     26 ****         1.1939  -0.1132  -1.8082 H              1 S1                 0.0000
     27 ****         0.6907  -0.0956   0.6524 H              1 S1                 0.0000
     28 ****        -0.6438  -2.2478   0.6408 H              1 S1                 0.0000
     29 ****         0.4561  -2.1598   1.9697 H              1 S1                 0.0000
     30 ****         0.8643  -3.1463   0.5651 H              1 S1                 0.0000
     31 ****         2.3902  -0.1030   2.3988 H              1 S1                 0.0000
     32 ****         2.4981  -1.8505   2.4090 H              1 S1                 0.0000
     33 ****         4.5642  -0.8360   3.2971 H              1 S1                 0.0000
     34 ****         4.8893  -1.8019   1.8698 H              1 S1                 0.0000
     35 ****         5.2046   1.1333  -0.2384 H              1 S1                 0.0000
     36 ****         5.2742  -0.6191  -0.2525 H              1 S1                 0.0000
     37 ****         3.1595   0.1543  -1.2057 H              1 S1                 0.0000
     38 ****         2.7813   1.1092   0.2133 H              1 S1                 0.0000
     39 ****        -3.0238  -1.1431  -2.0216 LP             1 S1                 0.0000
     40 ****        -1.6566   1.9271  -0.9385 LP             1 S1                 0.0000
     41 ****        -0.0637   1.2515  -0.8585 LP             1 S1                 0.0000
     42 ****         2.9319  -1.8111   0.0803 LP             1 S1                 0.0000
     43 ****         5.9422   0.2600   1.7829 LP             1 S1                 0.0000
     44 ****         4.5357   1.0664   1.9777 LP             1 S1                 0.0000
     45 ****        -3.8089   1.3215  -3.6140 LP             1 S1                 0.0000
     46 ****        -4.8308   3.2288  -2.3530 LP             1 S1                 0.0000
     47 ****        -5.9777   2.1039  -2.6459 LP             1 S1                 0.0000
@<TRIPOS>BOND
    1    1    2 1     
    2    1   20 1     
    3    1   21 1     
    4    1   22 1     
    5    2   19 1     
    6    2    3 2     
    7    3    4 1     
    8    3   23 1     
    9    4    5 1     
   10    4   18 2     
   11    5    6 1     
   12    6    7 2     
   13    6    8 am    
   14    8    9 1     
   15    8   24 1     
   16    9   10 1     
   17    9   25 1     
   18    9   26 1     
   19   10   11 1     
   20   10   12 1     
   21   10   27 1     
   22   11   28 1     
   23   11   29 1     
   24   11   30 1     
   25   12   17 1     
   26   12   13 1     
   27   13   14 1     
   28   13   31 1     
   29   13   32 1     
   30   14   15 1     
   31   14   33 1     
   32   14   34 1     
   33   15   16 1     
   34   16   17 1     
   35   16   35 1     
   36   16   36 1     
   37   17   37 1     
   38   17   38 1     
   39   18   19 1     
   40    5   39 1     
   41    7   40 1     
   42    7   41 1     
   43   12   42 1     
   44   15   43 1     
   45   15   44 1     
   46   18   45 1     
   47   19   46 1     
   48   19   47 1     
@<TRIPOS>SUBSTRUCTURE
      1 S1             1
@<TRIPOS>SET
LONE_PAIRS      STATIC     ATOMS    <user>   **** ""
9 39 40 41 42 43 44 45 46 47
DONOR_HYDROGENS      STATIC     ATOMS    <user>   **** ""
1 24
ATOM$BLUE        STATIC     ATOMS    COLORGROUP SYSTEM
9 39 40 41 42 43 44 45 46 47
ATOM$RED        STATIC     ATOMS    COLORGROUP SYSTEM
1 24
