AV-unprocessed.smi:2445|AV-procd|sdf|9633|dock2
  -GOLD-   2272013263D 1   1.00000     0.00000
 Structure written by MMmdl.
 40 41  0  0  0  0  0  0  0  0  1 V2000
  146.9776  140.7690  153.4207 C   0  0  0  0  0  0  0  0  0  0  0  0
  148.3141  140.5505  154.0443 C   0  0  0  0  0  0  0  0  0  0  0  0
  149.1645  141.4957  154.5621 C   0  0  0  0  0  0  0  0  0  0  0  0
  150.3498  140.9671  155.0780 N   0  0  0  0  0  0  0  0  0  0  0  0
  150.4115  139.6381  154.9608 C   0  0  0  0  0  0  0  0  0  0  0  0
  151.5774  138.8208  155.4317 C   0  0  2  0  0  0  0  0  0  0  0  0
  151.6159  137.4459  154.7499 C   0  0  0  0  0  0  0  0  0  0  0  0
  151.6489  138.7119  156.9675 C   0  0  0  0  0  0  0  0  0  0  0  0
  151.4666  140.0096  157.6084 N   0  0  0  0  0  0  0  0  0  0  0  0
  152.3683  140.5975  158.4044 C   0  0  0  0  0  0  0  0  0  0  0  0
  153.4715  140.1188  158.6679 O   0  0  0  0  0  0  0  0  0  0  0  0
  151.9211  141.7663  158.8817 N   0  0  0  0  0  0  0  0  0  0  0  0
  152.6626  142.6408  159.7849 C   0  0  2  0  0  0  0  0  0  0  0  0
  152.8488  142.0059  161.1474 C   0  0  0  0  0  0  0  0  0  0  0  0
  153.0649  143.2266  162.0334 C   0  0  0  0  0  0  0  0  0  0  0  0
  152.2659  144.2581  161.4658 O   0  0  0  0  0  0  0  0  0  0  0  0
  151.8807  143.9150  160.1367 C   0  0  1  0  0  0  0  0  0  0  0  0
  152.1415  145.0957  159.1934 C   0  0  0  0  0  0  0  0  0  0  0  0
  148.9868  138.9479  154.1870 S   0  0  0  0  0  0  0  0  0  0  0  0
  146.6928  141.8207  153.4596 H   0  0  0  0  0  0  0  0  0  0  0  0
  146.2101  140.1934  153.9383 H   0  0  0  0  0  0  0  0  0  0  0  0
  146.9840  140.4607  152.3752 H   0  0  0  0  0  0  0  0  0  0  0  0
  149.0069  142.5634  154.6043 H   0  0  0  0  0  0  0  0  0  0  0  0
  152.4782  139.3489  155.1144 H   0  0  0  0  0  0  0  0  0  0  0  0
  151.6458  137.5472  153.6645 H   0  0  0  0  0  0  0  0  0  0  0  0
  150.7378  136.8516  155.0047 H   0  0  0  0  0  0  0  0  0  0  0  0
  152.4981  136.8818  155.0532 H   0  0  0  0  0  0  0  0  0  0  0  0
  150.8789  138.0222  157.3182 H   0  0  0  0  0  0  0  0  0  0  0  0
  152.6092  138.2952  157.2740 H   0  0  0  0  0  0  0  0  0  0  0  0
  150.5872  140.4797  157.4495 H   0  0  0  0  0  0  0  0  0  0  0  0
  151.0003  142.0737  158.6043 H   0  0  0  0  0  0  0  0  0  0  0  0
  153.6445  142.8935  159.3791 H   0  0  0  0  0  0  0  0  0  0  0  0
  151.9425  141.4825  161.4568 H   0  0  0  0  0  0  0  0  0  0  0  0
  153.6806  141.3014  161.1833 H   0  0  0  0  0  0  0  0  0  0  0  0
  152.8004  143.0418  163.0746 H   0  0  0  0  0  0  0  0  0  0  0  0
  154.1094  143.5390  161.9991 H   0  0  0  0  0  0  0  0  0  0  0  0
  150.8115  143.6987  160.1647 H   0  0  0  0  0  0  0  0  0  0  0  0
  151.8190  144.8664  158.1779 H   0  0  0  0  0  0  0  0  0  0  0  0
  153.2015  145.3482  159.1600 H   0  0  0  0  0  0  0  0  0  0  0  0
  151.5979  145.9820  159.5211 H   0  0  0  0  0  0  0  0  0  0  0  0
  1  2  1  0  0  0  0
  1 20  1  0  0  0  0
  1 21  1  0  0  0  0
  1 22  1  0  0  0  0
  2 19  1  0  0  0  0
  2  3  2  0  0  0  0
  3  4  1  0  0  0  0
  3 23  1  0  0  0  0
  4  5  2  0  0  0  0
  5  6  1  0  0  0  0
  5 19  1  0  0  0  0
  6  7  1  0  0  0  0
  6  8  1  0  0  0  0
  6 24  1  0  0  0  0
  7 25  1  0  0  0  0
  7 26  1  0  0  0  0
  7 27  1  0  0  0  0
  8  9  1  0  0  0  0
  8 28  1  0  0  0  0
  8 29  1  0  0  0  0
  9 10  1  0  0  0  0
  9 30  1  0  0  0  0
 10 11  2  0  0  0  0
 10 12  1  0  0  0  0
 12 13  1  0  0  0  0
 12 31  1  0  0  0  0
 13 17  1  0  0  0  0
 13 14  1  0  0  0  0
 13 32  1  0  0  0  0
 14 15  1  0  0  0  0
 14 33  1  0  0  0  0
 14 34  1  0  0  0  0
 15 16  1  0  0  0  0
 15 35  1  0  0  0  0
 15 36  1  0  0  0  0
 16 17  1  0  0  0  0
 17 18  1  0  0  0  0
 17 37  1  0  0  0  0
 18 38  1  0  0  0  0
 18 39  1  0  0  0  0
 18 40  1  0  0  0  0
M  END
> <s_m_source_file>
AV-unprocessed.smi

> <i_m_source_file_index>
2445

> <i_lp_mmshare_version>
43012

> <i_f3d_flags>
0

> <s_epik_input>
W0NIM11jMVtjSF1uYyhzMSlbQ0BIXShbQ0gzXSlbQ0gyXVtOSF1DKD1PKVtOSF1bQ0BASF0yW0NIMl1bQ0gyXU9bQ0BIXTJbQ0gzXQ==

> <s_epik_cmdline>
J2VwaWtfcHl0aG9uJywgJy1waCcsICc3LjAnLCAnLXRuJywgJzgnLCAnLW1hJywgJzIwMCcsICctbWV0YWxfYmluZGluZycsICctaW1hZScsICc8aW5maWxlLm1hZT4nLCAnLW9tYWUnLCAnPG91dGZpbGUubWFlPic=

> <r_epik_Ionization_Penalty>
0.000649483

> <r_epik_Ionization_Penalty_Charging>
0

> <r_epik_Ionization_Penalty_Neutral>
0.000649483

> <r_epik_State_Penalty>
0.000379895

> <r_epik_Charging_Adjusted_Penalty>
0.000379895

> <i_epik_Tot_Q>
0

> <i_epik_Tot_abs_Q>
0

> <r_epik_Metal_State_Penalty>
-0

> <b_epik_Metal_Only>
0

> <s_lp_Force_Field>
OPLS_2005

> <r_lp_Energy>
5.96994

> <b_lp_Chiralities_Consistent>
1

> <s_lp_Variant>
AV-unprocessed.smi:2445-1

> <Gold.Version>
5.8.1

> <Gold.Id.Protein>
6NUR|6NUR_protein|mol2

> <Gold.PLP.Fitness>
47.2714

> <Gold.PLP.PLP>
-41.9655

> <Gold.PLP.part.hbond>
-2.0000

> <Gold.PLP.part.metal>
0.0000

> <Gold.PLP.part.buried>
-1.3586

> <Gold.PLP.part.nonpolar>
-37.6802

> <Gold.PLP.part.repulsive>
0.4143

> <Gold.PLP.ligand.clash>
0.0000

> <Gold.PLP.ligand.torsion>
0.4986

> <Gold.PLP.Chemscore.Hbond>
1.0624

> <Gold.PLP.Chemscore.CHOScore>
1.0000

> <Gold.PLP.Chemscore.Metal>
0.0000

> <Gold.Chemscore.Hbonds>
donor molecule, donor type, donor heavy atom, donor atom, acceptor molecule, acceptor atom, score
      P1  H  7989  7998       L1     4  0.11
      P1  H  7997  8010       L1    11  0.99
      L1  C     3    23       P1  8028  1.00

> <Gold.PLP.Chemscore.Internal.Correction>
0.1160

> <Gold.Rescore>
     Score         DG    S(hbond)    S(metal)    S(lipo)     H(rot)  DE(clash)    DE(int)     intcor
     17.20     -18.31       1.15        0.00     110.36       1.53       0.39       0.72       ----

> <Gold.Chemscore.Fitness>
17.1971

> <Gold.Chemscore.DG>
-18.3082

> <Gold.Chemscore.ZeroCoef>
-5.4800

> <Gold.Chemscore.Hbond>
1.1494

> <Gold.Chemscore.Metal>
0.0000

> <Gold.Chemscore.Lipo>
110.3636

> <Gold.Chemscore.Internal_Hbond>
0.0000

> <Gold.Chemscore.DEClash>
0.3871

> <Gold.Chemscore.DEInternal>
0.7240

> <Gold.Chemscore.Rot>
1.5325

> <Gold.Chemscore.Internal.Correction>
   9.000000E+99

> <Gold.Chemscore.Hbonds>
donor molecule, donor type, donor heavy atom, donor atom, acceptor molecule, acceptor atom, score
      P1  H  7997  8010       L1    11  0.85

> <Gold.Chemscore.Hbond.Weighted>
-3.8390

> <Gold.Chemscore.Metal.Weighted>
-0.0000

> <Gold.Chemscore.Lipo.Weighted>
-12.9125

> <Gold.Chemscore.Internal_Hbond.Weighted>
0.0000

> <Gold.Chemscore.DEClash.Weighted>
0.3871

> <Gold.Chemscore.DEInternal.Weighted>
0.7240

> <Gold.Chemscore.Rot.Weighted>
3.9233

> <Gold.Chemscore.Internal.Correction.Weighted>
   9.000000E+99

> <Gold.Protein.RotatedTorsions>
[ 6907 6896 6895 6894 ] final  -76.14 input  -60.11 | X-H torsion
[ 7974 7965 7964 7962 ] final -108.25 input  175.53 | X-H torsion
[ 8008 7997 7996 7995 ] final   22.76 input   59.86 | X-H torsion
[ 10167 10162 10161 10158 ] final  134.47 input  -65.29 | X-H torsion
[ 10718 10713 10712 10709 ] final  155.90 input   66.30 | X-H torsion
[ 10763 10752 10751 10750 ] final   28.83 input  -60.55 | X-H torsion
[ 11005 11000 10999 10996 ] final -121.35 input  -57.11 | X-H torsion

> <Gold.Protein.ActiveResidues>
 VAL166  LYS551  ARG553  GLY616  TRP617  ASP618  TYR619  PRO620  LYS621  CYS622 
 ASP623  PHE694  ASN695  SER759  ASP760  ASP761  ALA762  ILE779  LEU786  VAL792 
 PHE793  MET794  SER795  GLU796  ALA797  LYS798  CYS799  TRP800  GLU811  SER814 

> <Gold.Protein.RotatedAtoms>
  150.7036  134.4617  159.5383 H   0  0  0  0  0  0  0  0  0  0  0  0  # atno 6907 bound_to 6896
  152.2290  134.8337  160.0485 H   0  0  0  0  0  0  0  0  0  0  0  0  # atno 6908 bound_to 6896
  151.9160  133.3538  159.3917 H   0  0  0  0  0  0  0  0  0  0  0  0  # atno 6909 bound_to 6896
  145.1951  140.9032  143.3402 H   0  0  0  0  0  0  0  0  0  0  0  0  # atno 7974 bound_to 7965
  154.9706  140.3089  155.4989 H   0  0  0  0  0  0  0  0  0  0  0  0  # atno 8008 bound_to 7997
  156.2966  140.2284  156.4737 H   0  0  0  0  0  0  0  0  0  0  0  0  # atno 8009 bound_to 7997
  154.7880  140.0441  157.1167 H   0  0  0  0  0  0  0  0  0  0  0  0  # atno 8010 bound_to 7997
  139.5255  144.6565  151.5144 H   0  0  0  0  0  0  0  0  0  0  0  0  # atno 10167 bound_to 10162
  157.2122  131.0700  151.1963 H   0  0  0  0  0  0  0  0  0  0  0  0  # atno 10718 bound_to 10713
  153.0467  135.6504  154.0797 H   0  0  0  0  0  0  0  0  0  0  0  0  # atno 10763 bound_to 10752
  154.0494  135.2897  155.3344 H   0  0  0  0  0  0  0  0  0  0  0  0  # atno 10764 bound_to 10752
  154.6730  135.5349  153.8229 H   0  0  0  0  0  0  0  0  0  0  0  0  # atno 10765 bound_to 10752
  141.0077  134.0311  157.3456 H   0  0  0  0  0  0  0  0  0  0  0  0  # atno 11005 bound_to 11000
  145.0002  139.3605  143.6171 LP  0  0  0  0  0  0  0  0  0  0  0  0  # atno 17320 bound_to 7965
  146.3428  139.9222  142.8765 LP  0  0  0  0  0  0  0  0  0  0  0  0  # atno 17321 bound_to 7965
  140.6394  143.8920  150.6677 LP  0  0  0  0  0  0  0  0  0  0  0  0  # atno 17342 bound_to 10162
  140.2249  143.3780  152.1613 LP  0  0  0  0  0  0  0  0  0  0  0  0  # atno 17343 bound_to 10162
  157.3661  130.7156  149.6533 LP  0  0  0  0  0  0  0  0  0  0  0  0  # atno 17370 bound_to 10713
  155.9689  130.4212  150.4458 LP  0  0  0  0  0  0  0  0  0  0  0  0  # atno 17371 bound_to 10713
  139.9072  135.0182  156.7538 LP  0  0  0  0  0  0  0  0  0  0  0  0  # atno 17394 bound_to 11000
  140.6786  133.9495  155.7897 LP  0  0  0  0  0  0  0  0  0  0  0  0  # atno 17395 bound_to 11000

$$$$
