AV-unprocessed.smi:2098|AV-procd|sdf|8568|dock5
  -GOLD-   2272011293D 1   1.00000     0.00000
 Structure written by MMmdl.
 37 39  0  0  0  0  0  0  0  0  2 V2000
  153.3327  139.0984  155.2293 O   0  0  0  0  0  0  0  0  0  0  0  0
  151.9221  139.0253  155.2935 C   0  0  1  0  0  0  0  0  0  0  0  0
  151.4818  137.6227  154.8506 C   0  0  0  0  0  0  0  0  0  0  0  0
  151.5478  136.7467  155.9683 O   0  0  0  0  0  0  0  0  0  0  0  0
  151.1336  135.4429  155.8007 C   0  0  0  0  0  0  0  0  0  0  0  0
  150.1825  135.1987  154.7881 C   0  0  0  0  0  0  0  0  0  0  0  0
  149.7006  133.8970  154.5502 C   0  0  0  0  0  0  0  0  0  0  0  0
  150.1698  132.8210  155.3255 C   0  0  0  0  0  0  0  0  0  0  0  0
  149.7070  131.5689  155.0992 F   0  0  0  0  0  0  0  0  0  0  0  0
  151.1215  133.0491  156.3366 C   0  0  0  0  0  0  0  0  0  0  0  0
  151.6025  134.3513  156.5755 C   0  0  0  0  0  0  0  0  0  0  0  0
  151.4487  139.3688  156.7206 C   0  0  0  0  0  0  0  0  0  0  0  0
  151.2265  140.8071  156.9158 N   0  0  0  0  0  0  0  0  0  0  0  0
  150.4414  141.6751  156.2219 C   0  0  0  0  0  0  0  0  0  0  0  0
  150.5753  142.9017  156.7991 N   0  3  0  0  0  0  0  0  0  0  0  0
  151.4610  142.8162  157.8759 C   0  0  0  0  0  0  0  0  0  0  0  0
  151.9131  143.7866  158.7648 C   0  0  0  0  0  0  0  0  0  0  0  0
  152.8205  143.3615  159.7576 C   0  0  0  0  0  0  0  0  0  0  0  0
  153.2451  142.0192  159.8395 C   0  0  0  0  0  0  0  0  0  0  0  0
  152.7812  141.0439  158.9322 C   0  0  0  0  0  0  0  0  0  0  0  0
  151.8838  141.4726  157.9551 C   0  0  0  0  0  0  0  0  0  0  0  0
  153.6915  138.3000  155.5854 H   0  0  0  0  0  0  0  0  0  0  0  0
  151.5265  139.7567  154.5880 H   0  0  0  0  0  0  0  0  0  0  0  0
  150.4560  137.6601  154.4796 H   0  0  0  0  0  0  0  0  0  0  0  0
  152.1226  137.2672  154.0416 H   0  0  0  0  0  0  0  0  0  0  0  0
  149.8162  136.0192  154.1885 H   0  0  0  0  0  0  0  0  0  0  0  0
  148.9705  133.7247  153.7730 H   0  0  0  0  0  0  0  0  0  0  0  0
  151.4840  132.2239  156.9316 H   0  0  0  0  0  0  0  0  0  0  0  0
  152.3325  134.4855  157.3590 H   0  0  0  0  0  0  0  0  0  0  0  0
  150.5237  138.8451  156.9647 H   0  0  0  0  0  0  0  0  0  0  0  0
  152.1887  139.0478  157.4552 H   0  0  0  0  0  0  0  0  0  0  0  0
  149.8218  141.4342  155.3703 H   0  0  0  0  0  0  0  0  0  0  0  0
  151.5898  144.8155  158.7046 H   0  0  0  0  0  0  0  0  0  0  0  0
  153.1984  144.0795  160.4709 H   0  0  0  0  0  0  0  0  0  0  0  0
  153.9408  141.7312  160.6142 H   0  0  0  0  0  0  0  0  0  0  0  0
  153.1105  140.0175  159.0030 H   0  0  0  0  0  0  0  0  0  0  0  0
  150.0956  143.7337  156.4800 H   0  0  0  0  0  0  0  0  0  0  0  0
  1  2  1  0  0  0  0
  1 22  1  0  0  0  0
  2  3  1  0  0  0  0
  2 12  1  0  0  0  0
  2 23  1  0  0  0  0
  3  4  1  0  0  0  0
  3 24  1  0  0  0  0
  3 25  1  0  0  0  0
  4  5  1  0  0  0  0
  5 11  1  0  0  0  0
  5  6  2  0  0  0  0
  6  7  1  0  0  0  0
  6 26  1  0  0  0  0
  7  8  2  0  0  0  0
  7 27  1  0  0  0  0
  8  9  1  0  0  0  0
  8 10  1  0  0  0  0
 10 11  2  0  0  0  0
 10 28  1  0  0  0  0
 11 29  1  0  0  0  0
 12 13  1  0  0  0  0
 12 30  1  0  0  0  0
 12 31  1  0  0  0  0
 13 21  1  0  0  0  0
 13 14  1  0  0  0  0
 14 15  2  0  0  0  0
 14 32  1  0  0  0  0
 15 16  1  0  0  0  0
 15 37  1  0  0  0  0
 16 21  2  0  0  0  0
 16 17  1  0  0  0  0
 17 18  2  0  0  0  0
 17 33  1  0  0  0  0
 18 19  1  0  0  0  0
 18 34  1  0  0  0  0
 19 20  2  0  0  0  0
 19 35  1  0  0  0  0
 20 21  1  0  0  0  0
 20 36  1  0  0  0  0
M  CHG  1  15   1
M  END
> <s_m_source_file>
AV-unprocessed.smi

> <i_m_source_file_index>
2098

> <i_lp_mmshare_version>
43012

> <i_f3d_flags>
0

> <s_epik_input>
W2NIXTFbY0hdW2NIXVtjSF1jKGMxMiluKFtjSF1uMilbQ0gyXVtDQEhdKFtPSF0pW0NIMl1PYzNbY0hdW2NIXWMoRilbY0hdW2NIXTM=

> <s_epik_cmdline>
J2VwaWtfcHl0aG9uJywgJy1waCcsICc3LjAnLCAnLXRuJywgJzgnLCAnLW1hJywgJzIwMCcsICctbWV0YWxfYmluZGluZycsICctaW1hZScsICc8aW5maWxlLm1hZT4nLCAnLW9tYWUnLCAnPG91dGZpbGUubWFlPic=

> <r_lp_tautomer_probability>
1

> <r_epik_Ionization_Penalty>
1.3832

> <r_epik_Ionization_Penalty_Charging>
1.38319

> <r_epik_Ionization_Penalty_Neutral>
2.3993e-06

> <r_epik_State_Penalty>
1.46389

> <r_epik_Charging_Adjusted_Penalty>
2.84709

> <i_epik_Tot_Q>
1

> <i_epik_Tot_abs_Q>
1

> <r_epik_Metal_State_Penalty>
5.50438

> <b_epik_Metal_Only>
0

> <s_lp_Force_Field>
OPLS_2005

> <r_lp_Energy>
18.1934

> <b_lp_Chiralities_Consistent>
1

> <s_lp_Variant>
AV-unprocessed.smi:2098-4

> <Gold.Version>
5.8.1

> <Gold.Id.Protein>
6NUR|6NUR_protein|mol2

> <Gold.PLP.Fitness>
52.5861

> <Gold.PLP.PLP>
-45.5405

> <Gold.PLP.part.hbond>
-2.3452

> <Gold.PLP.part.metal>
0.0000

> <Gold.PLP.part.buried>
-4.1836

> <Gold.PLP.part.nonpolar>
-39.4607

> <Gold.PLP.part.repulsive>
0.0707

> <Gold.PLP.ligand.clash>
0.0000

> <Gold.PLP.ligand.torsion>
0.9981

> <Gold.PLP.Chemscore.Hbond>
3.0000

> <Gold.PLP.Chemscore.CHOScore>
0.0000

> <Gold.PLP.Chemscore.Metal>
0.0000

> <Gold.Chemscore.Hbonds>
donor molecule, donor type, donor heavy atom, donor atom, acceptor molecule, acceptor atom, score
      L1  H    15    37       P1  8028  2.00
      P1  H  7997  8009       L1     1  0.75

> <Gold.PLP.Chemscore.Internal.Correction>
0.0418

> <Gold.Rescore>
     Score         DG    S(hbond)    S(metal)    S(lipo)     H(rot)  DE(clash)    DE(int)     intcor
     17.25     -18.59       1.80        0.00     114.52       2.46       0.07       1.28       ----

> <Gold.Chemscore.Fitness>
17.2497

> <Gold.Chemscore.DG>
-18.5928

> <Gold.Chemscore.ZeroCoef>
-5.4800

> <Gold.Chemscore.Hbond>
1.7987

> <Gold.Chemscore.Metal>
0.0000

> <Gold.Chemscore.Lipo>
114.5178

> <Gold.Chemscore.Internal_Hbond>
0.0000

> <Gold.Chemscore.DEClash>
0.0659

> <Gold.Chemscore.DEInternal>
1.2771

> <Gold.Chemscore.Rot>
2.4584

> <Gold.Chemscore.Internal.Correction>
   9.000000E+99

> <Gold.Chemscore.Hbonds>
donor molecule, donor type, donor heavy atom, donor atom, acceptor molecule, acceptor atom, score
      L1  H    15    37       P1  8028  1.00
      P1  H  7997  8009       L1     1  0.09

> <Gold.Chemscore.Hbond.Weighted>
-6.0078

> <Gold.Chemscore.Metal.Weighted>
-0.0000

> <Gold.Chemscore.Lipo.Weighted>
-13.3986

> <Gold.Chemscore.Internal_Hbond.Weighted>
0.0000

> <Gold.Chemscore.DEClash.Weighted>
0.0659

> <Gold.Chemscore.DEInternal.Weighted>
1.2771

> <Gold.Chemscore.Rot.Weighted>
6.2936

> <Gold.Chemscore.Internal.Correction.Weighted>
   9.000000E+99

> <Gold.Protein.RotatedTorsions>
[ 6907 6896 6895 6894 ] final   28.70 input  -60.11 | X-H torsion
[ 7974 7965 7964 7962 ] final   86.01 input  175.53 | X-H torsion
[ 8008 7997 7996 7995 ] final -149.30 input   59.86 | X-H torsion
[ 10167 10162 10161 10158 ] final -142.88 input  -65.29 | X-H torsion
[ 10718 10713 10712 10709 ] final -100.98 input   66.30 | X-H torsion
[ 10763 10752 10751 10750 ] final   77.08 input  -60.55 | X-H torsion
[ 11005 11000 10999 10996 ] final  -84.50 input  -57.11 | X-H torsion

> <Gold.Protein.ActiveResidues>
 VAL166  LYS551  ARG553  GLY616  TRP617  ASP618  TYR619  PRO620  LYS621  CYS622 
 ASP623  PHE694  ASN695  SER759  ASP760  ASP761  ALA762  ILE779  LEU786  VAL792 
 PHE793  MET794  SER795  GLU796  ALA797  LYS798  CYS799  TRP800  GLU811  SER814 

> <Gold.Protein.RotatedAtoms>
  152.0207  134.9824  160.0570 H   0  0  0  0  0  0  0  0  0  0  0  0  # atno 6907 bound_to 6896
  152.1340  133.4419  159.4742 H   0  0  0  0  0  0  0  0  0  0  0  0  # atno 6908 bound_to 6896
  150.6859  134.2305  159.4475 H   0  0  0  0  0  0  0  0  0  0  0  0  # atno 6909 bound_to 6896
  145.5779  139.2321  143.2369 H   0  0  0  0  0  0  0  0  0  0  0  0  # atno 7974 bound_to 7965
  155.6054  140.0666  157.2721 H   0  0  0  0  0  0  0  0  0  0  0  0  # atno 8008 bound_to 7997
  154.4267  140.1811  156.1264 H   0  0  0  0  0  0  0  0  0  0  0  0  # atno 8009 bound_to 7997
  156.0127  140.3325  155.6960 H   0  0  0  0  0  0  0  0  0  0  0  0  # atno 8010 bound_to 7997
  139.8046  143.7786  152.2660 H   0  0  0  0  0  0  0  0  0  0  0  0  # atno 10167 bound_to 10162
  156.0180  130.5352  150.6896 H   0  0  0  0  0  0  0  0  0  0  0  0  # atno 10718 bound_to 10713
  153.0772  135.4927  154.8428 H   0  0  0  0  0  0  0  0  0  0  0  0  # atno 10763 bound_to 10752
  154.7103  135.3018  154.9210 H   0  0  0  0  0  0  0  0  0  0  0  0  # atno 10764 bound_to 10752
  153.9905  135.6778  153.4807 H   0  0  0  0  0  0  0  0  0  0  0  0  # atno 10765 bound_to 10752
  141.1650  133.7349  156.8877 H   0  0  0  0  0  0  0  0  0  0  0  0  # atno 11005 bound_to 11000
  146.1737  140.6605  142.9221 LP  0  0  0  0  0  0  0  0  0  0  0  0  # atno 17320 bound_to 7965
  144.7407  140.4935  143.6871 LP  0  0  0  0  0  0  0  0  0  0  0  0  # atno 17321 bound_to 7965
  139.7917  144.7408  150.9946 LP  0  0  0  0  0  0  0  0  0  0  0  0  # atno 17342 bound_to 10162
  140.7819  143.4436  151.0516 LP  0  0  0  0  0  0  0  0  0  0  0  0  # atno 17343 bound_to 10162
  157.4580  131.0880  151.0776 LP  0  0  0  0  0  0  0  0  0  0  0  0  # atno 17370 bound_to 10713
  157.1272  130.6086  149.5520 LP  0  0  0  0  0  0  0  0  0  0  0  0  # atno 17371 bound_to 10713
  140.1671  134.9126  157.2787 LP  0  0  0  0  0  0  0  0  0  0  0  0  # atno 17394 bound_to 11000
  140.2545  134.3644  155.7429 LP  0  0  0  0  0  0  0  0  0  0  0  0  # atno 17395 bound_to 11000

$$$$
