AV-unprocessed.smi:16|AV-procd|sdf|98|dock1
  -GOLD-   2262015243D 1   1.00000     0.00000
 Structure written by MMmdl.
 59 63  0  0  0  0  0  0  0  0  1 V2000
  152.1481  138.0255  154.8234 C   0  0  0  0  0  0  0  0  0  0  0  0
  150.9965  137.9696  155.8406 C   0  0  0  0  0  0  0  0  0  0  0  0
  149.9993  139.0102  155.5958 N   0  0  0  0  0  0  0  0  0  0  0  0
  150.6261  140.3258  155.7400 C   0  0  0  0  0  0  0  0  0  0  0  0
  149.5663  141.4320  155.6149 C   0  0  0  0  0  0  0  0  0  0  0  0
  148.8637  141.3538  154.2474 C   0  0  2  0  0  0  0  0  0  0  0  0
  147.8406  142.3393  154.0836 O   0  0  0  0  0  0  0  0  0  0  0  0
  146.6657  142.1155  154.8598 C   0  0  0  0  0  0  0  0  0  0  0  0
  146.0858  140.7297  154.5447 C   0  0  0  0  0  0  0  0  0  0  0  0
  147.0967  139.7056  154.7701 N   0  0  0  0  0  0  0  0  0  0  0  0
  146.5929  138.4538  154.7217 C   0  0  0  0  0  0  0  0  0  0  0  0
  146.4255  137.7390  155.8651 N   0  0  0  0  0  0  0  0  0  0  0  0
  145.8880  136.5163  155.8097 C   0  0  0  0  0  0  0  0  0  0  0  0
  145.4597  135.8393  154.7413 N   0  0  0  0  0  0  0  0  0  0  0  0
  145.6364  136.5562  153.5937 C   0  0  0  0  0  0  0  0  0  0  0  0
  146.1914  137.8617  153.4973 C   0  0  0  0  0  0  0  0  0  0  0  0
  146.1987  138.2845  152.1750 N   0  0  0  0  0  0  0  0  0  0  0  0
  145.6678  137.2857  151.5238 C   0  0  0  0  0  0  0  0  0  0  0  0
  145.3264  136.1959  152.2939 N   0  0  0  0  0  0  0  0  0  0  0  0
  144.6902  134.9943  151.8418 C   0  0  0  0  0  0  0  0  0  0  0  0
  145.0332  133.6355  152.4562 C   0  0  0  0  0  0  0  0  0  0  0  0
  144.7756  132.9619  151.0894 C   0  0  0  0  0  0  0  0  0  0  0  0
  145.7785  131.8668  150.6919 C   0  0  0  0  0  0  0  0  0  0  0  0
  147.1012  132.2416  151.0186 O   0  0  0  0  0  0  0  0  0  0  0  0
  143.3412  132.4385  150.8738 C   0  0  0  0  0  0  0  0  0  0  0  0
  143.0706  132.2217  149.5038 O   0  0  0  0  0  0  0  0  0  0  0  0
  145.0592  134.3605  150.4984 C   0  0  0  0  0  0  0  0  0  0  0  0
  148.3185  139.9323  153.9922 C   0  0  2  0  0  0  0  0  0  0  0  0
  149.4271  138.8785  154.2502 C   0  0  0  0  0  0  0  0  0  0  0  0
  149.6142  141.5671  153.4853 H   0  0  0  0  0  0  0  0  0  0  0  0
  148.0373  139.8684  152.9398 H   0  0  0  0  0  0  0  0  0  0  0  0
  152.8254  137.1844  154.9715 H   0  0  0  0  0  0  0  0  0  0  0  0
  152.7420  138.9343  154.9123 H   0  0  0  0  0  0  0  0  0  0  0  0
  151.7732  137.9669  153.8014 H   0  0  0  0  0  0  0  0  0  0  0  0
  150.5221  136.9921  155.7440 H   0  0  0  0  0  0  0  0  0  0  0  0
  151.3748  138.0332  156.8621 H   0  0  0  0  0  0  0  0  0  0  0  0
  151.1013  140.4008  156.7189 H   0  0  0  0  0  0  0  0  0  0  0  0
  151.4099  140.4568  154.9922 H   0  0  0  0  0  0  0  0  0  0  0  0
  148.8534  141.3239  156.4320 H   0  0  0  0  0  0  0  0  0  0  0  0
  150.0326  142.4098  155.7373 H   0  0  0  0  0  0  0  0  0  0  0  0
  146.8788  142.2148  155.9239 H   0  0  0  0  0  0  0  0  0  0  0  0
  145.9355  142.8879  154.6182 H   0  0  0  0  0  0  0  0  0  0  0  0
  145.2137  140.5401  155.1720 H   0  0  0  0  0  0  0  0  0  0  0  0
  145.7518  140.6947  153.5065 H   0  0  0  0  0  0  0  0  0  0  0  0
  145.7834  136.0086  156.7571 H   0  0  0  0  0  0  0  0  0  0  0  0
  145.5133  137.3171  150.4551 H   0  0  0  0  0  0  0  0  0  0  0  0
  143.6170  135.1833  151.8994 H   0  0  0  0  0  0  0  0  0  0  0  0
  146.0758  133.5744  152.7742 H   0  0  0  0  0  0  0  0  0  0  0  0
  144.3642  133.3255  153.2598 H   0  0  0  0  0  0  0  0  0  0  0  0
  145.5599  130.9343  151.2132 H   0  0  0  0  0  0  0  0  0  0  0  0
  145.7257  131.6399  149.6269 H   0  0  0  0  0  0  0  0  0  0  0  0
  147.6947  131.6208  150.6241 H   0  0  0  0  0  0  0  0  0  0  0  0
  143.1834  131.4949  151.3962 H   0  0  0  0  0  0  0  0  0  0  0  0
  142.5997  133.1308  151.2731 H   0  0  0  0  0  0  0  0  0  0  0  0
  142.5555  132.9457  149.1820 H   0  0  0  0  0  0  0  0  0  0  0  0
  144.4116  134.6479  149.6693 H   0  0  0  0  0  0  0  0  0  0  0  0
  146.1102  134.5071  150.2417 H   0  0  0  0  0  0  0  0  0  0  0  0
  150.2221  139.0083  153.5142 H   0  0  0  0  0  0  0  0  0  0  0  0
  149.0348  137.8760  154.0888 H   0  0  0  0  0  0  0  0  0  0  0  0
  1  2  1  0  0  0  0
  1 32  1  0  0  0  0
  1 33  1  0  0  0  0
  1 34  1  0  0  0  0
  2  3  1  0  0  0  0
  2 35  1  0  0  0  0
  2 36  1  0  0  0  0
  3 29  1  0  0  0  0
  3  4  1  0  0  0  0
  4  5  1  0  0  0  0
  4 37  1  0  0  0  0
  4 38  1  0  0  0  0
  5  6  1  0  0  0  0
  5 39  1  0  0  0  0
  5 40  1  0  0  0  0
  6 30  1  0  0  0  0
  6 28  1  0  0  0  0
  6  7  1  0  0  0  0
  7  8  1  0  0  0  0
  8  9  1  0  0  0  0
  8 41  1  0  0  0  0
  8 42  1  0  0  0  0
  9 10  1  0  0  0  0
  9 43  1  0  0  0  0
  9 44  1  0  0  0  0
 10 11  1  0  0  0  0
 10 28  1  0  0  0  0
 11 16  1  0  0  0  0
 11 12  2  0  0  0  0
 12 13  1  0  0  0  0
 13 14  2  0  0  0  0
 13 45  1  0  0  0  0
 14 15  1  0  0  0  0
 15 19  1  0  0  0  0
 15 16  2  0  0  0  0
 16 17  1  0  0  0  0
 17 18  2  0  0  0  0
 18 19  1  0  0  0  0
 18 46  1  0  0  0  0
 19 20  1  0  0  0  0
 20 27  1  0  0  0  0
 20 21  1  0  0  0  0
 20 47  1  0  0  0  0
 21 22  1  0  0  0  0
 21 48  1  0  0  0  0
 21 49  1  0  0  0  0
 22 23  1  0  0  0  0
 22 25  1  0  0  0  0
 22 27  1  0  0  0  0
 23 24  1  0  0  0  0
 23 50  1  0  0  0  0
 23 51  1  0  0  0  0
 24 52  1  0  0  0  0
 25 26  1  0  0  0  0
 25 53  1  0  0  0  0
 25 54  1  0  0  0  0
 26 55  1  0  0  0  0
 27 56  1  0  0  0  0
 27 57  1  0  0  0  0
 28 31  1  0  0  0  0
 28 29  1  0  0  0  0
 29 58  1  0  0  0  0
 29 59  1  0  0  0  0
M  END
> <s_m_source_file>
AV-unprocessed.smi

> <i_m_source_file_index>
16

> <i_lp_mmshare_version>
43012

> <i_f3d_flags>
0

> <s_epik_input>
W0NIM11bQ0gyXU4oW0NIMl1bQ0gyXTEpW0NIMl1bQ0BASF0oW0NAQEhdMTIpTihbQ0gyXVtDSDJdTzIpYyhuW2NIXW4zKWMoYzM0KW5bY0hdbjRbQ0hdKFtDSDJdNSlbQ0gyXUM1KFtDSDJdW09IXSlbQ0gyXVtPSF0=

> <s_epik_cmdline>
J2VwaWtfcHl0aG9uJywgJy1waCcsICc3LjAnLCAnLXRuJywgJzgnLCAnLW1hJywgJzIwMCcsICctbWV0YWxfYmluZGluZycsICctaW1hZScsICc8aW5maWxlLm1hZT4nLCAnLW9tYWUnLCAnPG91dGZpbGUubWFlPic=

> <r_lp_tautomer_probability>
1

> <r_epik_Ionization_Penalty>
2.27341

> <r_epik_Ionization_Penalty_Charging>
0

> <r_epik_Ionization_Penalty_Neutral>
2.27341

> <r_epik_State_Penalty>
2.41121

> <r_epik_Charging_Adjusted_Penalty>
2.41121

> <i_epik_Tot_Q>
0

> <i_epik_Tot_abs_Q>
0

> <r_epik_Metal_State_Penalty>
2.40177

> <b_epik_Metal_Only>
0

> <s_lp_Force_Field>
OPLS_2005

> <r_lp_Energy>
60.9337

> <b_lp_Chiralities_Consistent>
1

> <s_lp_Variant>
AV-unprocessed.smi:16-12

> <Gold.Version>
5.8.1

> <Gold.Id.Protein>
6NUR|6NUR_protein|mol2

> <Gold.PLP.Fitness>
49.7714

> <Gold.PLP.PLP>
-41.0672

> <Gold.PLP.part.hbond>
-3.1418

> <Gold.PLP.part.metal>
0.0000

> <Gold.PLP.part.buried>
-3.5432

> <Gold.PLP.part.nonpolar>
-36.6447

> <Gold.PLP.part.repulsive>
1.4233

> <Gold.PLP.ligand.clash>
0.0000

> <Gold.PLP.ligand.torsion>
0.9880

> <Gold.PLP.Chemscore.Hbond>
2.4138

> <Gold.PLP.Chemscore.CHOScore>
0.8787

> <Gold.PLP.Chemscore.Metal>
0.0000

> <Gold.Chemscore.Hbonds>
donor molecule, donor type, donor heavy atom, donor atom, acceptor molecule, acceptor atom, score
      L1  H    24    52       P1 10747  1.00
      L1  H    26    55       P1 10186  0.65
      P1  H 10785 10796       L1    26  0.54
      L1  C    18    46       P1 10171  0.71

> <Gold.PLP.Chemscore.Internal.Correction>
0.8028

> <Gold.Rescore>
     Score         DG    S(hbond)    S(metal)    S(lipo)     H(rot)  DE(clash)    DE(int)     intcor
     14.25     -16.53       2.39        0.00      97.83       3.28       1.26       1.01       ----

> <Gold.Chemscore.Fitness>
14.2515

> <Gold.Chemscore.DG>
-16.5255

> <Gold.Chemscore.ZeroCoef>
-5.4800

> <Gold.Chemscore.Hbond>
2.3923

> <Gold.Chemscore.Metal>
0.0000

> <Gold.Chemscore.Lipo>
97.8283

> <Gold.Chemscore.Internal_Hbond>
0.0000

> <Gold.Chemscore.DEClash>
1.2627

> <Gold.Chemscore.DEInternal>
1.0112

> <Gold.Chemscore.Rot>
3.2776

> <Gold.Chemscore.Internal.Correction>
   9.000000E+99

> <Gold.Chemscore.Hbonds>
donor molecule, donor type, donor heavy atom, donor atom, acceptor molecule, acceptor atom, score
      L1  H    24    52       P1 10747  0.93
      L1  H    26    55       P1 10186  0.62
      P1  H 10785 10796       L1    26  0.50

> <Gold.Chemscore.Hbond.Weighted>
-7.9903

> <Gold.Chemscore.Metal.Weighted>
-0.0000

> <Gold.Chemscore.Lipo.Weighted>
-11.4459

> <Gold.Chemscore.Internal_Hbond.Weighted>
0.0000

> <Gold.Chemscore.DEClash.Weighted>
1.2627

> <Gold.Chemscore.DEInternal.Weighted>
1.0112

> <Gold.Chemscore.Rot.Weighted>
8.3907

> <Gold.Chemscore.Internal.Correction.Weighted>
   9.000000E+99

> <Gold.Protein.RotatedTorsions>
[ 6907 6896 6895 6894 ] final   -6.63 input  -60.11 | X-H torsion
[ 7974 7965 7964 7962 ] final  136.89 input  175.53 | X-H torsion
[ 8008 7997 7996 7995 ] final  -54.61 input   59.86 | X-H torsion
[ 10167 10162 10161 10158 ] final  -58.67 input  -65.29 | X-H torsion
[ 10718 10713 10712 10709 ] final   62.16 input   66.30 | X-H torsion
[ 10763 10752 10751 10750 ] final  114.21 input  -60.55 | X-H torsion
[ 11005 11000 10999 10996 ] final   13.33 input  -57.11 | X-H torsion

> <Gold.Protein.ActiveResidues>
 VAL166  LYS551  ARG553  GLY616  TRP617  ASP618  TYR619  PRO620  LYS621  CYS622 
 ASP623  PHE694  ASN695  SER759  ASP760  ASP761  ALA762  ILE779  LEU786  VAL792 
 PHE793  MET794  SER795  GLU796  ALA797  LYS798  CYS799  TRP800  GLU811  SER814 

> <Gold.Protein.RotatedAtoms>
  151.4624  135.1039  159.9728 H   0  0  0  0  0  0  0  0  0  0  0  0  # atno 6907 bound_to 6896
  152.4848  133.8340  159.7128 H   0  0  0  0  0  0  0  0  0  0  0  0  # atno 6908 bound_to 6896
  150.8948  133.7135  159.2922 H   0  0  0  0  0  0  0  0  0  0  0  0  # atno 6909 bound_to 6896
  144.9520  139.4807  143.5521 H   0  0  0  0  0  0  0  0  0  0  0  0  # atno 7974 bound_to 7965
  154.4168  140.1172  156.5344 H   0  0  0  0  0  0  0  0  0  0  0  0  # atno 8008 bound_to 7997
  155.6573  140.3496  155.4750 H   0  0  0  0  0  0  0  0  0  0  0  0  # atno 8009 bound_to 7997
  155.9743  140.1147  157.0774 H   0  0  0  0  0  0  0  0  0  0  0  0  # atno 8010 bound_to 7997
  140.6183  143.2410  151.5543 H   0  0  0  0  0  0  0  0  0  0  0  0  # atno 10167 bound_to 10162
  157.5880  130.9035  149.9552 H   0  0  0  0  0  0  0  0  0  0  0  0  # atno 10718 bound_to 10713
  153.5039  135.3632  155.2553 H   0  0  0  0  0  0  0  0  0  0  0  0  # atno 10763 bound_to 10752
  154.8746  135.4006  154.3446 H   0  0  0  0  0  0  0  0  0  0  0  0  # atno 10764 bound_to 10752
  153.4087  135.7077  153.6441 H   0  0  0  0  0  0  0  0  0  0  0  0  # atno 10765 bound_to 10752
  140.4819  134.0926  155.7753 H   0  0  0  0  0  0  0  0  0  0  0  0  # atno 11005 bound_to 11000
  146.3324  139.8612  142.8856 LP  0  0  0  0  0  0  0  0  0  0  0  0  # atno 17320 bound_to 7965
  145.2829  141.0144  143.3707 LP  0  0  0  0  0  0  0  0  0  0  0  0  # atno 17321 bound_to 7965
  139.5417  144.2630  152.1363 LP  0  0  0  0  0  0  0  0  0  0  0  0  # atno 17342 bound_to 10162
  140.1844  144.4813  150.6511 LP  0  0  0  0  0  0  0  0  0  0  0  0  # atno 17343 bound_to 10162
  156.0932  130.3661  150.0356 LP  0  0  0  0  0  0  0  0  0  0  0  0  # atno 17370 bound_to 10713
  156.8484  130.9450  151.3627 LP  0  0  0  0  0  0  0  0  0  0  0  0  # atno 17371 bound_to 10713
  141.1527  133.8940  157.2058 LP  0  0  0  0  0  0  0  0  0  0  0  0  # atno 17394 bound_to 11000
  139.9821  135.0094  156.9774 LP  0  0  0  0  0  0  0  0  0  0  0  0  # atno 17395 bound_to 11000

$$$$
