AV-unprocessed.smi:2248|AV-procd|sdf|9094|dock4
  -GOLD-   2272012293D 1   1.00000     0.00000
 Structure written by MMmdl.
 35 36  0  0  0  0  0  0  0  0  1 V2000
  153.5652  141.2700  160.4874 C   0  0  0  0  0  0  0  0  0  0  0  0
  152.7565  142.4241  159.9333 C   0  0  0  0  0  0  0  0  0  0  0  0
  152.7972  143.6947  160.5401 C   0  0  0  0  0  0  0  0  0  0  0  0
  152.0244  144.7242  159.9742 C   0  0  0  0  0  0  0  0  0  0  0  0
  151.2491  144.4435  158.8325 C   0  0  0  0  0  0  0  0  0  0  0  0
  151.2653  143.1412  158.2842 C   0  0  0  0  0  0  0  0  0  0  0  0
  150.4507  142.9609  157.1351 N   0  0  0  0  0  0  0  0  0  0  0  0
  150.3548  141.8756  156.3468 C   0  0  0  0  0  0  0  0  0  0  0  0
  150.9851  140.8280  156.4942 O   0  0  0  0  0  0  0  0  0  0  0  0
  149.4700  142.0703  155.3586 N   0  0  0  0  0  0  0  0  0  0  0  0
  149.1311  141.0839  154.3389 C   0  0  2  0  0  0  0  0  0  0  0  0
  147.9992  141.5794  153.4813 C   0  0  0  0  0  0  0  0  0  0  0  0
  146.9695  140.7367  153.4521 C   0  0  0  0  0  0  0  0  0  0  0  0
  147.1969  139.5053  154.2915 C   0  0  2  0  0  0  0  0  0  0  0  0
  146.0812  139.2704  155.3243 C   0  0  0  0  0  0  0  0  0  0  0  0
  144.8449  139.0476  154.6789 O   0  0  0  0  0  0  0  0  0  0  0  0
  148.5814  139.7626  154.9387 C   0  0  0  0  0  0  0  0  0  0  0  0
  152.0138  142.1549  158.8382 N   0  0  0  0  0  0  0  0  0  0  0  0
  149.9919  140.8927  153.6959 H   0  0  0  0  0  0  0  0  0  0  0  0
  147.2639  138.6484  153.6198 H   0  0  0  0  0  0  0  0  0  0  0  0
  153.9453  141.4976  161.4835 H   0  0  0  0  0  0  0  0  0  0  0  0
  154.4143  141.0588  159.8370 H   0  0  0  0  0  0  0  0  0  0  0  0
  152.9524  140.3706  160.5562 H   0  0  0  0  0  0  0  0  0  0  0  0
  153.4032  143.8781  161.4152 H   0  0  0  0  0  0  0  0  0  0  0  0
  152.0260  145.7134  160.4074 H   0  0  0  0  0  0  0  0  0  0  0  0
  150.6503  145.2238  158.3855 H   0  0  0  0  0  0  0  0  0  0  0  0
  149.8716  143.7489  156.8861 H   0  0  0  0  0  0  0  0  0  0  0  0
  148.9948  142.9594  155.3088 H   0  0  0  0  0  0  0  0  0  0  0  0
  148.0501  142.5154  152.9447 H   0  0  0  0  0  0  0  0  0  0  0  0
  146.0606  140.8885  152.8888 H   0  0  0  0  0  0  0  0  0  0  0  0
  146.3120  138.3990  155.9377 H   0  0  0  0  0  0  0  0  0  0  0  0
  145.9870  140.1238  155.9967 H   0  0  0  0  0  0  0  0  0  0  0  0
  144.7197  139.7210  154.0275 H   0  0  0  0  0  0  0  0  0  0  0  0
  149.2634  138.9350  154.7399 H   0  0  0  0  0  0  0  0  0  0  0  0
  148.4892  139.8341  156.0238 H   0  0  0  0  0  0  0  0  0  0  0  0
  1  2  1  0  0  0  0
  1 21  1  0  0  0  0
  1 22  1  0  0  0  0
  1 23  1  0  0  0  0
  2 18  1  0  0  0  0
  2  3  2  0  0  0  0
  3  4  1  0  0  0  0
  3 24  1  0  0  0  0
  4  5  2  0  0  0  0
  4 25  1  0  0  0  0
  5  6  1  0  0  0  0
  5 26  1  0  0  0  0
  6  7  1  0  0  0  0
  6 18  2  0  0  0  0
  7  8  1  0  0  0  0
  7 27  1  0  0  0  0
  8  9  2  0  0  0  0
  8 10  1  0  0  0  0
 10 11  1  0  0  0  0
 10 28  1  0  0  0  0
 11 19  1  0  0  0  0
 11 17  1  0  0  0  0
 11 12  1  0  0  0  0
 12 13  2  0  0  0  0
 12 29  1  0  0  0  0
 13 14  1  0  0  0  0
 13 30  1  0  0  0  0
 14 20  1  0  0  0  0
 14 15  1  0  0  0  0
 14 17  1  0  0  0  0
 15 16  1  0  0  0  0
 15 31  1  0  0  0  0
 15 32  1  0  0  0  0
 16 33  1  0  0  0  0
 17 34  1  0  0  0  0
 17 35  1  0  0  0  0
M  END
> <s_m_source_file>
AV-unprocessed.smi

> <i_m_source_file_index>
2248

> <i_lp_mmshare_version>
43012

> <i_f3d_flags>
0

> <s_epik_input>
W0NIM11jMVtjSF1bY0hdW2NIXWMobjEpW05IXUMoPU8pW05IXVtDQEBIXTJbQ0hdPVtDSF1bQ0BASF0oW0NIMl0yKVtDSDJdW09IXQ==

> <s_epik_cmdline>
J2VwaWtfcHl0aG9uJywgJy1waCcsICc3LjAnLCAnLXRuJywgJzgnLCAnLW1hJywgJzIwMCcsICctbWV0YWxfYmluZGluZycsICctaW1hZScsICc8aW5maWxlLm1hZT4nLCAnLW9tYWUnLCAnPG91dGZpbGUubWFlPic=

> <r_lp_tautomer_probability>
1

> <r_epik_Ionization_Penalty>
8.36606e-05

> <r_epik_Ionization_Penalty_Charging>
0

> <r_epik_Ionization_Penalty_Neutral>
8.36606e-05

> <r_epik_State_Penalty>
-0

> <r_epik_Charging_Adjusted_Penalty>
0

> <i_epik_Tot_Q>
0

> <i_epik_Tot_abs_Q>
0

> <r_epik_Metal_State_Penalty>
-0

> <b_epik_Metal_Only>
0

> <s_lp_Force_Field>
OPLS_2005

> <r_lp_Energy>
17.2686

> <b_lp_Chiralities_Consistent>
1

> <s_lp_Variant>
AV-unprocessed.smi:2248-1

> <Gold.Version>
5.8.1

> <Gold.Id.Protein>
6NUR|6NUR_protein|mol2

> <Gold.PLP.Fitness>
44.9132

> <Gold.PLP.PLP>
-35.9599

> <Gold.PLP.part.hbond>
-3.0000

> <Gold.PLP.part.metal>
0.0000

> <Gold.PLP.part.buried>
-3.9482

> <Gold.PLP.part.nonpolar>
-28.8216

> <Gold.PLP.part.repulsive>
0.2183

> <Gold.PLP.ligand.clash>
0.0000

> <Gold.PLP.ligand.torsion>
0.0300

> <Gold.PLP.Chemscore.Hbond>
3.0000

> <Gold.PLP.Chemscore.CHOScore>
0.0000

> <Gold.PLP.Chemscore.Metal>
0.0000

> <Gold.Chemscore.Hbonds>
donor molecule, donor type, donor heavy atom, donor atom, acceptor molecule, acceptor atom, score
      L1  H     7    27       P1  8028  1.00
      L1  H    10    28       P1  8028  1.00
      L1  H    16    33       P1 10175  0.99

> <Gold.PLP.Chemscore.Internal.Correction>
0.0133

> <Gold.Rescore>
     Score         DG    S(hbond)    S(metal)    S(lipo)     H(rot)  DE(clash)    DE(int)     intcor
     19.78     -21.17       2.94        0.00      89.94       1.82       0.08       1.31       ----

> <Gold.Chemscore.Fitness>
19.7809

> <Gold.Chemscore.DG>
-21.1739

> <Gold.Chemscore.ZeroCoef>
-5.4800

> <Gold.Chemscore.Hbond>
2.9421

> <Gold.Chemscore.Metal>
0.0000

> <Gold.Chemscore.Lipo>
89.9356

> <Gold.Chemscore.Internal_Hbond>
0.0000

> <Gold.Chemscore.DEClash>
0.0824

> <Gold.Chemscore.DEInternal>
1.3106

> <Gold.Chemscore.Rot>
1.8184

> <Gold.Chemscore.Internal.Correction>
   9.000000E+99

> <Gold.Chemscore.Hbonds>
donor molecule, donor type, donor heavy atom, donor atom, acceptor molecule, acceptor atom, score
      L1  H     7    27       P1  8028  0.95
      L1  H    10    28       P1  8028  0.97
      L1  H    16    33       P1 10175  0.90

> <Gold.Chemscore.Hbond.Weighted>
-9.8265

> <Gold.Chemscore.Metal.Weighted>
-0.0000

> <Gold.Chemscore.Lipo.Weighted>
-10.5225

> <Gold.Chemscore.Internal_Hbond.Weighted>
0.0000

> <Gold.Chemscore.DEClash.Weighted>
0.0824

> <Gold.Chemscore.DEInternal.Weighted>
1.3106

> <Gold.Chemscore.Rot.Weighted>
4.6551

> <Gold.Chemscore.Internal.Correction.Weighted>
   9.000000E+99

> <Gold.Protein.RotatedTorsions>
[ 6907 6896 6895 6894 ] final   32.95 input  -60.11 | X-H torsion
[ 7974 7965 7964 7962 ] final -168.41 input  175.53 | X-H torsion
[ 8008 7997 7996 7995 ] final  -45.01 input   59.86 | X-H torsion
[ 10167 10162 10161 10158 ] final  164.22 input  -65.29 | X-H torsion
[ 10718 10713 10712 10709 ] final   64.06 input   66.30 | X-H torsion
[ 10763 10752 10751 10750 ] final  -28.25 input  -60.55 | X-H torsion
[ 11005 11000 10999 10996 ] final  -42.87 input  -57.11 | X-H torsion

> <Gold.Protein.ActiveResidues>
 VAL166  LYS551  ARG553  GLY616  TRP617  ASP618  TYR619  PRO620  LYS621  CYS622 
 ASP623  PHE694  ASN695  SER759  ASP760  ASP761  ALA762  ILE779  LEU786  VAL792 
 PHE793  MET794  SER795  GLU796  ALA797  LYS798  CYS799  TRP800  GLU811  SER814 

> <Gold.Protein.RotatedAtoms>
  152.0817  134.9466  160.0573 H   0  0  0  0  0  0  0  0  0  0  0  0  # atno 6907 bound_to 6896
  152.0752  133.4121  159.4485 H   0  0  0  0  0  0  0  0  0  0  0  0  # atno 6908 bound_to 6896
  150.6836  134.2965  159.4732 H   0  0  0  0  0  0  0  0  0  0  0  0  # atno 6909 bound_to 6896
  144.7203  140.2374  143.6296 H   0  0  0  0  0  0  0  0  0  0  0  0  # atno 7974 bound_to 7965
  154.3999  140.1407  156.3777 H   0  0  0  0  0  0  0  0  0  0  0  0  # atno 8008 bound_to 7997
  155.8033  140.3475  155.5395 H   0  0  0  0  0  0  0  0  0  0  0  0  # atno 8009 bound_to 7997
  155.8461  140.0934  157.1695 H   0  0  0  0  0  0  0  0  0  0  0  0  # atno 8010 bound_to 7997
  139.4885  144.4258  151.9131 H   0  0  0  0  0  0  0  0  0  0  0  0  # atno 10167 bound_to 10162
  157.6014  130.9139  149.9796 H   0  0  0  0  0  0  0  0  0  0  0  0  # atno 10718 bound_to 10713
  153.7452  135.6930  153.4958 H   0  0  0  0  0  0  0  0  0  0  0  0  # atno 10763 bound_to 10752
  153.2041  135.4426  155.0301 H   0  0  0  0  0  0  0  0  0  0  0  0  # atno 10764 bound_to 10752
  154.8206  135.3420  154.6976 H   0  0  0  0  0  0  0  0  0  0  0  0  # atno 10765 bound_to 10752
  141.0345  133.6806  156.2654 H   0  0  0  0  0  0  0  0  0  0  0  0  # atno 11005 bound_to 11000
  145.8353  139.2104  143.1859 LP  0  0  0  0  0  0  0  0  0  0  0  0  # atno 17320 bound_to 7965
  146.0395  140.8179  142.9836 LP  0  0  0  0  0  0  0  0  0  0  0  0  # atno 17321 bound_to 7965
  140.3704  144.2863  150.5921 LP  0  0  0  0  0  0  0  0  0  0  0  0  # atno 17342 bound_to 10162
  140.5324  143.2240  151.8217 LP  0  0  0  0  0  0  0  0  0  0  0  0  # atno 17343 bound_to 10162
  156.1088  130.3651  150.0086 LP  0  0  0  0  0  0  0  0  0  0  0  0  # atno 17370 bound_to 10713
  156.8188  130.9351  151.3642 LP  0  0  0  0  0  0  0  0  0  0  0  0  # atno 17371 bound_to 10713
  140.6347  134.5228  157.5563 LP  0  0  0  0  0  0  0  0  0  0  0  0  # atno 17394 bound_to 11000
  139.9231  134.8110  156.1151 LP  0  0  0  0  0  0  0  0  0  0  0  0  # atno 17395 bound_to 11000

$$$$
