AV-unprocessed.smi:34|AV-procd|sdf|228|dock2
  -GOLD-   2262015553D 1   1.00000     0.00000
 Structure written by MMmdl.
 55 59  0  0  0  0  0  0  0  0  1 V2000
  152.2812  139.9547  158.8923 O   0  0  0  0  0  0  0  0  0  0  0  0
  152.0084  140.8594  158.1026 C   0  0  0  0  0  0  0  0  0  0  0  0
  151.7253  140.6030  156.7019 N   0  0  0  0  0  0  0  0  0  0  0  0
  151.6077  139.4082  156.0769 C   0  0  0  0  0  0  0  0  0  0  0  0
  151.9538  139.2271  154.7753 N   0  0  0  0  0  0  0  0  0  0  0  0
  151.8256  138.0246  154.2076 C   0  0  0  0  0  0  0  0  0  0  0  0
  151.3838  136.8900  154.7527 N   0  0  0  0  0  0  0  0  0  0  0  0
  151.0299  137.0619  156.0580 C   0  0  0  0  0  0  0  0  0  0  0  0
  151.1100  138.2830  156.7842 C   0  0  0  0  0  0  0  0  0  0  0  0
  150.6663  138.0873  158.0852 N   0  0  0  0  0  0  0  0  0  0  0  0
  150.3462  136.8220  158.1213 C   0  0  0  0  0  0  0  0  0  0  0  0
  150.5374  136.1275  156.9474 N   0  0  0  0  0  0  0  0  0  0  0  0
  150.2717  134.6762  156.7081 C   0  0  1  0  0  0  0  0  0  0  0  0
  149.7842  134.1074  157.8864 O   0  0  0  0  0  0  0  0  0  0  0  0
  148.7091  133.2037  157.6055 C   0  0  1  0  0  0  0  0  0  0  0  0
  147.4065  133.7452  158.2100 C   0  0  0  0  0  0  0  0  0  0  0  0
  146.4633  132.6903  158.3087 O   0  0  0  0  0  0  0  0  0  0  0  0
  145.1541  132.9280  158.0953 C   0  0  0  0  0  0  0  0  0  0  0  0
  144.7294  133.8942  157.4582 O   0  0  0  0  0  0  0  0  0  0  0  0
  144.2700  131.9003  158.7161 C   0  0  0  0  0  0  0  0  0  0  0  0
  144.8499  130.7514  159.3032 C   0  0  0  0  0  0  0  0  0  0  0  0
  144.0407  129.7629  159.8960 C   0  0  0  0  0  0  0  0  0  0  0  0
  142.6418  129.9114  159.9101 C   0  0  0  0  0  0  0  0  0  0  0  0
  142.0524  131.0497  159.3295 C   0  0  0  0  0  0  0  0  0  0  0  0
  142.8600  132.0391  158.7354 C   0  0  0  0  0  0  0  0  0  0  0  0
  148.6464  133.1237  156.0775 C   0  0  2  0  0  0  0  0  0  0  0  0
  149.4630  132.1407  155.6868 F   0  0  0  0  0  0  0  0  0  0  0  0
  149.1906  134.4765  155.6500 C   0  0  2  0  0  0  0  0  0  0  0  0
  149.6874  134.4149  154.3281 O   0  0  0  0  0  0  0  0  0  0  0  0
  152.0300  142.3025  158.5170 C   0  0  0  0  0  0  0  0  0  0  0  0
  151.6035  143.3039  157.6157 C   0  0  0  0  0  0  0  0  0  0  0  0
  151.6414  144.6618  157.9885 C   0  0  0  0  0  0  0  0  0  0  0  0
  152.1118  145.0305  159.2629 C   0  0  0  0  0  0  0  0  0  0  0  0
  152.5480  144.0406  160.1633 C   0  0  0  0  0  0  0  0  0  0  0  0
  152.5117  142.6825  159.7915 C   0  0  0  0  0  0  0  0  0  0  0  0
  151.5573  141.4177  156.1300 H   0  0  0  0  0  0  0  0  0  0  0  0
  152.1187  137.9622  153.1697 H   0  0  0  0  0  0  0  0  0  0  0  0
  149.9646  136.3536  159.0168 H   0  0  0  0  0  0  0  0  0  0  0  0
  151.2343  134.2330  156.4472 H   0  0  0  0  0  0  0  0  0  0  0  0
  148.9256  132.2243  158.0344 H   0  0  0  0  0  0  0  0  0  0  0  0
  147.5997  134.2024  159.1798 H   0  0  0  0  0  0  0  0  0  0  0  0
  146.9914  134.5236  157.5694 H   0  0  0  0  0  0  0  0  0  0  0  0
  145.9217  130.6150  159.3041 H   0  0  0  0  0  0  0  0  0  0  0  0
  144.4947  128.8894  160.3400 H   0  0  0  0  0  0  0  0  0  0  0  0
  142.0216  129.1531  160.3647 H   0  0  0  0  0  0  0  0  0  0  0  0
  140.9786  131.1645  159.3393 H   0  0  0  0  0  0  0  0  0  0  0  0
  142.3755  132.9001  158.2990 H   0  0  0  0  0  0  0  0  0  0  0  0
  147.6533  132.9048  155.6839 H   0  0  0  0  0  0  0  0  0  0  0  0
  148.4252  135.2480  155.7455 H   0  0  0  0  0  0  0  0  0  0  0  0
  149.2527  135.0783  153.8141 H   0  0  0  0  0  0  0  0  0  0  0  0
  151.2417  143.0381  156.6328 H   0  0  0  0  0  0  0  0  0  0  0  0
  151.3110  145.4214  157.2953 H   0  0  0  0  0  0  0  0  0  0  0  0
  152.1418  146.0718  159.5480 H   0  0  0  0  0  0  0  0  0  0  0  0
  152.9149  144.3227  161.1391 H   0  0  0  0  0  0  0  0  0  0  0  0
  152.8619  141.9410  160.4949 H   0  0  0  0  0  0  0  0  0  0  0  0
  1  2  2  0  0  0  0
  2  3  1  0  0  0  0
  2 30  1  0  0  0  0
  3  4  1  0  0  0  0
  3 36  1  0  0  0  0
  4  9  1  0  0  0  0
  4  5  2  0  0  0  0
  5  6  1  0  0  0  0
  6  7  2  0  0  0  0
  6 37  1  0  0  0  0
  7  8  1  0  0  0  0
  8 12  1  0  0  0  0
  8  9  2  0  0  0  0
  9 10  1  0  0  0  0
 10 11  2  0  0  0  0
 11 12  1  0  0  0  0
 11 38  1  0  0  0  0
 12 13  1  0  0  0  0
 13 28  1  0  0  0  0
 13 14  1  0  0  0  0
 13 39  1  0  0  0  0
 14 15  1  0  0  0  0
 15 16  1  0  0  0  0
 15 26  1  0  0  0  0
 15 40  1  0  0  0  0
 16 17  1  0  0  0  0
 16 41  1  0  0  0  0
 16 42  1  0  0  0  0
 17 18  1  0  0  0  0
 18 19  2  0  0  0  0
 18 20  1  0  0  0  0
 20 25  1  0  0  0  0
 20 21  2  0  0  0  0
 21 22  1  0  0  0  0
 21 43  1  0  0  0  0
 22 23  2  0  0  0  0
 22 44  1  0  0  0  0
 23 24  1  0  0  0  0
 23 45  1  0  0  0  0
 24 25  2  0  0  0  0
 24 46  1  0  0  0  0
 25 47  1  0  0  0  0
 26 27  1  0  0  0  0
 26 28  1  0  0  0  0
 26 48  1  0  0  0  0
 28 29  1  0  0  0  0
 28 49  1  0  0  0  0
 29 50  1  0  0  0  0
 30 35  1  0  0  0  0
 30 31  2  0  0  0  0
 31 32  1  0  0  0  0
 31 51  1  0  0  0  0
 32 33  2  0  0  0  0
 32 52  1  0  0  0  0
 33 34  1  0  0  0  0
 33 53  1  0  0  0  0
 34 35  2  0  0  0  0
 34 54  1  0  0  0  0
 35 55  1  0  0  0  0
M  END
> <s_m_source_file>
AV-unprocessed.smi

> <i_m_source_file_index>
34

> <i_lp_mmshare_version>
43012

> <i_f3d_flags>
0

> <s_epik_input>
W2NIXTFbY0hdW2NIXVtjSF1bY0hdYzFDKD1PKVtOSF1jKG5bY0hdbjIpYyhjMjMpbltjSF1uM1tDQEBIXTRPW0NASF0oW0NAQEhdKEYpW0NASF00W09IXSlbQ0gyXU9DKD1PKWM1W2NIXVtjSF1bY0hdW2NIXVtjSF01

> <s_epik_cmdline>
J2VwaWtfcHl0aG9uJywgJy1waCcsICc3LjAnLCAnLXRuJywgJzgnLCAnLW1hJywgJzIwMCcsICctbWV0YWxfYmluZGluZycsICctaW1hZScsICc8aW5maWxlLm1hZT4nLCAnLW9tYWUnLCAnPG91dGZpbGUubWFlPic=

> <r_lp_tautomer_probability>
1

> <r_epik_Ionization_Penalty>
0.00257489

> <r_epik_Ionization_Penalty_Charging>
0

> <r_epik_Ionization_Penalty_Neutral>
0.00257489

> <r_epik_State_Penalty>
0.00519398

> <r_epik_Charging_Adjusted_Penalty>
0.00519398

> <i_epik_Tot_Q>
0

> <i_epik_Tot_abs_Q>
0

> <r_epik_Metal_State_Penalty>
0.335891

> <b_epik_Metal_Only>
0

> <s_epik_Chemistry_Notes>
This compound has an ester and may undergo hydrolysis at high or low pH. This compound contains an acetal/aminal-like group ( X-CH(R)-Y where X, Y are N, S, or O) that may be acid/base labile, releasing an aldehyde.

> <s_lp_Force_Field>
OPLS_2005

> <r_lp_Energy>
45.4832

> <b_lp_Chiralities_Consistent>
1

> <s_lp_Variant>
AV-unprocessed.smi:34-14

> <Gold.Version>
5.8.1

> <Gold.Id.Protein>
6NUR|6NUR_protein|mol2

> <Gold.PLP.Fitness>
61.2825

> <Gold.PLP.PLP>
-50.0546

> <Gold.PLP.part.hbond>
-4.0000

> <Gold.PLP.part.metal>
0.0000

> <Gold.PLP.part.buried>
-8.5896

> <Gold.PLP.part.nonpolar>
-36.8022

> <Gold.PLP.part.repulsive>
0.4255

> <Gold.PLP.ligand.clash>
0.0000

> <Gold.PLP.ligand.torsion>
1.0061

> <Gold.PLP.Chemscore.Hbond>
3.9440

> <Gold.PLP.Chemscore.CHOScore>
0.3574

> <Gold.PLP.Chemscore.Metal>
0.0000

> <Gold.Chemscore.Hbonds>
donor molecule, donor type, donor heavy atom, donor atom, acceptor molecule, acceptor atom, score
      L1  H    29    50       P1  7948  0.45
      P1  H  6896  6909       L1    14  1.00
      P1  H  7989  7998       L1     5  0.81
      P1  H 10752 10765       L1     7  1.00
      L1  C     6    37       P1  7949  0.38

> <Gold.PLP.Chemscore.Internal.Correction>
0.3359

> <Gold.Rescore>
     Score         DG    S(hbond)    S(metal)    S(lipo)     H(rot)  DE(clash)    DE(int)     intcor
     15.06     -19.29       2.48        0.00     106.79       2.72       0.21       4.02       ----

> <Gold.Chemscore.Fitness>
15.0597

> <Gold.Chemscore.DG>
-19.2920

> <Gold.Chemscore.ZeroCoef>
-5.4800

> <Gold.Chemscore.Hbond>
2.4803

> <Gold.Chemscore.Metal>
0.0000

> <Gold.Chemscore.Lipo>
106.7920

> <Gold.Chemscore.Internal_Hbond>
0.0000

> <Gold.Chemscore.DEClash>
0.2096

> <Gold.Chemscore.DEInternal>
4.0227

> <Gold.Chemscore.Rot>
2.7215

> <Gold.Chemscore.Internal.Correction>
   9.000000E+99

> <Gold.Chemscore.Hbonds>
donor molecule, donor type, donor heavy atom, donor atom, acceptor molecule, acceptor atom, score
      L1  H    29    50       P1  7948  0.13
      P1  H  6896  6909       L1    14  0.95
      P1  H  7989  7998       L1     5  0.66
      P1  H 10752 10765       L1     7  0.27

> <Gold.Chemscore.Hbond.Weighted>
-8.2843

> <Gold.Chemscore.Metal.Weighted>
-0.0000

> <Gold.Chemscore.Lipo.Weighted>
-12.4947

> <Gold.Chemscore.Internal_Hbond.Weighted>
0.0000

> <Gold.Chemscore.DEClash.Weighted>
0.2096

> <Gold.Chemscore.DEInternal.Weighted>
4.0227

> <Gold.Chemscore.Rot.Weighted>
6.9670

> <Gold.Chemscore.Internal.Correction.Weighted>
   9.000000E+99

> <Gold.Protein.RotatedTorsions>
[ 6907 6896 6895 6894 ] final    5.94 input  -60.11 | X-H torsion
[ 7974 7965 7964 7962 ] final   54.51 input  175.53 | X-H torsion
[ 8008 7997 7996 7995 ] final -109.00 input   59.86 | X-H torsion
[ 10167 10162 10161 10158 ] final   26.59 input  -65.29 | X-H torsion
[ 10718 10713 10712 10709 ] final  -98.43 input   66.30 | X-H torsion
[ 10763 10752 10751 10750 ] final  166.98 input  -60.55 | X-H torsion
[ 11005 11000 10999 10996 ] final  -11.45 input  -57.11 | X-H torsion

> <Gold.Protein.ActiveResidues>
 VAL166  LYS551  ARG553  GLY616  TRP617  ASP618  TYR619  PRO620  LYS621  CYS622 
 ASP623  PHE694  ASN695  SER759  ASP760  ASP761  ALA762  ILE779  LEU786  VAL792 
 PHE793  MET794  SER795  GLU796  ALA797  LYS798  CYS799  TRP800  GLU811  SER814 

> <Gold.Protein.RotatedAtoms>
  151.6657  135.0983  160.0187 H   0  0  0  0  0  0  0  0  0  0  0  0  # atno 6907 bound_to 6896
  152.3921  133.6689  159.6254 H   0  0  0  0  0  0  0  0  0  0  0  0  # atno 6908 bound_to 6896
  150.7835  133.8853  159.3339 H   0  0  0  0  0  0  0  0  0  0  0  0  # atno 6909 bound_to 6896
  145.9601  139.4051  143.0253 H   0  0  0  0  0  0  0  0  0  0  0  0  # atno 7974 bound_to 7965
  154.9528  140.0400  157.2152 H   0  0  0  0  0  0  0  0  0  0  0  0  # atno 8008 bound_to 7997
  154.7962  140.2844  155.5932 H   0  0  0  0  0  0  0  0  0  0  0  0  # atno 8009 bound_to 7997
  156.2956  140.2564  156.2821 H   0  0  0  0  0  0  0  0  0  0  0  0  # atno 8010 bound_to 7997
  140.5010  144.0315  150.6333 H   0  0  0  0  0  0  0  0  0  0  0  0  # atno 10167 bound_to 10162
  156.0107  130.5238  150.6522 H   0  0  0  0  0  0  0  0  0  0  0  0  # atno 10718 bound_to 10713
  154.3470  135.2753  155.2392 H   0  0  0  0  0  0  0  0  0  0  0  0  # atno 10763 bound_to 10752
  154.4638  135.5900  153.6277 H   0  0  0  0  0  0  0  0  0  0  0  0  # atno 10764 bound_to 10752
  152.9853  135.6071  154.3677 H   0  0  0  0  0  0  0  0  0  0  0  0  # atno 10765 bound_to 10752
  140.7554  133.8558  155.9079 H   0  0  0  0  0  0  0  0  0  0  0  0  # atno 11005 bound_to 11000
  145.8052  140.9752  143.0977 LP  0  0  0  0  0  0  0  0  0  0  0  0  # atno 17320 bound_to 7965
  144.6813  139.9852  143.7484 LP  0  0  0  0  0  0  0  0  0  0  0  0  # atno 17321 bound_to 7965
  140.3611  143.2907  152.0383 LP  0  0  0  0  0  0  0  0  0  0  0  0  # atno 17342 bound_to 10162
  139.4872  144.6302  151.7085 LP  0  0  0  0  0  0  0  0  0  0  0  0  # atno 17343 bound_to 10162
  157.4281  131.0845  151.1065 LP  0  0  0  0  0  0  0  0  0  0  0  0  # atno 17370 bound_to 10713
  157.1647  130.6241  149.5621 LP  0  0  0  0  0  0  0  0  0  0  0  0  # atno 17371 bound_to 10713
  140.9712  134.1528  157.4574 LP  0  0  0  0  0  0  0  0  0  0  0  0  # atno 17394 bound_to 11000
  139.8780  134.9979  156.5872 LP  0  0  0  0  0  0  0  0  0  0  0  0  # atno 17395 bound_to 11000

$$$$
