AV-unprocessed.smi:286|AV-procd|sdf|2176|dock5
  -GOLD-   2262021543D 1   1.00000     0.00000
 Structure written by MMmdl.
 46 48  0  0  0  0  0  0  0  0  1 V2000
  152.3989  139.9581  155.7607 O   0  0  0  0  0  0  0  0  0  0  0  0
  151.2429  139.8756  155.3424 C   0  0  0  0  0  0  0  0  0  0  0  0
  150.7413  138.7233  154.6008 C   0  0  0  0  0  0  0  0  0  0  0  0
  151.5676  137.7003  154.3239 F   0  0  0  0  0  0  0  0  0  0  0  0
  149.4587  138.6672  154.1818 C   0  0  0  0  0  0  0  0  0  0  0  0
  148.5396  139.6739  154.4256 N   0  0  0  0  0  0  0  0  0  0  0  0
  147.1127  139.5663  153.9377 C   0  0  1  0  0  0  0  0  0  0  0  0
  146.8130  140.6783  152.9254 C   0  0  0  0  0  0  0  0  0  0  0  0
  147.0313  139.9700  151.6057 C   0  0  0  0  0  0  0  0  0  0  0  0
  146.5534  138.5604  151.9328 C   0  0  0  0  0  0  0  0  0  0  0  0
  146.9459  138.3403  153.2844 O   0  0  0  0  0  0  0  0  0  0  0  0
  148.9415  140.8361  155.1192 C   0  0  0  0  0  0  0  0  0  0  0  0
  148.1437  141.7511  155.3383 O   0  0  0  0  0  0  0  0  0  0  0  0
  150.2880  140.9014  155.5502 N   0  0  0  0  0  0  0  0  0  0  0  0
  150.7035  142.0826  156.2889 C   0  0  0  0  0  0  0  0  0  0  0  0
  150.5068  141.9507  157.8173 C   0  0  1  0  0  0  0  0  0  0  0  0
  150.9087  140.6561  158.2225 O   0  0  0  0  0  0  0  0  0  0  0  0
  151.3084  143.0089  158.6145 C   0  0  0  0  0  0  0  0  0  0  0  0
  151.1478  142.8896  160.1487 C   0  0  0  0  0  0  0  0  0  0  0  0
  152.0063  143.9283  160.8889 C   0  0  0  0  0  0  0  0  0  0  0  0
  151.6899  145.3554  160.4158 C   0  0  0  0  0  0  0  0  0  0  0  0
  151.8542  145.4835  158.8937 C   0  0  0  0  0  0  0  0  0  0  0  0
  150.9936  144.4483  158.1508 C   0  0  0  0  0  0  0  0  0  0  0  0
  149.1491  137.7914  153.6311 H   0  0  0  0  0  0  0  0  0  0  0  0
  146.4787  139.5940  154.8252 H   0  0  0  0  0  0  0  0  0  0  0  0
  145.7684  140.9732  153.0323 H   0  0  0  0  0  0  0  0  0  0  0  0
  147.4447  141.5557  153.0698 H   0  0  0  0  0  0  0  0  0  0  0  0
  146.4847  140.4252  150.7794 H   0  0  0  0  0  0  0  0  0  0  0  0
  148.0919  139.9613  151.3511 H   0  0  0  0  0  0  0  0  0  0  0  0
  145.4658  138.5041  151.8698 H   0  0  0  0  0  0  0  0  0  0  0  0
  146.9733  137.8072  151.2656 H   0  0  0  0  0  0  0  0  0  0  0  0
  151.7316  142.3283  156.0177 H   0  0  0  0  0  0  0  0  0  0  0  0
  150.1187  142.9115  155.8861 H   0  0  0  0  0  0  0  0  0  0  0  0
  149.4504  142.0688  158.0624 H   0  0  0  0  0  0  0  0  0  0  0  0
  150.9639  140.6406  159.1657 H   0  0  0  0  0  0  0  0  0  0  0  0
  152.3617  142.8350  158.3875 H   0  0  0  0  0  0  0  0  0  0  0  0
  150.1024  143.0253  160.4286 H   0  0  0  0  0  0  0  0  0  0  0  0
  151.4288  141.8915  160.4852 H   0  0  0  0  0  0  0  0  0  0  0  0
  151.8403  143.8481  161.9635 H   0  0  0  0  0  0  0  0  0  0  0  0
  153.0628  143.7139  160.7229 H   0  0  0  0  0  0  0  0  0  0  0  0
  150.6686  145.6159  160.6967 H   0  0  0  0  0  0  0  0  0  0  0  0
  152.3420  146.0680  160.9221 H   0  0  0  0  0  0  0  0  0  0  0  0
  151.5827  146.4901  158.5743 H   0  0  0  0  0  0  0  0  0  0  0  0
  152.9030  145.3471  158.6261 H   0  0  0  0  0  0  0  0  0  0  0  0
  151.1623  144.5409  157.0774 H   0  0  0  0  0  0  0  0  0  0  0  0
  149.9395  144.6733  158.3173 H   0  0  0  0  0  0  0  0  0  0  0  0
  1  2  2  0  0  0  0
  2 14  1  0  0  0  0
  2  3  1  0  0  0  0
  3  4  1  0  0  0  0
  3  5  2  0  0  0  0
  5  6  1  0  0  0  0
  5 24  1  0  0  0  0
  6  7  1  0  0  0  0
  6 12  1  0  0  0  0
  7 11  1  0  0  0  0
  7  8  1  0  0  0  0
  7 25  1  0  0  0  0
  8  9  1  0  0  0  0
  8 26  1  0  0  0  0
  8 27  1  0  0  0  0
  9 10  1  0  0  0  0
  9 28  1  0  0  0  0
  9 29  1  0  0  0  0
 10 11  1  0  0  0  0
 10 30  1  0  0  0  0
 10 31  1  0  0  0  0
 12 13  2  0  0  0  0
 12 14  1  0  0  0  0
 14 15  1  0  0  0  0
 15 16  1  0  0  0  0
 15 32  1  0  0  0  0
 15 33  1  0  0  0  0
 16 17  1  0  0  0  0
 16 18  1  0  0  0  0
 16 34  1  0  0  0  0
 17 35  1  0  0  0  0
 18 23  1  0  0  0  0
 18 19  1  0  0  0  0
 18 36  1  0  0  0  0
 19 20  1  0  0  0  0
 19 37  1  0  0  0  0
 19 38  1  0  0  0  0
 20 21  1  0  0  0  0
 20 39  1  0  0  0  0
 20 40  1  0  0  0  0
 21 22  1  0  0  0  0
 21 41  1  0  0  0  0
 21 42  1  0  0  0  0
 22 23  1  0  0  0  0
 22 43  1  0  0  0  0
 22 44  1  0  0  0  0
 23 45  1  0  0  0  0
 23 46  1  0  0  0  0
M  END
> <s_m_source_file>
AV-unprocessed.smi

> <i_m_source_file_index>
286

> <i_lp_mmshare_version>
43012

> <i_f3d_flags>
0

> <s_epik_input>
TzFbQ0gyXVtDSDJdW0NIMl1bQ0BIXTFuKFtjSF1jKEYpYzI9TyljKD1PKW4yW0NIMl1bQ0BIXShbT0hdKVtDSF0zW0NIMl1bQ0gyXVtDSDJdW0NIMl1bQ0gyXTM=

> <s_epik_cmdline>
J2VwaWtfcHl0aG9uJywgJy1waCcsICc3LjAnLCAnLXRuJywgJzgnLCAnLW1hJywgJzIwMCcsICctbWV0YWxfYmluZGluZycsICctaW1hZScsICc8aW5maWxlLm1hZT4nLCAnLW9tYWUnLCAnPG91dGZpbGUubWFlPic=

> <r_lp_tautomer_probability>
1

> <r_epik_Ionization_Penalty>
3.15564e-07

> <r_epik_Ionization_Penalty_Charging>
2.06416e-08

> <r_epik_Ionization_Penalty_Neutral>
2.94923e-07

> <r_epik_State_Penalty>
-0

> <r_epik_Charging_Adjusted_Penalty>
2.06416e-08

> <i_epik_Tot_Q>
0

> <i_epik_Tot_abs_Q>
0

> <r_epik_Metal_State_Penalty>
-0

> <b_epik_Metal_Only>
0

> <s_epik_Chemistry_Notes>
This compound contains an acetal/aminal-like group ( X-CH(R)-Y where X, Y are N, S, or O) that may be acid/base labile, releasing an aldehyde.

> <s_lp_Force_Field>
OPLS_2005

> <r_lp_Energy>
42.0749

> <b_lp_Chiralities_Consistent>
1

> <s_lp_Variant>
AV-unprocessed.smi:286-4

> <Gold.Version>
5.8.1

> <Gold.Id.Protein>
6NUR|6NUR_protein|mol2

> <Gold.PLP.Fitness>
52.1642

> <Gold.PLP.PLP>
-47.1805

> <Gold.PLP.part.hbond>
-1.0000

> <Gold.PLP.part.metal>
0.0000

> <Gold.PLP.part.buried>
-0.0289

> <Gold.PLP.part.nonpolar>
-49.0006

> <Gold.PLP.part.repulsive>
0.8975

> <Gold.PLP.ligand.clash>
0.0000

> <Gold.PLP.ligand.torsion>
0.5395

> <Gold.PLP.Chemscore.Hbond>
1.0000

> <Gold.PLP.Chemscore.CHOScore>
1.0000

> <Gold.PLP.Chemscore.Metal>
0.0000

> <Gold.Chemscore.Hbonds>
donor molecule, donor type, donor heavy atom, donor atom, acceptor molecule, acceptor atom, score
      P1  H  7997  8008       L1     1  1.00
      L1  C     5    24       P1  7948  1.00

> <Gold.PLP.Chemscore.Internal.Correction>
0.0628

> <Gold.Rescore>
     Score         DG    S(hbond)    S(metal)    S(lipo)     H(rot)  DE(clash)    DE(int)     intcor
     14.09     -17.35       0.98        0.00     123.22       2.28       1.70       1.57       ----

> <Gold.Chemscore.Fitness>
14.0851

> <Gold.Chemscore.DG>
-17.3531

> <Gold.Chemscore.ZeroCoef>
-5.4800

> <Gold.Chemscore.Hbond>
0.9827

> <Gold.Chemscore.Metal>
0.0000

> <Gold.Chemscore.Lipo>
123.2153

> <Gold.Chemscore.Internal_Hbond>
0.0000

> <Gold.Chemscore.DEClash>
1.7006

> <Gold.Chemscore.DEInternal>
1.5674

> <Gold.Chemscore.Rot>
2.2756

> <Gold.Chemscore.Internal.Correction>
   9.000000E+99

> <Gold.Chemscore.Hbonds>
donor molecule, donor type, donor heavy atom, donor atom, acceptor molecule, acceptor atom, score
      P1  H  7997  8008       L1     1  0.95

> <Gold.Chemscore.Hbond.Weighted>
-3.2823

> <Gold.Chemscore.Metal.Weighted>
-0.0000

> <Gold.Chemscore.Lipo.Weighted>
-14.4162

> <Gold.Chemscore.Internal_Hbond.Weighted>
0.0000

> <Gold.Chemscore.DEClash.Weighted>
1.7006

> <Gold.Chemscore.DEInternal.Weighted>
1.5674

> <Gold.Chemscore.Rot.Weighted>
5.8254

> <Gold.Chemscore.Internal.Correction.Weighted>
   9.000000E+99

> <Gold.Protein.RotatedTorsions>
[ 6907 6896 6895 6894 ] final  128.21 input  -60.11 | X-H torsion
[ 7974 7965 7964 7962 ] final   30.71 input  175.53 | X-H torsion
[ 8008 7997 7996 7995 ] final  -27.56 input   59.86 | X-H torsion
[ 10167 10162 10161 10158 ] final  177.41 input  -65.29 | X-H torsion
[ 10718 10713 10712 10709 ] final  -45.87 input   66.30 | X-H torsion
[ 10763 10752 10751 10750 ] final -120.86 input  -60.55 | X-H torsion
[ 11005 11000 10999 10996 ] final -100.85 input  -57.11 | X-H torsion

> <Gold.Protein.ActiveResidues>
 VAL166  LYS551  ARG553  GLY616  TRP617  ASP618  TYR619  PRO620  LYS621  CYS622 
 ASP623  PHE694  ASN695  SER759  ASP760  ASP761  ALA762  ILE779  LEU786  VAL792 
 PHE793  MET794  SER795  GLU796  ALA797  LYS798  CYS799  TRP800  GLU811  SER814 

> <Gold.Protein.RotatedAtoms>
  152.3740  133.6457  159.6109 H   0  0  0  0  0  0  0  0  0  0  0  0  # atno 6907 bound_to 6896
  150.7690  133.9223  159.3410 H   0  0  0  0  0  0  0  0  0  0  0  0  # atno 6908 bound_to 6896
  151.7040  135.0926  160.0307 H   0  0  0  0  0  0  0  0  0  0  0  0  # atno 6909 bound_to 6896
  146.1595  139.6752  142.9043 H   0  0  0  0  0  0  0  0  0  0  0  0  # atno 7974 bound_to 7965
  154.4372  140.1869  156.0951 H   0  0  0  0  0  0  0  0  0  0  0  0  # atno 8008 bound_to 7997
  156.0335  140.3328  155.7140 H   0  0  0  0  0  0  0  0  0  0  0  0  # atno 8009 bound_to 7997
  155.5804  140.0621  157.2775 H   0  0  0  0  0  0  0  0  0  0  0  0  # atno 8010 bound_to 7997
  139.5252  144.2801  152.0554 H   0  0  0  0  0  0  0  0  0  0  0  0  # atno 10167 bound_to 10162
  156.2240  130.4168  149.8958 H   0  0  0  0  0  0  0  0  0  0  0  0  # atno 10718 bound_to 10713
  154.8655  135.4188  154.2528 H   0  0  0  0  0  0  0  0  0  0  0  0  # atno 10763 bound_to 10752
  153.3471  135.6997  153.6824 H   0  0  0  0  0  0  0  0  0  0  0  0  # atno 10764 bound_to 10752
  153.5779  135.3578  155.2836 H   0  0  0  0  0  0  0  0  0  0  0  0  # atno 10765 bound_to 10752
  141.1254  133.8431  157.1155 H   0  0  0  0  0  0  0  0  0  0  0  0  # atno 11005 bound_to 11000
  145.4625  141.0433  143.2744 LP  0  0  0  0  0  0  0  0  0  0  0  0  # atno 17320 bound_to 7965
  144.8007  139.6145  143.7073 LP  0  0  0  0  0  0  0  0  0  0  0  0  # atno 17321 bound_to 7965
  140.2257  144.4420  150.6322 LP  0  0  0  0  0  0  0  0  0  0  0  0  # atno 17342 bound_to 10162
  140.6389  143.2200  151.6334 LP  0  0  0  0  0  0  0  0  0  0  0  0  # atno 17343 bound_to 10162
  156.6594  130.8776  151.3545 LP  0  0  0  0  0  0  0  0  0  0  0  0  # atno 17370 bound_to 10713
  157.7101  130.9430  150.1061 LP  0  0  0  0  0  0  0  0  0  0  0  0  # atno 17371 bound_to 10713
  140.0248  134.9929  157.0665 LP  0  0  0  0  0  0  0  0  0  0  0  0  # atno 17394 bound_to 11000
  140.4380  134.1711  155.7172 LP  0  0  0  0  0  0  0  0  0  0  0  0  # atno 17395 bound_to 11000

$$$$
