AV-unprocessed.smi:3280|AV-procd|sdf|12555|dock3
  -GOLD-   2272018473D 1   1.00000     0.00000
 Structure written by MMmdl.
 38 39  0  0  0  0  0  0  0  0  1 V2000
  146.2186  141.3587  156.0916 C   0  0  0  0  0  0  0  0  0  0  0  0
  147.1749  142.1609  155.1972 C   0  0  0  0  0  0  0  0  0  0  0  0
  146.5936  142.4487  153.8050 C   0  0  0  0  0  0  0  0  0  0  0  0
  148.5259  141.5187  155.1131 C   0  0  0  0  0  0  0  0  0  0  0  0
  149.0939  141.2626  153.9402 N   0  0  0  0  0  0  0  0  0  0  0  0
  150.3236  140.6885  154.2923 O   0  0  0  0  0  0  0  0  0  0  0  0
  150.3404  140.6521  155.6461 C   0  0  0  0  0  0  0  0  0  0  0  0
  151.5542  140.1280  156.3377 C   0  0  0  0  0  0  0  0  0  0  0  0
  151.4400  140.2216  157.8645 C   0  0  0  0  0  0  0  0  0  0  0  0
  152.4616  141.1256  158.3754 N   0  0  0  0  0  0  0  0  0  0  0  0
  151.8838  142.2621  159.0842 C   0  0  1  0  0  0  0  0  0  0  0  0
  152.8673  142.6603  160.2023 C   0  0  0  0  0  0  0  0  0  0  0  0
  152.3392  143.8128  161.0714 C   0  0  0  0  0  0  0  0  0  0  0  0
  152.1066  145.0954  160.2613 C   0  0  0  0  0  0  0  0  0  0  0  0
  150.8544  144.8394  158.9757 S   0  0  0  0  0  0  0  0  0  0  0  0
  151.6235  143.4379  158.1183 C   0  0  0  0  0  0  0  0  0  0  0  0
  149.2554  141.1746  156.2119 N   0  0  0  0  0  0  0  0  0  0  0  0
  146.6290  141.2372  157.0945 H   0  0  0  0  0  0  0  0  0  0  0  0
  146.0335  140.3643  155.6840 H   0  0  0  0  0  0  0  0  0  0  0  0
  145.2564  141.8622  156.1877 H   0  0  0  0  0  0  0  0  0  0  0  0
  147.3064  143.1306  155.6804 H   0  0  0  0  0  0  0  0  0  0  0  0
  147.2649  143.0804  153.2226 H   0  0  0  0  0  0  0  0  0  0  0  0
  145.6361  142.9648  153.8785 H   0  0  0  0  0  0  0  0  0  0  0  0
  146.4318  141.5277  153.2441 H   0  0  0  0  0  0  0  0  0  0  0  0
  151.7087  139.0922  156.0320 H   0  0  0  0  0  0  0  0  0  0  0  0
  152.4207  140.6914  155.9883 H   0  0  0  0  0  0  0  0  0  0  0  0
  150.4461  140.5757  158.1358 H   0  0  0  0  0  0  0  0  0  0  0  0
  151.5686  139.2326  158.3063 H   0  0  0  0  0  0  0  0  0  0  0  0
  153.0578  140.6132  159.0097 H   0  0  0  0  0  0  0  0  0  0  0  0
  150.9464  141.9506  159.5477 H   0  0  0  0  0  0  0  0  0  0  0  0
  153.0604  141.7995  160.8443 H   0  0  0  0  0  0  0  0  0  0  0  0
  153.8299  142.9419  159.7722 H   0  0  0  0  0  0  0  0  0  0  0  0
  151.4123  143.5127  161.5618 H   0  0  0  0  0  0  0  0  0  0  0  0
  153.0539  144.0177  161.8691 H   0  0  0  0  0  0  0  0  0  0  0  0
  151.7748  145.9013  160.9161 H   0  0  0  0  0  0  0  0  0  0  0  0
  153.0352  145.4247  159.7938 H   0  0  0  0  0  0  0  0  0  0  0  0
  152.5554  143.7731  157.6609 H   0  0  0  0  0  0  0  0  0  0  0  0
  150.9567  143.1493  157.3067 H   0  0  0  0  0  0  0  0  0  0  0  0
  1  2  1  0  0  0  0
  1 18  1  0  0  0  0
  1 19  1  0  0  0  0
  1 20  1  0  0  0  0
  2  3  1  0  0  0  0
  2  4  1  0  0  0  0
  2 21  1  0  0  0  0
  3 22  1  0  0  0  0
  3 23  1  0  0  0  0
  3 24  1  0  0  0  0
  4 17  1  0  0  0  0
  4  5  2  0  0  0  0
  5  6  1  0  0  0  0
  6  7  1  0  0  0  0
  7  8  1  0  0  0  0
  7 17  2  0  0  0  0
  8  9  1  0  0  0  0
  8 25  1  0  0  0  0
  8 26  1  0  0  0  0
  9 10  1  0  0  0  0
  9 27  1  0  0  0  0
  9 28  1  0  0  0  0
 10 11  1  0  0  0  0
 10 29  1  0  0  0  0
 11 16  1  0  0  0  0
 11 12  1  0  0  0  0
 11 30  1  0  0  0  0
 12 13  1  0  0  0  0
 12 31  1  0  0  0  0
 12 32  1  0  0  0  0
 13 14  1  0  0  0  0
 13 33  1  0  0  0  0
 13 34  1  0  0  0  0
 14 15  1  0  0  0  0
 14 35  1  0  0  0  0
 14 36  1  0  0  0  0
 15 16  1  0  0  0  0
 16 37  1  0  0  0  0
 16 38  1  0  0  0  0
M  END
> <s_m_source_file>
AV-unprocessed.smi

> <i_m_source_file_index>
3280

> <i_lp_mmshare_version>
43012

> <i_f3d_flags>
0

> <s_epik_input>
W0NIM11bQ0hdKFtDSDNdKWMxbm9jKG4xKVtDSDJdW0NIMl1bTkhdW0NAQEhdMltDSDJdW0NIMl1bQ0gyXVNbQ0gyXTI=

> <s_epik_cmdline>
J2VwaWtfcHl0aG9uJywgJy1waCcsICc3LjAnLCAnLXRuJywgJzgnLCAnLW1hJywgJzIwMCcsICctbWV0YWxfYmluZGluZycsICctaW1hZScsICc8aW5maWxlLm1hZT4nLCAnLW9tYWUnLCAnPG91dGZpbGUubWFlPic=

> <r_lp_tautomer_probability>
1

> <r_epik_Ionization_Penalty>
2.40576

> <r_epik_Ionization_Penalty_Charging>
0

> <r_epik_Ionization_Penalty_Neutral>
2.40576

> <r_epik_State_Penalty>
2.56401

> <r_epik_Charging_Adjusted_Penalty>
2.56401

> <i_epik_Tot_Q>
0

> <i_epik_Tot_abs_Q>
0

> <r_epik_Metal_State_Penalty>
2.56401

> <b_epik_Metal_Only>
0

> <s_lp_Force_Field>
OPLS_2005

> <r_lp_Energy>
1.02241

> <b_lp_Chiralities_Consistent>
1

> <s_lp_Variant>
AV-unprocessed.smi:3280-4

> <Gold.Version>
5.8.1

> <Gold.Id.Protein>
6NUR|6NUR_protein|mol2

> <Gold.PLP.Fitness>
39.2054

> <Gold.PLP.PLP>
-36.7355

> <Gold.PLP.part.hbond>
-2.3444

> <Gold.PLP.part.metal>
0.0000

> <Gold.PLP.part.buried>
-5.2593

> <Gold.PLP.part.nonpolar>
-30.8156

> <Gold.PLP.part.repulsive>
1.4885

> <Gold.PLP.ligand.clash>
0.0000

> <Gold.PLP.ligand.torsion>
1.2046

> <Gold.PLP.Chemscore.Hbond>
1.5990

> <Gold.PLP.Chemscore.CHOScore>
0.0000

> <Gold.PLP.Chemscore.Metal>
0.0000

> <Gold.Chemscore.Hbonds>
donor molecule, donor type, donor heavy atom, donor atom, acceptor molecule, acceptor atom, score
      P1  H  7989  7998       L1     6  0.79
      P1  H  8011  8017       L1     5  0.57

> <Gold.PLP.Chemscore.Internal.Correction>
0.0821

> <Gold.Rescore>
     Score         DG    S(hbond)    S(metal)    S(lipo)     H(rot)  DE(clash)    DE(int)     intcor
     13.56     -14.70       0.88        0.00      90.61       1.68       0.00       1.15       ----

> <Gold.Chemscore.Fitness>
13.5589

> <Gold.Chemscore.DG>
-14.7042

> <Gold.Chemscore.ZeroCoef>
-5.4800

> <Gold.Chemscore.Hbond>
0.8779

> <Gold.Chemscore.Metal>
0.0000

> <Gold.Chemscore.Lipo>
90.6094

> <Gold.Chemscore.Internal_Hbond>
0.0000

> <Gold.Chemscore.DEClash>
0.0000

> <Gold.Chemscore.DEInternal>
1.1453

> <Gold.Chemscore.Rot>
1.6833

> <Gold.Chemscore.Internal.Correction>
   9.000000E+99

> <Gold.Chemscore.Hbonds>
donor molecule, donor type, donor heavy atom, donor atom, acceptor molecule, acceptor atom, score
      P1  H  7989  7998       L1     6  0.73
      P1  H  8011  8017       L1     5  0.10

> <Gold.Chemscore.Hbond.Weighted>
-2.9320

> <Gold.Chemscore.Metal.Weighted>
-0.0000

> <Gold.Chemscore.Lipo.Weighted>
-10.6013

> <Gold.Chemscore.Internal_Hbond.Weighted>
0.0000

> <Gold.Chemscore.DEClash.Weighted>
0.0000

> <Gold.Chemscore.DEInternal.Weighted>
1.1453

> <Gold.Chemscore.Rot.Weighted>
4.3092

> <Gold.Chemscore.Internal.Correction.Weighted>
   9.000000E+99

> <Gold.Protein.RotatedTorsions>
[ 6907 6896 6895 6894 ] final    8.20 input  -60.11 | X-H torsion
[ 7974 7965 7964 7962 ] final -178.74 input  175.53 | X-H torsion
[ 8008 7997 7996 7995 ] final -148.24 input   59.86 | X-H torsion
[ 10167 10162 10161 10158 ] final   72.96 input  -65.29 | X-H torsion
[ 10718 10713 10712 10709 ] final  114.04 input   66.30 | X-H torsion
[ 10763 10752 10751 10750 ] final  -68.56 input  -60.55 | X-H torsion
[ 11005 11000 10999 10996 ] final  -54.13 input  -57.11 | X-H torsion

> <Gold.Protein.ActiveResidues>
 VAL166  LYS551  ARG553  GLY616  TRP617  ASP618  TYR619  PRO620  LYS621  CYS622 
 ASP623  PHE694  ASN695  SER759  ASP760  ASP761  ALA762  ILE779  LEU786  VAL792 
 PHE793  MET794  SER795  GLU796  ALA797  LYS798  CYS799  TRP800  GLU811  SER814 

> <Gold.Protein.RotatedAtoms>
  151.7021  135.0928  160.0252 H   0  0  0  0  0  0  0  0  0  0  0  0  # atno 6907 bound_to 6896
  152.3714  133.6419  159.6098 H   0  0  0  0  0  0  0  0  0  0  0  0  # atno 6908 bound_to 6896
  150.7676  133.9181  159.3431 H   0  0  0  0  0  0  0  0  0  0  0  0  # atno 6909 bound_to 6896
  144.7132  140.0823  143.6425 H   0  0  0  0  0  0  0  0  0  0  0  0  # atno 7974 bound_to 7965
  155.5884  140.0650  157.2765 H   0  0  0  0  0  0  0  0  0  0  0  0  # atno 8008 bound_to 7997
  154.4312  140.1839  156.1096 H   0  0  0  0  0  0  0  0  0  0  0  0  # atno 8009 bound_to 7997
  156.0251  140.3312  155.7084 H   0  0  0  0  0  0  0  0  0  0  0  0  # atno 8010 bound_to 7997
  140.0297  144.5476  150.7517 H   0  0  0  0  0  0  0  0  0  0  0  0  # atno 10167 bound_to 10162
  157.6304  131.0993  150.7128 H   0  0  0  0  0  0  0  0  0  0  0  0  # atno 10718 bound_to 10713
  154.3908  135.6053  153.5842 H   0  0  0  0  0  0  0  0  0  0  0  0  # atno 10763 bound_to 10752
  152.9787  135.5883  154.4300 H   0  0  0  0  0  0  0  0  0  0  0  0  # atno 10764 bound_to 10752
  154.4083  135.2844  155.2031 H   0  0  0  0  0  0  0  0  0  0  0  0  # atno 10765 bound_to 10752
  141.1010  133.6618  156.4274 H   0  0  0  0  0  0  0  0  0  0  0  0  # atno 11005 bound_to 11000
  145.9692  139.2857  143.1109 LP  0  0  0  0  0  0  0  0  0  0  0  0  # atno 17320 bound_to 7965
  145.9136  140.9163  143.0441 LP  0  0  0  0  0  0  0  0  0  0  0  0  # atno 17321 bound_to 7965
  140.7307  143.2687  151.3960 LP  0  0  0  0  0  0  0  0  0  0  0  0  # atno 17342 bound_to 10162
  139.6084  144.1148  152.2274 LP  0  0  0  0  0  0  0  0  0  0  0  0  # atno 17343 bound_to 10162
  156.7469  130.4756  149.5465 LP  0  0  0  0  0  0  0  0  0  0  0  0  # atno 17370 bound_to 10713
  156.1503  130.6305  151.0587 LP  0  0  0  0  0  0  0  0  0  0  0  0  # atno 17371 bound_to 10713
  140.5021  134.6475  157.5252 LP  0  0  0  0  0  0  0  0  0  0  0  0  # atno 17394 bound_to 11000
  139.9862  134.7058  155.9770 LP  0  0  0  0  0  0  0  0  0  0  0  0  # atno 17395 bound_to 11000

$$$$
