#       Name:                AV-unprocessed.smi:1099
#       Creating user name   scv26
#       Creation time:       Fri Mar 27 03:29:16 2020


#       File generated by GOLD software.
#

@<TRIPOS>MOLECULE
AV-unprocessed.smi:1099
    44    46     1
SMALL
NO_CHARGES


@<TRIPOS>ATOM
      1 ****        -6.1552   2.5267   3.2313 C.3            1 S1                 0.0000
      2 ****        -5.8461   2.3831   1.7376 C.3            1 S1                 0.0000
      3 ****        -4.9146   1.2530   1.4510 C.2            1 S1                 0.0000
      4 ****        -3.5844   1.3741   1.4590 N.2            1 S1                 0.0000
      5 ****        -2.9320   0.1667   1.1898 C.2            1 S1                 0.0000
      6 ****        -1.4353   0.1191   1.1398 C.3            1 S1                 0.0000
      7 ****        -0.8822   0.6735  -0.1837 C.3            1 S1                 0.0000
      8 ****         0.5748   0.6289  -0.2206 N.am           1 S1                 0.0000
      9 ****         1.3050  -0.4581  -0.5135 C.2            1 S1                 0.0000
     10 ****         0.8025  -1.5528  -0.7709 O.2            1 S1                 0.0000
     11 ****         2.8325  -0.2736  -0.4849 C.3            1 S1                 0.0000
     12 ****         3.6218  -1.4899   0.0601 C.3            1 S1                 0.0000
     13 ****         4.6472  -1.7648  -1.0560 C.3            1 S1                 0.0000
     14 ****         3.9328  -2.3874  -2.2702 C.3            1 S1                 0.0000
     15 ****         3.1799  -1.1870  -2.8727 C.3            1 S1                 0.0000
     16 ****         3.4928  -0.0525  -1.8720 C.3            1 S1                 0.0000
     17 ****         4.9538  -0.3568  -1.5535 C.3            1 S1                 0.0000
     18 ****        -3.7947  -0.8821   0.9901 C.2            1 S1                 0.0000
     19 ****        -5.4596  -0.3907   1.1357 S.3            1 S1                 0.0000
     20 ****        -6.8406   3.3558   3.4082 H              1 S1                 0.0000
     21 ****        -5.2473   2.7160   3.8046 H              1 S1                 0.0000
     22 ****        -6.6182   1.6217   3.6255 H              1 S1                 0.0000
     23 ****        -6.7698   2.2235   1.1806 H              1 S1                 0.0000
     24 ****        -5.4081   3.3069   1.3577 H              1 S1                 0.0000
     25 ****        -1.0185   0.6847   1.9742 H              1 S1                 0.0000
     26 ****        -1.0961  -0.9082   1.2786 H              1 S1                 0.0000
     27 ****        -1.2940   0.1220  -1.0306 H              1 S1                 0.0000
     28 ****        -1.1910   1.7116  -0.3106 H              1 S1                 0.0000
     29 ****         1.0635   1.4882  -0.0142 H              1 S1                 0.0000
     30 ****         3.0585   0.5876   0.1470 H              1 S1                 0.0000
     31 ****         4.1309  -1.2214   0.9868 H              1 S1                 0.0000
     32 ****         3.0096  -2.3673   0.2735 H              1 S1                 0.0000
     33 ****         5.5138  -2.3351  -0.7201 H              1 S1                 0.0000
     34 ****         4.6517  -2.7879  -2.9859 H              1 S1                 0.0000
     35 ****         3.2605  -3.1961  -1.9813 H              1 S1                 0.0000
     36 ****         3.5882  -0.9443  -3.8549 H              1 S1                 0.0000
     37 ****         2.1163  -1.3768  -3.0114 H              1 S1                 0.0000
     38 ****         3.3233   0.9454  -2.2779 H              1 S1                 0.0000
     39 ****         5.3762   0.2928  -0.7847 H              1 S1                 0.0000
     40 ****         5.6034  -0.3392  -2.4306 H              1 S1                 0.0000
     41 ****        -3.5518  -1.9109   0.7682 H              1 S1                 0.0000
     42 ****        -3.1070   2.2344   1.6380 LP             1 S1                 0.0000
     43 ****        -0.1917  -1.6598  -0.7674 LP             1 S1                 0.0000
     44 ****         1.3888  -2.3345  -0.9834 LP             1 S1                 0.0000
@<TRIPOS>BOND
    1    1    2 1     
    2    1   20 1     
    3    1   21 1     
    4    1   22 1     
    5    2    3 1     
    6    2   23 1     
    7    2   24 1     
    8    3   19 1     
    9    3    4 2     
   10    4    5 1     
   11    5    6 1     
   12    5   18 2     
   13    6    7 1     
   14    6   25 1     
   15    6   26 1     
   16    7    8 1     
   17    7   27 1     
   18    7   28 1     
   19    8    9 am    
   20    8   29 1     
   21    9   10 2     
   22    9   11 1     
   23   11   16 1     
   24   11   12 1     
   25   11   30 1     
   26   12   13 1     
   27   12   31 1     
   28   12   32 1     
   29   13   17 1     
   30   13   14 1     
   31   13   33 1     
   32   14   15 1     
   33   14   34 1     
   34   14   35 1     
   35   15   16 1     
   36   15   36 1     
   37   15   37 1     
   38   16   17 1     
   39   16   38 1     
   40   17   39 1     
   41   17   40 1     
   42   18   19 1     
   43   18   41 1     
   44    4   42 1     
   45   10   43 1     
   46   10   44 1     
@<TRIPOS>SUBSTRUCTURE
      1 S1             1
@<TRIPOS>SET
LONE_PAIRS      STATIC     ATOMS    <user>   **** ""
3 42 43 44
DONOR_HYDROGENS      STATIC     ATOMS    <user>   **** ""
1 29
ATOM$BLUE        STATIC     ATOMS    COLORGROUP SYSTEM
3 42 43 44
ATOM$RED        STATIC     ATOMS    COLORGROUP SYSTEM
1 29
