AV-unprocessed.smi:3107|AV-procd|sdf|11825|dock2
  -GOLD-   2272017193D 1   1.00000     0.00000
 Structure written by MMmdl.
 37 38  0  0  0  0  0  0  0  0  2 V2000
  151.2426  137.5247  155.2031 C   0  0  0  0  0  0  0  0  0  0  0  0
  150.9420  138.2454  154.0135 C   0  0  0  0  0  0  0  0  0  0  0  0
  150.4755  139.4597  154.2571 N   0  0  0  0  0  0  0  0  0  0  0  0
  150.4618  139.5531  155.6041 N   0  0  0  0  0  0  0  0  0  0  0  0
  149.9976  140.7738  156.2335 C   0  0  0  0  0  0  0  0  0  0  0  0
  151.0922  141.8502  156.2604 C   0  0  0  0  0  0  0  0  0  0  0  0
  150.7312  142.9500  157.1752 N   0  3  0  0  0  0  0  0  0  0  0  0
  151.8097  143.9367  157.3850 C   0  0  0  0  0  0  0  0  0  0  0  0
  152.4566  143.7848  158.7744 C   0  0  0  0  0  0  0  0  0  0  0  0
  152.7687  142.3045  159.0777 C   0  0  0  0  0  0  0  0  0  0  0  0
  153.4101  142.1270  160.4638 C   0  0  0  0  0  0  0  0  0  0  0  0
  152.5282  142.7292  161.5677 C   0  0  0  0  0  0  0  0  0  0  0  0
  152.2141  144.2046  161.2790 C   0  0  0  0  0  0  0  0  0  0  0  0
  151.5707  144.3759  159.8933 C   0  0  0  0  0  0  0  0  0  0  0  0
  150.9188  138.3975  156.2020 C   0  0  0  0  0  0  0  0  0  0  0  0
  151.6334  136.5231  155.3058 H   0  0  0  0  0  0  0  0  0  0  0  0
  151.0485  137.9249  152.9875 H   0  0  0  0  0  0  0  0  0  0  0  0
  149.1207  141.1312  155.6911 H   0  0  0  0  0  0  0  0  0  0  0  0
  149.6695  140.5388  157.2470 H   0  0  0  0  0  0  0  0  0  0  0  0
  152.0383  141.4114  156.5808 H   0  0  0  0  0  0  0  0  0  0  0  0
  151.2467  142.2558  155.2595 H   0  0  0  0  0  0  0  0  0  0  0  0
  149.9269  143.4306  156.7978 H   0  0  0  0  0  0  0  0  0  0  0  0
  152.5630  143.8304  156.6029 H   0  0  0  0  0  0  0  0  0  0  0  0
  151.3836  144.9357  157.2827 H   0  0  0  0  0  0  0  0  0  0  0  0
  153.4048  144.3252  158.7658 H   0  0  0  0  0  0  0  0  0  0  0  0
  151.8518  141.7157  159.0252 H   0  0  0  0  0  0  0  0  0  0  0  0
  153.4375  141.9000  158.3168 H   0  0  0  0  0  0  0  0  0  0  0  0
  153.5796  141.0682  160.6615 H   0  0  0  0  0  0  0  0  0  0  0  0
  154.3908  142.6043  160.4778 H   0  0  0  0  0  0  0  0  0  0  0  0
  151.5977  142.1646  161.6419 H   0  0  0  0  0  0  0  0  0  0  0  0
  153.0251  142.6362  162.5339 H   0  0  0  0  0  0  0  0  0  0  0  0
  151.5499  144.5996  162.0483 H   0  0  0  0  0  0  0  0  0  0  0  0
  153.1320  144.7916  161.3325 H   0  0  0  0  0  0  0  0  0  0  0  0
  151.3880  145.4357  159.7139 H   0  0  0  0  0  0  0  0  0  0  0  0
  150.5939  143.8900  159.8860 H   0  0  0  0  0  0  0  0  0  0  0  0
  150.9761  138.2928  157.2755 H   0  0  0  0  0  0  0  0  0  0  0  0
  150.4814  142.5547  158.0704 H   0  0  0  0  0  0  0  0  0  0  0  0
  1 15  2  0  0  0  0
  1  2  1  0  0  0  0
  1 16  1  0  0  0  0
  2  3  2  0  0  0  0
  2 17  1  0  0  0  0
  3  4  1  0  0  0  0
  4  5  1  0  0  0  0
  4 15  1  0  0  0  0
  5  6  1  0  0  0  0
  5 18  1  0  0  0  0
  5 19  1  0  0  0  0
  6  7  1  0  0  0  0
  6 20  1  0  0  0  0
  6 21  1  0  0  0  0
  7  8  1  0  0  0  0
  7 22  1  0  0  0  0
  7 37  1  0  0  0  0
  8  9  1  0  0  0  0
  8 23  1  0  0  0  0
  8 24  1  0  0  0  0
  9 14  1  0  0  0  0
  9 10  1  0  0  0  0
  9 25  1  0  0  0  0
 10 11  1  0  0  0  0
 10 26  1  0  0  0  0
 10 27  1  0  0  0  0
 11 12  1  0  0  0  0
 11 28  1  0  0  0  0
 11 29  1  0  0  0  0
 12 13  1  0  0  0  0
 12 30  1  0  0  0  0
 12 31  1  0  0  0  0
 13 14  1  0  0  0  0
 13 32  1  0  0  0  0
 13 33  1  0  0  0  0
 14 34  1  0  0  0  0
 14 35  1  0  0  0  0
 15 36  1  0  0  0  0
M  CHG  1   7   1
M  END
> <s_m_source_file>
AV-unprocessed.smi

> <i_m_source_file_index>
3107

> <i_lp_mmshare_version>
43012

> <i_f3d_flags>
0

> <s_epik_input>
W2NIXTFbY0hdW2NIXW5uMVtDSDJdW0NIMl1bTkhdW0NIMl1bQ0hdMltDSDJdW0NIMl1bQ0gyXVtDSDJdW0NIMl0y

> <s_epik_cmdline>
J2VwaWtfcHl0aG9uJywgJy1waCcsICc3LjAnLCAnLXRuJywgJzgnLCAnLW1hJywgJzIwMCcsICctbWV0YWxfYmluZGluZycsICctaW1hZScsICc8aW5maWxlLm1hZT4nLCAnLW9tYWUnLCAnPG91dGZpbGUubWFlPic=

> <r_lp_tautomer_probability>
1

> <r_epik_Ionization_Penalty>
0.00174339

> <r_epik_Ionization_Penalty_Charging>
0.00174052

> <r_epik_Ionization_Penalty_Neutral>
2.86298e-06

> <r_epik_State_Penalty>
-0

> <r_epik_Charging_Adjusted_Penalty>
0.00174052

> <i_epik_Tot_Q>
1

> <i_epik_Tot_abs_Q>
1

> <r_epik_Metal_State_Penalty>
-0

> <b_epik_Metal_Only>
0

> <s_lp_Force_Field>
OPLS_2005

> <r_lp_Energy>
13.3768

> <b_lp_Chiralities_Consistent>
1

> <s_lp_Variant>
AV-unprocessed.smi:3107-1

> <Gold.Version>
5.8.1

> <Gold.Id.Protein>
6NUR|6NUR_protein|mol2

> <Gold.PLP.Fitness>
51.0904

> <Gold.PLP.PLP>
-40.2981

> <Gold.PLP.part.hbond>
-2.0000

> <Gold.PLP.part.metal>
0.0000

> <Gold.PLP.part.buried>
-5.8958

> <Gold.PLP.part.nonpolar>
-31.8755

> <Gold.PLP.part.repulsive>
0.5677

> <Gold.PLP.ligand.clash>
0.0000

> <Gold.PLP.ligand.torsion>
0.7956

> <Gold.PLP.Chemscore.Hbond>
3.0000

> <Gold.PLP.Chemscore.CHOScore>
1.1028

> <Gold.PLP.Chemscore.Metal>
0.0000

> <Gold.Chemscore.Hbonds>
donor molecule, donor type, donor heavy atom, donor atom, acceptor molecule, acceptor atom, score
      L1  H     7    22       P1  8028  2.00
      P1  H  7989  7998       L1     3  1.00
      L1  C     2    17       P1  7948  0.02
      L1  C     2    17       P1  7949  1.00

> <Gold.PLP.Chemscore.Internal.Correction>
0.0752

> <Gold.Rescore>
     Score         DG    S(hbond)    S(metal)    S(lipo)     H(rot)  DE(clash)    DE(int)     intcor
     21.07     -21.50       1.99        0.00     114.98       1.59       0.02       0.41       ----

> <Gold.Chemscore.Fitness>
21.0714

> <Gold.Chemscore.DG>
-21.5014

> <Gold.Chemscore.ZeroCoef>
-5.4800

> <Gold.Chemscore.Hbond>
1.9855

> <Gold.Chemscore.Metal>
0.0000

> <Gold.Chemscore.Lipo>
114.9840

> <Gold.Chemscore.Internal_Hbond>
0.0000

> <Gold.Chemscore.DEClash>
0.0208

> <Gold.Chemscore.DEInternal>
0.4092

> <Gold.Chemscore.Rot>
1.5872

> <Gold.Chemscore.Internal.Correction>
   9.000000E+99

> <Gold.Chemscore.Hbonds>
donor molecule, donor type, donor heavy atom, donor atom, acceptor molecule, acceptor atom, score
      L1  H     7    22       P1  8028  0.95
      P1  H  7989  7998       L1     3  0.63

> <Gold.Chemscore.Hbond.Weighted>
-6.6316

> <Gold.Chemscore.Metal.Weighted>
-0.0000

> <Gold.Chemscore.Lipo.Weighted>
-13.4531

> <Gold.Chemscore.Internal_Hbond.Weighted>
0.0000

> <Gold.Chemscore.DEClash.Weighted>
0.0208

> <Gold.Chemscore.DEInternal.Weighted>
0.4092

> <Gold.Chemscore.Rot.Weighted>
4.0633

> <Gold.Chemscore.Internal.Correction.Weighted>
   9.000000E+99

> <Gold.Protein.RotatedTorsions>
[ 6907 6896 6895 6894 ] final -141.04 input  -60.11 | X-H torsion
[ 7974 7965 7964 7962 ] final   96.67 input  175.53 | X-H torsion
[ 8008 7997 7996 7995 ] final -113.34 input   59.86 | X-H torsion
[ 10167 10162 10161 10158 ] final -129.80 input  -65.29 | X-H torsion
[ 10718 10713 10712 10709 ] final -114.63 input   66.30 | X-H torsion
[ 10763 10752 10751 10750 ] final  138.17 input  -60.55 | X-H torsion
[ 11005 11000 10999 10996 ] final  129.04 input  -57.11 | X-H torsion

> <Gold.Protein.ActiveResidues>
 VAL166  LYS551  ARG553  GLY616  TRP617  ASP618  TYR619  PRO620  LYS621  CYS622 
 ASP623  PHE694  ASN695  SER759  ASP760  ASP761  ALA762  ILE779  LEU786  VAL792 
 PHE793  MET794  SER795  GLU796  ALA797  LYS798  CYS799  TRP800  GLU811  SER814 

> <Gold.Protein.RotatedAtoms>
  151.0686  133.5485  159.2628 H   0  0  0  0  0  0  0  0  0  0  0  0  # atno 6907 bound_to 6896
  151.2433  135.0596  159.9043 H   0  0  0  0  0  0  0  0  0  0  0  0  # atno 6908 bound_to 6896
  152.5408  134.0458  159.8141 H   0  0  0  0  0  0  0  0  0  0  0  0  # atno 6909 bound_to 6896
  145.4357  139.2306  143.3120 H   0  0  0  0  0  0  0  0  0  0  0  0  # atno 7974 bound_to 7965
  155.0193  140.0393  157.2431 H   0  0  0  0  0  0  0  0  0  0  0  0  # atno 8008 bound_to 7997
  154.7392  140.2745  155.6364 H   0  0  0  0  0  0  0  0  0  0  0  0  # atno 8009 bound_to 7997
  156.2860  140.2669  156.2115 H   0  0  0  0  0  0  0  0  0  0  0  0  # atno 8010 bound_to 7997
  139.9360  143.6218  152.2517 H   0  0  0  0  0  0  0  0  0  0  0  0  # atno 10167 bound_to 10162
  156.0842  130.6037  150.8800 H   0  0  0  0  0  0  0  0  0  0  0  0  # atno 10718 bound_to 10713
  153.8852  135.3039  155.3446 H   0  0  0  0  0  0  0  0  0  0  0  0  # atno 10763 bound_to 10752
  154.7742  135.4870  153.9714 H   0  0  0  0  0  0  0  0  0  0  0  0  # atno 10764 bound_to 10752
  153.1329  135.6807  153.9248 H   0  0  0  0  0  0  0  0  0  0  0  0  # atno 10765 bound_to 10752
  139.9593  134.9606  156.9090 H   0  0  0  0  0  0  0  0  0  0  0  0  # atno 11005 bound_to 11000
  146.2583  140.5099  142.8864 LP  0  0  0  0  0  0  0  0  0  0  0  0  # atno 17320 bound_to 7965
  144.8154  140.6458  143.6388 LP  0  0  0  0  0  0  0  0  0  0  0  0  # atno 17321 bound_to 7965
  139.6743  144.7659  151.1724 LP  0  0  0  0  0  0  0  0  0  0  0  0  # atno 17342 bound_to 10162
  140.7624  143.5818  150.8887 LP  0  0  0  0  0  0  0  0  0  0  0  0  # atno 17343 bound_to 10162
  157.5971  131.0942  150.9023 LP  0  0  0  0  0  0  0  0  0  0  0  0  # atno 17370 bound_to 10713
  156.9187  130.5307  149.5279 LP  0  0  0  0  0  0  0  0  0  0  0  0  # atno 17371 bound_to 10713
  140.5536  134.0603  155.7377 LP  0  0  0  0  0  0  0  0  0  0  0  0  # atno 17394 bound_to 11000
  141.1269  133.9368  157.2617 LP  0  0  0  0  0  0  0  0  0  0  0  0  # atno 17395 bound_to 11000

$$$$
