AV-unprocessed.smi:3348|AV-procd|sdf|12927|dock2
  -GOLD-   2272019353D 1   1.00000     0.00000
 Structure written by MMmdl.
 46 47  0  0  0  0  0  0  0  0  1 V2000
  145.4513  134.9613  152.9918 C   0  0  0  0  0  0  0  0  0  0  0  0
  145.0676  135.9781  151.9030 C   0  0  2  0  0  0  0  0  0  0  0  0
  144.9137  135.3248  150.5074 C   0  0  0  0  0  0  0  0  0  0  0  0
  145.0163  133.8767  150.5409 N   0  0  0  0  0  0  0  0  0  0  0  0
  144.0286  132.9402  150.3174 C   0  0  0  0  0  0  0  0  0  0  0  0
  144.5961  131.7074  150.4695 C   0  0  0  0  0  0  0  0  0  0  0  0
  145.9508  131.9969  150.7955 C   0  0  0  0  0  0  0  0  0  0  0  0
  146.1983  133.2958  150.8417 N   0  0  0  0  0  0  0  0  0  0  0  0
  146.0534  137.0633  151.8927 N   0  0  0  0  0  0  0  0  0  0  0  0
  146.0047  137.9705  153.0393 C   0  0  0  0  0  0  0  0  0  0  0  0
  147.2876  138.8026  153.1354 C   0  0  0  0  0  0  0  0  0  0  0  0
  147.0366  139.9323  153.9578 O   0  0  0  0  0  0  0  0  0  0  0  0
  147.9600  141.0036  153.7950 C   0  0  2  0  0  0  0  0  0  0  0  0
  149.3429  140.6104  154.3574 C   0  0  0  0  0  0  0  0  0  0  0  0
  149.2963  140.3860  155.8779 C   0  0  0  0  0  0  0  0  0  0  0  0
  148.7355  141.6173  156.6055 C   0  0  0  0  0  0  0  0  0  0  0  0
  147.3571  142.0142  156.0530 C   0  0  0  0  0  0  0  0  0  0  0  0
  147.4041  142.2444  154.5289 C   0  0  2  0  0  0  0  0  0  0  0  0
  146.0388  142.6786  153.9731 C   0  0  0  0  0  0  0  0  0  0  0  0
  144.6864  134.1945  153.1147 H   0  0  0  0  0  0  0  0  0  0  0  0
  145.5722  135.4494  153.9595 H   0  0  0  0  0  0  0  0  0  0  0  0
  146.3902  134.4605  152.7522 H   0  0  0  0  0  0  0  0  0  0  0  0
  144.1003  136.3951  152.1864 H   0  0  0  0  0  0  0  0  0  0  0  0
  143.9498  135.5719  150.0620 H   0  0  0  0  0  0  0  0  0  0  0  0
  145.6783  135.7061  149.8291 H   0  0  0  0  0  0  0  0  0  0  0  0
  143.0168  133.2257  150.0696 H   0  0  0  0  0  0  0  0  0  0  0  0
  144.1166  130.7455  150.3653 H   0  0  0  0  0  0  0  0  0  0  0  0
  146.7558  131.3066  151.0001 H   0  0  0  0  0  0  0  0  0  0  0  0
  146.9866  136.6733  151.8093 H   0  0  0  0  0  0  0  0  0  0  0  0
  145.1434  138.6357  152.9839 H   0  0  0  0  0  0  0  0  0  0  0  0
  145.8964  137.3886  153.9551 H   0  0  0  0  0  0  0  0  0  0  0  0
  148.0767  138.1915  153.5732 H   0  0  0  0  0  0  0  0  0  0  0  0
  147.6245  139.1084  152.1435 H   0  0  0  0  0  0  0  0  0  0  0  0
  148.0566  141.2495  152.7357 H   0  0  0  0  0  0  0  0  0  0  0  0
  149.7262  139.7189  153.8619 H   0  0  0  0  0  0  0  0  0  0  0  0
  150.0571  141.4046  154.1363 H   0  0  0  0  0  0  0  0  0  0  0  0
  148.6779  139.5154  156.1009 H   0  0  0  0  0  0  0  0  0  0  0  0
  150.2957  140.1581  156.2501 H   0  0  0  0  0  0  0  0  0  0  0  0
  148.6635  141.4166  157.6750 H   0  0  0  0  0  0  0  0  0  0  0  0
  149.4275  142.4531  156.4943 H   0  0  0  0  0  0  0  0  0  0  0  0
  146.6312  141.2346  156.2881 H   0  0  0  0  0  0  0  0  0  0  0  0
  147.0106  142.9175  156.5559 H   0  0  0  0  0  0  0  0  0  0  0  0
  148.0959  143.0680  154.3456 H   0  0  0  0  0  0  0  0  0  0  0  0
  145.2794  141.9131  154.1357 H   0  0  0  0  0  0  0  0  0  0  0  0
  146.0945  142.8693  152.9009 H   0  0  0  0  0  0  0  0  0  0  0  0
  145.6939  143.5947  154.4529 H   0  0  0  0  0  0  0  0  0  0  0  0
  1  2  1  0  0  0  0
  1 20  1  0  0  0  0
  1 21  1  0  0  0  0
  1 22  1  0  0  0  0
  2  3  1  0  0  0  0
  2  9  1  0  0  0  0
  2 23  1  0  0  0  0
  3  4  1  0  0  0  0
  3 24  1  0  0  0  0
  3 25  1  0  0  0  0
  4  8  1  0  0  0  0
  4  5  1  0  0  0  0
  5  6  2  0  0  0  0
  5 26  1  0  0  0  0
  6  7  1  0  0  0  0
  6 27  1  0  0  0  0
  7  8  2  0  0  0  0
  7 28  1  0  0  0  0
  9 10  1  0  0  0  0
  9 29  1  0  0  0  0
 10 11  1  0  0  0  0
 10 30  1  0  0  0  0
 10 31  1  0  0  0  0
 11 12  1  0  0  0  0
 11 32  1  0  0  0  0
 11 33  1  0  0  0  0
 12 13  1  0  0  0  0
 13 18  1  0  0  0  0
 13 14  1  0  0  0  0
 13 34  1  0  0  0  0
 14 15  1  0  0  0  0
 14 35  1  0  0  0  0
 14 36  1  0  0  0  0
 15 16  1  0  0  0  0
 15 37  1  0  0  0  0
 15 38  1  0  0  0  0
 16 17  1  0  0  0  0
 16 39  1  0  0  0  0
 16 40  1  0  0  0  0
 17 18  1  0  0  0  0
 17 41  1  0  0  0  0
 17 42  1  0  0  0  0
 18 19  1  0  0  0  0
 18 43  1  0  0  0  0
 19 44  1  0  0  0  0
 19 45  1  0  0  0  0
 19 46  1  0  0  0  0
M  END
> <s_m_source_file>
AV-unprocessed.smi

> <i_m_source_file_index>
3348

> <i_lp_mmshare_version>
43012

> <i_f3d_flags>
0

> <s_epik_input>
bjFbY0hdW2NIXVtjSF1uMVtDSDJdW0NAQEhdKFtDSDNdKVtOSF1bQ0gyXVtDSDJdT1tDQEBIXTJbQ0gyXVtDSDJdW0NIMl1bQ0gyXVtDQEhdMltDSDNd

> <s_epik_cmdline>
J2VwaWtfcHl0aG9uJywgJy1waCcsICc3LjAnLCAnLXRuJywgJzgnLCAnLW1hJywgJzIwMCcsICctbWV0YWxfYmluZGluZycsICctaW1hZScsICc8aW5maWxlLm1hZT4nLCAnLW9tYWUnLCAnPG91dGZpbGUubWFlPic=

> <r_lp_tautomer_probability>
1

> <r_epik_Ionization_Penalty>
2.46945

> <r_epik_Ionization_Penalty_Charging>
0

> <r_epik_Ionization_Penalty_Neutral>
2.46945

> <r_epik_State_Penalty>
2.6322

> <r_epik_Charging_Adjusted_Penalty>
2.6322

> <i_epik_Tot_Q>
0

> <i_epik_Tot_abs_Q>
0

> <r_epik_Metal_State_Penalty>
2.63217

> <b_epik_Metal_Only>
0

> <s_lp_Force_Field>
OPLS_2005

> <r_lp_Energy>
16.5117

> <b_lp_Chiralities_Consistent>
1

> <s_lp_Variant>
AV-unprocessed.smi:3348-13

> <Gold.Version>
5.8.1

> <Gold.Id.Protein>
6NUR|6NUR_protein|mol2

> <Gold.PLP.Fitness>
42.0869

> <Gold.PLP.PLP>
-35.2061

> <Gold.PLP.part.hbond>
-1.0000

> <Gold.PLP.part.metal>
0.0000

> <Gold.PLP.part.buried>
-1.6076

> <Gold.PLP.part.nonpolar>
-32.8703

> <Gold.PLP.part.repulsive>
0.3325

> <Gold.PLP.ligand.clash>
0.0000

> <Gold.PLP.ligand.torsion>
1.1652

> <Gold.PLP.Chemscore.Hbond>
1.0000

> <Gold.PLP.Chemscore.CHOScore>
2.0000

> <Gold.PLP.Chemscore.Metal>
0.0000

> <Gold.Chemscore.Hbonds>
donor molecule, donor type, donor heavy atom, donor atom, acceptor molecule, acceptor atom, score
      L1  H     9    29       P1  7948  1.00
      L1  C     5    26       P1 10186  1.00
      L1  C     7    28       P1 10747  1.00

> <Gold.PLP.Chemscore.Internal.Correction>
0.2112

> <Gold.Rescore>
     Score         DG    S(hbond)    S(metal)    S(lipo)     H(rot)  DE(clash)    DE(int)     intcor
     12.90     -15.61       1.00        0.00      95.80       1.72       0.09       2.62       ----

> <Gold.Chemscore.Fitness>
12.8999

> <Gold.Chemscore.DG>
-15.6071

> <Gold.Chemscore.ZeroCoef>
-5.4800

> <Gold.Chemscore.Hbond>
0.9974

> <Gold.Chemscore.Metal>
0.0000

> <Gold.Chemscore.Lipo>
95.7988

> <Gold.Chemscore.Internal_Hbond>
0.0000

> <Gold.Chemscore.DEClash>
0.0908

> <Gold.Chemscore.DEInternal>
2.6164

> <Gold.Chemscore.Rot>
1.7237

> <Gold.Chemscore.Internal.Correction>
   9.000000E+99

> <Gold.Chemscore.Hbonds>
donor molecule, donor type, donor heavy atom, donor atom, acceptor molecule, acceptor atom, score
      L1  H     9    29       P1  7948  0.97

> <Gold.Chemscore.Hbond.Weighted>
-3.3313

> <Gold.Chemscore.Metal.Weighted>
-0.0000

> <Gold.Chemscore.Lipo.Weighted>
-11.2085

> <Gold.Chemscore.Internal_Hbond.Weighted>
0.0000

> <Gold.Chemscore.DEClash.Weighted>
0.0908

> <Gold.Chemscore.DEInternal.Weighted>
2.6164

> <Gold.Chemscore.Rot.Weighted>
4.4126

> <Gold.Chemscore.Internal.Correction.Weighted>
   9.000000E+99

> <Gold.Protein.RotatedTorsions>
[ 6907 6896 6895 6894 ] final  -68.36 input  -60.11 | X-H torsion
[ 7974 7965 7964 7962 ] final -167.46 input  175.53 | X-H torsion
[ 8008 7997 7996 7995 ] final   49.79 input   59.86 | X-H torsion
[ 10167 10162 10161 10158 ] final -115.04 input  -65.29 | X-H torsion
[ 10718 10713 10712 10709 ] final  159.77 input   66.30 | X-H torsion
[ 10763 10752 10751 10750 ] final   48.73 input  -60.55 | X-H torsion
[ 11005 11000 10999 10996 ] final   59.75 input  -57.11 | X-H torsion

> <Gold.Protein.ActiveResidues>
 VAL166  LYS551  ARG553  GLY616  TRP617  ASP618  TYR619  PRO620  LYS621  CYS622 
 ASP623  PHE694  ASN695  SER759  ASP760  ASP761  ALA762  ILE779  LEU786  VAL792 
 PHE793  MET794  SER795  GLU796  ALA797  LYS798  CYS799  TRP800  GLU811  SER814 

> <Gold.Protein.RotatedAtoms>
  150.7360  134.5749  159.5909 H   0  0  0  0  0  0  0  0  0  0  0  0  # atno 6907 bound_to 6896
  152.3178  134.7414  160.0330 H   0  0  0  0  0  0  0  0  0  0  0  0  # atno 6908 bound_to 6896
  151.7940  133.3327  159.3544 H   0  0  0  0  0  0  0  0  0  0  0  0  # atno 6909 bound_to 6896
  144.7223  140.2515  143.6278 H   0  0  0  0  0  0  0  0  0  0  0  0  # atno 7974 bound_to 7965
  155.4080  140.3441  155.4261 H   0  0  0  0  0  0  0  0  0  0  0  0  # atno 8008 bound_to 7997
  156.1465  140.1558  156.8870 H   0  0  0  0  0  0  0  0  0  0  0  0  # atno 8009 bound_to 7997
  154.5015  140.0813  156.7788 H   0  0  0  0  0  0  0  0  0  0  0  0  # atno 8010 bound_to 7997
  140.0944  143.4670  152.1850 H   0  0  0  0  0  0  0  0  0  0  0  0  # atno 10167 bound_to 10162
  157.1596  131.0584  151.2239 H   0  0  0  0  0  0  0  0  0  0  0  0  # atno 10718 bound_to 10713
  152.9790  135.5934  154.3974 H   0  0  0  0  0  0  0  0  0  0  0  0  # atno 10763 bound_to 10752
  154.3623  135.2767  155.2315 H   0  0  0  0  0  0  0  0  0  0  0  0  # atno 10764 bound_to 10752
  154.4306  135.6037  153.6121 H   0  0  0  0  0  0  0  0  0  0  0  0  # atno 10765 bound_to 10752
  140.0281  134.6052  155.9544 H   0  0  0  0  0  0  0  0  0  0  0  0  # atno 11005 bound_to 11000
  145.8223  139.2049  143.1931 LP  0  0  0  0  0  0  0  0  0  0  0  0  # atno 17320 bound_to 7965
  146.0503  140.8076  142.9785 LP  0  0  0  0  0  0  0  0  0  0  0  0  # atno 17321 bound_to 7965
  139.5706  144.7460  151.3901 LP  0  0  0  0  0  0  0  0  0  0  0  0  # atno 17342 bound_to 10162
  140.7011  143.7629  150.7405 LP  0  0  0  0  0  0  0  0  0  0  0  0  # atno 17343 bound_to 10162
  157.4145  130.7403  149.6865 LP  0  0  0  0  0  0  0  0  0  0  0  0  # atno 17370 bound_to 10713
  155.9756  130.4086  150.3837 LP  0  0  0  0  0  0  0  0  0  0  0  0  # atno 17371 bound_to 10713
  141.1815  133.6547  156.5039 LP  0  0  0  0  0  0  0  0  0  0  0  0  # atno 17394 bound_to 11000
  140.4272  134.7135  157.4922 LP  0  0  0  0  0  0  0  0  0  0  0  0  # atno 17395 bound_to 11000

$$$$
