#       Name:                AV-unprocessed.smi:143
#       Creating user name   scv26
#       Creation time:       Thu Mar 26 18:35:11 2020


#       File generated by GOLD software.
#

@<TRIPOS>MOLECULE
AV-unprocessed.smi:143
    46    48     1
SMALL
NO_CHARGES


@<TRIPOS>ATOM
      1 ****        -2.1463  -0.1038  -0.8814 O.2            1 S1                 0.0000
      2 ****        -1.4730  -1.1242  -1.0397 C.2            1 S1                 0.0000
      3 ****         0.0604  -1.0228  -1.1863 C.3            1 S1                 0.0000
      4 ****         0.5462   0.3528  -1.1965 N.am           1 S1                 0.0000
      5 ****         0.6083   1.0220  -2.4448 C.2            1 S1                 0.0000
      6 ****         0.2731   0.4765  -3.4978 O.2            1 S1                 0.0000
      7 ****         1.0808   2.4000  -2.3706 C.2            1 S1                 0.0000
      8 ****         1.1685   3.1341  -3.4927 F              1 S1                 0.0000
      9 ****         1.4283   2.9552  -1.1895 C.2            1 S1                 0.0000
     10 ****         1.3740   2.2742   0.0130 N.am           1 S1                 0.0000
     11 ****         1.7341   3.0009   1.2884 C.3            1 S1                 0.0000
     12 ****         2.8585   2.3196   2.0916 C.3            1 S1                 0.0000
     13 ****         2.2027   2.0548   3.4370 C.3            1 S1                 0.0000
     14 ****         1.0461   3.0481   3.4521 C.3            1 S1                 0.0000
     15 ****         0.6044   3.0558   2.1037 O.3            1 S1                 0.0000
     16 ****         0.8922   0.9448   0.0428 C.2            1 S1                 0.0000
     17 ****         0.7688   0.3352   1.1067 O.2            1 S1                 0.0000
     18 ****        -2.0802  -2.4857  -1.1081 C.ar           1 S1                 0.0000
     19 ****        -3.4889  -2.6169  -1.0908 C.ar           1 S1                 0.0000
     20 ****        -4.0930  -3.8877  -1.1517 C.ar           1 S1                 0.0000
     21 ****        -3.2956  -5.0444  -1.2257 C.ar           1 S1                 0.0000
     22 ****        -4.1110  -6.7621  -1.3062 Br             1 S1                 0.0000
     23 ****        -1.8935  -4.9280  -1.2392 C.ar           1 S1                 0.0000
     24 ****        -1.2880  -3.6575  -1.1803 C.ar           1 S1                 0.0000
     25 ****         0.5683  -1.5522  -0.3789 H              1 S1                 0.0000
     26 ****         0.3993  -1.5014  -2.1065 H              1 S1                 0.0000
     27 ****         1.7655   3.9815  -1.1941 H              1 S1                 0.0000
     28 ****         2.0101   4.0135   0.9906 H              1 S1                 0.0000
     29 ****         3.2289   1.4135   1.6113 H              1 S1                 0.0000
     30 ****         3.6875   3.0210   2.1907 H              1 S1                 0.0000
     31 ****         1.8179   1.0353   3.4736 H              1 S1                 0.0000
     32 ****         2.8854   2.1879   4.2765 H              1 S1                 0.0000
     33 ****         0.2484   2.7573   4.1358 H              1 S1                 0.0000
     34 ****         1.3928   4.0452   3.7284 H              1 S1                 0.0000
     35 ****        -4.1230  -1.7437  -1.0344 H              1 S1                 0.0000
     36 ****        -5.1696  -3.9734  -1.1411 H              1 S1                 0.0000
     37 ****        -1.2792  -5.8146  -1.2943 H              1 S1                 0.0000
     38 ****        -0.2096  -3.6097  -1.1899 H              1 S1                 0.0000
     39 ****        -1.6992   0.7900  -0.8480 LP             1 S1                 0.0000
     40 ****        -3.1396  -0.1699  -0.7865 LP             1 S1                 0.0000
     41 ****        -0.0555  -0.4680  -3.4892 LP             1 S1                 0.0000
     42 ****         0.3297   0.9783  -4.3610 LP             1 S1                 0.0000
     43 ****         0.0211   2.2620   1.9316 LP             1 S1                 0.0000
     44 ****         0.0906   3.8934   1.9181 LP             1 S1                 0.0000
     45 ****         0.4169  -0.6009   1.1087 LP             1 S1                 0.0000
     46 ****         1.0205   0.7766   1.9679 LP             1 S1                 0.0000
@<TRIPOS>BOND
    1    1    2 2     
    2    2    3 1     
    3    2   18 1     
    4    3    4 1     
    5    3   25 1     
    6    3   26 1     
    7    4   16 am    
    8    4    5 am    
    9    5    6 2     
   10    5    7 1     
   11    7    8 1     
   12    7    9 2     
   13    9   10 1     
   14    9   27 1     
   15   10   11 1     
   16   10   16 am    
   17   11   15 1     
   18   11   12 1     
   19   11   28 1     
   20   12   13 1     
   21   12   29 1     
   22   12   30 1     
   23   13   14 1     
   24   13   31 1     
   25   13   32 1     
   26   14   15 1     
   27   14   33 1     
   28   14   34 1     
   29   16   17 2     
   30   18   24 ar    
   31   18   19 ar    
   32   19   20 ar    
   33   19   35 1     
   34   20   21 ar    
   35   20   36 1     
   36   21   22 1     
   37   21   23 ar    
   38   23   24 ar    
   39   23   37 1     
   40   24   38 1     
   41    1   39 1     
   42    1   40 1     
   43    6   41 1     
   44    6   42 1     
   45   15   43 1     
   46   15   44 1     
   47   17   45 1     
   48   17   46 1     
@<TRIPOS>SUBSTRUCTURE
      1 S1             1
@<TRIPOS>SET
LONE_PAIRS      STATIC     ATOMS    <user>   **** ""
8 39 40 41 42 43 44 45 46
ATOM$BLUE        STATIC     ATOMS    COLORGROUP SYSTEM
8 39 40 41 42 43 44 45 46
