AV-unprocessed.smi:2762|AV-procd|sdf|10637|dock3
  -GOLD-   2272015 83D 1   1.00000     0.00000
 Structure written by MMmdl.
 40 41  0  0  0  0  0  0  0  0  2 V2000
  146.6748  137.0837  153.5400 O   0  0  0  0  0  0  0  0  0  0  0  0
  145.9760  137.9799  153.0658 C   0  0  0  0  0  0  0  0  0  0  0  0
  144.8997  137.7456  152.3008 N   0  0  0  0  0  0  0  0  0  0  0  0
  144.4148  136.4215  151.9280 C   0  0  0  0  0  0  0  0  0  0  0  0
  145.5701  135.5011  151.4887 C   0  0  0  0  0  0  0  0  0  0  0  0
  145.0936  134.2826  150.7879 N   0  3  0  0  0  0  0  0  0  0  0  0
  146.1608  133.2804  150.5430 C   0  0  0  0  0  0  0  0  0  0  0  0
  145.5952  132.0624  149.7931 C   0  0  0  0  0  0  0  0  0  0  0  0
  144.5190  131.5010  150.5338 O   0  0  0  0  0  0  0  0  0  0  0  0
  143.4492  132.4231  150.6971 C   0  0  0  0  0  0  0  0  0  0  0  0
  143.9427  133.6522  151.4785 C   0  0  0  0  0  0  0  0  0  0  0  0
  146.1807  139.2985  153.2312 N   0  0  0  0  0  0  0  0  0  0  0  0
  147.2191  139.9412  153.9567 C   0  0  0  0  0  0  0  0  0  0  0  0
  148.3823  139.1637  154.1497 C   0  0  0  0  0  0  0  0  0  0  0  0
  149.4754  139.7030  154.8606 C   0  0  0  0  0  0  0  0  0  0  0  0
  150.7328  138.8740  155.0707 C   0  0  0  0  0  0  0  0  0  0  0  0
  151.7219  139.6007  155.5917 F   0  0  0  0  0  0  0  0  0  0  0  0
  150.4730  137.8613  155.8976 F   0  0  0  0  0  0  0  0  0  0  0  0
  151.1361  138.3805  153.9005 F   0  0  0  0  0  0  0  0  0  0  0  0
  149.3678  141.0198  155.3537 C   0  0  0  0  0  0  0  0  0  0  0  0
  148.1744  141.7253  155.1166 C   0  0  0  0  0  0  0  0  0  0  0  0
  147.1293  141.2046  154.4403 N   0  0  0  0  0  0  0  0  0  0  0  0
  144.3796  138.5380  151.9527 H   0  0  0  0  0  0  0  0  0  0  0  0
  143.8661  135.9775  152.7603 H   0  0  0  0  0  0  0  0  0  0  0  0
  143.6972  136.5573  151.1198 H   0  0  0  0  0  0  0  0  0  0  0  0
  146.2759  136.0407  150.8554 H   0  0  0  0  0  0  0  0  0  0  0  0
  146.1253  135.1960  152.3769 H   0  0  0  0  0  0  0  0  0  0  0  0
  146.9689  133.7162  149.9565 H   0  0  0  0  0  0  0  0  0  0  0  0
  146.5909  132.9631  151.4942 H   0  0  0  0  0  0  0  0  0  0  0  0
  145.2587  132.3411  148.7930 H   0  0  0  0  0  0  0  0  0  0  0  0
  146.3698  131.3055  149.6686 H   0  0  0  0  0  0  0  0  0  0  0  0
  143.0494  132.7132  149.7240 H   0  0  0  0  0  0  0  0  0  0  0  0
  142.6409  131.9332  151.2402 H   0  0  0  0  0  0  0  0  0  0  0  0
  144.2369  133.3598  152.4878 H   0  0  0  0  0  0  0  0  0  0  0  0
  143.1291  134.3718  151.5775 H   0  0  0  0  0  0  0  0  0  0  0  0
  145.5221  139.9161  152.7805 H   0  0  0  0  0  0  0  0  0  0  0  0
  148.4408  138.1587  153.7574 H   0  0  0  0  0  0  0  0  0  0  0  0
  150.1745  141.4855  155.9001 H   0  0  0  0  0  0  0  0  0  0  0  0
  148.0551  142.7357  155.4791 H   0  0  0  0  0  0  0  0  0  0  0  0
  144.7522  134.5819  149.8854 H   0  0  0  0  0  0  0  0  0  0  0  0
  1  2  2  0  0  0  0
  2  3  1  0  0  0  0
  2 12  1  0  0  0  0
  3  4  1  0  0  0  0
  3 23  1  0  0  0  0
  4  5  1  0  0  0  0
  4 24  1  0  0  0  0
  4 25  1  0  0  0  0
  5  6  1  0  0  0  0
  5 26  1  0  0  0  0
  5 27  1  0  0  0  0
  6 11  1  0  0  0  0
  6  7  1  0  0  0  0
  6 40  1  0  0  0  0
  7  8  1  0  0  0  0
  7 28  1  0  0  0  0
  7 29  1  0  0  0  0
  8  9  1  0  0  0  0
  8 30  1  0  0  0  0
  8 31  1  0  0  0  0
  9 10  1  0  0  0  0
 10 11  1  0  0  0  0
 10 32  1  0  0  0  0
 10 33  1  0  0  0  0
 11 34  1  0  0  0  0
 11 35  1  0  0  0  0
 12 13  1  0  0  0  0
 12 36  1  0  0  0  0
 13 22  1  0  0  0  0
 13 14  2  0  0  0  0
 14 15  1  0  0  0  0
 14 37  1  0  0  0  0
 15 16  1  0  0  0  0
 15 20  2  0  0  0  0
 16 17  1  0  0  0  0
 16 18  1  0  0  0  0
 16 19  1  0  0  0  0
 20 21  1  0  0  0  0
 20 38  1  0  0  0  0
 21 22  2  0  0  0  0
 21 39  1  0  0  0  0
M  CHG  1   6   1
M  END
> <s_m_source_file>
AV-unprocessed.smi

> <i_m_source_file_index>
2762

> <i_lp_mmshare_version>
43012

> <i_f3d_flags>
0

> <s_epik_input>
bjFbY0hdW2NIXWMoQyhGKShGKUYpW2NIXWMxW05IXUMoPU8pW05IXVtDSDJdW0NIMl1OMltDSDJdW0NIMl1PW0NIMl1bQ0gyXTI=

> <s_epik_cmdline>
J2VwaWtfcHl0aG9uJywgJy1waCcsICc3LjAnLCAnLXRuJywgJzgnLCAnLW1hJywgJzIwMCcsICctbWV0YWxfYmluZGluZycsICctaW1hZScsICc8aW5maWxlLm1hZT4nLCAnLW9tYWUnLCAnPG91dGZpbGUubWFlPic=

> <r_epik_Ionization_Penalty>
0.602556

> <r_epik_Ionization_Penalty_Charging>
0.602531

> <r_epik_Ionization_Penalty_Neutral>
2.56546e-05

> <r_epik_State_Penalty>
0.617039

> <r_epik_Charging_Adjusted_Penalty>
1.21957

> <i_epik_Tot_Q>
1

> <i_epik_Tot_abs_Q>
1

> <r_epik_Metal_State_Penalty>
0.617039

> <b_epik_Metal_Only>
0

> <s_lp_Force_Field>
OPLS_2005

> <r_lp_Energy>
17.0947

> <b_lp_Chiralities_Consistent>
1

> <s_lp_Variant>
AV-unprocessed.smi:2762-2

> <Gold.Version>
5.8.1

> <Gold.Id.Protein>
6NUR|6NUR_protein|mol2

> <Gold.PLP.Fitness>
45.7569

> <Gold.PLP.PLP>
-38.4603

> <Gold.PLP.part.hbond>
-3.2216

> <Gold.PLP.part.metal>
0.0000

> <Gold.PLP.part.buried>
-5.2495

> <Gold.PLP.part.nonpolar>
-31.2801

> <Gold.PLP.part.repulsive>
1.7705

> <Gold.PLP.ligand.clash>
0.0000

> <Gold.PLP.ligand.torsion>
0.5477

> <Gold.PLP.Chemscore.Hbond>
1.7862

> <Gold.PLP.Chemscore.CHOScore>
1.0000

> <Gold.PLP.Chemscore.Metal>
0.0000

> <Gold.Chemscore.Hbonds>
donor molecule, donor type, donor heavy atom, donor atom, acceptor molecule, acceptor atom, score
      L1  H     3    23       P1 10175  0.76
      L1  H    12    36       P1 10175  1.00
      L1  C    21    39       P1  8028  1.00

> <Gold.PLP.Chemscore.Internal.Correction>
0.0333

> <Gold.Rescore>
     Score         DG    S(hbond)    S(metal)    S(lipo)     H(rot)  DE(clash)    DE(int)     intcor
     12.72     -15.99       1.94        0.00      71.10       1.68       0.08       3.20       ----

> <Gold.Chemscore.Fitness>
12.7162

> <Gold.Chemscore.DG>
-15.9913

> <Gold.Chemscore.ZeroCoef>
-5.4800

> <Gold.Chemscore.Hbond>
1.9412

> <Gold.Chemscore.Metal>
0.0000

> <Gold.Chemscore.Lipo>
71.0988

> <Gold.Chemscore.Internal_Hbond>
0.0000

> <Gold.Chemscore.DEClash>
0.0798

> <Gold.Chemscore.DEInternal>
3.1954

> <Gold.Chemscore.Rot>
1.6762

> <Gold.Chemscore.Internal.Correction>
   9.000000E+99

> <Gold.Chemscore.Hbonds>
donor molecule, donor type, donor heavy atom, donor atom, acceptor molecule, acceptor atom, score
      L1  H     3    23       P1 10175  0.74
      L1  H    12    36       P1 10175  0.93

> <Gold.Chemscore.Hbond.Weighted>
-6.4837

> <Gold.Chemscore.Metal.Weighted>
-0.0000

> <Gold.Chemscore.Lipo.Weighted>
-8.3186

> <Gold.Chemscore.Internal_Hbond.Weighted>
0.0000

> <Gold.Chemscore.DEClash.Weighted>
0.0798

> <Gold.Chemscore.DEInternal.Weighted>
3.1954

> <Gold.Chemscore.Rot.Weighted>
4.2910

> <Gold.Chemscore.Internal.Correction.Weighted>
   9.000000E+99

> <Gold.Protein.RotatedTorsions>
[ 6907 6896 6895 6894 ] final   41.14 input  -60.11 | X-H torsion
[ 7974 7965 7964 7962 ] final -127.74 input  175.53 | X-H torsion
[ 8008 7997 7996 7995 ] final  -74.68 input   59.86 | X-H torsion
[ 10167 10162 10161 10158 ] final  -77.92 input  -65.29 | X-H torsion
[ 10718 10713 10712 10709 ] final -144.67 input   66.30 | X-H torsion
[ 10763 10752 10751 10750 ] final  -16.98 input  -60.55 | X-H torsion
[ 11005 11000 10999 10996 ] final  -82.88 input  -57.11 | X-H torsion

> <Gold.Protein.ActiveResidues>
 VAL166  LYS551  ARG553  GLY616  TRP617  ASP618  TYR619  PRO620  LYS621  CYS622 
 ASP623  PHE694  ASN695  SER759  ASP760  ASP761  ALA762  ILE779  LEU786  VAL792 
 PHE793  MET794  SER795  GLU796  ALA797  LYS798  CYS799  TRP800  GLU811  SER814 

> <Gold.Protein.RotatedAtoms>
  152.1915  134.8668  160.0516 H   0  0  0  0  0  0  0  0  0  0  0  0  # atno 6907 bound_to 6896
  151.9555  133.3674  159.4024 H   0  0  0  0  0  0  0  0  0  0  0  0  # atno 6908 bound_to 6896
  150.6936  134.4219  159.5253 H   0  0  0  0  0  0  0  0  0  0  0  0  # atno 6909 bound_to 6896
  144.9741  140.7574  143.4653 H   0  0  0  0  0  0  0  0  0  0  0  0  # atno 7974 bound_to 7965
  154.5351  140.0757  156.8414 H   0  0  0  0  0  0  0  0  0  0  0  0  # atno 8008 bound_to 7997
  155.3294  140.3401  155.4221 H   0  0  0  0  0  0  0  0  0  0  0  0  # atno 8009 bound_to 7997
  156.1820  140.1656  156.8242 H   0  0  0  0  0  0  0  0  0  0  0  0  # atno 8010 bound_to 7997
  140.4728  143.2422  151.8179 H   0  0  0  0  0  0  0  0  0  0  0  0  # atno 10167 bound_to 10162
  156.3730  130.7798  151.1981 H   0  0  0  0  0  0  0  0  0  0  0  0  # atno 10718 bound_to 10713
  153.5668  135.7008  153.5522 H   0  0  0  0  0  0  0  0  0  0  0  0  # atno 10763 bound_to 10752
  153.3380  135.4029  155.1549 H   0  0  0  0  0  0  0  0  0  0  0  0  # atno 10764 bound_to 10752
  154.8639  135.3735  154.5189 H   0  0  0  0  0  0  0  0  0  0  0  0  # atno 10765 bound_to 10752
  141.1661  133.7266  156.8638 H   0  0  0  0  0  0  0  0  0  0  0  0  # atno 11005 bound_to 11000
  145.2516  139.2029  143.4939 LP  0  0  0  0  0  0  0  0  0  0  0  0  # atno 17320 bound_to 7965
  146.3390  140.2431  142.8596 LP  0  0  0  0  0  0  0  0  0  0  0  0  # atno 17321 bound_to 7965
  139.4821  144.4870  151.9233 LP  0  0  0  0  0  0  0  0  0  0  0  0  # atno 17342 bound_to 10162
  140.3956  144.2560  150.5896 LP  0  0  0  0  0  0  0  0  0  0  0  0  # atno 17343 bound_to 10162
  157.7485  131.0366  150.4420 LP  0  0  0  0  0  0  0  0  0  0  0  0  # atno 17370 bound_to 10713
  156.4650  130.4040  149.6553 LP  0  0  0  0  0  0  0  0  0  0  0  0  # atno 17371 bound_to 10713
  140.1830  134.9020  157.2970 LP  0  0  0  0  0  0  0  0  0  0  0  0  # atno 17394 bound_to 11000
  140.2374  134.3836  155.7495 LP  0  0  0  0  0  0  0  0  0  0  0  0  # atno 17395 bound_to 11000

$$$$
