#       Name:                AV-unprocessed.smi:2359
#       Creating user name   scv26
#       Creation time:       Fri Mar 27 13:04:33 2020


#       File generated by GOLD software.
#

@<TRIPOS>MOLECULE
AV-unprocessed.smi:2359
    45    46     1
SMALL
NO_CHARGES


@<TRIPOS>ATOM
      1 ****        -6.9589   3.9235   1.1418 C.3            1 S1                 0.0000
      2 ****        -5.7449   3.0522   0.8972 C.ar           1 S1                 0.0000
      3 ****        -5.8883   1.7344   0.4250 C.ar           1 S1                 0.0000
      4 ****        -4.7318   0.9604   0.2104 C.ar           1 S1                 0.0000
      5 ****        -3.4611   1.5208   0.4713 C.ar           1 S1                 0.0000
      6 ****        -2.3610   0.6566   0.2254 N.am           1 S1                 0.0000
      7 ****        -1.0496   0.9181   0.3681 C.2            1 S1                 0.0000
      8 ****        -0.5714   1.9918   0.7360 O.2            1 S1                 0.0000
      9 ****        -0.3052  -0.1507   0.0538 N.am           1 S1                 0.0000
     10 ****         1.1501  -0.1826   0.1047 C.3            1 S1                 0.0000
     11 ****         1.6724  -1.5866  -0.2330 C.3            1 S1                 0.0000
     12 ****         3.2056  -1.6815  -0.1832 C.3            1 S1                 0.0000
     13 ****         3.7017  -3.1265  -0.3865 C.3            1 S1                 0.0000
     14 ****         5.2338  -3.1725  -0.4043 C.3            1 S1                 0.0000
     15 ****         5.7689  -2.1744  -1.4364 C.3            1 S1                 0.0000
     16 ****         5.1671  -0.7810  -1.1944 C.3            1 S1                 0.0000
     17 ****         3.7450  -0.8567  -1.2145 O.3            1 S1                 0.0000
     18 ****        -3.3331   2.7925   0.9252 N.ar           1 S1                 0.0000
     19 ****        -4.4419   3.5338   1.1305 C.ar           1 S1                 0.0000
     20 ****        -7.6953   3.3898   1.7431 H              1 S1                 0.0000
     21 ****        -7.4219   4.1987   0.1942 H              1 S1                 0.0000
     22 ****        -6.6883   4.8384   1.6696 H              1 S1                 0.0000
     23 ****        -6.8670   1.3211   0.2298 H              1 S1                 0.0000
     24 ****        -4.8245  -0.0532  -0.1517 H              1 S1                 0.0000
     25 ****        -2.6007  -0.2703  -0.0934 H              1 S1                 0.0000
     26 ****        -0.7734  -0.9954  -0.2403 H              1 S1                 0.0000
     27 ****         1.5483   0.5493  -0.5994 H              1 S1                 0.0000
     28 ****         1.4858   0.1112   1.1006 H              1 S1                 0.0000
     29 ****         1.2474  -2.3007   0.4736 H              1 S1                 0.0000
     30 ****         1.3197  -1.8848  -1.2213 H              1 S1                 0.0000
     31 ****         3.5485  -1.3154   0.7863 H              1 S1                 0.0000
     32 ****         3.3200  -3.7738   0.4037 H              1 S1                 0.0000
     33 ****         3.3148  -3.5202  -1.3273 H              1 S1                 0.0000
     34 ****         5.6205  -2.9218   0.5844 H              1 S1                 0.0000
     35 ****         5.5824  -4.1801  -0.6320 H              1 S1                 0.0000
     36 ****         6.8574  -2.1297  -1.3900 H              1 S1                 0.0000
     37 ****         5.5112  -2.5123  -2.4408 H              1 S1                 0.0000
     38 ****         5.5067  -0.3692  -0.2428 H              1 S1                 0.0000
     39 ****         5.4933  -0.0918  -1.9733 H              1 S1                 0.0000
     40 ****        -4.2809   4.5390   1.4912 H              1 S1                 0.0000
     41 ****        -1.1745   2.7583   0.9566 LP             1 S1                 0.0000
     42 ****         0.4199   2.0970   0.8140 LP             1 S1                 0.0000
     43 ****         3.3771   0.0668  -1.1064 LP             1 S1                 0.0000
     44 ****         3.4600  -1.2277  -2.0984 LP             1 S1                 0.0000
     45 ****        -2.4275   3.1764   1.1056 LP             1 S1                 0.0000
@<TRIPOS>BOND
    1    1    2 1     
    2    1   20 1     
    3    1   21 1     
    4    1   22 1     
    5    2   19 ar    
    6    2    3 ar    
    7    3    4 ar    
    8    3   23 1     
    9    4    5 ar    
   10    4   24 1     
   11    5    6 1     
   12    5   18 ar    
   13    6    7 am    
   14    6   25 1     
   15    7    8 2     
   16    7    9 am    
   17    9   10 1     
   18    9   26 1     
   19   10   11 1     
   20   10   27 1     
   21   10   28 1     
   22   11   12 1     
   23   11   29 1     
   24   11   30 1     
   25   12   17 1     
   26   12   13 1     
   27   12   31 1     
   28   13   14 1     
   29   13   32 1     
   30   13   33 1     
   31   14   15 1     
   32   14   34 1     
   33   14   35 1     
   34   15   16 1     
   35   15   36 1     
   36   15   37 1     
   37   16   17 1     
   38   16   38 1     
   39   16   39 1     
   40   18   19 ar    
   41   19   40 1     
   42    8   41 1     
   43    8   42 1     
   44   17   43 1     
   45   17   44 1     
   46   18   45 1     
@<TRIPOS>SUBSTRUCTURE
      1 S1             1
@<TRIPOS>SET
LONE_PAIRS      STATIC     ATOMS    <user>   **** ""
5 41 42 43 44 45
DONOR_HYDROGENS      STATIC     ATOMS    <user>   **** ""
2 25 26
ATOM$BLUE        STATIC     ATOMS    COLORGROUP SYSTEM
5 41 42 43 44 45
ATOM$RED        STATIC     ATOMS    COLORGROUP SYSTEM
2 25 26
