AV-unprocessed.smi:3161|AV-procd|sdf|12060|dock7
  -GOLD-   2272017493D 1   1.00000     0.00000
 Structure written by MMmdl.
 40 41  0  0  0  0  0  0  0  0  1 V2000
  146.0174  142.9550  153.7013 C   0  0  0  0  0  0  0  0  0  0  0  0
  147.0349  141.8675  153.8916 C   0  0  0  0  0  0  0  0  0  0  0  0
  146.9550  140.5108  153.4679 C   0  0  0  0  0  0  0  0  0  0  0  0
  148.0278  139.8074  153.7902 N   0  0  0  0  0  0  0  0  0  0  0  0
  148.8220  140.6809  154.4462 N   0  0  0  0  0  0  0  0  0  0  0  0
  150.1247  140.2580  154.9343 C   0  0  0  0  0  0  0  0  0  0  0  0
  150.3338  140.4641  156.4564 C   0  0  1  0  0  0  0  0  0  0  0  0
  149.6361  139.3476  157.2467 C   0  0  0  0  0  0  0  0  0  0  0  0
  151.7490  140.4977  156.8465 N   0  0  0  0  0  0  0  0  0  0  0  0
  152.0217  140.5082  158.2828 C   0  0  0  0  0  0  0  0  0  0  0  0
  152.4909  141.8931  158.7519 C   0  0  2  0  0  0  0  0  0  0  0  0
  152.3075  142.1007  160.2697 C   0  0  0  0  0  0  0  0  0  0  0  0
  152.6982  143.5280  160.6694 C   0  0  0  0  0  0  0  0  0  0  0  0
  151.9339  144.5345  159.8033 C   0  0  0  0  0  0  0  0  0  0  0  0
  152.1218  144.2071  158.3136 C   0  0  0  0  0  0  0  0  0  0  0  0
  151.7154  142.8665  158.0556 O   0  0  0  0  0  0  0  0  0  0  0  0
  148.2541  141.9366  154.5040 C   0  0  0  0  0  0  0  0  0  0  0  0
  145.3035  142.7085  152.9150 H   0  0  0  0  0  0  0  0  0  0  0  0
  146.4844  143.9007  153.4252 H   0  0  0  0  0  0  0  0  0  0  0  0
  145.4446  143.1321  154.6117 H   0  0  0  0  0  0  0  0  0  0  0  0
  146.1546  140.0205  152.9336 H   0  0  0  0  0  0  0  0  0  0  0  0
  150.2199  139.1996  154.6881 H   0  0  0  0  0  0  0  0  0  0  0  0
  150.9031  140.7705  154.3673 H   0  0  0  0  0  0  0  0  0  0  0  0
  149.8605  141.3987  156.7595 H   0  0  0  0  0  0  0  0  0  0  0  0
  148.5657  139.3302  157.0403 H   0  0  0  0  0  0  0  0  0  0  0  0
  149.7569  139.4895  158.3212 H   0  0  0  0  0  0  0  0  0  0  0  0
  150.0401  138.3670  156.9919 H   0  0  0  0  0  0  0  0  0  0  0  0
  152.2304  139.7116  156.4214 H   0  0  0  0  0  0  0  0  0  0  0  0
  151.1155  140.2542  158.8293 H   0  0  0  0  0  0  0  0  0  0  0  0
  152.7685  139.7557  158.5392 H   0  0  0  0  0  0  0  0  0  0  0  0
  153.5398  142.0251  158.4787 H   0  0  0  0  0  0  0  0  0  0  0  0
  151.2678  141.9169  160.5443 H   0  0  0  0  0  0  0  0  0  0  0  0
  152.9094  141.3839  160.8289 H   0  0  0  0  0  0  0  0  0  0  0  0
  152.4908  143.6986  161.7261 H   0  0  0  0  0  0  0  0  0  0  0  0
  153.7714  143.6663  160.5325 H   0  0  0  0  0  0  0  0  0  0  0  0
  150.8725  144.5012  160.0520 H   0  0  0  0  0  0  0  0  0  0  0  0
  152.2737  145.5489  160.0141 H   0  0  0  0  0  0  0  0  0  0  0  0
  151.5203  144.8808  157.7033 H   0  0  0  0  0  0  0  0  0  0  0  0
  153.1609  144.3478  158.0124 H   0  0  0  0  0  0  0  0  0  0  0  0
  148.7576  142.7662  154.9783 H   0  0  0  0  0  0  0  0  0  0  0  0
  1  2  1  0  0  0  0
  1 18  1  0  0  0  0
  1 19  1  0  0  0  0
  1 20  1  0  0  0  0
  2 17  2  0  0  0  0
  2  3  1  0  0  0  0
  3  4  2  0  0  0  0
  3 21  1  0  0  0  0
  4  5  1  0  0  0  0
  5  6  1  0  0  0  0
  5 17  1  0  0  0  0
  6  7  1  0  0  0  0
  6 22  1  0  0  0  0
  6 23  1  0  0  0  0
  7  8  1  0  0  0  0
  7  9  1  0  0  0  0
  7 24  1  0  0  0  0
  8 25  1  0  0  0  0
  8 26  1  0  0  0  0
  8 27  1  0  0  0  0
  9 10  1  0  0  0  0
  9 28  1  0  0  0  0
 10 11  1  0  0  0  0
 10 29  1  0  0  0  0
 10 30  1  0  0  0  0
 11 16  1  0  0  0  0
 11 12  1  0  0  0  0
 11 31  1  0  0  0  0
 12 13  1  0  0  0  0
 12 32  1  0  0  0  0
 12 33  1  0  0  0  0
 13 14  1  0  0  0  0
 13 34  1  0  0  0  0
 13 35  1  0  0  0  0
 14 15  1  0  0  0  0
 14 36  1  0  0  0  0
 14 37  1  0  0  0  0
 15 16  1  0  0  0  0
 15 38  1  0  0  0  0
 15 39  1  0  0  0  0
 17 40  1  0  0  0  0
M  END
> <s_m_source_file>
AV-unprocessed.smi

> <i_m_source_file_index>
3161

> <i_lp_mmshare_version>
43012

> <i_f3d_flags>
0

> <s_epik_input>
W0NIM11jMVtjSF1ubihbY0hdMSlbQ0gyXVtDQEhdKFtDSDNdKVtOSF1bQ0gyXVtDQEBIXTJbQ0gyXVtDSDJdW0NIMl1bQ0gyXU8y

> <s_epik_cmdline>
J2VwaWtfcHl0aG9uJywgJy1waCcsICc3LjAnLCAnLXRuJywgJzgnLCAnLW1hJywgJzIwMCcsICctbWV0YWxfYmluZGluZycsICctaW1hZScsICc8aW5maWxlLm1hZT4nLCAnLW9tYWUnLCAnPG91dGZpbGUubWFlPic=

> <r_lp_tautomer_probability>
1

> <r_epik_Ionization_Penalty>
2.51986

> <r_epik_Ionization_Penalty_Charging>
0

> <r_epik_Ionization_Penalty_Neutral>
2.51986

> <r_epik_State_Penalty>
2.68614

> <r_epik_Charging_Adjusted_Penalty>
2.68614

> <i_epik_Tot_Q>
0

> <i_epik_Tot_abs_Q>
0

> <r_epik_Metal_State_Penalty>
2.68606

> <b_epik_Metal_Only>
0

> <s_lp_Force_Field>
OPLS_2005

> <r_lp_Energy>
14.6841

> <b_lp_Chiralities_Consistent>
1

> <s_lp_Variant>
AV-unprocessed.smi:3161-6

> <Gold.Version>
5.8.1

> <Gold.Id.Protein>
6NUR|6NUR_protein|mol2

> <Gold.PLP.Fitness>
43.0662

> <Gold.PLP.PLP>
-38.5913

> <Gold.PLP.part.hbond>
0.0000

> <Gold.PLP.part.metal>
0.0000

> <Gold.PLP.part.buried>
-3.5573

> <Gold.PLP.part.nonpolar>
-35.7609

> <Gold.PLP.part.repulsive>
0.2023

> <Gold.PLP.ligand.clash>
0.0000

> <Gold.PLP.ligand.torsion>
0.7618

> <Gold.PLP.Chemscore.Hbond>
0.0000

> <Gold.PLP.Chemscore.CHOScore>
1.9831

> <Gold.PLP.Chemscore.Metal>
0.0000

> <Gold.Chemscore.Hbonds>
donor molecule, donor type, donor heavy atom, donor atom, acceptor molecule, acceptor atom, score
      L1  C     3    21       P1 10175  0.95
      L1  C    17    40       P1  8028  1.00

> <Gold.PLP.Chemscore.Internal.Correction>
0.0492

> <Gold.Rescore>
     Score         DG    S(hbond)    S(metal)    S(lipo)     H(rot)  DE(clash)    DE(int)     intcor
     13.53     -14.47       0.00        0.00     109.76       1.50       0.14       0.81       ----

> <Gold.Chemscore.Fitness>
13.5290

> <Gold.Chemscore.DG>
-14.4747

> <Gold.Chemscore.ZeroCoef>
-5.4800

> <Gold.Chemscore.Hbond>
0.0000

> <Gold.Chemscore.Metal>
0.0000

> <Gold.Chemscore.Lipo>
109.7640

> <Gold.Chemscore.Internal_Hbond>
0.0000

> <Gold.Chemscore.DEClash>
0.1376

> <Gold.Chemscore.DEInternal>
0.8081

> <Gold.Chemscore.Rot>
1.5030

> <Gold.Chemscore.Internal.Correction>
   9.000000E+99

> <Gold.Chemscore.Hbond.Weighted>
-0.0000

> <Gold.Chemscore.Metal.Weighted>
-0.0000

> <Gold.Chemscore.Lipo.Weighted>
-12.8424

> <Gold.Chemscore.Internal_Hbond.Weighted>
0.0000

> <Gold.Chemscore.DEClash.Weighted>
0.1376

> <Gold.Chemscore.DEInternal.Weighted>
0.8081

> <Gold.Chemscore.Rot.Weighted>
3.8477

> <Gold.Chemscore.Internal.Correction.Weighted>
   9.000000E+99

> <Gold.Protein.RotatedTorsions>
[ 6907 6896 6895 6894 ] final   53.52 input  -60.11 | X-H torsion
[ 7974 7965 7964 7962 ] final -109.16 input  175.53 | X-H torsion
[ 8008 7997 7996 7995 ] final   28.15 input   59.86 | X-H torsion
[ 10167 10162 10161 10158 ] final  -44.47 input  -65.29 | X-H torsion
[ 10718 10713 10712 10709 ] final   72.23 input   66.30 | X-H torsion
[ 10763 10752 10751 10750 ] final   63.44 input  -60.55 | X-H torsion
[ 11005 11000 10999 10996 ] final -156.91 input  -57.11 | X-H torsion

> <Gold.Protein.ActiveResidues>
 VAL166  LYS551  ARG553  GLY616  TRP617  ASP618  TYR619  PRO620  LYS621  CYS622 
 ASP623  PHE694  ASN695  SER759  ASP760  ASP761  ALA762  ILE779  LEU786  VAL792 
 PHE793  MET794  SER795  GLU796  ALA797  LYS798  CYS799  TRP800  GLU811  SER814 

> <Gold.Protein.RotatedAtoms>
  152.3346  134.7215  160.0280 H   0  0  0  0  0  0  0  0  0  0  0  0  # atno 6907 bound_to 6896
  151.7620  133.3329  159.3428 H   0  0  0  0  0  0  0  0  0  0  0  0  # atno 6908 bound_to 6896
  150.7443  134.6029  159.6090 H   0  0  0  0  0  0  0  0  0  0  0  0  # atno 6909 bound_to 6896
  145.1839  140.8984  143.3464 H   0  0  0  0  0  0  0  0  0  0  0  0  # atno 7974 bound_to 7965
  155.0541  140.3183  155.4682 H   0  0  0  0  0  0  0  0  0  0  0  0  # atno 8008 bound_to 7997
  156.2828  140.2141  156.5611 H   0  0  0  0  0  0  0  0  0  0  0  0  # atno 8009 bound_to 7997
  154.7186  140.0491  157.0606 H   0  0  0  0  0  0  0  0  0  0  0  0  # atno 8010 bound_to 7997
  140.6896  143.2929  151.3499 H   0  0  0  0  0  0  0  0  0  0  0  0  # atno 10167 bound_to 10162
  157.6491  130.9568  150.0900 H   0  0  0  0  0  0  0  0  0  0  0  0  # atno 10718 bound_to 10713
  153.0018  135.5429  154.6352 H   0  0  0  0  0  0  0  0  0  0  0  0  # atno 10763 bound_to 10752
  154.5620  135.2834  155.0912 H   0  0  0  0  0  0  0  0  0  0  0  0  # atno 10764 bound_to 10752
  154.2110  135.6467  153.5168 H   0  0  0  0  0  0  0  0  0  0  0  0  # atno 10765 bound_to 10752
  140.6704  134.4253  157.5232 H   0  0  0  0  0  0  0  0  0  0  0  0  # atno 11005 bound_to 11000
  145.0108  139.3511  143.6121 LP  0  0  0  0  0  0  0  0  0  0  0  0  # atno 17320 bound_to 7965
  146.3448  139.9370  142.8746 LP  0  0  0  0  0  0  0  0  0  0  0  0  # atno 17321 bound_to 7965
  139.6285  144.0767  152.2455 LP  0  0  0  0  0  0  0  0  0  0  0  0  # atno 17342 bound_to 10162
  140.0234  144.6136  150.7548 LP  0  0  0  0  0  0  0  0  0  0  0  0  # atno 17343 bound_to 10162
  156.1852  130.3652  149.8982 LP  0  0  0  0  0  0  0  0  0  0  0  0  # atno 17370 bound_to 10713
  156.6924  130.8901  151.3590 LP  0  0  0  0  0  0  0  0  0  0  0  0  # atno 17371 bound_to 10713
  139.8983  134.8616  156.2006 LP  0  0  0  0  0  0  0  0  0  0  0  0  # atno 17394 bound_to 11000
  141.0396  133.6945  156.1574 LP  0  0  0  0  0  0  0  0  0  0  0  0  # atno 17395 bound_to 11000

$$$$
