AV-unprocessed.smi:2299|AV-procd|sdf|9231|dock10
  -GOLD-   2272012453D 1   1.00000     0.00000
 Structure written by MMmdl.
 42 43  0  0  0  0  0  0  0  0  1 V2000
  149.5216  139.6562  154.4565 C   0  0  0  0  0  0  0  0  0  0  0  0
  150.9589  139.7855  154.9812 C   0  0  0  0  0  0  0  0  0  0  0  0
  151.8212  138.5723  154.6033 C   0  0  0  0  0  0  0  0  0  0  0  0
  150.9829  140.0435  156.4642 C   0  0  0  0  0  0  0  0  0  0  0  0
  151.4705  141.1619  156.9965 N   0  0  0  0  0  0  0  0  0  0  0  0
  151.3322  141.0014  158.3693 C   0  0  0  0  0  0  0  0  0  0  0  0
  150.7641  139.7786  158.6266 C   0  0  0  0  0  0  0  0  0  0  0  0
  150.5457  139.1678  157.3974 N   0  0  0  0  0  0  0  0  0  0  0  0
  149.9693  137.8430  157.2187 C   0  0  0  0  0  0  0  0  0  0  0  0
  149.8078  137.1288  158.5619 C   0  0  0  0  0  0  0  0  0  0  0  0
  150.7925  136.9219  159.2708 O   0  0  0  0  0  0  0  0  0  0  0  0
  148.5639  136.7499  158.8931 N   0  0  0  0  0  0  0  0  0  0  0  0
  148.1879  135.9954  160.0887 C   0  0  1  0  0  0  0  0  0  0  0  0
  147.3282  136.8712  161.0269 C   0  0  0  0  0  0  0  0  0  0  0  0
  147.3441  136.4127  162.4944 C   0  0  0  0  0  0  0  0  0  0  0  0
  146.7615  135.0128  162.7408 C   0  0  0  0  0  0  0  0  0  0  0  0
  147.5728  133.8798  162.0881 C   0  0  0  0  0  0  0  0  0  0  0  0
  147.3000  133.7454  160.6625 N   0  0  0  0  0  0  0  0  0  0  0  0
  147.5376  134.6531  159.7034 C   0  0  0  0  0  0  0  0  0  0  0  0
  147.2341  134.4208  158.5334 O   0  0  0  0  0  0  0  0  0  0  0  0
  148.9445  140.5554  154.6742 H   0  0  0  0  0  0  0  0  0  0  0  0
  149.0055  138.8099  154.9111 H   0  0  0  0  0  0  0  0  0  0  0  0
  149.5089  139.5119  153.3759 H   0  0  0  0  0  0  0  0  0  0  0  0
  151.3989  140.6375  154.4678 H   0  0  0  0  0  0  0  0  0  0  0  0
  152.8527  138.7089  154.9297 H   0  0  0  0  0  0  0  0  0  0  0  0
  151.8344  138.4216  153.5236 H   0  0  0  0  0  0  0  0  0  0  0  0
  151.4447  137.6570  155.0612 H   0  0  0  0  0  0  0  0  0  0  0  0
  151.6518  141.7688  159.0587 H   0  0  0  0  0  0  0  0  0  0  0  0
  150.5093  139.3003  159.5609 H   0  0  0  0  0  0  0  0  0  0  0  0
  148.9888  137.9459  156.7521 H   0  0  0  0  0  0  0  0  0  0  0  0
  150.5803  137.2637  156.5257 H   0  0  0  0  0  0  0  0  0  0  0  0
  147.8172  136.9615  158.2469 H   0  0  0  0  0  0  0  0  0  0  0  0
  149.1162  135.7446  160.6057 H   0  0  0  0  0  0  0  0  0  0  0  0
  147.6949  137.8984  161.0054 H   0  0  0  0  0  0  0  0  0  0  0  0
  146.3018  136.9182  160.6600 H   0  0  0  0  0  0  0  0  0  0  0  0
  148.3648  136.4542  162.8766 H   0  0  0  0  0  0  0  0  0  0  0  0
  146.7773  137.1321  163.0861 H   0  0  0  0  0  0  0  0  0  0  0  0
  146.7431  134.8429  163.8179 H   0  0  0  0  0  0  0  0  0  0  0  0
  145.7212  134.9717  162.4151 H   0  0  0  0  0  0  0  0  0  0  0  0
  148.6420  134.0092  162.2614 H   0  0  0  0  0  0  0  0  0  0  0  0
  147.3010  132.9324  162.5542 H   0  0  0  0  0  0  0  0  0  0  0  0
  146.8755  132.8761  160.3727 H   0  0  0  0  0  0  0  0  0  0  0  0
  1  2  1  0  0  0  0
  1 21  1  0  0  0  0
  1 22  1  0  0  0  0
  1 23  1  0  0  0  0
  2  3  1  0  0  0  0
  2  4  1  0  0  0  0
  2 24  1  0  0  0  0
  3 25  1  0  0  0  0
  3 26  1  0  0  0  0
  3 27  1  0  0  0  0
  4  8  1  0  0  0  0
  4  5  2  0  0  0  0
  5  6  1  0  0  0  0
  6  7  2  0  0  0  0
  6 28  1  0  0  0  0
  7  8  1  0  0  0  0
  7 29  1  0  0  0  0
  8  9  1  0  0  0  0
  9 10  1  0  0  0  0
  9 30  1  0  0  0  0
  9 31  1  0  0  0  0
 10 11  2  0  0  0  0
 10 12  1  0  0  0  0
 12 13  1  0  0  0  0
 12 32  1  0  0  0  0
 13 19  1  0  0  0  0
 13 14  1  0  0  0  0
 13 33  1  0  0  0  0
 14 15  1  0  0  0  0
 14 34  1  0  0  0  0
 14 35  1  0  0  0  0
 15 16  1  0  0  0  0
 15 36  1  0  0  0  0
 15 37  1  0  0  0  0
 16 17  1  0  0  0  0
 16 38  1  0  0  0  0
 16 39  1  0  0  0  0
 17 18  1  0  0  0  0
 17 40  1  0  0  0  0
 17 41  1  0  0  0  0
 18 19  1  0  0  0  0
 18 42  1  0  0  0  0
 19 20  2  0  0  0  0
M  END
> <s_m_source_file>
AV-unprocessed.smi

> <i_m_source_file_index>
2299

> <i_lp_mmshare_version>
43012

> <i_f3d_flags>
0

> <s_epik_input>
W0NIM11bQ0hdKFtDSDNdKWMxbltjSF1bY0hdbjFbQ0gyXUMoPU8pW05IXVtDQEBIXTJbQ0gyXVtDSDJdW0NIMl1bQ0gyXVtOSF1DMj1P

> <s_epik_cmdline>
J2VwaWtfcHl0aG9uJywgJy1waCcsICc3LjAnLCAnLXRuJywgJzgnLCAnLW1hJywgJzIwMCcsICctbWV0YWxfYmluZGluZycsICctaW1hZScsICc8aW5maWxlLm1hZT4nLCAnLW9tYWUnLCAnPG91dGZpbGUubWFlPic=

> <r_lp_tautomer_probability>
1

> <r_epik_Ionization_Penalty>
0.557868

> <r_epik_Ionization_Penalty_Charging>
0.557868

> <r_epik_Ionization_Penalty_Neutral>
1.99744e-07

> <r_epik_State_Penalty>
0.568774

> <r_epik_Charging_Adjusted_Penalty>
1.12664

> <i_epik_Tot_Q>
0

> <i_epik_Tot_abs_Q>
0

> <r_epik_Metal_State_Penalty>
0.289303

> <b_epik_Metal_Only>
0

> <s_lp_Force_Field>
OPLS_2005

> <r_lp_Energy>
10.2382

> <b_lp_Chiralities_Consistent>
1

> <s_lp_Variant>
AV-unprocessed.smi:2299-4

> <Gold.Version>
5.8.1

> <Gold.Id.Protein>
6NUR|6NUR_protein|mol2

> <Gold.PLP.Fitness>
37.6700

> <Gold.PLP.PLP>
-34.8112

> <Gold.PLP.part.hbond>
-1.0000

> <Gold.PLP.part.metal>
0.0000

> <Gold.PLP.part.buried>
-1.2620

> <Gold.PLP.part.nonpolar>
-30.8612

> <Gold.PLP.part.repulsive>
0.2144

> <Gold.PLP.ligand.clash>
0.0000

> <Gold.PLP.ligand.torsion>
0.1067

> <Gold.PLP.Chemscore.Hbond>
1.0000

> <Gold.PLP.Chemscore.CHOScore>
0.0000

> <Gold.PLP.Chemscore.Metal>
0.0000

> <Gold.Chemscore.Hbonds>
donor molecule, donor type, donor heavy atom, donor atom, acceptor molecule, acceptor atom, score
      P1  H  6896  6908       L1    11  1.00

> <Gold.PLP.Chemscore.Internal.Correction>
0.0721

> <Gold.Rescore>
     Score         DG    S(hbond)    S(metal)    S(lipo)     H(rot)  DE(clash)    DE(int)     intcor
     11.94     -13.26       0.97        0.00      75.94       1.70       0.06       1.26       ----

> <Gold.Chemscore.Fitness>
11.9405

> <Gold.Chemscore.DG>
-13.2598

> <Gold.Chemscore.ZeroCoef>
-5.4800

> <Gold.Chemscore.Hbond>
0.9724

> <Gold.Chemscore.Metal>
0.0000

> <Gold.Chemscore.Lipo>
75.9398

> <Gold.Chemscore.Internal_Hbond>
0.0000

> <Gold.Chemscore.DEClash>
0.0630

> <Gold.Chemscore.DEInternal>
1.2563

> <Gold.Chemscore.Rot>
1.7004

> <Gold.Chemscore.Internal.Correction>
   9.000000E+99

> <Gold.Chemscore.Hbonds>
donor molecule, donor type, donor heavy atom, donor atom, acceptor molecule, acceptor atom, score
      P1  H  6896  6908       L1    11  0.91

> <Gold.Chemscore.Hbond.Weighted>
-3.2478

> <Gold.Chemscore.Metal.Weighted>
-0.0000

> <Gold.Chemscore.Lipo.Weighted>
-8.8850

> <Gold.Chemscore.Internal_Hbond.Weighted>
0.0000

> <Gold.Chemscore.DEClash.Weighted>
0.0630

> <Gold.Chemscore.DEInternal.Weighted>
1.2563

> <Gold.Chemscore.Rot.Weighted>
4.3530

> <Gold.Chemscore.Internal.Correction.Weighted>
   9.000000E+99

> <Gold.Protein.RotatedTorsions>
[ 6907 6896 6895 6894 ] final -152.28 input  -60.11 | X-H torsion
[ 7974 7965 7964 7962 ] final -172.45 input  175.53 | X-H torsion
[ 8008 7997 7996 7995 ] final -166.06 input   59.86 | X-H torsion
[ 10167 10162 10161 10158 ] final   31.66 input  -65.29 | X-H torsion
[ 10718 10713 10712 10709 ] final   95.86 input   66.30 | X-H torsion
[ 10763 10752 10751 10750 ] final   58.05 input  -60.55 | X-H torsion
[ 11005 11000 10999 10996 ] final  -71.95 input  -57.11 | X-H torsion

> <Gold.Protein.ActiveResidues>
 VAL166  LYS551  ARG553  GLY616  TRP617  ASP618  TYR619  PRO620  LYS621  CYS622 
 ASP623  PHE694  ASN695  SER759  ASP760  ASP761  ALA762  ILE779  LEU786  VAL792 
 PHE793  MET794  SER795  GLU796  ALA797  LYS798  CYS799  TRP800  GLU811  SER814 

> <Gold.Protein.RotatedAtoms>
  151.2254  133.4479  159.2601 H   0  0  0  0  0  0  0  0  0  0  0  0  # atno 6907 bound_to 6896
  151.0845  134.9879  159.8382 H   0  0  0  0  0  0  0  0  0  0  0  0  # atno 6908 bound_to 6896
  152.5428  134.2191  159.8833 H   0  0  0  0  0  0  0  0  0  0  0  0  # atno 6909 bound_to 6896
  144.7146  140.1770  143.6362 H   0  0  0  0  0  0  0  0  0  0  0  0  # atno 7974 bound_to 7965
  155.8585  140.0974  157.1629 H   0  0  0  0  0  0  0  0  0  0  0  0  # atno 8008 bound_to 7997
  154.3989  140.1369  156.3993 H   0  0  0  0  0  0  0  0  0  0  0  0  # atno 8009 bound_to 7997
  155.7883  140.3456  155.5337 H   0  0  0  0  0  0  0  0  0  0  0  0  # atno 8010 bound_to 7997
  140.4568  144.0966  150.6203 H   0  0  0  0  0  0  0  0  0  0  0  0  # atno 10167 bound_to 10162
  157.6934  131.0559  150.4403 H   0  0  0  0  0  0  0  0  0  0  0  0  # atno 10718 bound_to 10713
  152.9862  135.5620  154.5490 H   0  0  0  0  0  0  0  0  0  0  0  0  # atno 10763 bound_to 10752
  154.4930  135.2793  155.1483 H   0  0  0  0  0  0  0  0  0  0  0  0  # atno 10764 bound_to 10752
  154.2945  135.6319  153.5452 H   0  0  0  0  0  0  0  0  0  0  0  0  # atno 10765 bound_to 10752
  141.1601  133.6832  156.6984 H   0  0  0  0  0  0  0  0  0  0  0  0  # atno 11005 bound_to 11000
  145.8891  139.2366  143.1560 LP  0  0  0  0  0  0  0  0  0  0  0  0  # atno 17320 bound_to 7965
  145.9921  140.8594  143.0061 LP  0  0  0  0  0  0  0  0  0  0  0  0  # atno 17321 bound_to 7965
  140.4141  143.2643  151.9797 LP  0  0  0  0  0  0  0  0  0  0  0  0  # atno 17342 bound_to 10162
  139.4802  144.5889  151.7805 LP  0  0  0  0  0  0  0  0  0  0  0  0  # atno 17343 bound_to 10162
  156.4763  130.4064  149.6488 LP  0  0  0  0  0  0  0  0  0  0  0  0  # atno 17370 bound_to 10713
  156.3550  130.7452  151.2416 LP  0  0  0  0  0  0  0  0  0  0  0  0  # atno 17371 bound_to 10713
  140.2977  134.8189  157.4071 LP  0  0  0  0  0  0  0  0  0  0  0  0  # atno 17394 bound_to 11000
  140.1289  134.5121  155.8121 LP  0  0  0  0  0  0  0  0  0  0  0  0  # atno 17395 bound_to 11000

$$$$
