AV-unprocessed.smi:3240|AV-procd|sdf|12383|dock1
  -GOLD-   2272018243D 1   1.00000     0.00000
 Structure written by MMmdl.
 43 44  0  0  0  0  0  0  0  0  1 V2000
  144.7754  133.2194  150.3311 C   0  0  0  0  0  0  0  0  0  0  0  0
  144.7281  134.3593  151.3068 C   0  0  0  0  0  0  0  0  0  0  0  0
  143.6089  135.1696  151.6508 C   0  0  0  0  0  0  0  0  0  0  0  0
  143.9006  136.0950  152.5501 N   0  0  0  0  0  0  0  0  0  0  0  0
  145.2142  135.9150  152.8067 N   0  0  0  0  0  0  0  0  0  0  0  0
  145.8928  136.7738  153.7646 C   0  0  0  0  0  0  0  0  0  0  0  0
  146.1261  138.2168  153.2501 C   0  0  2  0  0  0  0  0  0  0  0  0
  145.7806  138.3698  151.7605 C   0  0  0  0  0  0  0  0  0  0  0  0
  147.4950  138.6912  153.4800 N   0  0  0  0  0  0  0  0  0  0  0  0
  147.7136  139.4269  154.7277 C   0  0  0  0  0  0  0  0  0  0  0  0
  149.1979  139.8039  154.9354 C   0  0  0  0  0  0  0  0  0  0  0  0
  149.5837  140.6034  153.8316 O   0  0  0  0  0  0  0  0  0  0  0  0
  149.3332  140.6708  156.2097 C   0  0  0  0  0  0  0  0  0  0  0  0
  150.7931  141.0175  156.5534 C   0  0  0  0  0  0  0  0  0  0  0  0
  151.6527  139.7515  156.6702 C   0  0  0  0  0  0  0  0  0  0  0  0
  151.5745  138.9172  155.3846 C   0  0  0  0  0  0  0  0  0  0  0  0
  150.1189  138.5606  155.0334 C   0  0  0  0  0  0  0  0  0  0  0  0
  145.7358  134.8687  152.0753 C   0  0  0  0  0  0  0  0  0  0  0  0
  144.2769  133.4706  149.3947 H   0  0  0  0  0  0  0  0  0  0  0  0
  144.2854  132.3305  150.7287 H   0  0  0  0  0  0  0  0  0  0  0  0
  145.7995  132.9390  150.0835 H   0  0  0  0  0  0  0  0  0  0  0  0
  142.5977  135.1117  151.2760 H   0  0  0  0  0  0  0  0  0  0  0  0
  145.2937  136.8102  154.6760 H   0  0  0  0  0  0  0  0  0  0  0  0
  146.8281  136.2963  154.0552 H   0  0  0  0  0  0  0  0  0  0  0  0
  145.4437  138.8669  153.7988 H   0  0  0  0  0  0  0  0  0  0  0  0
  144.7685  138.0204  151.5549 H   0  0  0  0  0  0  0  0  0  0  0  0
  146.4638  137.8030  151.1268 H   0  0  0  0  0  0  0  0  0  0  0  0
  145.8362  139.4142  151.4516 H   0  0  0  0  0  0  0  0  0  0  0  0
  147.7914  139.2667  152.6978 H   0  0  0  0  0  0  0  0  0  0  0  0
  147.1023  140.3302  154.7388 H   0  0  0  0  0  0  0  0  0  0  0  0
  147.3878  138.8253  155.5754 H   0  0  0  0  0  0  0  0  0  0  0  0
  149.4622  140.0995  153.0416 H   0  0  0  0  0  0  0  0  0  0  0  0
  148.7531  141.5889  156.1060 H   0  0  0  0  0  0  0  0  0  0  0  0
  148.8981  140.1353  157.0548 H   0  0  0  0  0  0  0  0  0  0  0  0
  151.2091  141.6743  155.7886 H   0  0  0  0  0  0  0  0  0  0  0  0
  150.8291  141.5765  157.4890 H   0  0  0  0  0  0  0  0  0  0  0  0
  152.6887  140.0214  156.8774 H   0  0  0  0  0  0  0  0  0  0  0  0
  151.3121  139.1536  157.5167 H   0  0  0  0  0  0  0  0  0  0  0  0
  152.0287  139.4698  154.5613 H   0  0  0  0  0  0  0  0  0  0  0  0
  152.1600  138.0047  155.5001 H   0  0  0  0  0  0  0  0  0  0  0  0
  149.7305  137.8877  155.7989 H   0  0  0  0  0  0  0  0  0  0  0  0
  150.1064  137.9959  154.1005 H   0  0  0  0  0  0  0  0  0  0  0  0
  146.7725  134.5787  152.1585 H   0  0  0  0  0  0  0  0  0  0  0  0
  1  2  1  0  0  0  0
  1 19  1  0  0  0  0
  1 20  1  0  0  0  0
  1 21  1  0  0  0  0
  2 18  2  0  0  0  0
  2  3  1  0  0  0  0
  3  4  2  0  0  0  0
  3 22  1  0  0  0  0
  4  5  1  0  0  0  0
  5  6  1  0  0  0  0
  5 18  1  0  0  0  0
  6  7  1  0  0  0  0
  6 23  1  0  0  0  0
  6 24  1  0  0  0  0
  7  8  1  0  0  0  0
  7  9  1  0  0  0  0
  7 25  1  0  0  0  0
  8 26  1  0  0  0  0
  8 27  1  0  0  0  0
  8 28  1  0  0  0  0
  9 10  1  0  0  0  0
  9 29  1  0  0  0  0
 10 11  1  0  0  0  0
 10 30  1  0  0  0  0
 10 31  1  0  0  0  0
 11 17  1  0  0  0  0
 11 12  1  0  0  0  0
 11 13  1  0  0  0  0
 12 32  1  0  0  0  0
 13 14  1  0  0  0  0
 13 33  1  0  0  0  0
 13 34  1  0  0  0  0
 14 15  1  0  0  0  0
 14 35  1  0  0  0  0
 14 36  1  0  0  0  0
 15 16  1  0  0  0  0
 15 37  1  0  0  0  0
 15 38  1  0  0  0  0
 16 17  1  0  0  0  0
 16 39  1  0  0  0  0
 16 40  1  0  0  0  0
 17 41  1  0  0  0  0
 17 42  1  0  0  0  0
 18 43  1  0  0  0  0
M  END
> <s_m_source_file>
AV-unprocessed.smi

> <i_m_source_file_index>
3240

> <i_lp_mmshare_version>
43012

> <i_f3d_flags>
0

> <s_epik_input>
W0NIM11jMVtjSF1ubihbY0hdMSlbQ0gyXVtDQEhdKFtDSDNdKVtOSF1bQ0gyXUMyKFtPSF0pW0NIMl1bQ0gyXVtDSDJdW0NIMl1bQ0gyXTI=

> <s_epik_cmdline>
J2VwaWtfcHl0aG9uJywgJy1waCcsICc3LjAnLCAnLXRuJywgJzgnLCAnLW1hJywgJzIwMCcsICctbWV0YWxfYmluZGluZycsICctaW1hZScsICc8aW5maWxlLm1hZT4nLCAnLW9tYWUnLCAnPG91dGZpbGUubWFlPic=

> <r_lp_tautomer_probability>
1

> <r_epik_Ionization_Penalty>
2.35969

> <r_epik_Ionization_Penalty_Charging>
0

> <r_epik_Ionization_Penalty_Neutral>
2.35969

> <r_epik_State_Penalty>
2.51455

> <r_epik_Charging_Adjusted_Penalty>
2.51455

> <i_epik_Tot_Q>
0

> <i_epik_Tot_abs_Q>
0

> <r_epik_Metal_State_Penalty>
2.51446

> <b_epik_Metal_Only>
0

> <s_lp_Force_Field>
OPLS_2005

> <r_lp_Energy>
22.0798

> <b_lp_Chiralities_Consistent>
1

> <s_lp_Variant>
AV-unprocessed.smi:3240-3

> <Gold.Version>
5.8.1

> <Gold.Id.Protein>
6NUR|6NUR_protein|mol2

> <Gold.PLP.Fitness>
45.7173

> <Gold.PLP.PLP>
-34.3885

> <Gold.PLP.part.hbond>
-3.7460

> <Gold.PLP.part.metal>
0.0000

> <Gold.PLP.part.buried>
1.2241

> <Gold.PLP.part.nonpolar>
-32.0996

> <Gold.PLP.part.repulsive>
0.1609

> <Gold.PLP.ligand.clash>
0.0000

> <Gold.PLP.ligand.torsion>
1.3098

> <Gold.PLP.Chemscore.Hbond>
2.8034

> <Gold.PLP.Chemscore.CHOScore>
1.8061

> <Gold.PLP.Chemscore.Metal>
0.0000

> <Gold.Chemscore.Hbonds>
donor molecule, donor type, donor heavy atom, donor atom, acceptor molecule, acceptor atom, score
      L1  H    12    32       P1  7957  0.94
      P1  H  7989  7998       L1    12  0.32
      P1  H  8011  8017       L1    12  0.04
      L1  C     3    22       P1 10186  0.08
      L1  C    18    43       P1  7948  0.51

> <Gold.PLP.Chemscore.Internal.Correction>
0.1197

> <Gold.Rescore>
     Score         DG    S(hbond)    S(metal)    S(lipo)     H(rot)  DE(clash)    DE(int)     intcor
     13.89     -16.23       1.89        0.00      82.61       2.04       1.12       1.22       ----

> <Gold.Chemscore.Fitness>
13.8891

> <Gold.Chemscore.DG>
-16.2321

> <Gold.Chemscore.ZeroCoef>
-5.4800

> <Gold.Chemscore.Hbond>
1.8924

> <Gold.Chemscore.Metal>
0.0000

> <Gold.Chemscore.Lipo>
82.6142

> <Gold.Chemscore.Internal_Hbond>
0.0000

> <Gold.Chemscore.DEClash>
1.1225

> <Gold.Chemscore.DEInternal>
1.2205

> <Gold.Chemscore.Rot>
2.0447

> <Gold.Chemscore.Internal.Correction>
   9.000000E+99

> <Gold.Chemscore.Hbonds>
donor molecule, donor type, donor heavy atom, donor atom, acceptor molecule, acceptor atom, score
      L1  H     9    29       P1  7957  0.02
      L1  H    12    32       P1  7957  0.91
      P1  H  7989  7998       L1    12  0.03

> <Gold.Chemscore.Hbond.Weighted>
-6.3206

> <Gold.Chemscore.Metal.Weighted>
-0.0000

> <Gold.Chemscore.Lipo.Weighted>
-9.6659

> <Gold.Chemscore.Internal_Hbond.Weighted>
0.0000

> <Gold.Chemscore.DEClash.Weighted>
1.1225

> <Gold.Chemscore.DEInternal.Weighted>
1.2205

> <Gold.Chemscore.Rot.Weighted>
5.2344

> <Gold.Chemscore.Internal.Correction.Weighted>
   9.000000E+99

> <Gold.Protein.RotatedTorsions>
[ 6907 6896 6895 6894 ] final -120.68 input  -60.11 | X-H torsion
[ 7974 7965 7964 7962 ] final -149.01 input  175.53 | X-H torsion
[ 8008 7997 7996 7995 ] final  110.03 input   59.86 | X-H torsion
[ 10167 10162 10161 10158 ] final  125.81 input  -65.29 | X-H torsion
[ 10718 10713 10712 10709 ] final -148.04 input   66.30 | X-H torsion
[ 10763 10752 10751 10750 ] final    7.60 input  -60.55 | X-H torsion
[ 11005 11000 10999 10996 ] final   49.33 input  -57.11 | X-H torsion

> <Gold.Protein.ActiveResidues>
 VAL166  LYS551  ARG553  GLY616  TRP617  ASP618  TYR619  PRO620  LYS621  CYS622 
 ASP623  PHE694  ASN695  SER759  ASP760  ASP761  ALA762  ILE779  LEU786  VAL792 
 PHE793  MET794  SER795  GLU796  ALA797  LYS798  CYS799  TRP800  GLU811  SER814 

> <Gold.Protein.RotatedAtoms>
  150.8415  133.7929  159.3059 H   0  0  0  0  0  0  0  0  0  0  0  0  # atno 6907 bound_to 6896
  151.5629  135.1063  159.9986 H   0  0  0  0  0  0  0  0  0  0  0  0  # atno 6908 bound_to 6896
  152.4477  133.7526  159.6759 H   0  0  0  0  0  0  0  0  0  0  0  0  # atno 6909 bound_to 6896
  144.7993  140.5121  143.5718 H   0  0  0  0  0  0  0  0  0  0  0  0  # atno 7974 bound_to 7965
  156.2023  140.3046  155.9553 H   0  0  0  0  0  0  0  0  0  0  0  0  # atno 8008 bound_to 7997
  155.2924  140.0442  157.3041 H   0  0  0  0  0  0  0  0  0  0  0  0  # atno 8009 bound_to 7997
  154.5587  140.2313  155.8378 H   0  0  0  0  0  0  0  0  0  0  0  0  # atno 8010 bound_to 7997
  139.5665  144.6914  151.3895 H   0  0  0  0  0  0  0  0  0  0  0  0  # atno 10167 bound_to 10162
  156.4152  130.8001  151.2221 H   0  0  0  0  0  0  0  0  0  0  0  0  # atno 10718 bound_to 10713
  153.2344  135.6896  153.7853 H   0  0  0  0  0  0  0  0  0  0  0  0  # atno 10763 bound_to 10752
  153.7005  135.3298  155.3224 H   0  0  0  0  0  0  0  0  0  0  0  0  # atno 10764 bound_to 10752
  154.8328  135.4567  154.1242 H   0  0  0  0  0  0  0  0  0  0  0  0  # atno 10765 bound_to 10752
  140.1113  134.4951  155.8675 H   0  0  0  0  0  0  0  0  0  0  0  0  # atno 11005 bound_to 11000
  145.5592  139.1479  143.3350 LP  0  0  0  0  0  0  0  0  0  0  0  0  # atno 17320 bound_to 7965
  146.2271  140.5729  142.8992 LP  0  0  0  0  0  0  0  0  0  0  0  0  # atno 17321 bound_to 7965
  140.6949  143.7773  150.7311 LP  0  0  0  0  0  0  0  0  0  0  0  0  # atno 17342 bound_to 10162
  140.1267  143.4563  152.2280 LP  0  0  0  0  0  0  0  0  0  0  0  0  # atno 17343 bound_to 10162
  157.7508  131.0245  150.3880 LP  0  0  0  0  0  0  0  0  0  0  0  0  # atno 17370 bound_to 10713
  156.4186  130.3948  149.6841 LP  0  0  0  0  0  0  0  0  0  0  0  0  # atno 17371 bound_to 10713
  141.2131  133.6728  156.6710 LP  0  0  0  0  0  0  0  0  0  0  0  0  # atno 17394 bound_to 11000
  140.3088  134.8103  157.4159 LP  0  0  0  0  0  0  0  0  0  0  0  0  # atno 17395 bound_to 11000

$$$$
