AV-unprocessed.smi:1643|AV-procd|sdf|6581|dock9
  -GOLD-   22720 7273D 1   1.00000     0.00000
 Structure written by MMmdl.
 55 57  0  0  0  0  0  0  0  0  3 V2000
  143.4439  138.9603  154.3183 C   0  0  0  0  0  0  0  0  0  0  0  0
  144.3783  137.7686  154.5480 C   0  0  0  0  0  0  0  0  0  0  0  0
  143.8953  136.6373  154.5001 O   0  0  0  0  0  0  0  0  0  0  0  0
  145.6932  137.9972  154.7870 N   0  0  0  0  0  0  0  0  0  0  0  0
  146.2163  139.3685  154.8886 C   0  0  0  0  0  0  0  0  0  0  0  0
  146.8884  139.8114  153.5767 C   0  0  0  0  0  0  0  0  0  0  0  0
  147.6281  138.6855  152.8229 C   0  0  0  0  0  0  0  0  0  0  0  0
  148.6547  137.9762  153.6345 N   0  3  1  0  0  0  0  0  0  0  0  0
  149.8762  138.7980  153.8517 C   0  0  0  0  0  0  0  0  0  0  0  0
  150.8516  138.1729  154.8691 C   0  0  1  0  0  0  0  0  0  0  0  0
  151.4759  137.0489  154.2791 O   0  0  0  0  0  0  0  0  0  0  0  0
  151.9326  139.1755  155.3189 C   0  0  0  0  0  0  0  0  0  0  0  0
  151.3659  140.4115  155.8742 N   0  0  0  0  0  0  0  0  0  0  0  0
  150.5491  141.3374  155.3013 C   0  0  0  0  0  0  0  0  0  0  0  0
  150.3120  142.3055  156.2294 N   0  3  0  0  0  0  0  0  0  0  0  0
  150.9839  141.9916  157.4128 C   0  0  0  0  0  0  0  0  0  0  0  0
  151.0514  142.6624  158.6279 C   0  0  0  0  0  0  0  0  0  0  0  0
  151.8322  142.0729  159.6478 C   0  0  0  0  0  0  0  0  0  0  0  0
  151.9288  142.7818  160.9879 C   0  0  0  0  0  0  0  0  0  0  0  0
  152.5127  140.8466  159.4303 C   0  0  0  0  0  0  0  0  0  0  0  0
  153.3501  140.2224  160.5339 C   0  0  0  0  0  0  0  0  0  0  0  0
  152.4300  140.1787  158.1874 C   0  0  0  0  0  0  0  0  0  0  0  0
  151.6590  140.7756  157.1930 C   0  0  0  0  0  0  0  0  0  0  0  0
  148.1704  137.2979  154.8776 C   0  0  0  0  0  0  0  0  0  0  0  0
  146.6716  136.8958  154.9106 C   0  0  0  0  0  0  0  0  0  0  0  0
  143.8361  139.6269  153.5497 H   0  0  0  0  0  0  0  0  0  0  0  0
  143.3034  139.5254  155.2400 H   0  0  0  0  0  0  0  0  0  0  0  0
  142.4629  138.6177  153.9862 H   0  0  0  0  0  0  0  0  0  0  0  0
  145.4382  140.0865  155.1522 H   0  0  0  0  0  0  0  0  0  0  0  0
  146.9139  139.4415  155.7212 H   0  0  0  0  0  0  0  0  0  0  0  0
  146.1219  140.2104  152.9113 H   0  0  0  0  0  0  0  0  0  0  0  0
  147.5651  140.6421  153.7786 H   0  0  0  0  0  0  0  0  0  0  0  0
  146.9152  137.9566  152.4362 H   0  0  0  0  0  0  0  0  0  0  0  0
  148.0997  139.1003  151.9313 H   0  0  0  0  0  0  0  0  0  0  0  0
  150.4015  138.9385  152.9057 H   0  0  0  0  0  0  0  0  0  0  0  0
  149.5775  139.7940  154.1825 H   0  0  0  0  0  0  0  0  0  0  0  0
  150.3084  137.8340  155.7506 H   0  0  0  0  0  0  0  0  0  0  0  0
  151.3745  137.1024  153.3407 H   0  0  0  0  0  0  0  0  0  0  0  0
  152.5694  138.7322  156.0861 H   0  0  0  0  0  0  0  0  0  0  0  0
  152.5882  139.4431  154.4890 H   0  0  0  0  0  0  0  0  0  0  0  0
  150.1629  141.3130  154.2925 H   0  0  0  0  0  0  0  0  0  0  0  0
  150.5306  143.5955  158.7869 H   0  0  0  0  0  0  0  0  0  0  0  0
  152.9638  143.0440  161.2082 H   0  0  0  0  0  0  0  0  0  0  0  0
  151.5537  142.1429  161.7879 H   0  0  0  0  0  0  0  0  0  0  0  0
  151.3439  143.7022  160.9950 H   0  0  0  0  0  0  0  0  0  0  0  0
  153.8176  139.2939  160.2046 H   0  0  0  0  0  0  0  0  0  0  0  0
  152.7311  139.9941  161.4019 H   0  0  0  0  0  0  0  0  0  0  0  0
  154.1441  140.9025  160.8433 H   0  0  0  0  0  0  0  0  0  0  0  0
  152.9463  139.2450  158.0216 H   0  0  0  0  0  0  0  0  0  0  0  0
  148.7606  136.3888  154.9956 H   0  0  0  0  0  0  0  0  0  0  0  0
  148.4113  137.8983  155.7550 H   0  0  0  0  0  0  0  0  0  0  0  0
  146.4764  136.3725  155.8475 H   0  0  0  0  0  0  0  0  0  0  0  0
  146.5090  136.1689  154.1136 H   0  0  0  0  0  0  0  0  0  0  0  0
  148.9540  137.2239  153.0301 H   0  0  0  0  0  0  0  0  0  0  0  0
  149.7343  143.1201  156.0643 H   0  0  0  0  0  0  0  0  0  0  0  0
  1  2  1  0  0  0  0
  1 26  1  0  0  0  0
  1 27  1  0  0  0  0
  1 28  1  0  0  0  0
  2  3  2  0  0  0  0
  2  4  1  0  0  0  0
  4 25  1  0  0  0  0
  4  5  1  0  0  0  0
  5  6  1  0  0  0  0
  5 29  1  0  0  0  0
  5 30  1  0  0  0  0
  6  7  1  0  0  0  0
  6 31  1  0  0  0  0
  6 32  1  0  0  0  0
  7  8  1  0  0  0  0
  7 33  1  0  0  0  0
  7 34  1  0  0  0  0
  8  9  1  0  0  0  0
  8 24  1  0  0  0  0
  8 54  1  0  0  0  0
  9 10  1  0  0  0  0
  9 35  1  0  0  0  0
  9 36  1  0  0  0  0
 10 11  1  0  0  0  0
 10 12  1  0  0  0  0
 10 37  1  0  0  0  0
 11 38  1  0  0  0  0
 12 13  1  0  0  0  0
 12 39  1  0  0  0  0
 12 40  1  0  0  0  0
 13 23  1  0  0  0  0
 13 14  1  0  0  0  0
 14 15  2  0  0  0  0
 14 41  1  0  0  0  0
 15 16  1  0  0  0  0
 15 55  1  0  0  0  0
 16 23  2  0  0  0  0
 16 17  1  0  0  0  0
 17 18  2  0  0  0  0
 17 42  1  0  0  0  0
 18 19  1  0  0  0  0
 18 20  1  0  0  0  0
 19 43  1  0  0  0  0
 19 44  1  0  0  0  0
 19 45  1  0  0  0  0
 20 21  1  0  0  0  0
 20 22  2  0  0  0  0
 21 46  1  0  0  0  0
 21 47  1  0  0  0  0
 21 48  1  0  0  0  0
 22 23  1  0  0  0  0
 22 49  1  0  0  0  0
 24 25  1  0  0  0  0
 24 50  1  0  0  0  0
 24 51  1  0  0  0  0
 25 52  1  0  0  0  0
 25 53  1  0  0  0  0
M  CHG  1   8   1
M  CHG  1  15   1
M  END
> <s_m_source_file>
AV-unprocessed.smi

> <i_m_source_file_index>
1643

> <i_lp_mmshare_version>
43012

> <i_f3d_flags>
0

> <s_epik_input>
W0NIM11DKD1PKU4xW0NIMl1bQ0gyXVtDSDJdTihbQ0gyXVtDSDJdMSlbQ0gyXVtDQEhdKFtPSF0pW0NIMl1uKFtjSF1uMiljKGMyMylbY0hdYyhbQ0gzXSljKFtjSF0zKVtDSDNd

> <s_epik_cmdline>
J2VwaWtfcHl0aG9uJywgJy1waCcsICc3LjAnLCAnLXRuJywgJzgnLCAnLW1hJywgJzIwMCcsICctbWV0YWxfYmluZGluZycsICctaW1hZScsICc8aW5maWxlLm1hZT4nLCAnLW9tYWUnLCAnPG91dGZpbGUubWFlPic=

> <r_epik_Ionization_Penalty>
1.2865

> <r_epik_Ionization_Penalty_Charging>
1.2865

> <r_epik_Ionization_Penalty_Neutral>
2.89706e-06

> <r_epik_State_Penalty>
1.3566

> <r_epik_Charging_Adjusted_Penalty>
2.6431

> <i_epik_Tot_Q>
2

> <i_epik_Tot_abs_Q>
2

> <r_epik_Metal_State_Penalty>
5.37339

> <b_epik_Metal_Only>
0

> <s_lp_Force_Field>
OPLS_2005

> <r_lp_Energy>
56.7844

> <b_lp_Chiralities_Consistent>
1

> <s_lp_Variant>
AV-unprocessed.smi:1643-10

> <Gold.Version>
5.8.1

> <Gold.Id.Protein>
6NUR|6NUR_protein|mol2

> <Gold.PLP.Fitness>
53.9115

> <Gold.PLP.PLP>
-37.8433

> <Gold.PLP.part.hbond>
-4.0000

> <Gold.PLP.part.metal>
0.0000

> <Gold.PLP.part.buried>
-2.3269

> <Gold.PLP.part.nonpolar>
-31.2516

> <Gold.PLP.part.repulsive>
0.0821

> <Gold.PLP.ligand.clash>
0.0000

> <Gold.PLP.ligand.torsion>
0.2420

> <Gold.PLP.Chemscore.Hbond>
5.4879

> <Gold.PLP.Chemscore.CHOScore>
0.0000

> <Gold.PLP.Chemscore.Metal>
0.0000

> <Gold.Chemscore.Hbonds>
donor molecule, donor type, donor heavy atom, donor atom, acceptor molecule, acceptor atom, score
      L1  H     8    54       P1  7948  1.92
      L1  H    11    38       P1  7949  0.59
      L1  H    15    55       P1  8028  2.00
      P1  H 10752 10764       L1    11  0.80

> <Gold.PLP.Chemscore.Internal.Correction>
0.0884

> <Gold.Rescore>
     Score         DG    S(hbond)    S(metal)    S(lipo)     H(rot)  DE(clash)    DE(int)     intcor
     19.61     -21.72       2.96        0.00     101.91       2.17       0.85       1.26       ----

> <Gold.Chemscore.Fitness>
19.6084

> <Gold.Chemscore.DG>
-21.7200

> <Gold.Chemscore.ZeroCoef>
-5.4800

> <Gold.Chemscore.Hbond>
2.9589

> <Gold.Chemscore.Metal>
0.0000

> <Gold.Chemscore.Lipo>
101.9124

> <Gold.Chemscore.Internal_Hbond>
0.0000

> <Gold.Chemscore.DEClash>
0.8518

> <Gold.Chemscore.DEInternal>
1.2598

> <Gold.Chemscore.Rot>
2.1744

> <Gold.Chemscore.Internal.Correction>
   9.000000E+99

> <Gold.Chemscore.Hbonds>
donor molecule, donor type, donor heavy atom, donor atom, acceptor molecule, acceptor atom, score
      L1  H     8    54       P1  7948  0.91
      L1  H    11    38       P1  7949  0.45
      L1  H    15    55       P1  8028  1.00
      P1  H 10752 10764       L1    11  0.11

> <Gold.Chemscore.Hbond.Weighted>
-9.8829

> <Gold.Chemscore.Metal.Weighted>
-0.0000

> <Gold.Chemscore.Lipo.Weighted>
-11.9238

> <Gold.Chemscore.Internal_Hbond.Weighted>
0.0000

> <Gold.Chemscore.DEClash.Weighted>
0.8518

> <Gold.Chemscore.DEInternal.Weighted>
1.2598

> <Gold.Chemscore.Rot.Weighted>
5.5666

> <Gold.Chemscore.Internal.Correction.Weighted>
   9.000000E+99

> <Gold.Protein.RotatedTorsions>
[ 6907 6896 6895 6894 ] final  177.75 input  -60.11 | X-H torsion
[ 7974 7965 7964 7962 ] final -112.92 input  175.53 | X-H torsion
[ 8008 7997 7996 7995 ] final   10.56 input   59.86 | X-H torsion
[ 10167 10162 10161 10158 ] final   58.91 input  -65.29 | X-H torsion
[ 10718 10713 10712 10709 ] final  148.60 input   66.30 | X-H torsion
[ 10763 10752 10751 10750 ] final  -79.80 input  -60.55 | X-H torsion
[ 11005 11000 10999 10996 ] final -167.91 input  -57.11 | X-H torsion

> <Gold.Protein.ActiveResidues>
 VAL166  LYS551  ARG553  GLY616  TRP617  ASP618  TYR619  PRO620  LYS621  CYS622 
 ASP623  PHE694  ASN695  SER759  ASP760  ASP761  ALA762  ILE779  LEU786  VAL792 
 PHE793  MET794  SER795  GLU796  ALA797  LYS798  CYS799  TRP800  GLU811  SER814 

> <Gold.Protein.RotatedAtoms>
  151.6990  133.3311  159.3261 H   0  0  0  0  0  0  0  0  0  0  0  0  # atno 6907 bound_to 6896
  150.7744  134.6632  159.6360 H   0  0  0  0  0  0  0  0  0  0  0  0  # atno 6908 bound_to 6896
  152.3781  134.6635  160.0204 H   0  0  0  0  0  0  0  0  0  0  0  0  # atno 6909 bound_to 6896
  145.1382  140.8763  143.3718 H   0  0  0  0  0  0  0  0  0  0  0  0  # atno 7974 bound_to 7965
  154.7950  140.2842  155.5963 H   0  0  0  0  0  0  0  0  0  0  0  0  # atno 8008 bound_to 7997
  156.2969  140.2597  156.2735 H   0  0  0  0  0  0  0  0  0  0  0  0  # atno 8009 bound_to 7997
  154.9625  140.0377  157.2186 H   0  0  0  0  0  0  0  0  0  0  0  0  # atno 8010 bound_to 7997
  140.1821  144.4171  150.6610 H   0  0  0  0  0  0  0  0  0  0  0  0  # atno 10167 bound_to 10162
  157.3066  131.0880  151.1349 H   0  0  0  0  0  0  0  0  0  0  0  0  # atno 10718 bound_to 10713
  154.5432  135.5683  153.6857 H   0  0  0  0  0  0  0  0  0  0  0  0  # atno 10763 bound_to 10752
  152.9969  135.6233  154.2474 H   0  0  0  0  0  0  0  0  0  0  0  0  # atno 10764 bound_to 10752
  154.2405  135.2862  155.2835 H   0  0  0  0  0  0  0  0  0  0  0  0  # atno 10765 bound_to 10752
  140.5479  134.5458  157.5115 H   0  0  0  0  0  0  0  0  0  0  0  0  # atno 11005 bound_to 11000
  145.0561  139.3142  143.5904 LP  0  0  0  0  0  0  0  0  0  0  0  0  # atno 17320 bound_to 7965
  146.3508  139.9987  142.8678 LP  0  0  0  0  0  0  0  0  0  0  0  0  # atno 17321 bound_to 7965
  140.6512  143.2225  151.6072 LP  0  0  0  0  0  0  0  0  0  0  0  0  # atno 17342 bound_to 10162
  139.5291  144.2968  152.1106 LP  0  0  0  0  0  0  0  0  0  0  0  0  # atno 17343 bound_to 10162
  157.2687  130.6694  149.6009 LP  0  0  0  0  0  0  0  0  0  0  0  0  # atno 17370 bound_to 10713
  155.9675  130.4486  150.5624 LP  0  0  0  0  0  0  0  0  0  0  0  0  # atno 17371 bound_to 10713
  139.9470  134.7684  156.0538 LP  0  0  0  0  0  0  0  0  0  0  0  0  # atno 17394 bound_to 11000
  141.1189  133.6619  156.3164 LP  0  0  0  0  0  0  0  0  0  0  0  0  # atno 17395 bound_to 11000

$$$$
