#       Name:                AV-unprocessed.smi:422
#       Creating user name   scv26
#       Creation time:       Thu Mar 26 22:49:38 2020


#       File generated by GOLD software.
#

@<TRIPOS>MOLECULE
AV-unprocessed.smi:422
    49    51     1
SMALL
NO_CHARGES


@<TRIPOS>ATOM
      1 ****        -5.0940  -0.2187   2.0487 C.3            1 S1                 0.0000
      2 ****        -3.6845  -0.0240   1.7313 N.am           1 S1                 0.0000
      3 ****        -2.6292  -0.2251   2.5550 C.2            1 S1                 0.0000
      4 ****        -2.6824  -0.6171   3.7206 O.2            1 S1                 0.0000
      5 ****        -1.5002   0.0627   1.8663 N.am           1 S1                 0.0000
      6 ****        -0.1310  -0.0405   2.3631 C.3            1 S1                 0.0000
      7 ****         0.4554  -1.4466   2.1097 C.3            1 S1                 0.0000
      8 ****         0.3910  -2.1906   3.3091 O.3            1 S1                 0.0000
      9 ****         1.9273  -1.3934   1.6744 C.3            1 S1                 0.0000
     10 ****         1.9852  -0.8264   0.3764 O.3            1 S1                 0.0000
     11 ****         3.3061  -0.6658  -0.1086 C.3            1 S1                 0.0000
     12 ****         3.3082  -0.0050  -1.4731 C.ar           1 S1                 0.0000
     13 ****         3.7771  -0.7083  -2.6030 C.ar           1 S1                 0.0000
     14 ****         3.7731  -0.0945  -3.8709 C.ar           1 S1                 0.0000
     15 ****         3.3026   1.2250  -4.0137 C.ar           1 S1                 0.0000
     16 ****         2.8380   1.9316  -2.8878 C.ar           1 S1                 0.0000
     17 ****         2.8420   1.3199  -1.6190 C.ar           1 S1                 0.0000
     18 ****         2.3958   2.0100  -0.5419 F              1 S1                 0.0000
     19 ****        -1.8407   0.4302   0.5563 C.ar           1 S1                 0.0000
     20 ****        -1.0422   0.7900  -0.5434 C.ar           1 S1                 0.0000
     21 ****        -1.7081   1.1042  -1.7509 C.ar           1 S1                 0.0000
     22 ****        -3.1241   1.0529  -1.8347 C.ar           1 S1                 0.0000
     23 ****        -3.9039   0.6847  -0.7130 C.ar           1 S1                 0.0000
     24 ****        -3.2160   0.3776   0.4735 C.ar           1 S1                 0.0000
     25 ****        -5.2571  -0.3532   3.1190 H              1 S1                 0.0000
     26 ****        -5.4758  -1.1003   1.5333 H              1 S1                 0.0000
     27 ****        -5.6779   0.6447   1.7287 H              1 S1                 0.0000
     28 ****         0.4641   0.7170   1.8517 H              1 S1                 0.0000
     29 ****        -0.0822   0.2293   3.4197 H              1 S1                 0.0000
     30 ****        -0.1159  -1.9782   1.3470 H              1 S1                 0.0000
     31 ****        -0.5118  -2.2350   3.5859 H              1 S1                 0.0000
     32 ****         2.5150  -0.8056   2.3816 H              1 S1                 0.0000
     33 ****         2.3525  -2.3981   1.6457 H              1 S1                 0.0000
     34 ****         3.8842  -0.0450   0.5775 H              1 S1                 0.0000
     35 ****         3.8020  -1.6361  -0.1617 H              1 S1                 0.0000
     36 ****         4.1385  -1.7213  -2.5030 H              1 S1                 0.0000
     37 ****         4.1308  -0.6365  -4.7340 H              1 S1                 0.0000
     38 ****         3.2993   1.6954  -4.9858 H              1 S1                 0.0000
     39 ****         2.4788   2.9442  -2.9972 H              1 S1                 0.0000
     40 ****         0.0343   0.8247  -0.4763 H              1 S1                 0.0000
     41 ****        -1.1310   1.3854  -2.6196 H              1 S1                 0.0000
     42 ****        -3.6123   1.2959  -2.7667 H              1 S1                 0.0000
     43 ****        -4.9814   0.6399  -0.7699 H              1 S1                 0.0000
     44 ****        -3.5673  -0.8185   4.1405 LP             1 S1                 0.0000
     45 ****        -1.8407  -0.7342   4.2476 LP             1 S1                 0.0000
     46 ****         0.9386  -1.7411   4.0148 LP             1 S1                 0.0000
     47 ****         0.7418  -3.1139   3.1527 LP             1 S1                 0.0000
     48 ****         1.5458   0.0715   0.4028 LP             1 S1                 0.0000
     49 ****         1.4869  -1.4230  -0.2527 LP             1 S1                 0.0000
@<TRIPOS>BOND
    1    1    2 1     
    2    1   25 1     
    3    1   26 1     
    4    1   27 1     
    5    2   24 1     
    6    2    3 am    
    7    3    4 2     
    8    3    5 am    
    9    5    6 1     
   10    5   19 1     
   11    6    7 1     
   12    6   28 1     
   13    6   29 1     
   14    7    8 1     
   15    7    9 1     
   16    7   30 1     
   17    8   31 1     
   18    9   10 1     
   19    9   32 1     
   20    9   33 1     
   21   10   11 1     
   22   11   12 1     
   23   11   34 1     
   24   11   35 1     
   25   12   17 ar    
   26   12   13 ar    
   27   13   14 ar    
   28   13   36 1     
   29   14   15 ar    
   30   14   37 1     
   31   15   16 ar    
   32   15   38 1     
   33   16   17 ar    
   34   16   39 1     
   35   17   18 1     
   36   19   24 ar    
   37   19   20 ar    
   38   20   21 ar    
   39   20   40 1     
   40   21   22 ar    
   41   21   41 1     
   42   22   23 ar    
   43   22   42 1     
   44   23   24 ar    
   45   23   43 1     
   46    4   44 1     
   47    4   45 1     
   48    8   46 1     
   49    8   47 1     
   50   10   48 1     
   51   10   49 1     
@<TRIPOS>SUBSTRUCTURE
      1 S1             1
@<TRIPOS>SET
LONE_PAIRS      STATIC     ATOMS    <user>   **** ""
6 44 45 46 47 48 49
DONOR_HYDROGENS      STATIC     ATOMS    <user>   **** ""
1 31
ATOM$BLUE        STATIC     ATOMS    COLORGROUP SYSTEM
6 44 45 46 47 48 49
ATOM$RED        STATIC     ATOMS    COLORGROUP SYSTEM
1 31
