AV-unprocessed.smi:2318|AV-procd|sdf|9275|dock10
  -GOLD-   2272012503D 1   1.00000     0.00000
 Structure written by MMmdl.
 37 38  0  0  0  0  0  0  0  0  1 V2000
  149.0059  130.1954  153.8136 C   0  0  0  0  0  0  0  0  0  0  0  0
  149.4707  131.4532  154.3574 N   0  0  0  0  0  0  0  0  0  0  0  0
  150.2694  131.6712  155.4619 C   0  0  0  0  0  0  0  0  0  0  0  0
  150.4398  133.0212  155.5836 C   0  0  0  0  0  0  0  0  0  0  0  0
  149.6948  133.5449  154.4912 C   0  0  0  0  0  0  0  0  0  0  0  0
  149.6228  134.9443  154.2710 N   0  0  0  0  0  0  0  0  0  0  0  0
  149.9215  135.9285  155.1363 C   0  0  0  0  0  0  0  0  0  0  0  0
  150.3120  135.7615  156.2919 O   0  0  0  0  0  0  0  0  0  0  0  0
  149.7363  137.1339  154.5787 N   0  0  0  0  0  0  0  0  0  0  0  0
  149.9714  138.4277  155.2233 C   0  0  2  0  0  0  0  0  0  0  0  0
  149.2666  139.5401  154.4056 C   0  0  0  0  0  0  0  0  0  0  0  0
  148.9958  140.8412  155.1685 C   0  0  0  0  0  0  0  0  0  0  0  0
  147.9342  141.5687  154.3400 C   0  0  0  0  0  0  0  0  0  0  0  0
  147.1483  140.4758  153.6035 C   0  0  0  0  0  0  0  0  0  0  0  0
  147.8691  139.1543  153.8977 C   0  0  0  0  0  0  0  0  0  0  0  0
  151.4949  138.6339  155.3855 C   0  0  0  0  0  0  0  0  0  0  0  0
  151.9696  137.7927  156.3053 F   0  0  0  0  0  0  0  0  0  0  0  0
  152.1249  138.4049  154.2326 F   0  0  0  0  0  0  0  0  0  0  0  0
  151.7704  139.8729  155.7904 F   0  0  0  0  0  0  0  0  0  0  0  0
  149.1142  132.6071  153.7550 N   0  0  0  0  0  0  0  0  0  0  0  0
  149.3686  129.3670  154.4226 H   0  0  0  0  0  0  0  0  0  0  0  0
  149.3750  130.0751  152.7947 H   0  0  0  0  0  0  0  0  0  0  0  0
  147.9156  130.1776  153.8045 H   0  0  0  0  0  0  0  0  0  0  0  0
  150.6461  130.8565  156.0631 H   0  0  0  0  0  0  0  0  0  0  0  0
  151.0070  133.5486  156.3362 H   0  0  0  0  0  0  0  0  0  0  0  0
  149.3124  135.2265  153.3531 H   0  0  0  0  0  0  0  0  0  0  0  0
  149.4149  137.1646  153.6223 H   0  0  0  0  0  0  0  0  0  0  0  0
  149.5361  138.4231  156.2243 H   0  0  0  0  0  0  0  0  0  0  0  0
  149.8811  139.7832  153.5371 H   0  0  0  0  0  0  0  0  0  0  0  0
  148.5965  140.6166  156.1587 H   0  0  0  0  0  0  0  0  0  0  0  0
  149.8909  141.4495  155.2987 H   0  0  0  0  0  0  0  0  0  0  0  0
  147.2917  142.1932  154.9614 H   0  0  0  0  0  0  0  0  0  0  0  0
  148.4189  142.2215  153.6127 H   0  0  0  0  0  0  0  0  0  0  0  0
  146.1104  140.4343  153.9360 H   0  0  0  0  0  0  0  0  0  0  0  0
  147.1386  140.6796  152.5321 H   0  0  0  0  0  0  0  0  0  0  0  0
  147.9074  138.5045  153.0228 H   0  0  0  0  0  0  0  0  0  0  0  0
  147.3281  138.6171  154.6786 H   0  0  0  0  0  0  0  0  0  0  0  0
  1  2  1  0  0  0  0
  1 21  1  0  0  0  0
  1 22  1  0  0  0  0
  1 23  1  0  0  0  0
  2 20  1  0  0  0  0
  2  3  1  0  0  0  0
  3  4  2  0  0  0  0
  3 24  1  0  0  0  0
  4  5  1  0  0  0  0
  4 25  1  0  0  0  0
  5  6  1  0  0  0  0
  5 20  2  0  0  0  0
  6  7  1  0  0  0  0
  6 26  1  0  0  0  0
  7  8  2  0  0  0  0
  7  9  1  0  0  0  0
  9 10  1  0  0  0  0
  9 27  1  0  0  0  0
 10 11  1  0  0  0  0
 10 16  1  0  0  0  0
 10 28  1  0  0  0  0
 11 15  1  0  0  0  0
 11 12  1  0  0  0  0
 11 29  1  0  0  0  0
 12 13  1  0  0  0  0
 12 30  1  0  0  0  0
 12 31  1  0  0  0  0
 13 14  1  0  0  0  0
 13 32  1  0  0  0  0
 13 33  1  0  0  0  0
 14 15  1  0  0  0  0
 14 34  1  0  0  0  0
 14 35  1  0  0  0  0
 15 36  1  0  0  0  0
 15 37  1  0  0  0  0
 16 17  1  0  0  0  0
 16 18  1  0  0  0  0
 16 19  1  0  0  0  0
M  END
> <s_m_source_file>
AV-unprocessed.smi

> <i_m_source_file_index>
2318

> <i_lp_mmshare_version>
43012

> <i_f3d_flags>
0

> <s_epik_input>
W0NIM11uMVtjSF1bY0hdYyhuMSlbTkhdQyg9TylbTkhdW0NAQEhdKEMoRikoRilGKVtDSF0yW0NIMl1bQ0gyXVtDSDJdW0NIMl0y

> <s_epik_cmdline>
J2VwaWtfcHl0aG9uJywgJy1waCcsICc3LjAnLCAnLXRuJywgJzgnLCAnLW1hJywgJzIwMCcsICctbWV0YWxfYmluZGluZycsICctaW1hZScsICc8aW5maWxlLm1hZT4nLCAnLW9tYWUnLCAnPG91dGZpbGUubWFlPic=

> <r_lp_tautomer_probability>
1

> <r_epik_Ionization_Penalty>
2.39546e-05

> <r_epik_Ionization_Penalty_Charging>
0

> <r_epik_Ionization_Penalty_Neutral>
2.39546e-05

> <r_epik_State_Penalty>
-0

> <r_epik_Charging_Adjusted_Penalty>
0

> <i_epik_Tot_Q>
0

> <i_epik_Tot_abs_Q>
0

> <r_epik_Metal_State_Penalty>
-0

> <b_epik_Metal_Only>
0

> <s_lp_Force_Field>
OPLS_2005

> <r_lp_Energy>
23.9909

> <b_lp_Chiralities_Consistent>
1

> <s_lp_Variant>
AV-unprocessed.smi:2318-1

> <Gold.Version>
5.8.1

> <Gold.Id.Protein>
6NUR|6NUR_protein|mol2

> <Gold.PLP.Fitness>
41.0592

> <Gold.PLP.PLP>
-36.5370

> <Gold.PLP.part.hbond>
-2.0049

> <Gold.PLP.part.metal>
0.0000

> <Gold.PLP.part.buried>
-2.7052

> <Gold.PLP.part.nonpolar>
-31.2276

> <Gold.PLP.part.repulsive>
0.2087

> <Gold.PLP.ligand.clash>
0.0000

> <Gold.PLP.ligand.torsion>
0.7214

> <Gold.PLP.Chemscore.Hbond>
1.9000

> <Gold.PLP.Chemscore.CHOScore>
0.0000

> <Gold.PLP.Chemscore.Metal>
0.0000

> <Gold.Chemscore.Hbonds>
donor molecule, donor type, donor heavy atom, donor atom, acceptor molecule, acceptor atom, score
      L1  H     6    26       P1  7948  0.80
      L1  H     9    27       P1  7948  1.00

> <Gold.PLP.Chemscore.Internal.Correction>
0.2650

> <Gold.Rescore>
     Score         DG    S(hbond)    S(metal)    S(lipo)     H(rot)  DE(clash)    DE(int)     intcor
     10.06     -14.49       1.59        0.00      60.08       1.30       0.47       3.96       ----

> <Gold.Chemscore.Fitness>
10.0572

> <Gold.Chemscore.DG>
-14.4857

> <Gold.Chemscore.ZeroCoef>
-5.4800

> <Gold.Chemscore.Hbond>
1.5885

> <Gold.Chemscore.Metal>
0.0000

> <Gold.Chemscore.Lipo>
60.0758

> <Gold.Chemscore.Internal_Hbond>
0.0000

> <Gold.Chemscore.DEClash>
0.4705

> <Gold.Chemscore.DEInternal>
3.9580

> <Gold.Chemscore.Rot>
1.3003

> <Gold.Chemscore.Internal.Correction>
   9.000000E+99

> <Gold.Chemscore.Hbonds>
donor molecule, donor type, donor heavy atom, donor atom, acceptor molecule, acceptor atom, score
      L1  H     6    26       P1  7948  0.12
      L1  H     9    27       P1  7948  0.85

> <Gold.Chemscore.Hbond.Weighted>
-5.3055

> <Gold.Chemscore.Metal.Weighted>
-0.0000

> <Gold.Chemscore.Lipo.Weighted>
-7.0289

> <Gold.Chemscore.Internal_Hbond.Weighted>
0.0000

> <Gold.Chemscore.DEClash.Weighted>
0.4705

> <Gold.Chemscore.DEInternal.Weighted>
3.9580

> <Gold.Chemscore.Rot.Weighted>
3.3287

> <Gold.Chemscore.Internal.Correction.Weighted>
   9.000000E+99

> <Gold.Protein.RotatedTorsions>
[ 6907 6896 6895 6894 ] final -158.07 input  -60.11 | X-H torsion
[ 7974 7965 7964 7962 ] final  -25.12 input  175.53 | X-H torsion
[ 8008 7997 7996 7995 ] final  -79.19 input   59.86 | X-H torsion
[ 10167 10162 10161 10158 ] final  -50.25 input  -65.29 | X-H torsion
[ 10718 10713 10712 10709 ] final   86.21 input   66.30 | X-H torsion
[ 10763 10752 10751 10750 ] final -131.53 input  -60.55 | X-H torsion
[ 11005 11000 10999 10996 ] final  157.91 input  -57.11 | X-H torsion

> <Gold.Protein.ActiveResidues>
 VAL166  LYS551  ARG553  GLY616  TRP617  ASP618  TYR619  PRO620  LYS621  CYS622 
 ASP623  PHE694  ASN695  SER759  ASP760  ASP761  ALA762  ILE779  LEU786  VAL792 
 PHE793  MET794  SER795  GLU796  ALA797  LYS798  CYS799  TRP800  GLU811  SER814 

> <Gold.Protein.RotatedAtoms>
  151.3125  133.4074  159.2647 H   0  0  0  0  0  0  0  0  0  0  0  0  # atno 6907 bound_to 6896
  151.0102  134.9391  159.8013 H   0  0  0  0  0  0  0  0  0  0  0  0  # atno 6908 bound_to 6896
  152.5298  134.3090  159.9159 H   0  0  0  0  0  0  0  0  0  0  0  0  # atno 6909 bound_to 6896
  146.1511  140.4843  142.8611 H   0  0  0  0  0  0  0  0  0  0  0  0  # atno 7974 bound_to 7965
  154.5761  140.0682  156.9037 H   0  0  0  0  0  0  0  0  0  0  0  0  # atno 8008 bound_to 7997
  155.2546  140.3354  155.4260 H   0  0  0  0  0  0  0  0  0  0  0  0  # atno 8009 bound_to 7997
  156.2155  140.1777  156.7583 H   0  0  0  0  0  0  0  0  0  0  0  0  # atno 8010 bound_to 7997
  140.6646  143.2665  151.4332 H   0  0  0  0  0  0  0  0  0  0  0  0  # atno 10167 bound_to 10162
  157.6925  131.0206  150.2938 H   0  0  0  0  0  0  0  0  0  0  0  0  # atno 10718 bound_to 10713
  154.8750  135.3827  154.4262 H   0  0  0  0  0  0  0  0  0  0  0  0  # atno 10763 bound_to 10752
  153.4960  135.7030  153.5863 H   0  0  0  0  0  0  0  0  0  0  0  0  # atno 10764 bound_to 10752
  153.4215  135.3900  155.2081 H   0  0  0  0  0  0  0  0  0  0  0  0  # atno 10765 bound_to 10752
  140.1815  134.8472  157.2808 H   0  0  0  0  0  0  0  0  0  0  0  0  # atno 11005 bound_to 11000
  144.7906  140.6023  143.6544 LP  0  0  0  0  0  0  0  0  0  0  0  0  # atno 17320 bound_to 7965
  145.4820  139.1494  143.3757 LP  0  0  0  0  0  0  0  0  0  0  0  0  # atno 17321 bound_to 7965
  139.5891  144.1538  152.2066 LP  0  0  0  0  0  0  0  0  0  0  0  0  # atno 17342 bound_to 10162
  140.0887  144.5639  150.7070 LP  0  0  0  0  0  0  0  0  0  0  0  0  # atno 17343 bound_to 10162
  156.3465  130.3824  149.7365 LP  0  0  0  0  0  0  0  0  0  0  0  0  # atno 17370 bound_to 10713
  156.4857  130.8062  151.3074 LP  0  0  0  0  0  0  0  0  0  0  0  0  # atno 17371 bound_to 10713
  140.2262  134.3964  155.7542 LP  0  0  0  0  0  0  0  0  0  0  0  0  # atno 17394 bound_to 11000
  141.2223  133.7191  156.8569 LP  0  0  0  0  0  0  0  0  0  0  0  0  # atno 17395 bound_to 11000

$$$$
