AV-unprocessed.smi:3315|AV-procd|sdf|12752|dock8
  -GOLD-   2272019 93D 1   1.00000     0.00000
 Structure written by MMmdl.
 37 38  0  0  0  0  0  0  0  0  1 V2000
  150.2989  141.4749  155.3280 C   0  0  0  0  0  0  0  0  0  0  0  0
  150.7455  140.4198  154.4859 O   0  0  0  0  0  0  0  0  0  0  0  0
  151.2143  139.2404  155.1420 C   0  0  2  0  0  0  0  0  0  0  0  0
  152.2431  139.6142  156.2207 C   0  0  0  0  0  0  0  0  0  0  0  0
  151.5861  138.1281  154.1444 C   0  0  0  0  0  0  0  0  0  0  0  0
  150.8606  137.1655  155.0820 C   0  0  2  0  0  0  0  0  0  0  0  0
  150.1422  136.1163  154.3663 N   0  0  0  0  0  0  0  0  0  0  0  0
  149.9789  134.8661  154.8198 C   0  0  0  0  0  0  0  0  0  0  0  0
  150.4281  134.4699  155.8956 O   0  0  0  0  0  0  0  0  0  0  0  0
  149.2676  134.1225  153.9552 N   0  0  0  0  0  0  0  0  0  0  0  0
  148.8974  132.7598  154.0878 C   0  0  0  0  0  0  0  0  0  0  0  0
  147.9073  132.1884  153.2446 C   0  0  0  0  0  0  0  0  0  0  0  0
  147.8459  130.8959  153.6822 C   0  0  0  0  0  0  0  0  0  0  0  0
  148.7205  130.6918  154.7029 O   0  0  0  0  0  0  0  0  0  0  0  0
  149.3925  131.8932  154.9589 N   0  0  0  0  0  0  0  0  0  0  0  0
  149.9853  138.3596  155.5414 C   0  0  0  0  0  0  0  0  0  0  0  0
  149.5842  138.3610  157.0200 C   0  0  0  0  0  0  0  0  0  0  0  0
  148.6843  138.6120  154.7528 C   0  0  0  0  0  0  0  0  0  0  0  0
  150.0649  142.3446  154.7144 H   0  0  0  0  0  0  0  0  0  0  0  0
  151.0608  141.7750  156.0477 H   0  0  0  0  0  0  0  0  0  0  0  0
  149.3912  141.2081  155.8686 H   0  0  0  0  0  0  0  0  0  0  0  0
  152.5185  138.7566  156.8342 H   0  0  0  0  0  0  0  0  0  0  0  0
  151.8543  140.3824  156.8895 H   0  0  0  0  0  0  0  0  0  0  0  0
  153.1697  139.9896  155.7873 H   0  0  0  0  0  0  0  0  0  0  0  0
  151.1078  138.2356  153.1691 H   0  0  0  0  0  0  0  0  0  0  0  0
  152.6556  137.9411  154.0450 H   0  0  0  0  0  0  0  0  0  0  0  0
  151.5211  136.7919  155.8680 H   0  0  0  0  0  0  0  0  0  0  0  0
  149.7412  136.3619  153.4730 H   0  0  0  0  0  0  0  0  0  0  0  0
  148.9600  134.5798  153.1099 H   0  0  0  0  0  0  0  0  0  0  0  0
  147.3364  132.6463  152.4506 H   0  0  0  0  0  0  0  0  0  0  0  0
  147.2591  130.0397  153.3838 H   0  0  0  0  0  0  0  0  0  0  0  0
  148.7758  137.6558  157.2162 H   0  0  0  0  0  0  0  0  0  0  0  0
  149.2462  139.3469  157.3399 H   0  0  0  0  0  0  0  0  0  0  0  0
  150.4112  138.0736  157.6687 H   0  0  0  0  0  0  0  0  0  0  0  0
  147.9405  137.8377  154.9434 H   0  0  0  0  0  0  0  0  0  0  0  0
  148.8508  138.6362  153.6757 H   0  0  0  0  0  0  0  0  0  0  0  0
  148.2325  139.5660  155.0264 H   0  0  0  0  0  0  0  0  0  0  0  0
  1  2  1  0  0  0  0
  1 19  1  0  0  0  0
  1 20  1  0  0  0  0
  1 21  1  0  0  0  0
  2  3  1  0  0  0  0
  3 16  1  0  0  0  0
  3  4  1  0  0  0  0
  3  5  1  0  0  0  0
  4 22  1  0  0  0  0
  4 23  1  0  0  0  0
  4 24  1  0  0  0  0
  5  6  1  0  0  0  0
  5 25  1  0  0  0  0
  5 26  1  0  0  0  0
  6  7  1  0  0  0  0
  6 16  1  0  0  0  0
  6 27  1  0  0  0  0
  7  8  1  0  0  0  0
  7 28  1  0  0  0  0
  8  9  2  0  0  0  0
  8 10  1  0  0  0  0
 10 11  1  0  0  0  0
 10 29  1  0  0  0  0
 11 15  2  0  0  0  0
 11 12  1  0  0  0  0
 12 13  2  0  0  0  0
 12 30  1  0  0  0  0
 13 14  1  0  0  0  0
 13 31  1  0  0  0  0
 14 15  1  0  0  0  0
 16 17  1  0  0  0  0
 16 18  1  0  0  0  0
 17 32  1  0  0  0  0
 17 33  1  0  0  0  0
 17 34  1  0  0  0  0
 18 35  1  0  0  0  0
 18 36  1  0  0  0  0
 18 37  1  0  0  0  0
M  END
> <s_m_source_file>
AV-unprocessed.smi

> <i_m_source_file_index>
3315

> <i_lp_mmshare_version>
43012

> <i_f3d_flags>
0

> <s_epik_input>
W0NIM11PW0NAQF0xKFtDSDNdKVtDSDJdW0NASF0oQzEoW0NIM10pW0NIM10pW05IXUMoPU8pW05IXWMyW2NIXVtjSF1vbjI=

> <s_epik_cmdline>
J2VwaWtfcHl0aG9uJywgJy1waCcsICc3LjAnLCAnLXRuJywgJzgnLCAnLW1hJywgJzIwMCcsICctbWV0YWxfYmluZGluZycsICctaW1hZScsICc8aW5maWxlLm1hZT4nLCAnLW9tYWUnLCAnPG91dGZpbGUubWFlPic=

> <r_lp_tautomer_probability>
1

> <r_epik_Ionization_Penalty>
2.28875e-05

> <r_epik_Ionization_Penalty_Charging>
0

> <r_epik_Ionization_Penalty_Neutral>
2.28875e-05

> <r_epik_State_Penalty>
-0

> <r_epik_Charging_Adjusted_Penalty>
0

> <i_epik_Tot_Q>
0

> <i_epik_Tot_abs_Q>
0

> <r_epik_Metal_State_Penalty>
-0

> <b_epik_Metal_Only>
0

> <s_lp_Force_Field>
OPLS_2005

> <r_lp_Energy>
21.6117

> <b_lp_Chiralities_Consistent>
1

> <s_lp_Variant>
AV-unprocessed.smi:3315-4

> <Gold.Version>
5.8.1

> <Gold.Id.Protein>
6NUR|6NUR_protein|mol2

> <Gold.PLP.Fitness>
35.9812

> <Gold.PLP.PLP>
-28.3110

> <Gold.PLP.part.hbond>
-3.9416

> <Gold.PLP.part.metal>
0.0000

> <Gold.PLP.part.buried>
-3.4197

> <Gold.PLP.part.nonpolar>
-20.8919

> <Gold.PLP.part.repulsive>
0.2689

> <Gold.PLP.ligand.clash>
0.0000

> <Gold.PLP.ligand.torsion>
0.3741

> <Gold.PLP.Chemscore.Hbond>
2.6832

> <Gold.PLP.Chemscore.CHOScore>
0.0000

> <Gold.PLP.Chemscore.Metal>
0.0000

> <Gold.Chemscore.Hbonds>
donor molecule, donor type, donor heavy atom, donor atom, acceptor molecule, acceptor atom, score
      L1  H     7    28       P1  7948  1.00
      L1  H    10    29       P1  7948  0.65
      P1  H  7989  7998       L1     2  0.67

> <Gold.PLP.Chemscore.Internal.Correction>
0.3688

> <Gold.Rescore>
     Score         DG    S(hbond)    S(metal)    S(lipo)     H(rot)  DE(clash)    DE(int)     intcor
     14.76     -16.39       2.48        0.00      50.99       1.30       0.06       1.57       ----

> <Gold.Chemscore.Fitness>
14.7551

> <Gold.Chemscore.DG>
-16.3860

> <Gold.Chemscore.ZeroCoef>
-5.4800

> <Gold.Chemscore.Hbond>
2.4784

> <Gold.Chemscore.Metal>
0.0000

> <Gold.Chemscore.Lipo>
50.9918

> <Gold.Chemscore.Internal_Hbond>
0.0000

> <Gold.Chemscore.DEClash>
0.0597

> <Gold.Chemscore.DEInternal>
1.5712

> <Gold.Chemscore.Rot>
1.3038

> <Gold.Chemscore.Internal.Correction>
   9.000000E+99

> <Gold.Chemscore.Hbonds>
donor molecule, donor type, donor heavy atom, donor atom, acceptor molecule, acceptor atom, score
      L1  H     7    28       P1  7948  0.30
      L1  H    10    29       P1  7948  0.05
      P1  H  7989  7998       L1     2  0.46

> <Gold.Chemscore.Hbond.Weighted>
-8.2777

> <Gold.Chemscore.Metal.Weighted>
-0.0000

> <Gold.Chemscore.Lipo.Weighted>
-5.9660

> <Gold.Chemscore.Internal_Hbond.Weighted>
0.0000

> <Gold.Chemscore.DEClash.Weighted>
0.0597

> <Gold.Chemscore.DEInternal.Weighted>
1.5712

> <Gold.Chemscore.Rot.Weighted>
3.3377

> <Gold.Chemscore.Internal.Correction.Weighted>
   9.000000E+99

> <Gold.Protein.RotatedTorsions>
[ 6907 6896 6895 6894 ] final  -83.35 input  -60.11 | X-H torsion
[ 7974 7965 7964 7962 ] final   47.67 input  175.53 | X-H torsion
[ 8008 7997 7996 7995 ] final  154.54 input   59.86 | X-H torsion
[ 10167 10162 10161 10158 ] final -131.45 input  -65.29 | X-H torsion
[ 10718 10713 10712 10709 ] final  -58.58 input   66.30 | X-H torsion
[ 10763 10752 10751 10750 ] final  -73.49 input  -60.55 | X-H torsion
[ 11005 11000 10999 10996 ] final    4.17 input  -57.11 | X-H torsion

> <Gold.Protein.ActiveResidues>
 VAL166  LYS551  ARG553  GLY616  TRP617  ASP618  TYR619  PRO620  LYS621  CYS622 
 ASP623  PHE694  ASN695  SER759  ASP760  ASP761  ALA762  ILE779  LEU786  VAL792 
 PHE793  MET794  SER795  GLU796  ALA797  LYS798  CYS799  TRP800  GLU811  SER814 

> <Gold.Protein.RotatedAtoms>
  150.6886  134.3525  159.4914 H   0  0  0  0  0  0  0  0  0  0  0  0  # atno 6907 bound_to 6896
  152.1364  134.9093  160.0565 H   0  0  0  0  0  0  0  0  0  0  0  0  # atno 6908 bound_to 6896
  152.0243  133.3876  159.4308 H   0  0  0  0  0  0  0  0  0  0  0  0  # atno 6909 bound_to 6896
  146.0276  139.4725  142.9858 H   0  0  0  0  0  0  0  0  0  0  0  0  # atno 7974 bound_to 7965
  156.2526  140.1964  156.6661 H   0  0  0  0  0  0  0  0  0  0  0  0  # atno 8008 bound_to 7997
  154.6427  140.0581  156.9890 H   0  0  0  0  0  0  0  0  0  0  0  0  # atno 8009 bound_to 7997
  155.1537  140.3253  155.4428 H   0  0  0  0  0  0  0  0  0  0  0  0  # atno 8010 bound_to 7997
  139.9187  143.6407  152.2558 H   0  0  0  0  0  0  0  0  0  0  0  0  # atno 10167 bound_to 10162
  156.1124  130.4173  150.0597 H   0  0  0  0  0  0  0  0  0  0  0  0  # atno 10718 bound_to 10713
  154.4602  135.5895  153.6251 H   0  0  0  0  0  0  0  0  0  0  0  0  # atno 10763 bound_to 10752
  152.9822  135.6042  154.3495 H   0  0  0  0  0  0  0  0  0  0  0  0  # atno 10764 bound_to 10752
  154.3366  135.2842  155.2423 H   0  0  0  0  0  0  0  0  0  0  0  0  # atno 10765 bound_to 10752
  140.5850  133.9978  155.8064 H   0  0  0  0  0  0  0  0  0  0  0  0  # atno 11005 bound_to 11000
  145.7092  141.0111  143.1462 LP  0  0  0  0  0  0  0  0  0  0  0  0  # atno 17320 bound_to 7965
  144.7016  139.8737  143.7442 LP  0  0  0  0  0  0  0  0  0  0  0  0  # atno 17321 bound_to 7965
  139.6880  144.7650  151.1490 LP  0  0  0  0  0  0  0  0  0  0  0  0  # atno 17342 bound_to 10162
  140.7667  143.5630  150.9078 LP  0  0  0  0  0  0  0  0  0  0  0  0  # atno 17343 bound_to 10162
  156.8557  130.9474  151.3622 LP  0  0  0  0  0  0  0  0  0  0  0  0  # atno 17370 bound_to 10713
  157.6306  130.8726  149.9267 LP  0  0  0  0  0  0  0  0  0  0  0  0  # atno 17371 bound_to 10713
  141.0972  133.9825  157.3140 LP  0  0  0  0  0  0  0  0  0  0  0  0  # atno 17394 bound_to 11000
  139.9300  135.0200  156.8367 LP  0  0  0  0  0  0  0  0  0  0  0  0  # atno 17395 bound_to 11000

$$$$
