AV-unprocessed.smi:244|AV-procd|sdf|1874|dock2
  -GOLD-   2262020513D 1   1.00000     0.00000
 Structure written by MMmdl.
 56 60  0  0  0  0  0  0  0  0  1 V2000
  150.4421  144.2979  158.8972 C   0  0  0  0  0  0  0  0  0  0  0  0
  151.8853  144.1691  159.0645 N   0  0  0  0  0  0  0  0  0  0  0  0
  152.3397  144.5182  160.4122 C   0  0  0  0  0  0  0  0  0  0  0  0
  151.9312  143.4693  161.4660 C   0  0  0  0  0  0  0  0  0  0  0  0
  152.4064  142.0611  161.0817 C   0  0  2  0  0  0  0  0  0  0  0  0
  153.8257  141.9883  161.1978 O   0  0  0  0  0  0  0  0  0  0  0  0
  154.3173  140.6806  160.9256 C   0  0  0  0  0  0  0  0  0  0  0  0
  153.9714  140.2873  159.4808 C   0  0  0  0  0  0  0  0  0  0  0  0
  152.5337  140.4276  159.2493 N   0  0  0  0  0  0  0  0  0  0  0  0
  152.0116  139.8681  158.1256 C   0  0  0  0  0  0  0  0  0  0  0  0
  152.3494  140.3665  156.9057 N   0  0  0  0  0  0  0  0  0  0  0  0
  151.8294  139.8432  155.7920 C   0  0  0  0  0  0  0  0  0  0  0  0
  150.9693  138.8315  155.6687 N   0  0  0  0  0  0  0  0  0  0  0  0
  150.6356  138.3156  156.8858 C   0  0  0  0  0  0  0  0  0  0  0  0
  151.1038  138.7701  158.1519 C   0  0  0  0  0  0  0  0  0  0  0  0
  150.5491  137.9935  159.1632 N   0  0  0  0  0  0  0  0  0  0  0  0
  149.7880  137.1415  158.5338 C   0  0  0  0  0  0  0  0  0  0  0  0
  149.7890  137.2562  157.1624 N   0  0  0  0  0  0  0  0  0  0  0  0
  149.0443  136.4353  156.2198 C   0  0  0  0  0  0  0  0  0  0  0  0
  149.8707  135.2813  155.5987 C   0  0  0  0  0  0  0  0  0  0  0  0
  150.9202  135.8588  154.8419 O   0  0  0  0  0  0  0  0  0  0  0  0
  150.4944  134.3531  156.6641 C   0  0  0  0  0  0  0  0  0  0  0  0
  151.1313  133.0995  156.0383 C   0  0  0  0  0  0  0  0  0  0  0  0
  150.1771  132.4111  155.2390 O   0  0  0  0  0  0  0  0  0  0  0  0
  149.7190  133.1878  154.1389 C   0  0  0  0  0  0  0  0  0  0  0  0
  148.9905  134.4433  154.6498 C   0  0  0  0  0  0  0  0  0  0  0  0
  151.9781  141.7263  159.6371 C   0  0  2  0  0  0  0  0  0  0  0  0
  152.3885  142.8566  158.6575 C   0  0  0  0  0  0  0  0  0  0  0  0
  150.1232  145.3124  159.1377 H   0  0  0  0  0  0  0  0  0  0  0  0
  149.8845  143.6101  159.5319 H   0  0  0  0  0  0  0  0  0  0  0  0
  150.1633  144.1011  157.8616 H   0  0  0  0  0  0  0  0  0  0  0  0
  153.4267  144.6069  160.3942 H   0  0  0  0  0  0  0  0  0  0  0  0
  151.9558  145.5015  160.6860 H   0  0  0  0  0  0  0  0  0  0  0  0
  152.3394  143.7438  162.4390 H   0  0  0  0  0  0  0  0  0  0  0  0
  150.8479  143.4676  161.5870 H   0  0  0  0  0  0  0  0  0  0  0  0
  151.9640  141.3439  161.7755 H   0  0  0  0  0  0  0  0  0  0  0  0
  155.3976  140.6692  161.0700 H   0  0  0  0  0  0  0  0  0  0  0  0
  153.8946  139.9665  161.6340 H   0  0  0  0  0  0  0  0  0  0  0  0
  154.5235  140.9147  158.7800 H   0  0  0  0  0  0  0  0  0  0  0  0
  154.2820  139.2569  159.3032 H   0  0  0  0  0  0  0  0  0  0  0  0
  152.1470  140.3020  154.8673 H   0  0  0  0  0  0  0  0  0  0  0  0
  149.2089  136.3933  159.0553 H   0  0  0  0  0  0  0  0  0  0  0  0
  148.1761  136.0323  156.7424 H   0  0  0  0  0  0  0  0  0  0  0  0
  148.6507  137.0841  155.4362 H   0  0  0  0  0  0  0  0  0  0  0  0
  150.5419  136.4013  154.1670 H   0  0  0  0  0  0  0  0  0  0  0  0
  151.2424  134.8838  157.2542 H   0  0  0  0  0  0  0  0  0  0  0  0
  149.7191  134.0370  157.3633 H   0  0  0  0  0  0  0  0  0  0  0  0
  152.0043  133.3608  155.4384 H   0  0  0  0  0  0  0  0  0  0  0  0
  151.4796  132.4283  156.8237 H   0  0  0  0  0  0  0  0  0  0  0  0
  150.5560  133.4533  153.4909 H   0  0  0  0  0  0  0  0  0  0  0  0
  149.0386  132.5813  153.5408 H   0  0  0  0  0  0  0  0  0  0  0  0
  148.0907  134.1260  155.1787 H   0  0  0  0  0  0  0  0  0  0  0  0
  148.6511  135.0481  153.8079 H   0  0  0  0  0  0  0  0  0  0  0  0
  150.8928  141.6550  159.6405 H   0  0  0  0  0  0  0  0  0  0  0  0
  152.0382  142.6360  157.6484 H   0  0  0  0  0  0  0  0  0  0  0  0
  153.4751  142.9219  158.5969 H   0  0  0  0  0  0  0  0  0  0  0  0
  1  2  1  0  0  0  0
  1 29  1  0  0  0  0
  1 30  1  0  0  0  0
  1 31  1  0  0  0  0
  2 28  1  0  0  0  0
  2  3  1  0  0  0  0
  3  4  1  0  0  0  0
  3 32  1  0  0  0  0
  3 33  1  0  0  0  0
  4  5  1  0  0  0  0
  4 34  1  0  0  0  0
  4 35  1  0  0  0  0
  5 27  1  0  0  0  0
  5  6  1  0  0  0  0
  5 36  1  0  0  0  0
  6  7  1  0  0  0  0
  7  8  1  0  0  0  0
  7 37  1  0  0  0  0
  7 38  1  0  0  0  0
  8  9  1  0  0  0  0
  8 39  1  0  0  0  0
  8 40  1  0  0  0  0
  9 10  1  0  0  0  0
  9 27  1  0  0  0  0
 10 15  1  0  0  0  0
 10 11  2  0  0  0  0
 11 12  1  0  0  0  0
 12 13  2  0  0  0  0
 12 41  1  0  0  0  0
 13 14  1  0  0  0  0
 14 18  1  0  0  0  0
 14 15  2  0  0  0  0
 15 16  1  0  0  0  0
 16 17  2  0  0  0  0
 17 18  1  0  0  0  0
 17 42  1  0  0  0  0
 18 19  1  0  0  0  0
 19 20  1  0  0  0  0
 19 43  1  0  0  0  0
 19 44  1  0  0  0  0
 20 26  1  0  0  0  0
 20 21  1  0  0  0  0
 20 22  1  0  0  0  0
 21 45  1  0  0  0  0
 22 23  1  0  0  0  0
 22 46  1  0  0  0  0
 22 47  1  0  0  0  0
 23 24  1  0  0  0  0
 23 48  1  0  0  0  0
 23 49  1  0  0  0  0
 24 25  1  0  0  0  0
 25 26  1  0  0  0  0
 25 50  1  0  0  0  0
 25 51  1  0  0  0  0
 26 52  1  0  0  0  0
 26 53  1  0  0  0  0
 27 28  1  0  0  0  0
 27 54  1  0  0  0  0
 28 55  1  0  0  0  0
 28 56  1  0  0  0  0
M  END
> <s_m_source_file>
AV-unprocessed.smi

> <i_m_source_file_index>
244

> <i_lp_mmshare_version>
43012

> <i_f3d_flags>
0

> <s_epik_input>
W0NIMl0xW0NIMl1OKFtDSDNdKVtDSDJdW0NAQEhdKFtDQEhdMTIpTihbQ0gyXVtDSDJdTzIpYyhuW2NIXW4zKWMoYzM0KW5bY0hdbjRbQ0gyXUM1KFtPSF0pW0NIMl1bQ0gyXU9bQ0gyXVtDSDJdNQ==

> <s_epik_cmdline>
J2VwaWtfcHl0aG9uJywgJy1waCcsICc3LjAnLCAnLXRuJywgJzgnLCAnLW1hJywgJzIwMCcsICctbWV0YWxfYmluZGluZycsICctaW1hZScsICc8aW5maWxlLm1hZT4nLCAnLW9tYWUnLCAnPG91dGZpbGUubWFlPic=

> <r_lp_tautomer_probability>
1

> <r_epik_Ionization_Penalty>
2.27765

> <r_epik_Ionization_Penalty_Charging>
0

> <r_epik_Ionization_Penalty_Neutral>
2.27765

> <r_epik_State_Penalty>
2.4114

> <r_epik_Charging_Adjusted_Penalty>
2.4114

> <i_epik_Tot_Q>
0

> <i_epik_Tot_abs_Q>
0

> <r_epik_Metal_State_Penalty>
2.39769

> <b_epik_Metal_Only>
0

> <s_lp_Force_Field>
OPLS_2005

> <r_lp_Energy>
43.9701

> <b_lp_Chiralities_Consistent>
1

> <s_lp_Variant>
AV-unprocessed.smi:244-11

> <Gold.Version>
5.8.1

> <Gold.Id.Protein>
6NUR|6NUR_protein|mol2

> <Gold.PLP.Fitness>
47.4737

> <Gold.PLP.PLP>
-42.1784

> <Gold.PLP.part.hbond>
-2.9702

> <Gold.PLP.part.metal>
0.0000

> <Gold.PLP.part.buried>
-4.9790

> <Gold.PLP.part.nonpolar>
-32.7624

> <Gold.PLP.part.repulsive>
0.0285

> <Gold.PLP.ligand.clash>
0.0000

> <Gold.PLP.ligand.torsion>
0.5583

> <Gold.PLP.Chemscore.Hbond>
1.9920

> <Gold.PLP.Chemscore.CHOScore>
0.0000

> <Gold.PLP.Chemscore.Metal>
0.0000

> <Gold.Chemscore.Hbonds>
donor molecule, donor type, donor heavy atom, donor atom, acceptor molecule, acceptor atom, score
      P1  H  7997  8008       L1    11  0.95
      P1  H 10752 10764       L1    21  0.96

> <Gold.PLP.Chemscore.Internal.Correction>
0.4358

> <Gold.Rescore>
     Score         DG    S(hbond)    S(metal)    S(lipo)     H(rot)  DE(clash)    DE(int)     intcor
     15.34     -16.85       1.17        0.00     108.87       2.06       0.19       1.33       ----

> <Gold.Chemscore.Fitness>
15.3376

> <Gold.Chemscore.DG>
-16.8549

> <Gold.Chemscore.ZeroCoef>
-5.4800

> <Gold.Chemscore.Hbond>
1.1719

> <Gold.Chemscore.Metal>
0.0000

> <Gold.Chemscore.Lipo>
108.8665

> <Gold.Chemscore.Internal_Hbond>
0.0000

> <Gold.Chemscore.DEClash>
0.1898

> <Gold.Chemscore.DEInternal>
1.3274

> <Gold.Chemscore.Rot>
2.0611

> <Gold.Chemscore.Internal.Correction>
   9.000000E+99

> <Gold.Chemscore.Hbonds>
donor molecule, donor type, donor heavy atom, donor atom, acceptor molecule, acceptor atom, score
      P1  H  7997  8008       L1    11  0.17
      P1  H 10752 10764       L1    21  0.64

> <Gold.Chemscore.Hbond.Weighted>
-3.9140

> <Gold.Chemscore.Metal.Weighted>
-0.0000

> <Gold.Chemscore.Lipo.Weighted>
-12.7374

> <Gold.Chemscore.Internal_Hbond.Weighted>
0.0000

> <Gold.Chemscore.DEClash.Weighted>
0.1898

> <Gold.Chemscore.DEInternal.Weighted>
1.3274

> <Gold.Chemscore.Rot.Weighted>
5.2765

> <Gold.Chemscore.Internal.Correction.Weighted>
   9.000000E+99

> <Gold.Protein.RotatedTorsions>
[ 6907 6896 6895 6894 ] final  -34.87 input  -60.11 | X-H torsion
[ 7974 7965 7964 7962 ] final  -55.71 input  175.53 | X-H torsion
[ 8008 7997 7996 7995 ] final  -53.25 input   59.86 | X-H torsion
[ 10167 10162 10161 10158 ] final  157.54 input  -65.29 | X-H torsion
[ 10718 10713 10712 10709 ] final  142.52 input   66.30 | X-H torsion
[ 10763 10752 10751 10750 ] final  -67.75 input  -60.55 | X-H torsion
[ 11005 11000 10999 10996 ] final   23.42 input  -57.11 | X-H torsion

> <Gold.Protein.ActiveResidues>
 VAL166  LYS551  ARG553  GLY616  TRP617  ASP618  TYR619  PRO620  LYS621  CYS622 
 ASP623  PHE694  ASN695  SER759  ASP760  ASP761  ALA762  ILE779  LEU786  VAL792 
 PHE793  MET794  SER795  GLU796  ALA797  LYS798  CYS799  TRP800  GLU811  SER814 

> <Gold.Protein.RotatedAtoms>
  151.0471  134.9647  159.8191 H   0  0  0  0  0  0  0  0  0  0  0  0  # atno 6907 bound_to 6896
  152.5374  134.2584  159.8936 H   0  0  0  0  0  0  0  0  0  0  0  0  # atno 6908 bound_to 6896
  151.2598  133.4265  159.2649 H   0  0  0  0  0  0  0  0  0  0  0  0  # atno 6909 bound_to 6896
  145.8710  140.8216  142.9888 H   0  0  0  0  0  0  0  0  0  0  0  0  # atno 7974 bound_to 7965
  154.4128  140.1204  156.5124 H   0  0  0  0  0  0  0  0  0  0  0  0  # atno 8008 bound_to 7997
  155.6786  140.3496  155.4827 H   0  0  0  0  0  0  0  0  0  0  0  0  # atno 8009 bound_to 7997
  155.9571  140.1116  157.0917 H   0  0  0  0  0  0  0  0  0  0  0  0  # atno 8010 bound_to 7997
  139.4823  144.4908  151.8311 H   0  0  0  0  0  0  0  0  0  0  0  0  # atno 10167 bound_to 10162
  157.3796  131.0990  151.0751 H   0  0  0  0  0  0  0  0  0  0  0  0  # atno 10718 bound_to 10713
  154.3791  135.6078  153.5781 H   0  0  0  0  0  0  0  0  0  0  0  0  # atno 10763 bound_to 10752
  152.9788  135.5856  154.4432 H   0  0  0  0  0  0  0  0  0  0  0  0  # atno 10764 bound_to 10752
  154.4198  135.2845  155.1961 H   0  0  0  0  0  0  0  0  0  0  0  0  # atno 10765 bound_to 10752
  140.3698  134.2035  155.7667 H   0  0  0  0  0  0  0  0  0  0  0  0  # atno 11005 bound_to 11000
  144.6726  140.1239  143.7448 LP  0  0  0  0  0  0  0  0  0  0  0  0  # atno 17320 bound_to 7965
  145.9137  139.2502  143.1422 LP  0  0  0  0  0  0  0  0  0  0  0  0  # atno 17321 bound_to 7965
  140.4392  144.2010  150.5890 LP  0  0  0  0  0  0  0  0  0  0  0  0  # atno 17342 bound_to 10162
  140.4701  143.2416  151.9101 LP  0  0  0  0  0  0  0  0  0  0  0  0  # atno 17343 bound_to 10162
  157.1825  130.6316  149.5677 LP  0  0  0  0  0  0  0  0  0  0  0  0  # atno 17370 bound_to 10713
  155.9773  130.4749  150.6583 LP  0  0  0  0  0  0  0  0  0  0  0  0  # atno 17371 bound_to 10713
  141.1958  133.8097  157.0699 LP  0  0  0  0  0  0  0  0  0  0  0  0  # atno 17394 bound_to 11000
  140.0561  134.9780  157.1223 LP  0  0  0  0  0  0  0  0  0  0  0  0  # atno 17395 bound_to 11000

$$$$
