AV-unprocessed.smi:3330|AV-procd|sdf|12811|dock7
  -GOLD-   2272019183D 1   1.00000     0.00000
 Structure written by MMmdl.
 38 39  0  0  0  0  0  0  0  0  3 V2000
  147.2171  133.5882  155.6128 C   0  0  0  0  0  0  0  0  0  0  0  0
  148.3978  133.7766  154.6424 C   0  0  2  0  0  0  0  0  0  0  0  0
  148.6356  135.2264  154.4610 N   0  3  0  0  0  0  0  0  0  0  0  0
  149.8861  135.7321  155.0608 C   0  0  0  0  0  0  0  0  0  0  0  0
  149.7377  137.2029  155.4738 C   0  0  0  0  0  0  0  0  0  0  0  0
  151.0150  137.7519  155.9359 N   0  0  0  0  0  0  0  0  0  0  0  0
  151.8233  137.1475  156.8116 C   0  0  0  0  0  0  0  0  0  0  0  0
  151.6507  136.0681  157.3778 O   0  0  0  0  0  0  0  0  0  0  0  0
  153.0377  138.0282  156.9924 C   0  0  0  0  0  0  0  0  0  0  0  0
  152.7542  139.1303  156.1006 N   0  5  0  0  0  0  0  0  0  0  0  0
  151.5581  138.9075  155.5087 C   0  0  0  0  0  0  0  0  0  0  0  0
  151.0005  139.6254  154.6791 O   0  0  0  0  0  0  0  0  0  0  0  0
  148.1722  133.0838  153.2703 C   0  0  1  0  0  0  0  0  0  0  0  0
  148.4080  131.5618  153.3148 C   0  0  0  0  0  0  0  0  0  0  0  0
  146.8502  133.3658  152.7247 N   0  0  0  0  0  0  0  0  0  0  0  0
  146.5213  134.1860  151.6648 C   0  0  0  0  0  0  0  0  0  0  0  0
  145.1647  134.1394  151.5176 C   0  0  0  0  0  0  0  0  0  0  0  0
  144.7433  133.2492  152.5440 C   0  0  0  0  0  0  0  0  0  0  0  0
  145.7530  132.7872  153.2636 N   0  0  0  0  0  0  0  0  0  0  0  0
  147.0701  132.5405  155.8752 H   0  0  0  0  0  0  0  0  0  0  0  0
  146.2861  133.9575  155.1817 H   0  0  0  0  0  0  0  0  0  0  0  0
  147.3884  134.1272  156.5452 H   0  0  0  0  0  0  0  0  0  0  0  0
  149.2731  133.3313  155.1193 H   0  0  0  0  0  0  0  0  0  0  0  0
  148.6433  135.4292  153.4717 H   0  0  0  0  0  0  0  0  0  0  0  0
  150.1372  135.1217  155.9295 H   0  0  0  0  0  0  0  0  0  0  0  0
  150.7034  135.6253  154.3468 H   0  0  0  0  0  0  0  0  0  0  0  0
  149.3647  137.7929  154.6345 H   0  0  0  0  0  0  0  0  0  0  0  0
  148.9848  137.2959  156.2585 H   0  0  0  0  0  0  0  0  0  0  0  0
  153.1256  138.3301  158.0366 H   0  0  0  0  0  0  0  0  0  0  0  0
  153.9397  137.4776  156.7233 H   0  0  0  0  0  0  0  0  0  0  0  0
  148.8917  133.5026  152.5650 H   0  0  0  0  0  0  0  0  0  0  0  0
  149.4443  131.3244  153.5547 H   0  0  0  0  0  0  0  0  0  0  0  0
  148.1909  131.1038  152.3493 H   0  0  0  0  0  0  0  0  0  0  0  0
  147.7748  131.0798  154.0604 H   0  0  0  0  0  0  0  0  0  0  0  0
  147.2714  134.7303  151.1098 H   0  0  0  0  0  0  0  0  0  0  0  0
  144.5647  134.6608  150.7864 H   0  0  0  0  0  0  0  0  0  0  0  0
  143.7412  132.9270  152.7858 H   0  0  0  0  0  0  0  0  0  0  0  0
  147.8685  135.7280  154.8851 H   0  0  0  0  0  0  0  0  0  0  0  0
  1  2  1  0  0  0  0
  1 20  1  0  0  0  0
  1 21  1  0  0  0  0
  1 22  1  0  0  0  0
  2  3  1  0  0  0  0
  2 13  1  0  0  0  0
  2 23  1  0  0  0  0
  3  4  1  0  0  0  0
  3 24  1  0  0  0  0
  3 38  1  0  0  0  0
  4  5  1  0  0  0  0
  4 25  1  0  0  0  0
  4 26  1  0  0  0  0
  5  6  1  0  0  0  0
  5 27  1  0  0  0  0
  5 28  1  0  0  0  0
  6 11  1  0  0  0  0
  6  7  1  0  0  0  0
  7  8  2  0  0  0  0
  7  9  1  0  0  0  0
  9 10  1  0  0  0  0
  9 29  1  0  0  0  0
  9 30  1  0  0  0  0
 10 11  1  0  0  0  0
 11 12  2  0  0  0  0
 13 14  1  0  0  0  0
 13 15  1  0  0  0  0
 13 31  1  0  0  0  0
 14 32  1  0  0  0  0
 14 33  1  0  0  0  0
 14 34  1  0  0  0  0
 15 19  1  0  0  0  0
 15 16  1  0  0  0  0
 16 17  2  0  0  0  0
 16 35  1  0  0  0  0
 17 18  1  0  0  0  0
 17 36  1  0  0  0  0
 18 19  2  0  0  0  0
 18 37  1  0  0  0  0
M  CHG  1   3   1
M  CHG  1  10  -1
M  END
> <s_m_source_file>
AV-unprocessed.smi

> <i_m_source_file_index>
3330

> <i_lp_mmshare_version>
43012

> <i_f3d_flags>
0

> <s_epik_input>
bjFbY0hdW2NIXVtjSF1uMVtDQEBIXShbQ0gzXSlbQ0BIXShbQ0gzXSlbTkhdW0NIMl1bQ0gyXU4yQyg9TylbQ0gyXVtOSF1DMj1P

> <s_epik_cmdline>
J2VwaWtfcHl0aG9uJywgJy1waCcsICc3LjAnLCAnLXRuJywgJzgnLCAnLW1hJywgJzIwMCcsICctbWV0YWxfYmluZGluZycsICctaW1hZScsICc8aW5maWxlLm1hZT4nLCAnLW9tYWUnLCAnPG91dGZpbGUubWFlPic=

> <r_lp_tautomer_probability>
1

> <r_epik_Ionization_Penalty>
5.18149

> <r_epik_Ionization_Penalty_Charging>
5.18148

> <r_epik_Ionization_Penalty_Neutral>
9.83265e-06

> <r_epik_State_Penalty>
5.18201

> <r_epik_Charging_Adjusted_Penalty>
10.3635

> <i_epik_Tot_Q>
0

> <i_epik_Tot_abs_Q>
2

> <r_epik_Metal_State_Penalty>
1.25422

> <b_epik_Metal_Only>
1

> <s_lp_Force_Field>
OPLS_2005

> <r_lp_Energy>
16.3237

> <b_lp_Chiralities_Consistent>
1

> <s_lp_Variant>
AV-unprocessed.smi:3330-11

> <Gold.Version>
5.8.1

> <Gold.Id.Protein>
6NUR|6NUR_protein|mol2

> <Gold.PLP.Fitness>
42.2132

> <Gold.PLP.PLP>
-24.0731

> <Gold.PLP.part.hbond>
-3.0483

> <Gold.PLP.part.metal>
0.0000

> <Gold.PLP.part.buried>
-3.0302

> <Gold.PLP.part.nonpolar>
-18.3620

> <Gold.PLP.part.repulsive>
0.2289

> <Gold.PLP.ligand.clash>
0.0000

> <Gold.PLP.ligand.torsion>
1.4819

> <Gold.PLP.Chemscore.Hbond>
5.0000

> <Gold.PLP.Chemscore.CHOScore>
1.9940

> <Gold.PLP.Chemscore.Metal>
0.0000

> <Gold.Chemscore.Hbonds>
donor molecule, donor type, donor heavy atom, donor atom, acceptor molecule, acceptor atom, score
      L1  H     3    24       P1  7948  2.00
      P1  H  7989  7998       L1    12  1.00
      P1  H  7997  8008       L1    10  2.00
      L1  C    16    35       P1  7948  1.00
      L1  C    18    37       P1 10957  0.99

> <Gold.PLP.Chemscore.Internal.Correction>
0.1219

> <Gold.Rescore>
     Score         DG    S(hbond)    S(metal)    S(lipo)     H(rot)  DE(clash)    DE(int)     intcor
     11.01     -13.55       2.94        0.00      41.86       2.59       0.00       2.54       ----

> <Gold.Chemscore.Fitness>
11.0092

> <Gold.Chemscore.DG>
-13.5532

> <Gold.Chemscore.ZeroCoef>
-5.4800

> <Gold.Chemscore.Hbond>
2.9360

> <Gold.Chemscore.Metal>
0.0000

> <Gold.Chemscore.Lipo>
41.8644

> <Gold.Chemscore.Internal_Hbond>
0.0000

> <Gold.Chemscore.DEClash>
0.0029

> <Gold.Chemscore.DEInternal>
2.5411

> <Gold.Chemscore.Rot>
2.5903

> <Gold.Chemscore.Internal.Correction>
   9.000000E+99

> <Gold.Chemscore.Hbonds>
donor molecule, donor type, donor heavy atom, donor atom, acceptor molecule, acceptor atom, score
      L1  H     3    24       P1  7948  0.94
      P1  H  7989  7998       L1    12  1.00
      P1  H  7997  8008       L1    10  0.48

> <Gold.Chemscore.Hbond.Weighted>
-9.8062

> <Gold.Chemscore.Metal.Weighted>
-0.0000

> <Gold.Chemscore.Lipo.Weighted>
-4.8981

> <Gold.Chemscore.Internal_Hbond.Weighted>
0.0000

> <Gold.Chemscore.DEClash.Weighted>
0.0029

> <Gold.Chemscore.DEInternal.Weighted>
2.5411

> <Gold.Chemscore.Rot.Weighted>
6.6311

> <Gold.Chemscore.Internal.Correction.Weighted>
   9.000000E+99

> <Gold.Protein.RotatedTorsions>
[ 6907 6896 6895 6894 ] final  -13.83 input  -60.11 | X-H torsion
[ 7974 7965 7964 7962 ] final  -83.23 input  175.53 | X-H torsion
[ 8008 7997 7996 7995 ] final  -22.36 input   59.86 | X-H torsion
[ 10167 10162 10161 10158 ] final  -91.68 input  -65.29 | X-H torsion
[ 10718 10713 10712 10709 ] final   95.20 input   66.30 | X-H torsion
[ 10763 10752 10751 10750 ] final  117.44 input  -60.55 | X-H torsion
[ 11005 11000 10999 10996 ] final  137.23 input  -57.11 | X-H torsion

> <Gold.Protein.ActiveResidues>
 VAL166  LYS551  ARG553  GLY616  TRP617  ASP618  TYR619  PRO620  LYS621  CYS622 
 ASP623  PHE694  ASN695  SER759  ASP760  ASP761  ALA762  ILE779  LEU786  VAL792 
 PHE793  MET794  SER795  GLU796  ALA797  LYS798  CYS799  TRP800  GLU811  SER814 

> <Gold.Protein.RotatedAtoms>
  151.3489  135.0880  159.9395 H   0  0  0  0  0  0  0  0  0  0  0  0  # atno 6907 bound_to 6896
  152.5192  133.9372  159.7619 H   0  0  0  0  0  0  0  0  0  0  0  0  # atno 6908 bound_to 6896
  150.9744  133.6257  159.2762 H   0  0  0  0  0  0  0  0  0  0  0  0  # atno 6909 bound_to 6896
  145.5227  140.9529  143.1646 H   0  0  0  0  0  0  0  0  0  0  0  0  # atno 7974 bound_to 7965
  154.4649  140.2010  156.0146 H   0  0  0  0  0  0  0  0  0  0  0  0  # atno 8008 bound_to 7997
  156.0908  140.3258  155.7784 H   0  0  0  0  0  0  0  0  0  0  0  0  # atno 8009 bound_to 7997
  155.4960  140.0550  157.2937 H   0  0  0  0  0  0  0  0  0  0  0  0  # atno 8010 bound_to 7997
  140.3425  143.2934  151.9819 H   0  0  0  0  0  0  0  0  0  0  0  0  # atno 10167 bound_to 10162
  157.6941  131.0538  150.4303 H   0  0  0  0  0  0  0  0  0  0  0  0  # atno 10718 bound_to 10713
  153.5524  135.3537  155.2765 H   0  0  0  0  0  0  0  0  0  0  0  0  # atno 10763 bound_to 10752
  154.8705  135.4117  154.2922 H   0  0  0  0  0  0  0  0  0  0  0  0  # atno 10764 bound_to 10752
  153.3651  135.7061  153.6750 H   0  0  0  0  0  0  0  0  0  0  0  0  # atno 10765 bound_to 10752
  140.0100  134.9443  157.0257 H   0  0  0  0  0  0  0  0  0  0  0  0  # atno 11005 bound_to 11000
  144.7667  139.6828  143.7212 LP  0  0  0  0  0  0  0  0  0  0  0  0  # atno 17320 bound_to 7965
  146.2096  139.5442  142.9690 LP  0  0  0  0  0  0  0  0  0  0  0  0  # atno 17321 bound_to 7965
  139.4838  144.6145  151.7372 LP  0  0  0  0  0  0  0  0  0  0  0  0  # atno 17342 bound_to 10162
  140.5296  144.0752  150.6049 LP  0  0  0  0  0  0  0  0  0  0  0  0  # atno 17343 bound_to 10162
  156.4670  130.4044  149.6541 LP  0  0  0  0  0  0  0  0  0  0  0  0  # atno 17370 bound_to 10713
  156.3635  130.7494  151.2469 LP  0  0  0  0  0  0  0  0  0  0  0  0  # atno 17371 bound_to 10713
  140.4572  134.1521  155.7187 LP  0  0  0  0  0  0  0  0  0  0  0  0  # atno 17394 bound_to 11000
  141.1704  133.8620  157.1588 LP  0  0  0  0  0  0  0  0  0  0  0  0  # atno 17395 bound_to 11000

$$$$
