AV-unprocessed.smi:1225|AV-procd|sdf|5138|dock5
  -GOLD-   22720 4203D 1   1.00000     0.00000
 Structure written by MMmdl.
 49 51  0  0  0  0  0  0  0  0  2 V2000
  146.6546  135.4949  162.1782 C   0  0  0  0  0  0  0  0  0  0  0  0
  147.2831  135.7646  160.8539 C   0  0  0  0  0  0  0  0  0  0  0  0
  147.5396  136.9908  160.3928 N   0  0  0  0  0  0  0  0  0  0  0  0
  148.1324  136.9713  159.1281 C   0  0  0  0  0  0  0  0  0  0  0  0
  148.3325  135.7085  158.6274 C   0  0  0  0  0  0  0  0  0  0  0  0
  148.9376  135.3372  157.3105 C   0  0  0  0  0  0  0  0  0  0  0  0
  149.1176  136.4701  156.4013 N   0  0  0  0  0  0  0  0  0  0  0  0
  148.8221  136.0886  155.0203 C   0  0  0  0  0  0  0  0  0  0  0  0
  150.4689  137.0202  156.5325 C   0  0  0  0  0  0  0  0  0  0  0  0
  150.8045  138.1882  155.5841 C   0  0  2  0  0  0  0  0  0  0  0  0
  151.3369  137.6456  154.3927 O   0  0  0  0  0  0  0  0  0  0  0  0
  151.8307  139.1646  156.1946 C   0  0  0  0  0  0  0  0  0  0  0  0
  151.2785  140.5067  156.4185 N   0  0  0  0  0  0  0  0  0  0  0  0
  150.4618  141.2618  155.6348 C   0  0  0  0  0  0  0  0  0  0  0  0
  150.2375  142.4355  156.2889 N   0  3  0  0  0  0  0  0  0  0  0  0
  150.9248  142.4300  157.5050 C   0  0  0  0  0  0  0  0  0  0  0  0
  151.0087  143.3870  158.5093 C   0  0  0  0  0  0  0  0  0  0  0  0
  151.8020  143.0716  159.6360 C   0  0  0  0  0  0  0  0  0  0  0  0
  151.9147  144.0961  160.7523 C   0  0  0  0  0  0  0  0  0  0  0  0
  152.4794  141.8277  159.7276 C   0  0  0  0  0  0  0  0  0  0  0  0
  153.3292  141.4987  160.9433 C   0  0  0  0  0  0  0  0  0  0  0  0
  152.3819  140.8680  158.6949 C   0  0  0  0  0  0  0  0  0  0  0  0
  151.5957  141.1953  157.5932 C   0  0  0  0  0  0  0  0  0  0  0  0
  147.7628  134.4901  159.7403 S   0  0  0  0  0  0  0  0  0  0  0  0
  146.3418  136.4257  162.6526 H   0  0  0  0  0  0  0  0  0  0  0  0
  147.3670  134.9913  162.8318 H   0  0  0  0  0  0  0  0  0  0  0  0
  145.7806  134.8557  162.0529 H   0  0  0  0  0  0  0  0  0  0  0  0
  148.3842  137.9087  158.6545 H   0  0  0  0  0  0  0  0  0  0  0  0
  149.9048  134.8740  157.5086 H   0  0  0  0  0  0  0  0  0  0  0  0
  148.3311  134.5689  156.8285 H   0  0  0  0  0  0  0  0  0  0  0  0
  148.8757  136.9444  154.3496 H   0  0  0  0  0  0  0  0  0  0  0  0
  147.8133  135.6860  154.9290 H   0  0  0  0  0  0  0  0  0  0  0  0
  149.5206  135.3308  154.6631 H   0  0  0  0  0  0  0  0  0  0  0  0
  150.6132  137.3753  157.5541 H   0  0  0  0  0  0  0  0  0  0  0  0
  151.1969  136.2190  156.3930 H   0  0  0  0  0  0  0  0  0  0  0  0
  149.8976  138.7227  155.3044 H   0  0  0  0  0  0  0  0  0  0  0  0
  151.0938  136.7337  154.3447 H   0  0  0  0  0  0  0  0  0  0  0  0
  152.2126  138.7907  157.1455 H   0  0  0  0  0  0  0  0  0  0  0  0
  152.6940  139.2694  155.5360 H   0  0  0  0  0  0  0  0  0  0  0  0
  150.0628  140.9800  154.6707 H   0  0  0  0  0  0  0  0  0  0  0  0
  150.4905  144.3316  158.4323 H   0  0  0  0  0  0  0  0  0  0  0  0
  151.5130  143.6933  161.6822 H   0  0  0  0  0  0  0  0  0  0  0  0
  151.3618  145.0058  160.5161 H   0  0  0  0  0  0  0  0  0  0  0  0
  152.9563  144.3733  160.9156 H   0  0  0  0  0  0  0  0  0  0  0  0
  153.7572  140.4983  160.8718 H   0  0  0  0  0  0  0  0  0  0  0  0
  152.7301  141.5394  161.8531 H   0  0  0  0  0  0  0  0  0  0  0  0
  154.1522  142.2077  161.0374 H   0  0  0  0  0  0  0  0  0  0  0  0
  152.8975  139.9212  158.7623 H   0  0  0  0  0  0  0  0  0  0  0  0
  149.6591  143.1838  155.9288 H   0  0  0  0  0  0  0  0  0  0  0  0
  1  2  1  0  0  0  0
  1 25  1  0  0  0  0
  1 26  1  0  0  0  0
  1 27  1  0  0  0  0
  2 24  1  0  0  0  0
  2  3  2  0  0  0  0
  3  4  1  0  0  0  0
  4  5  2  0  0  0  0
  4 28  1  0  0  0  0
  5  6  1  0  0  0  0
  5 24  1  0  0  0  0
  6  7  1  0  0  0  0
  6 29  1  0  0  0  0
  6 30  1  0  0  0  0
  7  8  1  0  0  0  0
  7  9  1  0  0  0  0
  8 31  1  0  0  0  0
  8 32  1  0  0  0  0
  8 33  1  0  0  0  0
  9 10  1  0  0  0  0
  9 34  1  0  0  0  0
  9 35  1  0  0  0  0
 10 11  1  0  0  0  0
 10 12  1  0  0  0  0
 10 36  1  0  0  0  0
 11 37  1  0  0  0  0
 12 13  1  0  0  0  0
 12 38  1  0  0  0  0
 12 39  1  0  0  0  0
 13 23  1  0  0  0  0
 13 14  1  0  0  0  0
 14 15  2  0  0  0  0
 14 40  1  0  0  0  0
 15 16  1  0  0  0  0
 15 49  1  0  0  0  0
 16 23  2  0  0  0  0
 16 17  1  0  0  0  0
 17 18  2  0  0  0  0
 17 41  1  0  0  0  0
 18 19  1  0  0  0  0
 18 20  1  0  0  0  0
 19 42  1  0  0  0  0
 19 43  1  0  0  0  0
 19 44  1  0  0  0  0
 20 21  1  0  0  0  0
 20 22  2  0  0  0  0
 21 45  1  0  0  0  0
 21 46  1  0  0  0  0
 21 47  1  0  0  0  0
 22 23  1  0  0  0  0
 22 48  1  0  0  0  0
M  CHG  1  15   1
M  END
> <s_m_source_file>
AV-unprocessed.smi

> <i_m_source_file_index>
1225

> <i_lp_mmshare_version>
43012

> <i_f3d_flags>
0

> <s_epik_input>
W0NIM11jMW5bY0hdYyhzMSlbQ0gyXU4oW0NIM10pW0NIMl1bQ0BIXShbT0hdKVtDSDJdbihbY0hdbjIpYyhjMjMpW2NIXWMoW0NIM10pYyhbY0hdMylbQ0gzXQ==

> <s_epik_cmdline>
J2VwaWtfcHl0aG9uJywgJy1waCcsICc3LjAnLCAnLXRuJywgJzgnLCAnLW1hJywgJzIwMCcsICctbWV0YWxfYmluZGluZycsICctaW1hZScsICc8aW5maWxlLm1hZT4nLCAnLW9tYWUnLCAnPG91dGZpbGUubWFlPic=

> <r_epik_Ionization_Penalty>
1.25968

> <r_epik_Ionization_Penalty_Charging>
1.21782

> <r_epik_Ionization_Penalty_Neutral>
0.0418565

> <r_epik_State_Penalty>
1.29962

> <r_epik_Charging_Adjusted_Penalty>
2.51745

> <i_epik_Tot_Q>
1

> <i_epik_Tot_abs_Q>
1

> <r_epik_Metal_State_Penalty>
1.36802

> <b_epik_Metal_Only>
0

> <s_lp_Force_Field>
OPLS_2005

> <r_lp_Energy>
21.2232

> <b_lp_Chiralities_Consistent>
1

> <s_lp_Variant>
AV-unprocessed.smi:1225-3

> <Gold.Version>
5.8.1

> <Gold.Id.Protein>
6NUR|6NUR_protein|mol2

> <Gold.PLP.Fitness>
54.7108

> <Gold.PLP.PLP>
-47.3413

> <Gold.PLP.part.hbond>
-3.0000

> <Gold.PLP.part.metal>
0.0000

> <Gold.PLP.part.buried>
-6.2163

> <Gold.PLP.part.nonpolar>
-38.6394

> <Gold.PLP.part.repulsive>
0.1053

> <Gold.PLP.ligand.clash>
0.0000

> <Gold.PLP.ligand.torsion>
1.9830

> <Gold.PLP.Chemscore.Hbond>
3.6800

> <Gold.PLP.Chemscore.CHOScore>
0.0000

> <Gold.PLP.Chemscore.Metal>
0.0000

> <Gold.Chemscore.Hbonds>
donor molecule, donor type, donor heavy atom, donor atom, acceptor molecule, acceptor atom, score
      L1  H    15    49       P1  8028  2.00
      P1  H  6934  6947       L1     3  0.75

> <Gold.PLP.Chemscore.Internal.Correction>
0.2956

> <Gold.Rescore>
     Score         DG    S(hbond)    S(metal)    S(lipo)     H(rot)  DE(clash)    DE(int)     intcor
     18.80     -21.06       2.04        0.00     126.82       2.36       0.16       2.10       ----

> <Gold.Chemscore.Fitness>
18.7987

> <Gold.Chemscore.DG>
-21.0635

> <Gold.Chemscore.ZeroCoef>
-5.4800

> <Gold.Chemscore.Hbond>
2.0360

> <Gold.Chemscore.Metal>
0.0000

> <Gold.Chemscore.Lipo>
126.8151

> <Gold.Chemscore.Internal_Hbond>
0.0000

> <Gold.Chemscore.DEClash>
0.1644

> <Gold.Chemscore.DEInternal>
2.1005

> <Gold.Chemscore.Rot>
2.3649

> <Gold.Chemscore.Internal.Correction>
   9.000000E+99

> <Gold.Chemscore.Hbonds>
donor molecule, donor type, donor heavy atom, donor atom, acceptor molecule, acceptor atom, score
      L1  H    15    49       P1  8028  1.00
      P1  H  6931  6943       L1     3  0.01
      P1  H  6934  6947       L1     3  0.47

> <Gold.Chemscore.Hbond.Weighted>
-6.8002

> <Gold.Chemscore.Metal.Weighted>
-0.0000

> <Gold.Chemscore.Lipo.Weighted>
-14.8374

> <Gold.Chemscore.Internal_Hbond.Weighted>
0.0000

> <Gold.Chemscore.DEClash.Weighted>
0.1644

> <Gold.Chemscore.DEInternal.Weighted>
2.1005

> <Gold.Chemscore.Rot.Weighted>
6.0540

> <Gold.Chemscore.Internal.Correction.Weighted>
   9.000000E+99

> <Gold.Protein.RotatedTorsions>
[ 6907 6896 6895 6894 ] final   36.96 input  -60.11 | X-H torsion
[ 7974 7965 7964 7962 ] final  -99.36 input  175.53 | X-H torsion
[ 8008 7997 7996 7995 ] final  140.19 input   59.86 | X-H torsion
[ 10167 10162 10161 10158 ] final  -15.92 input  -65.29 | X-H torsion
[ 10718 10713 10712 10709 ] final -175.46 input   66.30 | X-H torsion
[ 10763 10752 10751 10750 ] final -100.96 input  -60.55 | X-H torsion
[ 11005 11000 10999 10996 ] final -120.44 input  -57.11 | X-H torsion

> <Gold.Protein.ActiveResidues>
 VAL166  LYS551  ARG553  GLY616  TRP617  ASP618  TYR619  PRO620  LYS621  CYS622 
 ASP623  PHE694  ASN695  SER759  ASP760  ASP761  ALA762  ILE779  LEU786  VAL792 
 PHE793  MET794  SER795  GLU796  ALA797  LYS798  CYS799  TRP800  GLU811  SER814 

> <Gold.Protein.RotatedAtoms>
  152.1368  134.9093  160.0555 H   0  0  0  0  0  0  0  0  0  0  0  0  # atno 6907 bound_to 6896
  152.0176  133.3881  159.4253 H   0  0  0  0  0  0  0  0  0  0  0  0  # atno 6908 bound_to 6896
  150.6861  134.3583  159.4983 H   0  0  0  0  0  0  0  0  0  0  0  0  # atno 6909 bound_to 6896
  145.3085  140.9395  143.2783 H   0  0  0  0  0  0  0  0  0  0  0  0  # atno 7974 bound_to 7965
  156.2982  140.2348  156.4360 H   0  0  0  0  0  0  0  0  0  0  0  0  # atno 8008 bound_to 7997
  154.8228  140.0437  157.1443 H   0  0  0  0  0  0  0  0  0  0  0  0  # atno 8009 bound_to 7997
  154.9296  140.3015  155.5178 H   0  0  0  0  0  0  0  0  0  0  0  0  # atno 8010 bound_to 7997
  140.7226  143.5169  150.9681 H   0  0  0  0  0  0  0  0  0  0  0  0  # atno 10167 bound_to 10162
  156.8002  130.9549  151.3119 H   0  0  0  0  0  0  0  0  0  0  0  0  # atno 10718 bound_to 10713
  154.7621  135.4915  153.9483 H   0  0  0  0  0  0  0  0  0  0  0  0  # atno 10763 bound_to 10752
  153.1263  135.6743  153.9259 H   0  0  0  0  0  0  0  0  0  0  0  0  # atno 10764 bound_to 10752
  153.8976  135.3113  155.3427 H   0  0  0  0  0  0  0  0  0  0  0  0  # atno 10765 bound_to 10752
  141.0143  134.0218  157.3371 H   0  0  0  0  0  0  0  0  0  0  0  0  # atno 11005 bound_to 11000
  144.9035  139.4619  143.6621 LP  0  0  0  0  0  0  0  0  0  0  0  0  # atno 17320 bound_to 7965
  146.3126  139.7802  142.9008 LP  0  0  0  0  0  0  0  0  0  0  0  0  # atno 17321 bound_to 7965
  139.8885  143.6983  152.3148 LP  0  0  0  0  0  0  0  0  0  0  0  0  # atno 17342 bound_to 10162
  139.7290  144.7586  151.0832 LP  0  0  0  0  0  0  0  0  0  0  0  0  # atno 17343 bound_to 10162
  157.6558  130.8923  149.9725 LP  0  0  0  0  0  0  0  0  0  0  0  0  # atno 17370 bound_to 10713
  156.1106  130.3650  150.0056 LP  0  0  0  0  0  0  0  0  0  0  0  0  # atno 17371 bound_to 10713
  139.9108  135.0189  156.7682 LP  0  0  0  0  0  0  0  0  0  0  0  0  # atno 17394 bound_to 11000
  140.6681  133.9585  155.7841 LP  0  0  0  0  0  0  0  0  0  0  0  0  # atno 17395 bound_to 11000

$$$$
