#       Name:                AV-unprocessed.smi:772
#       Creating user name   scv26
#       Creation time:       Fri Mar 27 01:10:24 2020


#       File generated by GOLD software.
#

@<TRIPOS>MOLECULE
AV-unprocessed.smi:772
    49    50     1
SMALL
NO_CHARGES


@<TRIPOS>ATOM
      1 ****        -3.3409   2.8300  -3.2903 C.3            1 S1                 0.0000
      2 ****        -3.4275   2.1202  -1.9554 C.ar           1 S1                 0.0000
      3 ****        -2.9514   2.7331  -0.7773 C.ar           1 S1                 0.0000
      4 ****        -3.0565   2.0259   0.4355 C.ar           1 S1                 0.0000
      5 ****        -3.6297   0.7375   0.4244 C.ar           1 S1                 0.0000
      6 ****        -3.7472  -0.0783   1.6999 C.3            1 S1                 0.0000
      7 ****        -2.6902  -1.1920   1.8176 C.3            1 S1                 0.0000
      8 ****        -1.3294  -0.6675   1.7333 N.am           1 S1                 0.0000
      9 ****        -0.5357  -0.7054   0.6482 C.2            1 S1                 0.0000
     10 ****        -0.8882  -1.2376  -0.4052 O.2            1 S1                 0.0000
     11 ****         0.6667  -0.0948   0.8032 N.am           1 S1                 0.0000
     12 ****         1.2140   0.4334   2.0631 C.3            1 S1                 0.0000
     13 ****         2.1669  -0.6089   2.6675 C.3            1 S1                 0.0000
     14 ****         3.5797  -0.9152   1.5625 S.3            1 S1                 0.0000
     15 ****         2.7027  -1.2077  -0.0155 C.3            1 S1                 0.0000
     16 ****         3.6785  -1.4095  -1.2024 C.3            1 S1                 0.0000
     17 ****         4.5035  -2.6996  -1.0570 C.3            1 S1                 0.0000
     18 ****         4.5939  -0.2005  -1.4720 C.3            1 S1                 0.0000
     19 ****         1.6697  -0.0868  -0.2687 C.3            1 S1                 0.0000
     20 ****        -4.0761   0.2163  -0.8082 C.ar           1 S1                 0.0000
     21 ****        -3.9809   0.8877  -1.9758 N.ar           1 S1                 0.0000
     22 ****        -2.8719   3.8090  -3.1886 H              1 S1                 0.0000
     23 ****        -4.3373   2.9725  -3.7094 H              1 S1                 0.0000
     24 ****        -2.7515   2.2423  -3.9946 H              1 S1                 0.0000
     25 ****        -2.5141   3.7204  -0.7996 H              1 S1                 0.0000
     26 ****        -2.6949   2.4631   1.3546 H              1 S1                 0.0000
     27 ****        -3.6718   0.5905   2.5583 H              1 S1                 0.0000
     28 ****        -4.7456  -0.5151   1.7440 H              1 S1                 0.0000
     29 ****        -2.8001  -1.6992   2.7762 H              1 S1                 0.0000
     30 ****        -2.8618  -1.9519   1.0533 H              1 S1                 0.0000
     31 ****        -0.9688  -0.2131   2.5594 H              1 S1                 0.0000
     32 ****         1.7523   1.3634   1.8741 H              1 S1                 0.0000
     33 ****         0.4441   0.7001   2.7873 H              1 S1                 0.0000
     34 ****         2.5451  -0.2658   3.6305 H              1 S1                 0.0000
     35 ****         1.6423  -1.5484   2.8453 H              1 S1                 0.0000
     36 ****         2.1475  -2.1389   0.1089 H              1 S1                 0.0000
     37 ****         3.0646  -1.5430  -2.0942 H              1 S1                 0.0000
     38 ****         5.1849  -2.6498  -0.2076 H              1 S1                 0.0000
     39 ****         5.1042  -2.8821  -1.9484 H              1 S1                 0.0000
     40 ****         3.8580  -3.5668  -0.9161 H              1 S1                 0.0000
     41 ****         5.2600  -0.0009  -0.6327 H              1 S1                 0.0000
     42 ****         4.0208   0.7052  -1.6670 H              1 S1                 0.0000
     43 ****         5.2191  -0.3770  -2.3475 H              1 S1                 0.0000
     44 ****         1.2090  -0.2128  -1.2499 H              1 S1                 0.0000
     45 ****         2.1577   0.8877  -0.3054 H              1 S1                 0.0000
     46 ****        -4.5159  -0.7688  -0.8603 H              1 S1                 0.0000
     47 ****        -1.7916  -1.6607  -0.4737 LP             1 S1                 0.0000
     48 ****        -0.2708  -1.2466  -1.1918 LP             1 S1                 0.0000
     49 ****        -4.3100   0.4849  -2.8298 LP             1 S1                 0.0000
@<TRIPOS>BOND
    1    1    2 1     
    2    1   22 1     
    3    1   23 1     
    4    1   24 1     
    5    2   21 ar    
    6    2    3 ar    
    7    3    4 ar    
    8    3   25 1     
    9    4    5 ar    
   10    4   26 1     
   11    5    6 1     
   12    5   20 ar    
   13    6    7 1     
   14    6   27 1     
   15    6   28 1     
   16    7    8 1     
   17    7   29 1     
   18    7   30 1     
   19    8    9 am    
   20    8   31 1     
   21    9   10 2     
   22    9   11 am    
   23   11   19 1     
   24   11   12 1     
   25   12   13 1     
   26   12   32 1     
   27   12   33 1     
   28   13   14 1     
   29   13   34 1     
   30   13   35 1     
   31   14   15 1     
   32   15   16 1     
   33   15   19 1     
   34   15   36 1     
   35   16   17 1     
   36   16   18 1     
   37   16   37 1     
   38   17   38 1     
   39   17   39 1     
   40   17   40 1     
   41   18   41 1     
   42   18   42 1     
   43   18   43 1     
   44   19   44 1     
   45   19   45 1     
   46   20   21 ar    
   47   20   46 1     
   48   10   47 1     
   49   10   48 1     
   50   21   49 1     
@<TRIPOS>SUBSTRUCTURE
      1 S1             1
@<TRIPOS>SET
LONE_PAIRS      STATIC     ATOMS    <user>   **** ""
3 47 48 49
DONOR_HYDROGENS      STATIC     ATOMS    <user>   **** ""
1 31
ATOM$BLUE        STATIC     ATOMS    COLORGROUP SYSTEM
3 47 48 49
ATOM$RED        STATIC     ATOMS    COLORGROUP SYSTEM
1 31
