AV-unprocessed.smi:1164|AV-procd|sdf|4927|dock6
  -GOLD-   22720 3513D 1   1.00000     0.00000
 Structure written by MMmdl.
 31 31  0  0  0  0  0  0  0  0  1 V2000
  152.2637  145.3034  159.2861 C   0  0  0  0  0  0  0  0  0  0  0  0
  151.5174  143.9576  159.3147 C   0  0  0  0  0  0  0  0  0  0  0  0
  152.1506  143.0577  160.3972 C   0  0  0  0  0  0  0  0  0  0  0  0
  150.0283  144.2164  159.6255 C   0  0  0  0  0  0  0  0  0  0  0  0
  151.6683  143.3580  157.9834 N   0  0  0  0  0  0  0  0  0  0  0  0
  151.2454  142.1556  157.5539 C   0  0  0  0  0  0  0  0  0  0  0  0
  150.6512  141.3450  158.2658 O   0  0  0  0  0  0  0  0  0  0  0  0
  151.5627  141.8316  156.0860 C   0  0  0  0  0  0  0  0  0  0  0  0
  151.4084  140.4097  155.7446 N   0  0  0  0  0  0  0  0  0  0  0  0
  150.5926  140.1778  154.6477 N   0  0  0  0  0  0  0  0  0  0  0  0
  150.3872  138.9711  154.2401 C   0  0  0  0  0  0  0  0  0  0  0  0
  149.5738  138.7873  153.1487 O   0  0  0  0  0  0  0  0  0  0  0  0
  150.9933  137.8413  154.9101 C   0  0  0  0  0  0  0  0  0  0  0  0
  151.7832  138.0770  155.9805 C   0  0  0  0  0  0  0  0  0  0  0  0
  152.0357  139.4336  156.4702 C   0  0  0  0  0  0  0  0  0  0  0  0
  152.7480  139.6770  157.4440 O   0  0  0  0  0  0  0  0  0  0  0  0
  149.5737  137.8563  152.9885 H   0  0  0  0  0  0  0  0  0  0  0  0
  152.1937  145.8174  160.2455 H   0  0  0  0  0  0  0  0  0  0  0  0
  151.8533  145.9706  158.5270 H   0  0  0  0  0  0  0  0  0  0  0  0
  153.3231  145.1666  159.0653 H   0  0  0  0  0  0  0  0  0  0  0  0
  153.1916  142.8297  160.1658 H   0  0  0  0  0  0  0  0  0  0  0  0
  151.6219  142.1108  160.5064 H   0  0  0  0  0  0  0  0  0  0  0  0
  152.1315  143.5453  161.3724 H   0  0  0  0  0  0  0  0  0  0  0  0
  149.9113  144.7445  160.5724 H   0  0  0  0  0  0  0  0  0  0  0  0
  149.4586  143.2904  159.7039 H   0  0  0  0  0  0  0  0  0  0  0  0
  149.5613  144.8259  158.8509 H   0  0  0  0  0  0  0  0  0  0  0  0
  152.1486  143.9314  157.3051 H   0  0  0  0  0  0  0  0  0  0  0  0
  150.9276  142.4413  155.4404 H   0  0  0  0  0  0  0  0  0  0  0  0
  152.5844  142.1562  155.8805 H   0  0  0  0  0  0  0  0  0  0  0  0
  150.8137  136.8367  154.5566 H   0  0  0  0  0  0  0  0  0  0  0  0
  152.2437  137.2432  156.4897 H   0  0  0  0  0  0  0  0  0  0  0  0
  1  2  1  0  0  0  0
  1 18  1  0  0  0  0
  1 19  1  0  0  0  0
  1 20  1  0  0  0  0
  2  3  1  0  0  0  0
  2  4  1  0  0  0  0
  2  5  1  0  0  0  0
  3 21  1  0  0  0  0
  3 22  1  0  0  0  0
  3 23  1  0  0  0  0
  4 24  1  0  0  0  0
  4 25  1  0  0  0  0
  4 26  1  0  0  0  0
  5  6  1  0  0  0  0
  5 27  1  0  0  0  0
  6  7  2  0  0  0  0
  6  8  1  0  0  0  0
  8 28  1  0  0  0  0
  8 29  1  0  0  0  0
  8  9  1  0  0  0  0
  9 10  1  0  0  0  0
  9 15  1  0  0  0  0
 10 11  2  0  0  0  0
 11 12  1  0  0  0  0
 11 13  1  0  0  0  0
 12 17  1  0  0  0  0
 13 30  1  0  0  0  0
 13 14  2  0  0  0  0
 14 31  1  0  0  0  0
 14 15  1  0  0  0  0
 15 16  2  0  0  0  0
M  END
> <s_m_source_file>
AV-unprocessed.smi

> <i_m_source_file_index>
1164

> <i_lp_mmshare_version>
43012

> <i_f3d_flags>
0

> <s_epik_input>
W0NIM11DKFtDSDNdKShbQ0gzXSlbTkhdQyg9TylbQ0gyXW4xW25IXWMoPU8pW2NIXVtjSF1jMT1P

> <s_epik_cmdline>
J2VwaWtfcHl0aG9uJywgJy1waCcsICc3LjAnLCAnLXRuJywgJzgnLCAnLW1hJywgJzIwMCcsICctbWV0YWxfYmluZGluZycsICctaW1hZScsICc8aW5maWxlLm1hZT4nLCAnLW9tYWUnLCAnPG91dGZpbGUubWFlPic=

> <r_lp_tautomer_probability>
0.9996

> <r_epik_Ionization_Penalty>
2.1187

> <r_epik_Ionization_Penalty_Charging>
3.7231e-08

> <r_epik_Ionization_Penalty_Neutral>
2.1187

> <r_epik_State_Penalty>
1.69546

> <r_epik_Charging_Adjusted_Penalty>
1.69546

> <i_epik_Tot_Q>
0

> <i_epik_Tot_abs_Q>
0

> <r_epik_Metal_State_Penalty>
1.69546

> <b_epik_Metal_Only>
0

> <s_lp_Force_Field>
OPLS_2005

> <r_lp_Energy>
13.6022

> <b_lp_Chiralities_Consistent>
1

> <s_lp_Variant>
AV-unprocessed.smi:1164-2

> <Gold.Version>
5.8.1

> <Gold.Id.Protein>
6NUR|6NUR_protein|mol2

> <Gold.PLP.Fitness>
38.8534

> <Gold.PLP.PLP>
-31.5740

> <Gold.PLP.part.hbond>
-3.8166

> <Gold.PLP.part.metal>
0.0000

> <Gold.PLP.part.buried>
-5.6374

> <Gold.PLP.part.nonpolar>
-21.5863

> <Gold.PLP.part.repulsive>
0.0964

> <Gold.PLP.ligand.clash>
0.0000

> <Gold.PLP.ligand.torsion>
0.2550

> <Gold.PLP.Chemscore.Hbond>
2.5940

> <Gold.PLP.Chemscore.CHOScore>
0.0000

> <Gold.PLP.Chemscore.Metal>
0.0000

> <Gold.Chemscore.Hbonds>
donor molecule, donor type, donor heavy atom, donor atom, acceptor molecule, acceptor atom, score
      L1  H    12    17       P1  7948  0.98
      P1  H  7989  7998       L1    10  0.80
      P1  H  7997  8008       L1    16  1.00

> <Gold.PLP.Chemscore.Internal.Correction>
0.0073

> <Gold.Rescore>
     Score         DG    S(hbond)    S(metal)    S(lipo)     H(rot)  DE(clash)    DE(int)     intcor
     11.39     -12.55       1.77        0.00      60.41       2.31       0.99       0.17       ----

> <Gold.Chemscore.Fitness>
11.3900

> <Gold.Chemscore.DG>
-12.5540

> <Gold.Chemscore.ZeroCoef>
-5.4800

> <Gold.Chemscore.Hbond>
1.7722

> <Gold.Chemscore.Metal>
0.0000

> <Gold.Chemscore.Lipo>
60.4119

> <Gold.Chemscore.Internal_Hbond>
0.0000

> <Gold.Chemscore.DEClash>
0.9902

> <Gold.Chemscore.DEInternal>
0.1739

> <Gold.Chemscore.Rot>
2.3099

> <Gold.Chemscore.Internal.Correction>
   9.000000E+99

> <Gold.Chemscore.Hbonds>
donor molecule, donor type, donor heavy atom, donor atom, acceptor molecule, acceptor atom, score
      L1  H    12    17       P1  7948  0.68
      P1  H  7989  7998       L1    10  0.06
      P1  H  7997  8008       L1    16  0.70

> <Gold.Chemscore.Hbond.Weighted>
-5.9192

> <Gold.Chemscore.Metal.Weighted>
-0.0000

> <Gold.Chemscore.Lipo.Weighted>
-7.0682

> <Gold.Chemscore.Internal_Hbond.Weighted>
0.0000

> <Gold.Chemscore.DEClash.Weighted>
0.9902

> <Gold.Chemscore.DEInternal.Weighted>
0.1739

> <Gold.Chemscore.Rot.Weighted>
5.9134

> <Gold.Chemscore.Internal.Correction.Weighted>
   9.000000E+99

> <Gold.Protein.RotatedTorsions>
[ 6907 6896 6895 6894 ] final   28.93 input  -60.11 | X-H torsion
[ 7974 7965 7964 7962 ] final   23.62 input  175.53 | X-H torsion
[ 8008 7997 7996 7995 ] final  -74.56 input   59.86 | X-H torsion
[ 10167 10162 10161 10158 ] final   -4.63 input  -65.29 | X-H torsion
[ 10718 10713 10712 10709 ] final  147.41 input   66.30 | X-H torsion
[ 10763 10752 10751 10750 ] final   11.04 input  -60.55 | X-H torsion
[ 11005 11000 10999 10996 ] final  -61.14 input  -57.11 | X-H torsion

> <Gold.Protein.ActiveResidues>
 VAL166  LYS551  ARG553  GLY616  TRP617  ASP618  TYR619  PRO620  LYS621  CYS622 
 ASP623  PHE694  ASN695  SER759  ASP760  ASP761  ALA762  ILE779  LEU786  VAL792 
 PHE793  MET794  SER795  GLU796  ALA797  LYS798  CYS799  TRP800  GLU811  SER814 

> <Gold.Protein.RotatedAtoms>
  152.0242  134.9805  160.0571 H   0  0  0  0  0  0  0  0  0  0  0  0  # atno 6907 bound_to 6896
  152.1308  133.4402  159.4728 H   0  0  0  0  0  0  0  0  0  0  0  0  # atno 6908 bound_to 6896
  150.6856  134.2342  159.4489 H   0  0  0  0  0  0  0  0  0  0  0  0  # atno 6909 bound_to 6896
  146.1976  139.7719  142.8786 H   0  0  0  0  0  0  0  0  0  0  0  0  # atno 7974 bound_to 7965
  154.5341  140.0759  156.8397 H   0  0  0  0  0  0  0  0  0  0  0  0  # atno 8008 bound_to 7997
  155.3314  140.3402  155.4221 H   0  0  0  0  0  0  0  0  0  0  0  0  # atno 8009 bound_to 7997
  156.1811  140.1652  156.8260 H   0  0  0  0  0  0  0  0  0  0  0  0  # atno 8010 bound_to 7997
  140.6934  143.6402  150.8443 H   0  0  0  0  0  0  0  0  0  0  0  0  # atno 10167 bound_to 10162
  157.3214  131.0905  151.1238 H   0  0  0  0  0  0  0  0  0  0  0  0  # atno 10718 bound_to 10713
  153.1968  135.6850  153.8282 H   0  0  0  0  0  0  0  0  0  0  0  0  # atno 10763 bound_to 10752
  153.7562  135.3216  155.3330 H   0  0  0  0  0  0  0  0  0  0  0  0  # atno 10764 bound_to 10752
  154.8149  135.4692  154.0716 H   0  0  0  0  0  0  0  0  0  0  0  0  # atno 10765 bound_to 10752
  141.1313  133.6627  156.5329 H   0  0  0  0  0  0  0  0  0  0  0  0  # atno 11005 bound_to 11000
  145.3593  141.0322  143.3294 LP  0  0  0  0  0  0  0  0  0  0  0  0  # atno 17320 bound_to 7965
  144.8613  139.5173  143.6811 LP  0  0  0  0  0  0  0  0  0  0  0  0  # atno 17321 bound_to 7965
  140.0117  143.5635  152.2836 LP  0  0  0  0  0  0  0  0  0  0  0  0  # atno 17342 bound_to 10162
  139.6362  144.7650  151.2433 LP  0  0  0  0  0  0  0  0  0  0  0  0  # atno 17343 bound_to 10162
  157.2521  130.6619  149.5936 LP  0  0  0  0  0  0  0  0  0  0  0  0  # atno 17370 bound_to 10713
  155.9686  130.4535  150.5814 LP  0  0  0  0  0  0  0  0  0  0  0  0  # atno 17371 bound_to 10713
  140.4201  134.7195  157.4885 LP  0  0  0  0  0  0  0  0  0  0  0  0  # atno 17394 bound_to 11000
  140.0366  134.6328  155.9035 LP  0  0  0  0  0  0  0  0  0  0  0  0  # atno 17395 bound_to 11000

$$$$
