AV-unprocessed.smi:365|AV-procd|sdf|2428|dock1
  -GOLD-   2262022363D 1   1.00000     0.00000
 Structure written by MMmdl.
 53 54  0  0  0  0  0  0  0  0  1 V2000
  146.8101  138.6719  151.6082 C   0  0  0  0  0  0  0  0  0  0  0  0
  146.7027  139.1955  153.0545 C   0  0  1  0  0  0  0  0  0  0  0  0
  145.4149  138.9079  153.6956 N   0  0  0  0  0  0  0  0  0  0  0  0
  145.0535  137.8350  154.4254 C   0  0  0  0  0  0  0  0  0  0  0  0
  145.8262  136.9140  154.6925 O   0  0  0  0  0  0  0  0  0  0  0  0
  143.5969  137.8182  154.9473 C   0  0  0  0  0  0  0  0  0  0  0  0
  143.4127  136.6209  155.9029 C   0  0  0  0  0  0  0  0  0  0  0  0
  142.6004  137.6714  153.7748 C   0  0  0  0  0  0  0  0  0  0  0  0
  143.2890  139.1385  155.6863 C   0  0  0  0  0  0  0  0  0  0  0  0
  147.9063  138.8320  153.9356 C   0  0  0  0  0  0  0  0  0  0  0  0
  147.7462  138.4693  155.1015 O   0  0  0  0  0  0  0  0  0  0  0  0
  149.1121  138.9106  153.3520 N   0  0  0  0  0  0  0  0  0  0  0  0
  150.3772  138.5651  153.9919 C   0  0  0  0  0  0  0  0  0  0  0  0
  150.7933  139.5226  155.0992 C   0  0  0  0  0  0  0  0  0  0  0  0
  150.0640  140.7053  155.3265 C   0  0  0  0  0  0  0  0  0  0  0  0
  150.4787  141.5836  156.3461 C   0  0  0  0  0  0  0  0  0  0  0  0
  151.6247  141.2603  157.1175 C   0  0  0  0  0  0  0  0  0  0  0  0
  152.0935  142.0954  158.1593 N   0  0  0  0  0  0  0  0  0  0  0  0
  151.5284  143.4438  158.2269 C   0  0  0  0  0  0  0  0  0  0  0  0
  152.3593  144.3369  159.1636 C   0  0  0  0  0  0  0  0  0  0  0  0
  152.4839  143.7168  160.4381 O   0  0  0  0  0  0  0  0  0  0  0  0
  153.1681  142.4727  160.3491 C   0  0  0  0  0  0  0  0  0  0  0  0
  152.3689  141.5004  159.4651 C   0  0  0  0  0  0  0  0  0  0  0  0
  152.3224  140.1205  156.8901 N   0  0  0  0  0  0  0  0  0  0  0  0
  151.9204  139.2822  155.9126 C   0  0  0  0  0  0  0  0  0  0  0  0
  147.6926  139.0795  151.1141 H   0  0  0  0  0  0  0  0  0  0  0  0
  145.9418  138.9642  151.0169 H   0  0  0  0  0  0  0  0  0  0  0  0
  146.8966  137.5862  151.5676 H   0  0  0  0  0  0  0  0  0  0  0  0
  146.7069  140.2839  152.9773 H   0  0  0  0  0  0  0  0  0  0  0  0
  144.7025  139.6101  153.5592 H   0  0  0  0  0  0  0  0  0  0  0  0
  142.3836  136.5550  156.2575 H   0  0  0  0  0  0  0  0  0  0  0  0
  144.0513  136.7003  156.7836 H   0  0  0  0  0  0  0  0  0  0  0  0
  143.6482  135.6763  155.4101 H   0  0  0  0  0  0  0  0  0  0  0  0
  142.7490  136.7364  153.2325 H   0  0  0  0  0  0  0  0  0  0  0  0
  142.6965  138.4893  153.0589 H   0  0  0  0  0  0  0  0  0  0  0  0
  141.5697  137.6749  154.1309 H   0  0  0  0  0  0  0  0  0  0  0  0
  142.2489  139.1726  156.0124 H   0  0  0  0  0  0  0  0  0  0  0  0
  143.4564  140.0040  155.0438 H   0  0  0  0  0  0  0  0  0  0  0  0
  143.9060  139.2636  156.5770 H   0  0  0  0  0  0  0  0  0  0  0  0
  149.1548  139.2143  152.3900 H   0  0  0  0  0  0  0  0  0  0  0  0
  150.2754  137.5698  154.4246 H   0  0  0  0  0  0  0  0  0  0  0  0
  151.1691  138.4946  153.2439 H   0  0  0  0  0  0  0  0  0  0  0  0
  149.1970  140.9418  154.7273 H   0  0  0  0  0  0  0  0  0  0  0  0
  149.9130  142.4889  156.5037 H   0  0  0  0  0  0  0  0  0  0  0  0
  151.4902  143.9163  157.2454 H   0  0  0  0  0  0  0  0  0  0  0  0
  150.5017  143.3756  158.5887 H   0  0  0  0  0  0  0  0  0  0  0  0
  153.3471  144.5291  158.7415 H   0  0  0  0  0  0  0  0  0  0  0  0
  151.8732  145.3046  159.2871 H   0  0  0  0  0  0  0  0  0  0  0  0
  154.1727  142.6249  159.9507 H   0  0  0  0  0  0  0  0  0  0  0  0
  153.2839  142.0594  161.3510 H   0  0  0  0  0  0  0  0  0  0  0  0
  151.4261  141.2413  159.9484 H   0  0  0  0  0  0  0  0  0  0  0  0
  152.9468  140.5830  159.3516 H   0  0  0  0  0  0  0  0  0  0  0  0
  152.5264  138.3983  155.7772 H   0  0  0  0  0  0  0  0  0  0  0  0
  1  2  1  0  0  0  0
  1 26  1  0  0  0  0
  1 27  1  0  0  0  0
  1 28  1  0  0  0  0
  2  3  1  0  0  0  0
  2 10  1  0  0  0  0
  2 29  1  0  0  0  0
  3  4  1  0  0  0  0
  3 30  1  0  0  0  0
  4  5  2  0  0  0  0
  4  6  1  0  0  0  0
  6  7  1  0  0  0  0
  6  8  1  0  0  0  0
  6  9  1  0  0  0  0
  7 31  1  0  0  0  0
  7 32  1  0  0  0  0
  7 33  1  0  0  0  0
  8 34  1  0  0  0  0
  8 35  1  0  0  0  0
  8 36  1  0  0  0  0
  9 37  1  0  0  0  0
  9 38  1  0  0  0  0
  9 39  1  0  0  0  0
 10 11  2  0  0  0  0
 10 12  1  0  0  0  0
 12 13  1  0  0  0  0
 12 40  1  0  0  0  0
 13 14  1  0  0  0  0
 13 41  1  0  0  0  0
 13 42  1  0  0  0  0
 14 25  1  0  0  0  0
 14 15  2  0  0  0  0
 15 16  1  0  0  0  0
 15 43  1  0  0  0  0
 16 17  2  0  0  0  0
 16 44  1  0  0  0  0
 17 18  1  0  0  0  0
 17 24  1  0  0  0  0
 18 23  1  0  0  0  0
 18 19  1  0  0  0  0
 19 20  1  0  0  0  0
 19 45  1  0  0  0  0
 19 46  1  0  0  0  0
 20 21  1  0  0  0  0
 20 47  1  0  0  0  0
 20 48  1  0  0  0  0
 21 22  1  0  0  0  0
 22 23  1  0  0  0  0
 22 49  1  0  0  0  0
 22 50  1  0  0  0  0
 23 51  1  0  0  0  0
 23 52  1  0  0  0  0
 24 25  2  0  0  0  0
 25 53  1  0  0  0  0
M  END
> <s_m_source_file>
AV-unprocessed.smi

> <i_m_source_file_index>
365

> <i_lp_mmshare_version>
43012

> <i_f3d_flags>
0

> <s_epik_input>
W0NIM11DKFtDSDNdKShbQ0gzXSlDKD1PKVtOSF1bQ0BASF0oW0NIM10pQyg9TylbTkhdW0NIMl1jMVtjSF1bY0hdYyhuW2NIXTEpTjJbQ0gyXVtDSDJdT1tDSDJdW0NIMl0y

> <s_epik_cmdline>
J2VwaWtfcHl0aG9uJywgJy1waCcsICc3LjAnLCAnLXRuJywgJzgnLCAnLW1hJywgJzIwMCcsICctbWV0YWxfYmluZGluZycsICctaW1hZScsICc8aW5maWxlLm1hZT4nLCAnLW9tYWUnLCAnPG91dGZpbGUubWFlPic=

> <r_lp_tautomer_probability>
1

> <r_epik_Ionization_Penalty>
0.00484327

> <r_epik_Ionization_Penalty_Charging>
0

> <r_epik_Ionization_Penalty_Neutral>
0.00484327

> <r_epik_State_Penalty>
0.0035131

> <r_epik_Charging_Adjusted_Penalty>
0.0035131

> <i_epik_Tot_Q>
0

> <i_epik_Tot_abs_Q>
0

> <r_epik_Metal_State_Penalty>
-0

> <b_epik_Metal_Only>
0

> <s_lp_Force_Field>
OPLS_2005

> <r_lp_Energy>
26.0036

> <b_lp_Chiralities_Consistent>
1

> <s_lp_Variant>
AV-unprocessed.smi:365-2

> <Gold.Version>
5.8.1

> <Gold.Id.Protein>
6NUR|6NUR_protein|mol2

> <Gold.PLP.Fitness>
50.1403

> <Gold.PLP.PLP>
-42.6644

> <Gold.PLP.part.hbond>
-3.8571

> <Gold.PLP.part.metal>
0.0000

> <Gold.PLP.part.buried>
-1.5727

> <Gold.PLP.part.nonpolar>
-37.1327

> <Gold.PLP.part.repulsive>
0.2614

> <Gold.PLP.ligand.clash>
0.0000

> <Gold.PLP.ligand.torsion>
1.1036

> <Gold.PLP.Chemscore.Hbond>
2.9585

> <Gold.PLP.Chemscore.CHOScore>
0.0000

> <Gold.PLP.Chemscore.Metal>
0.0000

> <Gold.Chemscore.Hbonds>
donor molecule, donor type, donor heavy atom, donor atom, acceptor molecule, acceptor atom, score
      L1  H     3    30       P1 10175  0.98
      L1  H    12    40       P1  7957  1.00
      P1  H  7997  8008       L1    24  0.90

> <Gold.PLP.Chemscore.Internal.Correction>
0.8076

> <Gold.Rescore>
     Score         DG    S(hbond)    S(metal)    S(lipo)     H(rot)  DE(clash)    DE(int)     intcor
     15.38     -21.14       2.60        0.00     104.09       2.04       0.37       5.38       ----

> <Gold.Chemscore.Fitness>
15.3823

> <Gold.Chemscore.DG>
-21.1352

> <Gold.Chemscore.ZeroCoef>
-5.4800

> <Gold.Chemscore.Hbond>
2.6020

> <Gold.Chemscore.Metal>
0.0000

> <Gold.Chemscore.Lipo>
104.0883

> <Gold.Chemscore.Internal_Hbond>
0.0000

> <Gold.Chemscore.DEClash>
0.3696

> <Gold.Chemscore.DEInternal>
5.3833

> <Gold.Chemscore.Rot>
2.0367

> <Gold.Chemscore.Internal.Correction>
   9.000000E+99

> <Gold.Chemscore.Hbonds>
donor molecule, donor type, donor heavy atom, donor atom, acceptor molecule, acceptor atom, score
      L1  H     3    30       P1 10175  0.93
      L1  H    12    40       P1  7957  0.94
      P1  H  7997  8008       L1    24  0.19

> <Gold.Chemscore.Hbond.Weighted>
-8.6908

> <Gold.Chemscore.Metal.Weighted>
-0.0000

> <Gold.Chemscore.Lipo.Weighted>
-12.1783

> <Gold.Chemscore.Internal_Hbond.Weighted>
0.0000

> <Gold.Chemscore.DEClash.Weighted>
0.3696

> <Gold.Chemscore.DEInternal.Weighted>
5.3833

> <Gold.Chemscore.Rot.Weighted>
5.2140

> <Gold.Chemscore.Internal.Correction.Weighted>
   9.000000E+99

> <Gold.Protein.RotatedTorsions>
[ 6907 6896 6895 6894 ] final -126.99 input  -60.11 | X-H torsion
[ 7974 7965 7964 7962 ] final  114.99 input  175.53 | X-H torsion
[ 8008 7997 7996 7995 ] final  -53.08 input   59.86 | X-H torsion
[ 10167 10162 10161 10158 ] final -105.54 input  -65.29 | X-H torsion
[ 10718 10713 10712 10709 ] final  118.03 input   66.30 | X-H torsion
[ 10763 10752 10751 10750 ] final  -45.66 input  -60.55 | X-H torsion
[ 11005 11000 10999 10996 ] final   74.83 input  -57.11 | X-H torsion

> <Gold.Protein.ActiveResidues>
 VAL166  LYS551  ARG553  GLY616  TRP617  ASP618  TYR619  PRO620  LYS621  CYS622 
 ASP623  PHE694  ASN695  SER759  ASP760  ASP761  ALA762  ILE779  LEU786  VAL792 
 PHE793  MET794  SER795  GLU796  ALA797  LYS798  CYS799  TRP800  GLU811  SER814 

> <Gold.Protein.RotatedAtoms>
  150.9026  133.7098  159.2874 H   0  0  0  0  0  0  0  0  0  0  0  0  # atno 6907 bound_to 6896
  151.4612  135.1037  159.9735 H   0  0  0  0  0  0  0  0  0  0  0  0  # atno 6908 bound_to 6896
  152.4885  133.8389  159.7197 H   0  0  0  0  0  0  0  0  0  0  0  0  # atno 6909 bound_to 6896
  145.1975  139.2969  143.4336 H   0  0  0  0  0  0  0  0  0  0  0  0  # atno 7974 bound_to 7965
  154.4123  140.1208  156.5096 H   0  0  0  0  0  0  0  0  0  0  0  0  # atno 8008 bound_to 7997
  155.6812  140.3496  155.4837 H   0  0  0  0  0  0  0  0  0  0  0  0  # atno 8009 bound_to 7997
  155.9550  140.1112  157.0935 H   0  0  0  0  0  0  0  0  0  0  0  0  # atno 8010 bound_to 7997
  140.1974  143.3845  152.1157 H   0  0  0  0  0  0  0  0  0  0  0  0  # atno 10167 bound_to 10162
  157.6058  131.1043  150.7698 H   0  0  0  0  0  0  0  0  0  0  0  0  # atno 10718 bound_to 10713
  154.0321  135.6655  153.4782 H   0  0  0  0  0  0  0  0  0  0  0  0  # atno 10763 bound_to 10752
  153.0536  135.5069  154.7923 H   0  0  0  0  0  0  0  0  0  0  0  0  # atno 10764 bound_to 10752
  154.6871  135.3055  154.9497 H   0  0  0  0  0  0  0  0  0  0  0  0  # atno 10765 bound_to 10752
  139.9372  134.7466  156.1195 H   0  0  0  0  0  0  0  0  0  0  0  0  # atno 11005 bound_to 11000
  146.3424  140.2209  142.8591 LP  0  0  0  0  0  0  0  0  0  0  0  0  # atno 17320 bound_to 7965
  144.9980  140.8607  143.5299 LP  0  0  0  0  0  0  0  0  0  0  0  0  # atno 17321 bound_to 7965
  139.5231  144.7067  151.5332 LP  0  0  0  0  0  0  0  0  0  0  0  0  # atno 17342 bound_to 10162
  140.6414  143.8881  150.6695 LP  0  0  0  0  0  0  0  0  0  0  0  0  # atno 17343 bound_to 10162
  156.8087  130.4945  149.5359 LP  0  0  0  0  0  0  0  0  0  0  0  0  # atno 17370 bound_to 10713
  156.1143  130.6064  151.0097 LP  0  0  0  0  0  0  0  0  0  0  0  0  # atno 17371 bound_to 10713
  141.0992  133.6684  156.2714 LP  0  0  0  0  0  0  0  0  0  0  0  0  # atno 17394 bound_to 11000
  140.6044  134.5522  157.5523 LP  0  0  0  0  0  0  0  0  0  0  0  0  # atno 17395 bound_to 11000

$$$$
