AV-unprocessed.smi:771|AV-procd|sdf|3682|dock9
  -GOLD-   22720 1 93D 1   1.00000     0.00000
 Structure written by MMmdl.
 41 42  0  0  0  0  0  0  0  0  3 V2000
  145.8429  138.2963  154.9361 O   0  0  0  0  0  0  0  0  0  0  0  0
  146.5736  137.9704  153.9997 C   0  0  0  0  0  0  0  0  0  0  0  0
  147.3523  139.0318  153.2108 C   0  0  0  0  0  0  0  0  0  0  0  0
  148.4185  139.6654  154.0050 N   0  0  0  0  0  0  0  0  0  0  0  0
  149.6280  138.9557  154.1411 C   0  0  0  0  0  0  0  0  0  0  0  0
  150.6697  139.4447  154.8423 C   0  0  0  0  0  0  0  0  0  0  0  0
  151.9055  138.7037  154.9698 N   0  3  0  0  0  0  0  0  0  0  0  0
  152.0001  137.6168  154.4087 O   0  0  0  0  0  0  0  0  0  0  0  0
  152.8215  139.1825  155.6320 O   0  5  0  0  0  0  0  0  0  0  0  0
  150.5127  140.7448  155.4653 C   0  0  0  0  0  0  0  0  0  0  0  0
  149.3593  141.4297  155.3365 C   0  0  0  0  0  0  0  0  0  0  0  0
  148.2272  140.8961  154.5725 C   0  0  0  0  0  0  0  0  0  0  0  0
  147.1712  141.5174  154.4493 O   0  0  0  0  0  0  0  0  0  0  0  0
  146.7373  136.7003  153.6007 N   0  0  0  0  0  0  0  0  0  0  0  0
  146.1364  135.5349  154.2416 C   0  0  0  0  0  0  0  0  0  0  0  0
  147.1357  134.3664  154.4122 C   0  0  1  0  0  0  0  0  0  0  0  0
  147.4582  133.7004  153.0585 C   0  0  0  0  0  0  0  0  0  0  0  0
  148.3920  132.4916  153.2294 C   0  0  0  0  0  0  0  0  0  0  0  0
  149.6875  132.8861  153.9538 C   0  0  0  0  0  0  0  0  0  0  0  0
  149.3887  133.5529  155.3076 C   0  0  0  0  0  0  0  0  0  0  0  0
  148.4341  134.7546  155.1678 C   0  0  1  0  0  0  0  0  0  0  0  0
  149.1087  135.8119  154.5114 O   0  0  0  0  0  0  0  0  0  0  0  0
  147.7793  138.5839  152.3111 H   0  0  0  0  0  0  0  0  0  0  0  0
  146.6404  139.7751  152.8495 H   0  0  0  0  0  0  0  0  0  0  0  0
  149.6482  138.0015  153.6347 H   0  0  0  0  0  0  0  0  0  0  0  0
  151.3187  141.1796  156.0381 H   0  0  0  0  0  0  0  0  0  0  0  0
  149.2645  142.3970  155.8075 H   0  0  0  0  0  0  0  0  0  0  0  0
  147.3468  136.5251  152.8147 H   0  0  0  0  0  0  0  0  0  0  0  0
  145.7256  135.8245  155.2100 H   0  0  0  0  0  0  0  0  0  0  0  0
  145.2869  135.2183  153.6362 H   0  0  0  0  0  0  0  0  0  0  0  0
  146.6368  133.6077  155.0175 H   0  0  0  0  0  0  0  0  0  0  0  0
  146.5360  133.3781  152.5740 H   0  0  0  0  0  0  0  0  0  0  0  0
  147.9190  134.4259  152.3870 H   0  0  0  0  0  0  0  0  0  0  0  0
  147.8804  131.7111  153.7940 H   0  0  0  0  0  0  0  0  0  0  0  0
  148.6275  132.0635  152.2546 H   0  0  0  0  0  0  0  0  0  0  0  0
  150.3119  132.0050  154.1044 H   0  0  0  0  0  0  0  0  0  0  0  0
  150.2638  133.5671  153.3262 H   0  0  0  0  0  0  0  0  0  0  0  0
  148.9367  132.8161  155.9727 H   0  0  0  0  0  0  0  0  0  0  0  0
  150.3186  133.8621  155.7863 H   0  0  0  0  0  0  0  0  0  0  0  0
  148.1845  135.1071  156.1692 H   0  0  0  0  0  0  0  0  0  0  0  0
  148.9412  135.7454  153.5840 H   0  0  0  0  0  0  0  0  0  0  0  0
  1  2  2  0  0  0  0
  2  3  1  0  0  0  0
  2 14  1  0  0  0  0
  3  4  1  0  0  0  0
  3 23  1  0  0  0  0
  3 24  1  0  0  0  0
  4 12  1  0  0  0  0
  4  5  1  0  0  0  0
  5  6  2  0  0  0  0
  5 25  1  0  0  0  0
  6  7  1  0  0  0  0
  6 10  1  0  0  0  0
  7  8  2  0  0  0  0
  7  9  1  0  0  0  0
 10 11  2  0  0  0  0
 10 26  1  0  0  0  0
 11 12  1  0  0  0  0
 11 27  1  0  0  0  0
 12 13  2  0  0  0  0
 14 15  1  0  0  0  0
 14 28  1  0  0  0  0
 15 16  1  0  0  0  0
 15 29  1  0  0  0  0
 15 30  1  0  0  0  0
 16 21  1  0  0  0  0
 16 17  1  0  0  0  0
 16 31  1  0  0  0  0
 17 18  1  0  0  0  0
 17 32  1  0  0  0  0
 17 33  1  0  0  0  0
 18 19  1  0  0  0  0
 18 34  1  0  0  0  0
 18 35  1  0  0  0  0
 19 20  1  0  0  0  0
 19 36  1  0  0  0  0
 19 37  1  0  0  0  0
 20 21  1  0  0  0  0
 20 38  1  0  0  0  0
 20 39  1  0  0  0  0
 21 22  1  0  0  0  0
 21 40  1  0  0  0  0
 22 41  1  0  0  0  0
M  CHG  1   7   1
M  CHG  1   9  -1
M  END
> <s_m_source_file>
AV-unprocessed.smi

> <i_m_source_file_index>
771

> <i_lp_mmshare_version>
43012

> <i_f3d_flags>
0

> <s_epik_input>
Tz1jMVtjSF1bY0hdYyhbTitdKD1PKVtPLV0pW2NIXW4xW0NIMl1DKD1PKVtOSF1bQ0gyXVtDQEBIXTJbQ0gyXVtDSDJdW0NIMl1bQ0gyXVtDQEhdMltPSF0=

> <s_epik_cmdline>
J2VwaWtfcHl0aG9uJywgJy1waCcsICc3LjAnLCAnLXRuJywgJzgnLCAnLW1hJywgJzIwMCcsICctbWV0YWxfYmluZGluZycsICctaW1hZScsICc8aW5maWxlLm1hZT4nLCAnLW9tYWUnLCAnPG91dGZpbGUubWFlPic=

> <r_lp_tautomer_probability>
1

> <r_epik_Ionization_Penalty>
3.77175e-07

> <r_epik_Ionization_Penalty_Charging>
7.70067e-11

> <r_epik_Ionization_Penalty_Neutral>
3.77098e-07

> <r_epik_State_Penalty>
-0

> <r_epik_Charging_Adjusted_Penalty>
7.70067e-11

> <i_epik_Tot_Q>
0

> <i_epik_Tot_abs_Q>
2

> <r_epik_Metal_State_Penalty>
-0

> <b_epik_Metal_Only>
0

> <s_lp_Force_Field>
OPLS_2005

> <r_lp_Energy>
25.2575

> <b_lp_Chiralities_Consistent>
1

> <s_lp_Variant>
AV-unprocessed.smi:771-2

> <Gold.Version>
5.8.1

> <Gold.Id.Protein>
6NUR|6NUR_protein|mol2

> <Gold.PLP.Fitness>
49.2545

> <Gold.PLP.PLP>
-35.4491

> <Gold.PLP.part.hbond>
-4.0000

> <Gold.PLP.part.metal>
0.0000

> <Gold.PLP.part.buried>
-1.5350

> <Gold.PLP.part.nonpolar>
-29.8981

> <Gold.PLP.part.repulsive>
0.3525

> <Gold.PLP.ligand.clash>
0.0000

> <Gold.PLP.ligand.torsion>
0.4894

> <Gold.PLP.Chemscore.Hbond>
3.9120

> <Gold.PLP.Chemscore.CHOScore>
1.0000

> <Gold.PLP.Chemscore.Metal>
0.0000

> <Gold.Chemscore.Hbonds>
donor molecule, donor type, donor heavy atom, donor atom, acceptor molecule, acceptor atom, score
      L1  H    14    28       P1  7948  1.00
      L1  H    22    41       P1  7948  1.00
      P1  H  7997  8009       L1     9  1.00
      P1  H 10752 10764       L1     8  0.56
      L1  C     5    25       P1  7948  0.91

> <Gold.PLP.Chemscore.Internal.Correction>
0.0482

> <Gold.Rescore>
     Score         DG    S(hbond)    S(metal)    S(lipo)     H(rot)  DE(clash)    DE(int)     intcor
     16.89     -19.08       3.78        0.00      62.56       2.48       0.14       2.06       ----

> <Gold.Chemscore.Fitness>
16.8898

> <Gold.Chemscore.DG>
-19.0810

> <Gold.Chemscore.ZeroCoef>
-5.4800

> <Gold.Chemscore.Hbond>
3.7778

> <Gold.Chemscore.Metal>
0.0000

> <Gold.Chemscore.Lipo>
62.5638

> <Gold.Chemscore.Internal_Hbond>
0.0000

> <Gold.Chemscore.DEClash>
0.1352

> <Gold.Chemscore.DEInternal>
2.0561

> <Gold.Chemscore.Rot>
2.4753

> <Gold.Chemscore.Internal.Correction>
   9.000000E+99

> <Gold.Chemscore.Hbonds>
donor molecule, donor type, donor heavy atom, donor atom, acceptor molecule, acceptor atom, score
      L1  H    14    28       P1  7948  0.99
      L1  H    22    41       P1  7948  0.92
      P1  H  7997  8009       L1     9  1.00
      P1  H 10752 10764       L1     8  0.55

> <Gold.Chemscore.Hbond.Weighted>
-12.6179

> <Gold.Chemscore.Metal.Weighted>
-0.0000

> <Gold.Chemscore.Lipo.Weighted>
-7.3200

> <Gold.Chemscore.Internal_Hbond.Weighted>
0.0000

> <Gold.Chemscore.DEClash.Weighted>
0.1352

> <Gold.Chemscore.DEInternal.Weighted>
2.0561

> <Gold.Chemscore.Rot.Weighted>
6.3369

> <Gold.Chemscore.Internal.Correction.Weighted>
   9.000000E+99

> <Gold.Protein.RotatedTorsions>
[ 6907 6896 6895 6894 ] final -141.72 input  -60.11 | X-H torsion
[ 7974 7965 7964 7962 ] final -128.93 input  175.53 | X-H torsion
[ 8008 7997 7996 7995 ] final -156.07 input   59.86 | X-H torsion
[ 10167 10162 10161 10158 ] final   46.30 input  -65.29 | X-H torsion
[ 10718 10713 10712 10709 ] final  116.37 input   66.30 | X-H torsion
[ 10763 10752 10751 10750 ] final  -81.84 input  -60.55 | X-H torsion
[ 11005 11000 10999 10996 ] final   25.37 input  -57.11 | X-H torsion

> <Gold.Protein.ActiveResidues>
 VAL166  LYS551  ARG553  GLY616  TRP617  ASP618  TYR619  PRO620  LYS621  CYS622 
 ASP623  PHE694  ASN695  SER759  ASP760  ASP761  ALA762  ILE779  LEU786  VAL792 
 PHE793  MET794  SER795  GLU796  ALA797  LYS798  CYS799  TRP800  GLU811  SER814 

> <Gold.Protein.RotatedAtoms>
  151.0776  133.5416  159.2622 H   0  0  0  0  0  0  0  0  0  0  0  0  # atno 6907 bound_to 6896
  151.2331  135.0561  159.9005 H   0  0  0  0  0  0  0  0  0  0  0  0  # atno 6908 bound_to 6896
  152.5419  134.0562  159.8185 H   0  0  0  0  0  0  0  0  0  0  0  0  # atno 6909 bound_to 6896
  144.9621  140.7458  143.4722 H   0  0  0  0  0  0  0  0  0  0  0  0  # atno 7974 bound_to 7965
  155.7115  140.0779  157.2369 H   0  0  0  0  0  0  0  0  0  0  0  0  # atno 8008 bound_to 7997
  154.4058  140.1629  156.2355 H   0  0  0  0  0  0  0  0  0  0  0  0  # atno 8009 bound_to 7997
  155.9278  140.3393  155.6227 H   0  0  0  0  0  0  0  0  0  0  0  0  # atno 8010 bound_to 7997
  140.3153  144.2771  150.6192 H   0  0  0  0  0  0  0  0  0  0  0  0  # atno 10167 bound_to 10162
  157.6164  131.1024  150.7463 H   0  0  0  0  0  0  0  0  0  0  0  0  # atno 10718 bound_to 10713
  154.5685  135.5612  153.7072 H   0  0  0  0  0  0  0  0  0  0  0  0  # atno 10763 bound_to 10752
  153.0040  135.6291  154.2147 H   0  0  0  0  0  0  0  0  0  0  0  0  # atno 10764 bound_to 10752
  154.2087  135.2874  155.2946 H   0  0  0  0  0  0  0  0  0  0  0  0  # atno 10765 bound_to 10752
  140.3486  134.2254  155.7682 H   0  0  0  0  0  0  0  0  0  0  0  0  # atno 11005 bound_to 11000
  145.2684  139.1964  143.4855 LP  0  0  0  0  0  0  0  0  0  0  0  0  # atno 17320 bound_to 7965
  146.3356  140.2626  142.8602 LP  0  0  0  0  0  0  0  0  0  0  0  0  # atno 17321 bound_to 7965
  140.5532  143.2203  151.7892 LP  0  0  0  0  0  0  0  0  0  0  0  0  # atno 17342 bound_to 10162
  139.4885  144.4449  151.9721 LP  0  0  0  0  0  0  0  0  0  0  0  0  # atno 17343 bound_to 10162
  156.7830  130.4865  149.5398 LP  0  0  0  0  0  0  0  0  0  0  0  0  # atno 17370 bound_to 10713
  156.1289  130.6163  151.0304 LP  0  0  0  0  0  0  0  0  0  0  0  0  # atno 17371 bound_to 10713
  141.2018  133.7952  157.0420 LP  0  0  0  0  0  0  0  0  0  0  0  0  # atno 17394 bound_to 11000
  140.0722  134.9696  157.1486 LP  0  0  0  0  0  0  0  0  0  0  0  0  # atno 17395 bound_to 11000

$$$$
