AV-unprocessed.smi:1914|AV-procd|sdf|7758|dock7
  -GOLD-   22720 9503D 1   1.00000     0.00000
 Structure written by MMmdl.
 44 45  0  0  0  0  0  0  0  0  2 V2000
  146.4639  129.7011  151.2245 C   0  0  0  0  0  0  0  0  0  0  0  0
  145.7458  130.8259  151.9907 C   0  0  2  0  0  0  0  0  0  0  0  0
  145.0431  131.8297  151.0580 C   0  0  0  0  0  0  0  0  0  0  0  0
  146.0577  132.7492  150.3636 C   0  0  0  0  0  0  0  0  0  0  0  0
  146.9782  133.4285  151.3898 C   0  0  0  0  0  0  0  0  0  0  0  0
  147.6654  132.4235  152.2412 N   0  3  1  0  0  0  0  0  0  0  0  0
  148.6748  133.0428  153.1364 C   0  0  0  0  0  0  0  0  0  0  0  0
  148.0841  134.1763  153.9903 C   0  0  0  0  0  0  0  0  0  0  0  0
  148.9083  135.3723  153.8874 N   0  0  0  0  0  0  0  0  0  0  0  0
  149.2378  136.1553  154.9241 C   0  0  0  0  0  0  0  0  0  0  0  0
  148.8766  135.9266  156.0791 O   0  0  0  0  0  0  0  0  0  0  0  0
  150.1279  137.3642  154.6012 C   0  0  0  0  0  0  0  0  0  0  0  0
  149.3720  138.6184  154.4469 N   0  0  0  0  0  0  0  0  0  0  0  0
  147.9778  138.5120  154.2725 C   0  0  0  0  0  0  0  0  0  0  0  0
  147.1964  139.5935  154.1242 C   0  0  0  0  0  0  0  0  0  0  0  0
  147.8208  140.8949  154.1458 C   0  0  0  0  0  0  0  0  0  0  0  0
  149.1539  141.0081  154.3092 C   0  0  0  0  0  0  0  0  0  0  0  0
  150.0117  139.8286  154.4717 C   0  0  0  0  0  0  0  0  0  0  0  0
  151.2306  139.9214  154.6213 O   0  0  0  0  0  0  0  0  0  0  0  0
  146.6905  131.5613  152.9638 C   0  0  0  0  0  0  0  0  0  0  0  0
  147.2838  130.0812  150.6149 H   0  0  0  0  0  0  0  0  0  0  0  0
  145.7747  129.1759  150.5624 H   0  0  0  0  0  0  0  0  0  0  0  0
  146.8805  128.9648  151.9123 H   0  0  0  0  0  0  0  0  0  0  0  0
  144.9714  130.3434  152.5885 H   0  0  0  0  0  0  0  0  0  0  0  0
  144.4363  131.3064  150.3182 H   0  0  0  0  0  0  0  0  0  0  0  0
  144.3525  132.4394  151.6423 H   0  0  0  0  0  0  0  0  0  0  0  0
  146.6562  132.1771  149.6537 H   0  0  0  0  0  0  0  0  0  0  0  0
  145.5325  133.5052  149.7790 H   0  0  0  0  0  0  0  0  0  0  0  0
  147.7156  134.0313  150.8586 H   0  0  0  0  0  0  0  0  0  0  0  0
  146.4049  134.1109  152.0197 H   0  0  0  0  0  0  0  0  0  0  0  0
  149.0669  132.2834  153.8147 H   0  0  0  0  0  0  0  0  0  0  0  0
  149.5225  133.3980  152.5482 H   0  0  0  0  0  0  0  0  0  0  0  0
  147.0723  134.4249  153.6696 H   0  0  0  0  0  0  0  0  0  0  0  0
  148.0252  133.8657  155.0348 H   0  0  0  0  0  0  0  0  0  0  0  0
  149.2460  135.6264  152.9701 H   0  0  0  0  0  0  0  0  0  0  0  0
  150.8701  137.4580  155.3950 H   0  0  0  0  0  0  0  0  0  0  0  0
  150.7037  137.1643  153.6953 H   0  0  0  0  0  0  0  0  0  0  0  0
  147.5898  137.5038  154.2609 H   0  0  0  0  0  0  0  0  0  0  0  0
  146.1297  139.4921  153.9882 H   0  0  0  0  0  0  0  0  0  0  0  0
  147.2160  141.7820  154.0284 H   0  0  0  0  0  0  0  0  0  0  0  0
  149.6038  141.9901  154.3216 H   0  0  0  0  0  0  0  0  0  0  0  0
  146.1053  132.1813  153.6449 H   0  0  0  0  0  0  0  0  0  0  0  0
  147.2080  130.8292  153.5825 H   0  0  0  0  0  0  0  0  0  0  0  0
  148.1757  131.8239  151.6083 H   0  0  0  0  0  0  0  0  0  0  0  0
  1  2  1  0  0  0  0
  1 21  1  0  0  0  0
  1 22  1  0  0  0  0
  1 23  1  0  0  0  0
  2 20  1  0  0  0  0
  2  3  1  0  0  0  0
  2 24  1  0  0  0  0
  3  4  1  0  0  0  0
  3 25  1  0  0  0  0
  3 26  1  0  0  0  0
  4  5  1  0  0  0  0
  4 27  1  0  0  0  0
  4 28  1  0  0  0  0
  5  6  1  0  0  0  0
  5 29  1  0  0  0  0
  5 30  1  0  0  0  0
  6  7  1  0  0  0  0
  6 20  1  0  0  0  0
  6 44  1  0  0  0  0
  7  8  1  0  0  0  0
  7 31  1  0  0  0  0
  7 32  1  0  0  0  0
  8  9  1  0  0  0  0
  8 33  1  0  0  0  0
  8 34  1  0  0  0  0
  9 10  1  0  0  0  0
  9 35  1  0  0  0  0
 10 11  2  0  0  0  0
 10 12  1  0  0  0  0
 12 13  1  0  0  0  0
 12 36  1  0  0  0  0
 12 37  1  0  0  0  0
 13 18  1  0  0  0  0
 13 14  1  0  0  0  0
 14 15  2  0  0  0  0
 14 38  1  0  0  0  0
 15 16  1  0  0  0  0
 15 39  1  0  0  0  0
 16 17  2  0  0  0  0
 16 40  1  0  0  0  0
 17 18  1  0  0  0  0
 17 41  1  0  0  0  0
 18 19  2  0  0  0  0
 20 42  1  0  0  0  0
 20 43  1  0  0  0  0
M  CHG  1   6   1
M  END
> <s_m_source_file>
AV-unprocessed.smi

> <i_m_source_file_index>
1914

> <i_lp_mmshare_version>
43012

> <i_f3d_flags>
0

> <s_epik_input>
W0NIM11bQ0BASF0xW0NIMl1bQ0gyXVtDSDJdTihbQ0gyXTEpW0NIMl1bQ0gyXVtOSF1DKD1PKVtDSDJdbjJbY0hdW2NIXVtjSF1bY0hdYzI9Tw==

> <s_epik_cmdline>
J2VwaWtfcHl0aG9uJywgJy1waCcsICc3LjAnLCAnLXRuJywgJzgnLCAnLW1hJywgJzIwMCcsICctbWV0YWxfYmluZGluZycsICctaW1hZScsICc8aW5maWxlLm1hZT4nLCAnLW9tYWUnLCAnPG91dGZpbGUubWFlPic=

> <r_lp_tautomer_probability>
1

> <r_epik_Ionization_Penalty>
0.00192477

> <r_epik_Ionization_Penalty_Charging>
0.00192469

> <r_epik_Ionization_Penalty_Neutral>
8.16761e-08

> <r_epik_State_Penalty>
0.00131115

> <r_epik_Charging_Adjusted_Penalty>
0.00323584

> <i_epik_Tot_Q>
1

> <i_epik_Tot_abs_Q>
1

> <r_epik_Metal_State_Penalty>
-0

> <b_epik_Metal_Only>
0

> <s_lp_Force_Field>
OPLS_2005

> <r_lp_Energy>
28.3213

> <b_lp_Chiralities_Consistent>
1

> <s_lp_Variant>
AV-unprocessed.smi:1914-3

> <Gold.Version>
5.8.1

> <Gold.Id.Protein>
6NUR|6NUR_protein|mol2

> <Gold.PLP.Fitness>
41.7332

> <Gold.PLP.PLP>
-34.8526

> <Gold.PLP.part.hbond>
-2.7260

> <Gold.PLP.part.metal>
0.0000

> <Gold.PLP.part.buried>
-3.8877

> <Gold.PLP.part.nonpolar>
-29.3613

> <Gold.PLP.part.repulsive>
0.0943

> <Gold.PLP.ligand.clash>
0.0000

> <Gold.PLP.ligand.torsion>
1.0387

> <Gold.PLP.Chemscore.Hbond>
2.9760

> <Gold.PLP.Chemscore.CHOScore>
0.0000

> <Gold.PLP.Chemscore.Metal>
0.0000

> <Gold.Chemscore.Hbonds>
donor molecule, donor type, donor heavy atom, donor atom, acceptor molecule, acceptor atom, score
      L1  H     6    44       P1 10747  1.00
      L1  H     9    35       P1  7948  0.26
      P1  H  7989  7998       L1    19  0.98

> <Gold.PLP.Chemscore.Internal.Correction>
0.0299

> <Gold.Rescore>
     Score         DG    S(hbond)    S(metal)    S(lipo)     H(rot)  DE(clash)    DE(int)     intcor
     17.86     -18.96       2.67        0.00      79.68       1.86       0.17       0.92       ----

> <Gold.Chemscore.Fitness>
17.8584

> <Gold.Chemscore.DG>
-18.9572

> <Gold.Chemscore.ZeroCoef>
-5.4800

> <Gold.Chemscore.Hbond>
2.6684

> <Gold.Chemscore.Metal>
0.0000

> <Gold.Chemscore.Lipo>
79.6831

> <Gold.Chemscore.Internal_Hbond>
0.0000

> <Gold.Chemscore.DEClash>
0.1740

> <Gold.Chemscore.DEInternal>
0.9247

> <Gold.Chemscore.Rot>
1.8586

> <Gold.Chemscore.Internal.Correction>
   9.000000E+99

> <Gold.Chemscore.Hbonds>
donor molecule, donor type, donor heavy atom, donor atom, acceptor molecule, acceptor atom, score
      L1  H     6    44       P1 10747  1.00
      L1  H     9    35       P1  7948  0.05
      P1  H  7989  7998       L1    19  0.37

> <Gold.Chemscore.Hbond.Weighted>
-8.9124

> <Gold.Chemscore.Metal.Weighted>
-0.0000

> <Gold.Chemscore.Lipo.Weighted>
-9.3229

> <Gold.Chemscore.Internal_Hbond.Weighted>
0.0000

> <Gold.Chemscore.DEClash.Weighted>
0.1740

> <Gold.Chemscore.DEInternal.Weighted>
0.9247

> <Gold.Chemscore.Rot.Weighted>
4.7581

> <Gold.Chemscore.Internal.Correction.Weighted>
   9.000000E+99

> <Gold.Protein.RotatedTorsions>
[ 6907 6896 6895 6894 ] final  -54.93 input  -60.11 | X-H torsion
[ 7974 7965 7964 7962 ] final   73.83 input  175.53 | X-H torsion
[ 8008 7997 7996 7995 ] final  -87.21 input   59.86 | X-H torsion
[ 10167 10162 10161 10158 ] final  150.46 input  -65.29 | X-H torsion
[ 10718 10713 10712 10709 ] final -169.18 input   66.30 | X-H torsion
[ 10763 10752 10751 10750 ] final  -98.07 input  -60.55 | X-H torsion
[ 11005 11000 10999 10996 ] final  134.28 input  -57.11 | X-H torsion

> <Gold.Protein.ActiveResidues>
 VAL166  LYS551  ARG553  GLY616  TRP617  ASP618  TYR619  PRO620  LYS621  CYS622 
 ASP623  PHE694  ASN695  SER759  ASP760  ASP761  ALA762  ILE779  LEU786  VAL792 
 PHE793  MET794  SER795  GLU796  ALA797  LYS798  CYS799  TRP800  GLU811  SER814 

> <Gold.Protein.RotatedAtoms>
  150.8296  134.7542  159.6841 H   0  0  0  0  0  0  0  0  0  0  0  0  # atno 6907 bound_to 6896
  152.4402  134.5603  159.9902 H   0  0  0  0  0  0  0  0  0  0  0  0  # atno 6908 bound_to 6896
  151.5767  133.3345  159.3036 H   0  0  0  0  0  0  0  0  0  0  0  0  # atno 6909 bound_to 6896
  145.7359  139.2702  143.1514 H   0  0  0  0  0  0  0  0  0  0  0  0  # atno 7974 bound_to 7965
  154.6607  140.0568  157.0058 H   0  0  0  0  0  0  0  0  0  0  0  0  # atno 8008 bound_to 7997
  155.1233  140.3249  155.4473 H   0  0  0  0  0  0  0  0  0  0  0  0  # atno 8009 bound_to 7997
  156.2616  140.1993  156.6355 H   0  0  0  0  0  0  0  0  0  0  0  0  # atno 8010 bound_to 7997
  139.4850  144.5520  151.7383 H   0  0  0  0  0  0  0  0  0  0  0  0  # atno 10167 bound_to 10162
  156.7077  130.9221  151.3086 H   0  0  0  0  0  0  0  0  0  0  0  0  # atno 10718 bound_to 10713
  154.7382  135.5023  153.9078 H   0  0  0  0  0  0  0  0  0  0  0  0  # atno 10763 bound_to 10752
  153.1017  135.6687  153.9669 H   0  0  0  0  0  0  0  0  0  0  0  0  # atno 10764 bound_to 10752
  153.9453  135.3063  155.3420 H   0  0  0  0  0  0  0  0  0  0  0  0  # atno 10765 bound_to 10752
  139.9905  134.9517  156.9844 H   0  0  0  0  0  0  0  0  0  0  0  0  # atno 11005 bound_to 11000
  146.0494  140.8085  142.9789 LP  0  0  0  0  0  0  0  0  0  0  0  0  # atno 17320 bound_to 7965
  144.6882  140.3029  143.7260 LP  0  0  0  0  0  0  0  0  0  0  0  0  # atno 17321 bound_to 7965
  140.5076  144.1074  150.5986 LP  0  0  0  0  0  0  0  0  0  0  0  0  # atno 17342 bound_to 10162
  140.3989  143.2714  151.9971 LP  0  0  0  0  0  0  0  0  0  0  0  0  # atno 17343 bound_to 10162
  157.6948  130.9271  150.0614 LP  0  0  0  0  0  0  0  0  0  0  0  0  # atno 17370 bound_to 10713
  156.1683  130.3645  149.9201 LP  0  0  0  0  0  0  0  0  0  0  0  0  # atno 17371 bound_to 10713
  140.4918  134.1185  155.7234 LP  0  0  0  0  0  0  0  0  0  0  0  0  # atno 17394 bound_to 11000
  141.1561  133.8879  157.1972 LP  0  0  0  0  0  0  0  0  0  0  0  0  # atno 17395 bound_to 11000

$$$$
