AV-unprocessed.smi:3346|AV-procd|sdf|12910|dock10
  -GOLD-   2272019323D 1   1.00000     0.00000
 Structure written by MMmdl.
 47 48  0  0  0  0  0  0  0  0  1 V2000
  152.6993  142.9961  160.3615 C   0  0  0  0  0  0  0  0  0  0  0  0
  151.9632  144.0919  159.5718 C   0  0  0  0  0  0  0  0  0  0  0  0
  151.5062  145.2133  160.5172 C   0  0  0  0  0  0  0  0  0  0  0  0
  150.7649  143.5396  158.7677 C   0  0  0  0  0  0  0  0  0  0  0  0
  151.1211  142.5289  157.6561 C   0  0  1  0  0  0  0  0  0  0  0  0
  151.5751  141.1846  158.2426 C   0  0  0  0  0  0  0  0  0  0  0  0
  149.9467  142.2670  156.8336 N   0  0  0  0  0  0  0  0  0  0  0  0
  150.2791  141.4167  155.7019 C   0  0  0  0  0  0  0  0  0  0  0  0
  149.0441  140.9687  154.9396 C   0  0  0  0  0  0  0  0  0  0  0  0
  148.0906  141.9270  154.5378 C   0  0  0  0  0  0  0  0  0  0  0  0
  146.9536  141.5044  153.8250 C   0  0  0  0  0  0  0  0  0  0  0  0
  146.8155  140.1329  153.5419 C   0  0  0  0  0  0  0  0  0  0  0  0
  147.7171  139.2043  153.9235 N   0  0  0  0  0  0  0  0  0  0  0  0
  148.8134  139.6081  154.6106 C   0  0  0  0  0  0  0  0  0  0  0  0
  149.7243  138.6194  155.0184 N   0  0  0  0  0  0  0  0  0  0  0  0
  149.2066  137.2666  154.8603 C   0  0  0  0  0  0  0  0  0  0  0  0
  150.1773  136.2554  155.4945 C   0  0  0  0  0  0  0  0  0  0  0  0
  151.4762  136.4167  154.9305 O   0  0  0  0  0  0  0  0  0  0  0  0
  152.0002  137.7229  155.1556 C   0  0  0  0  0  0  0  0  0  0  0  0
  151.0789  138.7647  154.4991 C   0  0  0  0  0  0  0  0  0  0  0  0
  152.0299  142.4951  161.0615 H   0  0  0  0  0  0  0  0  0  0  0  0
  153.5244  143.4172  160.9367 H   0  0  0  0  0  0  0  0  0  0  0  0
  153.1236  142.2379  159.7042 H   0  0  0  0  0  0  0  0  0  0  0  0
  152.6728  144.5378  158.8742 H   0  0  0  0  0  0  0  0  0  0  0  0
  150.7889  144.8447  161.2512 H   0  0  0  0  0  0  0  0  0  0  0  0
  151.0307  146.0243  159.9652 H   0  0  0  0  0  0  0  0  0  0  0  0
  152.3504  145.6388  161.0606 H   0  0  0  0  0  0  0  0  0  0  0  0
  150.0712  143.0691  159.4660 H   0  0  0  0  0  0  0  0  0  0  0  0
  150.2130  144.3698  158.3237 H   0  0  0  0  0  0  0  0  0  0  0  0
  151.9436  142.9138  157.0527 H   0  0  0  0  0  0  0  0  0  0  0  0
  152.4620  141.3095  158.8643 H   0  0  0  0  0  0  0  0  0  0  0  0
  151.8286  140.4763  157.4531 H   0  0  0  0  0  0  0  0  0  0  0  0
  150.7982  140.7322  158.8604 H   0  0  0  0  0  0  0  0  0  0  0  0
  149.2577  141.7924  157.3989 H   0  0  0  0  0  0  0  0  0  0  0  0
  150.9378  141.9557  155.0203 H   0  0  0  0  0  0  0  0  0  0  0  0
  150.8325  140.5422  156.0464 H   0  0  0  0  0  0  0  0  0  0  0  0
  148.2281  142.9727  154.7714 H   0  0  0  0  0  0  0  0  0  0  0  0
  146.2059  142.2140  153.5032 H   0  0  0  0  0  0  0  0  0  0  0  0
  145.9566  139.7708  152.9964 H   0  0  0  0  0  0  0  0  0  0  0  0
  148.2229  137.1823  155.3234 H   0  0  0  0  0  0  0  0  0  0  0  0
  149.0813  137.0476  153.7990 H   0  0  0  0  0  0  0  0  0  0  0  0
  150.2228  136.3863  156.5764 H   0  0  0  0  0  0  0  0  0  0  0  0
  149.8326  135.2380  155.3107 H   0  0  0  0  0  0  0  0  0  0  0  0
  152.0962  137.9080  156.2269 H   0  0  0  0  0  0  0  0  0  0  0  0
  153.0018  137.7846  154.7301 H   0  0  0  0  0  0  0  0  0  0  0  0
  151.0804  138.6269  153.4170 H   0  0  0  0  0  0  0  0  0  0  0  0
  151.4459  139.7719  154.6995 H   0  0  0  0  0  0  0  0  0  0  0  0
  1  2  1  0  0  0  0
  1 21  1  0  0  0  0
  1 22  1  0  0  0  0
  1 23  1  0  0  0  0
  2  3  1  0  0  0  0
  2  4  1  0  0  0  0
  2 24  1  0  0  0  0
  3 25  1  0  0  0  0
  3 26  1  0  0  0  0
  3 27  1  0  0  0  0
  4  5  1  0  0  0  0
  4 28  1  0  0  0  0
  4 29  1  0  0  0  0
  5  6  1  0  0  0  0
  5  7  1  0  0  0  0
  5 30  1  0  0  0  0
  6 31  1  0  0  0  0
  6 32  1  0  0  0  0
  6 33  1  0  0  0  0
  7  8  1  0  0  0  0
  7 34  1  0  0  0  0
  8  9  1  0  0  0  0
  8 35  1  0  0  0  0
  8 36  1  0  0  0  0
  9 14  1  0  0  0  0
  9 10  2  0  0  0  0
 10 11  1  0  0  0  0
 10 37  1  0  0  0  0
 11 12  2  0  0  0  0
 11 38  1  0  0  0  0
 12 13  1  0  0  0  0
 12 39  1  0  0  0  0
 13 14  2  0  0  0  0
 14 15  1  0  0  0  0
 15 20  1  0  0  0  0
 15 16  1  0  0  0  0
 16 17  1  0  0  0  0
 16 40  1  0  0  0  0
 16 41  1  0  0  0  0
 17 18  1  0  0  0  0
 17 42  1  0  0  0  0
 17 43  1  0  0  0  0
 18 19  1  0  0  0  0
 19 20  1  0  0  0  0
 19 44  1  0  0  0  0
 19 45  1  0  0  0  0
 20 46  1  0  0  0  0
 20 47  1  0  0  0  0
M  END
> <s_m_source_file>
AV-unprocessed.smi

> <i_m_source_file_index>
3346

> <i_lp_mmshare_version>
43012

> <i_f3d_flags>
0

> <s_epik_input>
W0NIM11bQ0hdKFtDSDNdKVtDSDJdW0NASF0oW0NIM10pW05IXVtDSDJdYzFbY0hdW2NIXVtjSF1uYzFOMltDSDJdW0NIMl1PW0NIMl1bQ0gyXTI=

> <s_epik_cmdline>
J2VwaWtfcHl0aG9uJywgJy1waCcsICc3LjAnLCAnLXRuJywgJzgnLCAnLW1hJywgJzIwMCcsICctbWV0YWxfYmluZGluZycsICctaW1hZScsICc8aW5maWxlLm1hZT4nLCAnLW9tYWUnLCAnPG91dGZpbGUubWFlPic=

> <r_lp_tautomer_probability>
1

> <r_epik_Ionization_Penalty>
2.09752

> <r_epik_Ionization_Penalty_Charging>
0

> <r_epik_Ionization_Penalty_Neutral>
2.09752

> <r_epik_State_Penalty>
2.22589

> <r_epik_Charging_Adjusted_Penalty>
2.22589

> <i_epik_Tot_Q>
0

> <i_epik_Tot_abs_Q>
0

> <r_epik_Metal_State_Penalty>
2.21996

> <b_epik_Metal_Only>
0

> <s_lp_Force_Field>
OPLS_2005

> <r_lp_Energy>
27.6792

> <b_lp_Chiralities_Consistent>
1

> <s_lp_Variant>
AV-unprocessed.smi:3346-4

> <Gold.Version>
5.8.1

> <Gold.Id.Protein>
6NUR|6NUR_protein|mol2

> <Gold.PLP.Fitness>
48.9127

> <Gold.PLP.PLP>
-43.3544

> <Gold.PLP.part.hbond>
-2.0000

> <Gold.PLP.part.metal>
0.0000

> <Gold.PLP.part.buried>
-5.1798

> <Gold.PLP.part.nonpolar>
-37.9861

> <Gold.PLP.part.repulsive>
0.3916

> <Gold.PLP.ligand.clash>
0.0000

> <Gold.PLP.ligand.torsion>
0.3207

> <Gold.PLP.Chemscore.Hbond>
1.0000

> <Gold.PLP.Chemscore.CHOScore>
1.0000

> <Gold.PLP.Chemscore.Metal>
0.0000

> <Gold.Chemscore.Hbonds>
donor molecule, donor type, donor heavy atom, donor atom, acceptor molecule, acceptor atom, score
      P1  H 10752 10764       L1    18  0.95
      L1  C    12    39       P1 10175  1.00

> <Gold.PLP.Chemscore.Internal.Correction>
0.1996

> <Gold.Rescore>
     Score         DG    S(hbond)    S(metal)    S(lipo)     H(rot)  DE(clash)    DE(int)     intcor
     16.99     -18.66       0.96        0.00     119.08       1.55       0.02       1.65       ----

> <Gold.Chemscore.Fitness>
16.9884

> <Gold.Chemscore.DG>
-18.6554

> <Gold.Chemscore.ZeroCoef>
-5.4800

> <Gold.Chemscore.Hbond>
0.9626

> <Gold.Chemscore.Metal>
0.0000

> <Gold.Chemscore.Lipo>
119.0750

> <Gold.Chemscore.Internal_Hbond>
0.0000

> <Gold.Chemscore.DEClash>
0.0174

> <Gold.Chemscore.DEInternal>
1.6496

> <Gold.Chemscore.Rot>
1.5514

> <Gold.Chemscore.Internal.Correction>
   9.000000E+99

> <Gold.Chemscore.Hbonds>
donor molecule, donor type, donor heavy atom, donor atom, acceptor molecule, acceptor atom, score
      P1  H 10752 10764       L1    18  0.22

> <Gold.Chemscore.Hbond.Weighted>
-3.2151

> <Gold.Chemscore.Metal.Weighted>
-0.0000

> <Gold.Chemscore.Lipo.Weighted>
-13.9318

> <Gold.Chemscore.Internal_Hbond.Weighted>
0.0000

> <Gold.Chemscore.DEClash.Weighted>
0.0174

> <Gold.Chemscore.DEInternal.Weighted>
1.6496

> <Gold.Chemscore.Rot.Weighted>
3.9715

> <Gold.Chemscore.Internal.Correction.Weighted>
   9.000000E+99

> <Gold.Protein.RotatedTorsions>
[ 6907 6896 6895 6894 ] final  119.88 input  -60.11 | X-H torsion
[ 7974 7965 7964 7962 ] final  -49.55 input  175.53 | X-H torsion
[ 8008 7997 7996 7995 ] final -136.11 input   59.86 | X-H torsion
[ 10167 10162 10161 10158 ] final -130.84 input  -65.29 | X-H torsion
[ 10718 10713 10712 10709 ] final  126.76 input   66.30 | X-H torsion
[ 10763 10752 10751 10750 ] final  -69.63 input  -60.55 | X-H torsion
[ 11005 11000 10999 10996 ] final  -97.31 input  -57.11 | X-H torsion

> <Gold.Protein.ActiveResidues>
 VAL166  LYS551  ARG553  GLY616  TRP617  ASP618  TYR619  PRO620  LYS621  CYS622 
 ASP623  PHE694  ASN695  SER759  ASP760  ASP761  ALA762  ILE779  LEU786  VAL792 
 PHE793  MET794  SER795  GLU796  ALA797  LYS798  CYS799  TRP800  GLU811  SER814 

> <Gold.Protein.RotatedAtoms>
  152.4440  133.7500  159.6688 H   0  0  0  0  0  0  0  0  0  0  0  0  # atno 6907 bound_to 6896
  150.8336  133.8040  159.3095 H   0  0  0  0  0  0  0  0  0  0  0  0  # atno 6908 bound_to 6896
  151.5687  135.1066  160.0041 H   0  0  0  0  0  0  0  0  0  0  0  0  # atno 6909 bound_to 6896
  145.9394  140.7676  142.9559 H   0  0  0  0  0  0  0  0  0  0  0  0  # atno 7974 bound_to 7965
  155.3899  140.0499  157.3041 H   0  0  0  0  0  0  0  0  0  0  0  0  # atno 8008 bound_to 7997
  154.5041  140.2168  155.9247 H   0  0  0  0  0  0  0  0  0  0  0  0  # atno 8009 bound_to 7997
  156.1504  140.3137  155.8644 H   0  0  0  0  0  0  0  0  0  0  0  0  # atno 8010 bound_to 7997
  139.9251  143.6337  152.2544 H   0  0  0  0  0  0  0  0  0  0  0  0  # atno 10167 bound_to 10162
  157.5392  131.1097  150.8887 H   0  0  0  0  0  0  0  0  0  0  0  0  # atno 10718 bound_to 10713
  154.4061  135.6020  153.5925 H   0  0  0  0  0  0  0  0  0  0  0  0  # atno 10763 bound_to 10752
  152.9789  135.5918  154.4126 H   0  0  0  0  0  0  0  0  0  0  0  0  # atno 10764 bound_to 10752
  154.3932  135.2842  155.2120 H   0  0  0  0  0  0  0  0  0  0  0  0  # atno 10765 bound_to 10752
  141.1383  133.8161  157.0689 H   0  0  0  0  0  0  0  0  0  0  0  0  # atno 11005 bound_to 11000
  144.6777  140.2255  143.7361 LP  0  0  0  0  0  0  0  0  0  0  0  0  # atno 17320 bound_to 7965
  145.8320  139.2090  143.1877 LP  0  0  0  0  0  0  0  0  0  0  0  0  # atno 17321 bound_to 7965
  139.6829  144.7654  151.1576 LP  0  0  0  0  0  0  0  0  0  0  0  0  # atno 17342 bound_to 10162
  140.7652  143.5699  150.9007 LP  0  0  0  0  0  0  0  0  0  0  0  0  # atno 17343 bound_to 10162
  156.9445  130.5397  149.5281 LP  0  0  0  0  0  0  0  0  0  0  0  0  # atno 17370 bound_to 10713
  156.0483  130.5556  150.8931 LP  0  0  0  0  0  0  0  0  0  0  0  0  # atno 17371 bound_to 10713
  140.0524  134.9798  157.1160 LP  0  0  0  0  0  0  0  0  0  0  0  0  # atno 17394 bound_to 11000
  140.3970  134.2123  155.7164 LP  0  0  0  0  0  0  0  0  0  0  0  0  # atno 17395 bound_to 11000

$$$$
