AV-unprocessed.smi:767|AV-procd|sdf|3662|dock1
  -GOLD-   22720 1 73D 1   1.00000     0.00000
 Structure written by MMmdl.
 47 49  0  0  0  0  0  0  0  0  1 V2000
  152.3840  142.4233  159.5211 C   0  0  0  0  0  0  0  0  0  0  0  0
  151.7639  141.7822  158.2974 C   0  0  0  0  0  0  0  0  0  0  0  0
  151.9302  140.4046  158.0461 C   0  0  0  0  0  0  0  0  0  0  0  0
  151.3292  139.8557  156.8974 C   0  0  0  0  0  0  0  0  0  0  0  0
  150.5841  140.6998  156.0490 C   0  0  0  0  0  0  0  0  0  0  0  0
  149.8861  140.1459  154.8177 C   0  0  0  0  0  0  0  0  0  0  0  0
  150.0372  138.6192  154.6532 C   0  0  0  0  0  0  0  0  0  0  0  0
  148.9492  138.0184  153.8878 N   0  0  0  0  0  0  0  0  0  0  0  0
  147.6468  138.2818  154.0554 C   0  0  0  0  0  0  0  0  0  0  0  0
  147.1978  139.0379  154.9166 O   0  0  0  0  0  0  0  0  0  0  0  0
  146.8979  137.6415  153.1495 N   0  0  0  0  0  0  0  0  0  0  0  0
  145.4447  137.7612  153.0185 C   0  0  1  0  0  0  0  0  0  0  0  0
  144.8413  136.7894  151.9752 C   0  0  1  0  0  0  0  0  0  0  0  0
  145.6795  136.0207  150.9842 C   0  0  0  0  0  0  0  0  0  0  0  0
  145.8924  134.6740  151.6824 C   0  0  0  0  0  0  0  0  0  0  0  0
  145.6097  134.9207  153.0591 O   0  0  0  0  0  0  0  0  0  0  0  0
  144.5293  135.8497  153.1279 C   0  0  1  0  0  0  0  0  0  0  0  0
  144.6805  137.0065  154.1385 C   0  0  0  0  0  0  0  0  0  0  0  0
  145.4170  136.6805  155.4449 C   0  0  0  0  0  0  0  0  0  0  0  0
  143.3553  137.6593  154.5441 C   0  0  0  0  0  0  0  0  0  0  0  0
  150.4889  142.0667  156.3849 C   0  0  0  0  0  0  0  0  0  0  0  0
  151.0623  142.6024  157.4841 N   0  0  0  0  0  0  0  0  0  0  0  0
  152.5017  141.6943  160.3234 H   0  0  0  0  0  0  0  0  0  0  0  0
  151.7606  143.2368  159.8941 H   0  0  0  0  0  0  0  0  0  0  0  0
  153.3666  142.8270  159.2762 H   0  0  0  0  0  0  0  0  0  0  0  0
  152.4989  139.7801  158.7193 H   0  0  0  0  0  0  0  0  0  0  0  0
  151.4281  138.8017  156.6821 H   0  0  0  0  0  0  0  0  0  0  0  0
  148.8291  140.4098  154.8625 H   0  0  0  0  0  0  0  0  0  0  0  0
  150.2830  140.6447  153.9325 H   0  0  0  0  0  0  0  0  0  0  0  0
  150.9590  138.4051  154.1120 H   0  0  0  0  0  0  0  0  0  0  0  0
  150.1327  138.1354  155.6263 H   0  0  0  0  0  0  0  0  0  0  0  0
  149.2122  137.3846  153.1474 H   0  0  0  0  0  0  0  0  0  0  0  0
  147.3647  137.0503  152.4773 H   0  0  0  0  0  0  0  0  0  0  0  0
  145.0981  138.7884  152.8910 H   0  0  0  0  0  0  0  0  0  0  0  0
  143.9271  137.2031  151.5466 H   0  0  0  0  0  0  0  0  0  0  0  0
  145.1701  135.8892  150.0293 H   0  0  0  0  0  0  0  0  0  0  0  0
  146.6259  136.5164  150.7786 H   0  0  0  0  0  0  0  0  0  0  0  0
  145.1878  133.9321  151.3040 H   0  0  0  0  0  0  0  0  0  0  0  0
  146.9022  134.2869  151.5451 H   0  0  0  0  0  0  0  0  0  0  0  0
  143.5452  135.3823  153.0700 H   0  0  0  0  0  0  0  0  0  0  0  0
  144.8020  136.0735  156.1101 H   0  0  0  0  0  0  0  0  0  0  0  0
  145.6886  137.5880  155.9852 H   0  0  0  0  0  0  0  0  0  0  0  0
  146.3361  136.1202  155.2726 H   0  0  0  0  0  0  0  0  0  0  0  0
  142.7447  136.9869  155.1475 H   0  0  0  0  0  0  0  0  0  0  0  0
  142.7594  137.9375  153.6744 H   0  0  0  0  0  0  0  0  0  0  0  0
  143.5186  138.5677  155.1247 H   0  0  0  0  0  0  0  0  0  0  0  0
  149.9277  142.7469  155.7615 H   0  0  0  0  0  0  0  0  0  0  0  0
  1  2  1  0  0  0  0
  1 23  1  0  0  0  0
  1 24  1  0  0  0  0
  1 25  1  0  0  0  0
  2 22  1  0  0  0  0
  2  3  2  0  0  0  0
  3  4  1  0  0  0  0
  3 26  1  0  0  0  0
  4  5  2  0  0  0  0
  4 27  1  0  0  0  0
  5  6  1  0  0  0  0
  5 21  1  0  0  0  0
  6  7  1  0  0  0  0
  6 28  1  0  0  0  0
  6 29  1  0  0  0  0
  7  8  1  0  0  0  0
  7 30  1  0  0  0  0
  7 31  1  0  0  0  0
  8  9  1  0  0  0  0
  8 32  1  0  0  0  0
  9 10  2  0  0  0  0
  9 11  1  0  0  0  0
 11 12  1  0  0  0  0
 11 33  1  0  0  0  0
 12 18  1  0  0  0  0
 12 13  1  0  0  0  0
 12 34  1  0  0  0  0
 13 17  1  0  0  0  0
 13 14  1  0  0  0  0
 13 35  1  0  0  0  0
 14 15  1  0  0  0  0
 14 36  1  0  0  0  0
 14 37  1  0  0  0  0
 15 16  1  0  0  0  0
 15 38  1  0  0  0  0
 15 39  1  0  0  0  0
 16 17  1  0  0  0  0
 17 18  1  0  0  0  0
 17 40  1  0  0  0  0
 18 19  1  0  0  0  0
 18 20  1  0  0  0  0
 19 41  1  0  0  0  0
 19 42  1  0  0  0  0
 19 43  1  0  0  0  0
 20 44  1  0  0  0  0
 20 45  1  0  0  0  0
 20 46  1  0  0  0  0
 21 22  2  0  0  0  0
 21 47  1  0  0  0  0
M  END
> <s_m_source_file>
AV-unprocessed.smi

> <i_m_source_file_index>
767

> <i_lp_mmshare_version>
43012

> <i_f3d_flags>
0

> <s_epik_input>
W0NIM11jMVtjSF1bY0hdYyhbY0hdbjEpW0NIMl1bQ0gyXVtOSF1DKD1PKVtOSF1bQ0BIXTJDKFtDSDNdKShbQ0gzXSlbQ0BIXShbQ0BASF0yMylPW0NIMl1bQ0gyXTM=

> <s_epik_cmdline>
J2VwaWtfcHl0aG9uJywgJy1waCcsICc3LjAnLCAnLXRuJywgJzgnLCAnLW1hJywgJzIwMCcsICctbWV0YWxfYmluZGluZycsICctaW1hZScsICc8aW5maWxlLm1hZT4nLCAnLW9tYWUnLCAnPG91dGZpbGUubWFlPic=

> <r_epik_Ionization_Penalty>
0.0567523

> <r_epik_Ionization_Penalty_Charging>
0

> <r_epik_Ionization_Penalty_Neutral>
0.0567523

> <r_epik_State_Penalty>
0.0489186

> <r_epik_Charging_Adjusted_Penalty>
0.0489186

> <i_epik_Tot_Q>
0

> <i_epik_Tot_abs_Q>
0

> <r_epik_Metal_State_Penalty>
0.044622

> <b_epik_Metal_Only>
0

> <s_lp_Force_Field>
OPLS_2005

> <r_lp_Energy>
33.3409

> <b_lp_Chiralities_Consistent>
1

> <s_lp_Variant>
AV-unprocessed.smi:767-6

> <Gold.Version>
5.8.1

> <Gold.Id.Protein>
6NUR|6NUR_protein|mol2

> <Gold.PLP.Fitness>
38.8386

> <Gold.PLP.PLP>
-30.3354

> <Gold.PLP.part.hbond>
-2.0000

> <Gold.PLP.part.metal>
0.0000

> <Gold.PLP.part.buried>
-2.8318

> <Gold.PLP.part.nonpolar>
-26.1936

> <Gold.PLP.part.repulsive>
0.2615

> <Gold.PLP.ligand.clash>
0.0000

> <Gold.PLP.ligand.torsion>
0.3496

> <Gold.PLP.Chemscore.Hbond>
1.9920

> <Gold.PLP.Chemscore.CHOScore>
1.0000

> <Gold.PLP.Chemscore.Metal>
0.0000

> <Gold.Chemscore.Hbonds>
donor molecule, donor type, donor heavy atom, donor atom, acceptor molecule, acceptor atom, score
      L1  H     8    32       P1  7948  1.00
      L1  H    11    33       P1  7948  0.99
      L1  C    21    47       P1  8028  1.00

> <Gold.PLP.Chemscore.Internal.Correction>
0.2264

> <Gold.Rescore>
     Score         DG    S(hbond)    S(metal)    S(lipo)     H(rot)  DE(clash)    DE(int)     intcor
     16.80     -17.98       1.93        0.00      83.37       1.45       0.01       1.17       ----

> <Gold.Chemscore.Fitness>
16.8031

> <Gold.Chemscore.DG>
-17.9800

> <Gold.Chemscore.ZeroCoef>
-5.4800

> <Gold.Chemscore.Hbond>
1.9334

> <Gold.Chemscore.Metal>
0.0000

> <Gold.Chemscore.Lipo>
83.3658

> <Gold.Chemscore.Internal_Hbond>
0.0000

> <Gold.Chemscore.DEClash>
0.0114

> <Gold.Chemscore.DEInternal>
1.1655

> <Gold.Chemscore.Rot>
1.4497

> <Gold.Chemscore.Internal.Correction>
   9.000000E+99

> <Gold.Chemscore.Hbonds>
donor molecule, donor type, donor heavy atom, donor atom, acceptor molecule, acceptor atom, score
      L1  H     8    32       P1  7948  0.98
      L1  H    11    33       P1  7948  0.94

> <Gold.Chemscore.Hbond.Weighted>
-6.4574

> <Gold.Chemscore.Metal.Weighted>
-0.0000

> <Gold.Chemscore.Lipo.Weighted>
-9.7538

> <Gold.Chemscore.Internal_Hbond.Weighted>
0.0000

> <Gold.Chemscore.DEClash.Weighted>
0.0114

> <Gold.Chemscore.DEInternal.Weighted>
1.1655

> <Gold.Chemscore.Rot.Weighted>
3.7112

> <Gold.Chemscore.Internal.Correction.Weighted>
   9.000000E+99

> <Gold.Protein.RotatedTorsions>
[ 6907 6896 6895 6894 ] final  124.83 input  -60.11 | X-H torsion
[ 7974 7965 7964 7962 ] final   -0.51 input  175.53 | X-H torsion
[ 8008 7997 7996 7995 ] final   17.72 input   59.86 | X-H torsion
[ 10167 10162 10161 10158 ] final  129.54 input  -65.29 | X-H torsion
[ 10718 10713 10712 10709 ] final -141.51 input   66.30 | X-H torsion
[ 10763 10752 10751 10750 ] final  139.98 input  -60.55 | X-H torsion
[ 11005 11000 10999 10996 ] final   17.43 input  -57.11 | X-H torsion

> <Gold.Protein.ActiveResidues>
 VAL166  LYS551  ARG553  GLY616  TRP617  ASP618  TYR619  PRO620  LYS621  CYS622 
 ASP623  PHE694  ASN695  SER759  ASP760  ASP761  ALA762  ILE779  LEU786  VAL792 
 PHE793  MET794  SER795  GLU796  ALA797  LYS798  CYS799  TRP800  GLU811  SER814 

> <Gold.Protein.RotatedAtoms>
  152.4044  133.6867  159.6343 H   0  0  0  0  0  0  0  0  0  0  0  0  # atno 6907 bound_to 6896
  150.7931  133.8735  159.3274 H   0  0  0  0  0  0  0  0  0  0  0  0  # atno 6908 bound_to 6896
  151.6492  135.1005  160.0208 H   0  0  0  0  0  0  0  0  0  0  0  0  # atno 6909 bound_to 6896
  146.2426  140.1281  142.8338 H   0  0  0  0  0  0  0  0  0  0  0  0  # atno 7974 bound_to 7965
  154.8955  140.2993  155.5346 H   0  0  0  0  0  0  0  0  0  0  0  0  # atno 8008 bound_to 7997
  156.3020  140.2416  156.3911 H   0  0  0  0  0  0  0  0  0  0  0  0  # atno 8009 bound_to 7997
  154.8574  140.0407  157.1632 H   0  0  0  0  0  0  0  0  0  0  0  0  # atno 8010 bound_to 7997
  139.5472  144.6784  151.4434 H   0  0  0  0  0  0  0  0  0  0  0  0  # atno 10167 bound_to 10162
  156.3348  130.7606  151.1731 H   0  0  0  0  0  0  0  0  0  0  0  0  # atno 10718 bound_to 10713
  153.9151  135.3007  155.3448 H   0  0  0  0  0  0  0  0  0  0  0  0  # atno 10763 bound_to 10752
  154.7604  135.4937  153.9456 H   0  0  0  0  0  0  0  0  0  0  0  0  # atno 10764 bound_to 10752
  153.1172  135.6773  153.9500 H   0  0  0  0  0  0  0  0  0  0  0  0  # atno 10765 bound_to 10752
  140.4361  134.1370  155.7685 H   0  0  0  0  0  0  0  0  0  0  0  0  # atno 11005 bound_to 11000
  145.0350  140.8900  143.5087 LP  0  0  0  0  0  0  0  0  0  0  0  0  # atno 17320 bound_to 7965
  145.1351  139.2607  143.5519 LP  0  0  0  0  0  0  0  0  0  0  0  0  # atno 17321 bound_to 7965
  140.6724  143.8263  150.7016 LP  0  0  0  0  0  0  0  0  0  0  0  0  # atno 17342 bound_to 10162
  140.1692  143.4209  152.2013 LP  0  0  0  0  0  0  0  0  0  0  0  0  # atno 17343 bound_to 10162
  157.7437  131.0471  150.4927 LP  0  0  0  0  0  0  0  0  0  0  0  0  # atno 17370 bound_to 10713
  156.5098  130.4136  149.6307 LP  0  0  0  0  0  0  0  0  0  0  0  0  # atno 17371 bound_to 10713
  141.1725  133.8580  157.1525 LP  0  0  0  0  0  0  0  0  0  0  0  0  # atno 17394 bound_to 11000
  140.0101  134.9991  157.0377 LP  0  0  0  0  0  0  0  0  0  0  0  0  # atno 17395 bound_to 11000

$$$$
