#       Name:                AV-unprocessed.smi:1886
#       Creating user name   scv26
#       Creation time:       Fri Mar 27 09:38:51 2020


#       File generated by GOLD software.
#

@<TRIPOS>MOLECULE
AV-unprocessed.smi:1886
    45    46     1
SMALL
NO_CHARGES


@<TRIPOS>ATOM
      1 ****        -0.5759   2.7109  -0.8997 O.2            1 S1                 0.0000
      2 ****        -1.1270   1.6551  -1.2107 C.2            1 S1                 0.0000
      3 ****        -0.4889   0.5955  -1.7261 N.am           1 S1                 0.0000
      4 ****         0.9484   0.5176  -1.9639 C.3            1 S1                 0.0000
      5 ****         1.5065  -0.8734  -1.6973 C.ar           1 S1                 0.0000
      6 ****         1.9898  -1.6495  -2.7722 C.ar           1 S1                 0.0000
      7 ****         2.5108  -2.9306  -2.5144 C.ar           1 S1                 0.0000
      8 ****         2.5295  -3.3882  -1.1839 C.ar           1 S1                 0.0000
      9 ****         2.0719  -2.6588  -0.1454 N.ar           1 S1                 0.0000
     10 ****         1.5706  -1.4238  -0.3908 C.ar           1 S1                 0.0000
     11 ****         1.1023  -0.6880   0.7090 N.3            1 S1                 0.0000
     12 ****        -0.1245  -1.2205   1.2867 C.3            1 S1                 0.0000
     13 ****        -0.6520  -0.2589   2.3643 C.3            1 S1                 0.0000
     14 ****         0.3588  -0.0368   3.3438 O.3            1 S1                 0.0000
     15 ****         1.5300   0.5488   2.7809 C.3            1 S1                 0.0000
     16 ****         2.1151  -0.3924   1.7139 C.3            1 S1                 0.0000
     17 ****        -2.4403   1.4270  -1.0776 N.am           1 S1                 0.0000
     18 ****        -3.4134   2.3902  -0.5717 C.3            1 S1                 0.0000
     19 ****        -3.5011   2.3860   0.9643 C.3            1 S1                 0.0000
     20 ****        -4.4862   3.1980   1.3453 F              1 S1                 0.0000
     21 ****        -3.7651   1.1572   1.4099 F              1 S1                 0.0000
     22 ****        -2.3647   2.8178   1.5102 F              1 S1                 0.0000
     23 ****        -1.0319  -0.2244  -1.9540 H              1 S1                 0.0000
     24 ****         1.1425   0.8067  -2.9973 H              1 S1                 0.0000
     25 ****         1.4920   1.2279  -1.3386 H              1 S1                 0.0000
     26 ****         1.9630  -1.2706  -3.7833 H              1 S1                 0.0000
     27 ****         2.8885  -3.5470  -3.3165 H              1 S1                 0.0000
     28 ****         2.9230  -4.3657  -0.9469 H              1 S1                 0.0000
     29 ****        -0.8743  -1.3565   0.5064 H              1 S1                 0.0000
     30 ****         0.0691  -2.2008   1.7246 H              1 S1                 0.0000
     31 ****        -0.9527   0.6898   1.9191 H              1 S1                 0.0000
     32 ****        -1.5337  -0.6795   2.8477 H              1 S1                 0.0000
     33 ****         1.2914   1.5233   2.3511 H              1 S1                 0.0000
     34 ****         2.2590   0.7186   3.5732 H              1 S1                 0.0000
     35 ****         2.4535  -1.3178   2.1824 H              1 S1                 0.0000
     36 ****         2.9830   0.0682   1.2403 H              1 S1                 0.0000
     37 ****        -2.7976   0.5245  -1.3547 H              1 S1                 0.0000
     38 ****        -3.1834   3.3926  -0.9373 H              1 S1                 0.0000
     39 ****        -4.3843   2.1267  -0.9921 H              1 S1                 0.0000
     40 ****         0.4102   2.8167  -1.0274 LP             1 S1                 0.0000
     41 ****        -1.1144   3.4629  -0.5193 LP             1 S1                 0.0000
     42 ****         2.1019  -3.0217   0.7860 LP             1 S1                 0.0000
     43 ****         0.8610   0.2001   0.3177 LP             1 S1                 0.0000
     44 ****         0.6037  -0.9129   3.7590 LP             1 S1                 0.0000
     45 ****        -0.0023   0.5759   4.0469 LP             1 S1                 0.0000
@<TRIPOS>BOND
    1    1    2 2     
    2    2    3 am    
    3    2   17 am    
    4    3    4 1     
    5    3   23 1     
    6    4    5 1     
    7    4   24 1     
    8    4   25 1     
    9    5   10 ar    
   10    5    6 ar    
   11    6    7 ar    
   12    6   26 1     
   13    7    8 ar    
   14    7   27 1     
   15    8    9 ar    
   16    8   28 1     
   17    9   10 ar    
   18   10   11 1     
   19   11   16 1     
   20   11   12 1     
   21   12   13 1     
   22   12   29 1     
   23   12   30 1     
   24   13   14 1     
   25   13   31 1     
   26   13   32 1     
   27   14   15 1     
   28   15   16 1     
   29   15   33 1     
   30   15   34 1     
   31   16   35 1     
   32   16   36 1     
   33   17   18 1     
   34   17   37 1     
   35   18   19 1     
   36   18   38 1     
   37   18   39 1     
   38   19   20 1     
   39   19   21 1     
   40   19   22 1     
   41    1   40 1     
   42    1   41 1     
   43    9   42 1     
   44   11   43 1     
   45   14   44 1     
   46   14   45 1     
@<TRIPOS>SUBSTRUCTURE
      1 S1             1
@<TRIPOS>SET
LONE_PAIRS      STATIC     ATOMS    <user>   **** ""
6 40 41 42 43 44 45
DONOR_HYDROGENS      STATIC     ATOMS    <user>   **** ""
2 23 37
ATOM$BLUE        STATIC     ATOMS    COLORGROUP SYSTEM
6 40 41 42 43 44 45
ATOM$RED        STATIC     ATOMS    COLORGROUP SYSTEM
2 23 37
