AV-unprocessed.smi:1782|AV-procd|sdf|7191|dock9
  -GOLD-   22720 8433D 1   1.00000     0.00000
 Structure written by MMmdl.
 42 44  0  0  0  0  0  0  0  0  2 V2000
  147.6739  140.4778  154.0237 O   0  0  0  0  0  0  0  0  0  0  0  0
  148.0334  141.6262  154.2858 C   0  0  0  0  0  0  0  0  0  0  0  0
  149.5160  141.9482  154.5196 C   0  0  0  0  0  0  0  0  0  0  0  0
  150.1186  141.1282  155.5848 N   0  0  0  0  0  0  0  0  0  0  0  0
  149.9941  141.6012  156.9035 C   0  0  0  0  0  0  0  0  0  0  0  0
  150.5131  140.9349  157.9434 C   0  0  0  0  0  0  0  0  0  0  0  0
  151.2168  139.7030  157.6823 C   0  0  0  0  0  0  0  0  0  0  0  0
  151.3524  139.2221  156.4247 C   0  0  0  0  0  0  0  0  0  0  0  0
  152.1047  137.9265  156.1293 C   0  0  0  0  0  0  0  0  0  0  0  0
  151.2894  137.0309  155.5711 F   0  0  0  0  0  0  0  0  0  0  0  0
  153.1160  138.1499  155.2890 F   0  0  0  0  0  0  0  0  0  0  0  0
  152.6098  137.3833  157.2380 F   0  0  0  0  0  0  0  0  0  0  0  0
  150.7729  139.9629  155.2855 C   0  0  0  0  0  0  0  0  0  0  0  0
  150.8672  139.5652  154.1227 O   0  0  0  0  0  0  0  0  0  0  0  0
  147.1812  142.6584  154.3712 N   0  0  0  0  0  0  0  0  0  0  0  0
  145.7354  142.5533  154.2096 C   0  0  1  0  0  0  0  0  0  0  0  0
  145.0245  141.8200  155.3514 C   0  0  0  0  0  0  0  0  0  0  0  0
  143.6309  142.4671  155.4215 C   0  0  0  0  0  0  0  0  0  0  0  0
  143.6457  143.6179  154.4886 N   0  3  1  0  0  0  0  0  0  0  0  0
  142.8521  144.7793  154.9424 C   0  0  0  0  0  0  0  0  0  0  0  0
  143.2370  146.0732  154.2659 C   0  0  0  0  0  0  0  0  0  0  0  0
  143.6623  145.8080  155.6940 C   0  0  0  0  0  0  0  0  0  0  0  0
  145.0617  143.9220  154.2197 C   0  0  0  0  0  0  0  0  0  0  0  0
  150.0447  141.8081  153.5758 H   0  0  0  0  0  0  0  0  0  0  0  0
  149.6318  143.0077  154.7564 H   0  0  0  0  0  0  0  0  0  0  0  0
  149.4600  142.5340  157.0130 H   0  0  0  0  0  0  0  0  0  0  0  0
  150.4114  141.3129  158.9501 H   0  0  0  0  0  0  0  0  0  0  0  0
  151.6415  139.1684  158.5186 H   0  0  0  0  0  0  0  0  0  0  0  0
  147.5589  143.5713  154.5821 H   0  0  0  0  0  0  0  0  0  0  0  0
  145.5067  142.0586  153.2631 H   0  0  0  0  0  0  0  0  0  0  0  0
  144.9761  140.7439  155.1818 H   0  0  0  0  0  0  0  0  0  0  0  0
  145.5487  141.9817  156.2947 H   0  0  0  0  0  0  0  0  0  0  0  0
  142.8471  141.7696  155.1251 H   0  0  0  0  0  0  0  0  0  0  0  0
  143.4194  142.7897  156.4423 H   0  0  0  0  0  0  0  0  0  0  0  0
  141.8156  144.5851  155.2132 H   0  0  0  0  0  0  0  0  0  0  0  0
  144.0075  146.0437  153.4974 H   0  0  0  0  0  0  0  0  0  0  0  0
  142.4521  146.8105  154.1085 H   0  0  0  0  0  0  0  0  0  0  0  0
  143.1574  146.3709  156.4766 H   0  0  0  0  0  0  0  0  0  0  0  0
  144.7161  145.6030  155.8749 H   0  0  0  0  0  0  0  0  0  0  0  0
  145.4644  144.5428  155.0228 H   0  0  0  0  0  0  0  0  0  0  0  0
  145.1852  144.4579  153.2778 H   0  0  0  0  0  0  0  0  0  0  0  0
  143.2505  143.2905  153.6186 H   0  0  0  0  0  0  0  0  0  0  0  0
  1  2  2  0  0  0  0
  2  3  1  0  0  0  0
  2 15  1  0  0  0  0
  3  4  1  0  0  0  0
  3 24  1  0  0  0  0
  3 25  1  0  0  0  0
  4 13  1  0  0  0  0
  4  5  1  0  0  0  0
  5  6  2  0  0  0  0
  5 26  1  0  0  0  0
  6  7  1  0  0  0  0
  6 27  1  0  0  0  0
  7  8  2  0  0  0  0
  7 28  1  0  0  0  0
  8  9  1  0  0  0  0
  8 13  1  0  0  0  0
  9 10  1  0  0  0  0
  9 11  1  0  0  0  0
  9 12  1  0  0  0  0
 13 14  2  0  0  0  0
 15 16  1  0  0  0  0
 15 29  1  0  0  0  0
 16 23  1  0  0  0  0
 16 17  1  0  0  0  0
 16 30  1  0  0  0  0
 17 18  1  0  0  0  0
 17 31  1  0  0  0  0
 17 32  1  0  0  0  0
 18 19  1  0  0  0  0
 18 33  1  0  0  0  0
 18 34  1  0  0  0  0
 19 20  1  0  0  0  0
 19 23  1  0  0  0  0
 19 42  1  0  0  0  0
 20 22  1  0  0  0  0
 20 21  1  0  0  0  0
 20 35  1  0  0  0  0
 21 22  1  0  0  0  0
 21 36  1  0  0  0  0
 21 37  1  0  0  0  0
 22 38  1  0  0  0  0
 22 39  1  0  0  0  0
 23 40  1  0  0  0  0
 23 41  1  0  0  0  0
M  CHG  1  19   1
M  END
> <s_m_source_file>
AV-unprocessed.smi

> <i_m_source_file_index>
1782

> <i_lp_mmshare_version>
43012

> <i_f3d_flags>
0

> <s_epik_input>
W0NIMl0xW0NIMl1bQ0hdMU4oW0NIMl0yKVtDSDJdW0NIMl1bQ0BIXTJbTkhdQyg9TylbQ0gyXW4zW2NIXVtjSF1bY0hdYyhDKEYpKEYpRiljMz1P

> <s_epik_cmdline>
J2VwaWtfcHl0aG9uJywgJy1waCcsICc3LjAnLCAnLXRuJywgJzgnLCAnLW1hJywgJzIwMCcsICctbWV0YWxfYmluZGluZycsICctaW1hZScsICc8aW5maWxlLm1hZT4nLCAnLW9tYWUnLCAnPG91dGZpbGUubWFlPic=

> <r_lp_tautomer_probability>
1

> <r_epik_Ionization_Penalty>
0.00106789

> <r_epik_Ionization_Penalty_Charging>
0.00106781

> <r_epik_Ionization_Penalty_Neutral>
8.2288e-08

> <r_epik_State_Penalty>
0.000699156

> <r_epik_Charging_Adjusted_Penalty>
0.00176697

> <i_epik_Tot_Q>
1

> <i_epik_Tot_abs_Q>
1

> <r_epik_Metal_State_Penalty>
-0

> <b_epik_Metal_Only>
0

> <s_lp_Force_Field>
OPLS_2005

> <r_lp_Energy>
45.6714

> <b_lp_Chiralities_Consistent>
1

> <s_lp_Variant>
AV-unprocessed.smi:1782-4

> <Gold.Version>
5.8.1

> <Gold.Id.Protein>
6NUR|6NUR_protein|mol2

> <Gold.PLP.Fitness>
48.3790

> <Gold.PLP.PLP>
-34.6768

> <Gold.PLP.part.hbond>
-3.0000

> <Gold.PLP.part.metal>
0.0000

> <Gold.PLP.part.buried>
-1.6184

> <Gold.PLP.part.nonpolar>
-30.5212

> <Gold.PLP.part.repulsive>
0.4385

> <Gold.PLP.ligand.clash>
0.2913

> <Gold.PLP.ligand.torsion>
1.0842

> <Gold.PLP.Chemscore.Hbond>
3.8640

> <Gold.PLP.Chemscore.CHOScore>
0.9929

> <Gold.PLP.Chemscore.Metal>
0.0000

> <Gold.Chemscore.Hbonds>
donor molecule, donor type, donor heavy atom, donor atom, acceptor molecule, acceptor atom, score
      L1  H    15    29       P1  8028  0.95
      L1  H    19    42       P1 10174  2.00
      P1  H  7989  7998       L1    14  0.95
      L1  C     5    26       P1  8028  0.75

> <Gold.PLP.Chemscore.Internal.Correction>
1.5912

> <Gold.Rescore>
     Score         DG    S(hbond)    S(metal)    S(lipo)     H(rot)  DE(clash)    DE(int)     intcor
     11.68     -15.41       1.95        0.00      68.98       1.81       0.26       3.48       ----

> <Gold.Chemscore.Fitness>
11.6805

> <Gold.Chemscore.DG>
-15.4146

> <Gold.Chemscore.ZeroCoef>
-5.4800

> <Gold.Chemscore.Hbond>
1.9453

> <Gold.Chemscore.Metal>
0.0000

> <Gold.Chemscore.Lipo>
68.9839

> <Gold.Chemscore.Internal_Hbond>
0.0000

> <Gold.Chemscore.DEClash>
0.2589

> <Gold.Chemscore.DEInternal>
3.4751

> <Gold.Chemscore.Rot>
1.8101

> <Gold.Chemscore.Internal.Correction>
   9.000000E+99

> <Gold.Chemscore.Hbonds>
donor molecule, donor type, donor heavy atom, donor atom, acceptor molecule, acceptor atom, score
      L1  H    15    29       P1  8028  0.20
      L1  H    19    42       P1 10174  0.88
      P1  H  7989  7998       L1    14  0.21

> <Gold.Chemscore.Hbond.Weighted>
-6.4972

> <Gold.Chemscore.Metal.Weighted>
-0.0000

> <Gold.Chemscore.Lipo.Weighted>
-8.0711

> <Gold.Chemscore.Internal_Hbond.Weighted>
0.0000

> <Gold.Chemscore.DEClash.Weighted>
0.2589

> <Gold.Chemscore.DEInternal.Weighted>
3.4751

> <Gold.Chemscore.Rot.Weighted>
4.6338

> <Gold.Chemscore.Internal.Correction.Weighted>
   9.000000E+99

> <Gold.Protein.RotatedTorsions>
[ 6907 6896 6895 6894 ] final -125.84 input  -60.11 | X-H torsion
[ 7974 7965 7964 7962 ] final   43.09 input  175.53 | X-H torsion
[ 8008 7997 7996 7995 ] final  -41.10 input   59.86 | X-H torsion
[ 10167 10162 10161 10158 ] final  139.02 input  -65.29 | X-H torsion
[ 10718 10713 10712 10709 ] final  -38.83 input   66.30 | X-H torsion
[ 10763 10752 10751 10750 ] final  -99.74 input  -60.55 | X-H torsion
[ 11005 11000 10999 10996 ] final  -82.91 input  -57.11 | X-H torsion

> <Gold.Protein.ActiveResidues>
 VAL166  LYS551  ARG553  GLY616  TRP617  ASP618  TYR619  PRO620  LYS621  CYS622 
 ASP623  PHE694  ASN695  SER759  ASP760  ASP761  ALA762  ILE779  LEU786  VAL792 
 PHE793  MET794  SER795  GLU796  ALA797  LYS798  CYS799  TRP800  GLU811  SER814 

> <Gold.Protein.RotatedAtoms>
  150.8908  133.7245  159.2904 H   0  0  0  0  0  0  0  0  0  0  0  0  # atno 6907 bound_to 6896
  151.4796  135.1050  159.9783 H   0  0  0  0  0  0  0  0  0  0  0  0  # atno 6908 bound_to 6896
  152.4819  133.8228  159.7118 H   0  0  0  0  0  0  0  0  0  0  0  0  # atno 6909 bound_to 6896
  146.0685  139.5226  142.9613 H   0  0  0  0  0  0  0  0  0  0  0  0  # atno 7974 bound_to 7965
  154.4006  140.1508  156.3136 H   0  0  0  0  0  0  0  0  0  0  0  0  # atno 8008 bound_to 7997
  155.8593  140.3454  155.5724 H   0  0  0  0  0  0  0  0  0  0  0  0  # atno 8009 bound_to 7997
  155.7898  140.0855  157.2005 H   0  0  0  0  0  0  0  0  0  0  0  0  # atno 8010 bound_to 7997
  139.5092  144.6319  151.5795 H   0  0  0  0  0  0  0  0  0  0  0  0  # atno 10167 bound_to 10162
  156.2994  130.4238  149.8159 H   0  0  0  0  0  0  0  0  0  0  0  0  # atno 10718 bound_to 10713
  154.7523  135.4961  153.9311 H   0  0  0  0  0  0  0  0  0  0  0  0  # atno 10763 bound_to 10752
  153.1157  135.6720  153.9430 H   0  0  0  0  0  0  0  0  0  0  0  0  # atno 10764 bound_to 10752
  153.9177  135.3092  155.3427 H   0  0  0  0  0  0  0  0  0  0  0  0  # atno 10765 bound_to 10752
  141.1661  133.7268  156.8641 H   0  0  0  0  0  0  0  0  0  0  0  0  # atno 11005 bound_to 11000
  145.6434  141.0279  143.1799 LP  0  0  0  0  0  0  0  0  0  0  0  0  # atno 17320 bound_to 7965
  144.7217  139.8009  143.7379 LP  0  0  0  0  0  0  0  0  0  0  0  0  # atno 17321 bound_to 7965
  140.6055  143.9532  150.6415 LP  0  0  0  0  0  0  0  0  0  0  0  0  # atno 17342 bound_to 10162
  140.2758  143.3424  152.1197 LP  0  0  0  0  0  0  0  0  0  0  0  0  # atno 17343 bound_to 10162
  156.5543  130.8355  151.3309 LP  0  0  0  0  0  0  0  0  0  0  0  0  # atno 17370 bound_to 10713
  157.7364  130.9778  150.2133 LP  0  0  0  0  0  0  0  0  0  0  0  0  # atno 17371 bound_to 10713
  140.1827  134.9021  157.2968 LP  0  0  0  0  0  0  0  0  0  0  0  0  # atno 17394 bound_to 11000
  140.2377  134.3833  155.7494 LP  0  0  0  0  0  0  0  0  0  0  0  0  # atno 17395 bound_to 11000

$$$$
