AV-unprocessed.smi:666|AV-procd|sdf|3254|dock3
  -GOLD-   22720 0203D 1   1.00000     0.00000
 Structure written by MMmdl.
 34 35  0  0  0  0  0  0  0  0  2 V2000
  151.9211  139.5013  159.7705 O   0  0  0  0  0  0  0  0  0  0  0  0
  152.3444  139.5860  158.6172 C   0  0  0  0  0  0  0  0  0  0  0  0
  151.7826  140.6700  157.6890 C   0  0  0  0  0  0  0  0  0  0  0  0
  151.8894  142.0938  158.2093 C   0  0  0  0  0  0  0  0  0  0  0  0
  151.3173  143.1353  157.5738 C   0  0  0  0  0  0  0  0  0  0  0  0
  151.4079  144.5755  158.0466 C   0  0  0  0  0  0  0  0  0  0  0  0
  152.5002  144.7733  159.1112 C   0  0  0  0  0  0  0  0  0  0  0  0
  152.4684  143.6474  160.1525 C   0  0  0  0  0  0  0  0  0  0  0  0
  152.6799  142.2692  159.5001 C   0  0  0  0  0  0  0  0  0  0  0  0
  153.2931  138.8411  158.0037 N   0  5  0  0  0  0  0  0  0  0  0  0
  152.9483  137.6495  156.9574 S   0  0  0  0  0  0  0  0  0  0  0  0
  154.0216  136.6454  156.8838 O   0  0  0  0  0  0  0  0  0  0  0  0
  151.5795  137.1465  157.1519 O   0  0  0  0  0  0  0  0  0  0  0  0
  152.9512  138.5287  155.3248 C   0  0  0  0  0  0  0  0  0  0  0  0
  151.5522  138.6759  154.7899 C   0  0  0  0  0  0  0  0  0  0  0  0
  150.6240  137.6565  154.4370 C   0  0  0  0  0  0  0  0  0  0  0  0
  149.5238  138.3521  154.0271 C   0  0  0  0  0  0  0  0  0  0  0  0
  149.7423  139.6873  154.1259 O   0  0  0  0  0  0  0  0  0  0  0  0
  151.0380  139.8843  154.6169 N   0  0  0  0  0  0  0  0  0  0  0  0
  152.2401  140.6307  156.6981 H   0  0  0  0  0  0  0  0  0  0  0  0
  150.7280  140.4375  157.5352 H   0  0  0  0  0  0  0  0  0  0  0  0
  150.7429  142.9636  156.6751 H   0  0  0  0  0  0  0  0  0  0  0  0
  151.6016  145.2236  157.1917 H   0  0  0  0  0  0  0  0  0  0  0  0
  150.4345  144.8597  158.4476 H   0  0  0  0  0  0  0  0  0  0  0  0
  153.4792  144.7884  158.6304 H   0  0  0  0  0  0  0  0  0  0  0  0
  152.3790  145.7431  159.5945 H   0  0  0  0  0  0  0  0  0  0  0  0
  153.2261  143.8161  160.9182 H   0  0  0  0  0  0  0  0  0  0  0  0
  151.5051  143.6622  160.6642 H   0  0  0  0  0  0  0  0  0  0  0  0
  152.3987  141.4886  160.2074 H   0  0  0  0  0  0  0  0  0  0  0  0
  153.7359  142.1219  159.2712 H   0  0  0  0  0  0  0  0  0  0  0  0
  153.4449  139.4938  155.4275 H   0  0  0  0  0  0  0  0  0  0  0  0
  153.5593  137.9343  154.6425 H   0  0  0  0  0  0  0  0  0  0  0  0
  150.7500  136.5849  154.4719 H   0  0  0  0  0  0  0  0  0  0  0  0
  148.5535  138.0553  153.6576 H   0  0  0  0  0  0  0  0  0  0  0  0
  1  2  2  0  0  0  0
  2  3  1  0  0  0  0
  2 10  1  0  0  0  0
  3  4  1  0  0  0  0
  3 20  1  0  0  0  0
  3 21  1  0  0  0  0
  4  9  1  0  0  0  0
  4  5  2  0  0  0  0
  5  6  1  0  0  0  0
  5 22  1  0  0  0  0
  6  7  1  0  0  0  0
  6 23  1  0  0  0  0
  6 24  1  0  0  0  0
  7  8  1  0  0  0  0
  7 25  1  0  0  0  0
  7 26  1  0  0  0  0
  8  9  1  0  0  0  0
  8 27  1  0  0  0  0
  8 28  1  0  0  0  0
  9 29  1  0  0  0  0
  9 30  1  0  0  0  0
 10 11  1  0  0  0  0
 11 12  2  0  0  0  0
 11 13  2  0  0  0  0
 11 14  1  0  0  0  0
 14 15  1  0  0  0  0
 14 31  1  0  0  0  0
 14 32  1  0  0  0  0
 15 19  2  0  0  0  0
 15 16  1  0  0  0  0
 16 17  2  0  0  0  0
 16 33  1  0  0  0  0
 17 18  1  0  0  0  0
 17 34  1  0  0  0  0
 18 19  1  0  0  0  0
M  CHG  1  10  -1
M  END
> <s_m_source_file>
AV-unprocessed.smi

> <i_m_source_file_index>
666

> <i_lp_mmshare_version>
43012

> <i_f3d_flags>
0

> <s_epik_input>
W0NIMl0xW0NIMl1bQ0gyXVtDSDJdW0NIXT1DMVtDSDJdQyg9TylbTkhdUyg9TykoPU8pW0NIMl1jMltjSF1bY0hdb24y

> <s_epik_cmdline>
J2VwaWtfcHl0aG9uJywgJy1waCcsICc3LjAnLCAnLXRuJywgJzgnLCAnLW1hJywgJzIwMCcsICctbWV0YWxfYmluZGluZycsICctaW1hZScsICc8aW5maWxlLm1hZT4nLCAnLW9tYWUnLCAnPG91dGZpbGUubWFlPic=

> <r_epik_Ionization_Penalty>
0.000833246

> <r_epik_Ionization_Penalty_Charging>
0.000833246

> <r_epik_Ionization_Penalty_Neutral>
1.62659e-10

> <r_epik_State_Penalty>
0.000536532

> <r_epik_Charging_Adjusted_Penalty>
0.00136978

> <i_epik_Tot_Q>
-1

> <i_epik_Tot_abs_Q>
1

> <r_epik_Metal_State_Penalty>
-0

> <b_epik_Metal_Only>
0

> <s_lp_Force_Field>
OPLS_2005

> <r_lp_Energy>
4.18867

> <b_lp_Chiralities_Consistent>
1

> <s_lp_Variant>
AV-unprocessed.smi:666-1

> <Gold.Version>
5.8.1

> <Gold.Id.Protein>
6NUR|6NUR_protein|mol2

> <Gold.PLP.Fitness>
47.7477

> <Gold.PLP.PLP>
-36.2757

> <Gold.PLP.part.hbond>
-3.5728

> <Gold.PLP.part.metal>
0.0000

> <Gold.PLP.part.buried>
-1.9078

> <Gold.PLP.part.nonpolar>
-32.4975

> <Gold.PLP.part.repulsive>
1.0414

> <Gold.PLP.ligand.clash>
0.0000

> <Gold.PLP.ligand.torsion>
1.4753

> <Gold.PLP.Chemscore.Hbond>
3.8640

> <Gold.PLP.Chemscore.CHOScore>
0.5989

> <Gold.PLP.Chemscore.Metal>
0.0000

> <Gold.Chemscore.Hbonds>
donor molecule, donor type, donor heavy atom, donor atom, acceptor molecule, acceptor atom, score
      P1  H  7989  7998       L1    19  1.00
      P1  H  7997  8009       L1    10  1.92
      P1  H 10752 10765       L1    12  0.94
      L1  C    17    34       P1  7948  0.47

> <Gold.PLP.Chemscore.Internal.Correction>
1.0340

> <Gold.Rescore>
     Score         DG    S(hbond)    S(metal)    S(lipo)     H(rot)  DE(clash)    DE(int)     intcor
     17.14     -21.31       2.40        0.00     104.08       1.70       0.04       4.13       ----

> <Gold.Chemscore.Fitness>
17.1426

> <Gold.Chemscore.DG>
-21.3114

> <Gold.Chemscore.ZeroCoef>
-5.4800

> <Gold.Chemscore.Hbond>
2.4007

> <Gold.Chemscore.Metal>
0.0000

> <Gold.Chemscore.Lipo>
104.0752

> <Gold.Chemscore.Internal_Hbond>
0.0000

> <Gold.Chemscore.DEClash>
0.0423

> <Gold.Chemscore.DEInternal>
4.1265

> <Gold.Chemscore.Rot>
1.7046

> <Gold.Chemscore.Internal.Correction>
   9.000000E+99

> <Gold.Chemscore.Hbonds>
donor molecule, donor type, donor heavy atom, donor atom, acceptor molecule, acceptor atom, score
      P1  H  7989  7998       L1    19  0.29
      P1  H  7997  8009       L1    10  0.48
      P1  H 10752 10765       L1    12  0.85

> <Gold.Chemscore.Hbond.Weighted>
-8.0184

> <Gold.Chemscore.Metal.Weighted>
-0.0000

> <Gold.Chemscore.Lipo.Weighted>
-12.1768

> <Gold.Chemscore.Internal_Hbond.Weighted>
0.0000

> <Gold.Chemscore.DEClash.Weighted>
0.0423

> <Gold.Chemscore.DEInternal.Weighted>
4.1265

> <Gold.Chemscore.Rot.Weighted>
4.3638

> <Gold.Chemscore.Internal.Correction.Weighted>
   9.000000E+99

> <Gold.Protein.RotatedTorsions>
[ 6907 6896 6895 6894 ] final -125.06 input  -60.11 | X-H torsion
[ 7974 7965 7964 7962 ] final -131.80 input  175.53 | X-H torsion
[ 8008 7997 7996 7995 ] final  141.84 input   59.86 | X-H torsion
[ 10167 10162 10161 10158 ] final -166.16 input  -65.29 | X-H torsion
[ 10718 10713 10712 10709 ] final   83.65 input   66.30 | X-H torsion
[ 10763 10752 10751 10750 ] final  -96.49 input  -60.55 | X-H torsion
[ 11005 11000 10999 10996 ] final  102.03 input  -57.11 | X-H torsion

> <Gold.Protein.ActiveResidues>
 VAL166  LYS551  ARG553  GLY616  TRP617  ASP618  TYR619  PRO620  LYS621  CYS622 
 ASP623  PHE694  ASN695  SER759  ASP760  ASP761  ALA762  ILE779  LEU786  VAL792 
 PHE793  MET794  SER795  GLU796  ALA797  LYS798  CYS799  TRP800  GLU811  SER814 

> <Gold.Protein.RotatedAtoms>
  150.8830  133.7346  159.2926 H   0  0  0  0  0  0  0  0  0  0  0  0  # atno 6907 bound_to 6896
  151.4921  135.1056  159.9816 H   0  0  0  0  0  0  0  0  0  0  0  0  # atno 6908 bound_to 6896
  152.4772  133.8120  159.7064 H   0  0  0  0  0  0  0  0  0  0  0  0  # atno 6909 bound_to 6896
  144.9345  140.7167  143.4885 H   0  0  0  0  0  0  0  0  0  0  0  0  # atno 7974 bound_to 7965
  156.2959  140.2304  156.4630 H   0  0  0  0  0  0  0  0  0  0  0  0  # atno 8008 bound_to 7997
  154.8002  140.0449  157.1287 H   0  0  0  0  0  0  0  0  0  0  0  0  # atno 8009 bound_to 7997
  154.9543  140.3046  155.5064 H   0  0  0  0  0  0  0  0  0  0  0  0  # atno 8010 bound_to 7997
  139.6133  144.0770  152.1864 H   0  0  0  0  0  0  0  0  0  0  0  0  # atno 10167 bound_to 10162
  157.6883  131.0100  150.2555 H   0  0  0  0  0  0  0  0  0  0  0  0  # atno 10718 bound_to 10713
  154.7244  135.5082  153.8862 H   0  0  0  0  0  0  0  0  0  0  0  0  # atno 10763 bound_to 10752
  153.0891  135.6654  153.9898 H   0  0  0  0  0  0  0  0  0  0  0  0  # atno 10764 bound_to 10752
  153.9714  135.3038  155.3406 H   0  0  0  0  0  0  0  0  0  0  0  0  # atno 10765 bound_to 10752
  139.8775  134.9207  156.4996 H   0  0  0  0  0  0  0  0  0  0  0  0  # atno 11005 bound_to 11000
  145.3089  139.1825  143.4649 LP  0  0  0  0  0  0  0  0  0  0  0  0  # atno 17320 bound_to 7965
  146.3261  140.3091  142.8625 LP  0  0  0  0  0  0  0  0  0  0  0  0  # atno 17321 bound_to 7965
  140.0394  144.6019  150.7423 LP  0  0  0  0  0  0  0  0  0  0  0  0  # atno 17342 bound_to 10162
  140.7334  143.2717  151.3868 LP  0  0  0  0  0  0  0  0  0  0  0  0  # atno 17343 bound_to 10162
  156.3144  130.3776  149.7632 LP  0  0  0  0  0  0  0  0  0  0  0  0  # atno 17370 bound_to 10713
  156.5222  130.8220  151.3208 LP  0  0  0  0  0  0  0  0  0  0  0  0  # atno 17371 bound_to 10713
  140.8599  133.8068  155.9254 LP  0  0  0  0  0  0  0  0  0  0  0  0  # atno 17394 bound_to 11000
  140.9060  134.2320  157.5014 LP  0  0  0  0  0  0  0  0  0  0  0  0  # atno 17395 bound_to 11000

$$$$
