AV-unprocessed.smi:3056|AV-procd|sdf|11659|dock6
  -GOLD-   2272017 63D 1   1.00000     0.00000
 Structure written by MMmdl.
 47 48  0  0  0  0  0  0  0  0  1 V2000
  143.5680  132.5918  148.8687 C   0  0  0  0  0  0  0  0  0  0  0  0
  144.3577  132.7926  150.1298 C   0  0  0  0  0  0  0  0  0  0  0  0
  144.0907  132.2638  151.4245 C   0  0  0  0  0  0  0  0  0  0  0  0
  144.9800  132.6417  152.3273 N   0  0  0  0  0  0  0  0  0  0  0  0
  145.8505  133.4191  151.6439 N   0  0  0  0  0  0  0  0  0  0  0  0
  146.9702  134.0548  152.3292 C   0  0  2  0  0  0  0  0  0  0  0  0
  147.8508  132.9814  152.9992 C   0  0  0  0  0  0  0  0  0  0  0  0
  146.4928  135.1593  153.3158 C   0  0  1  0  0  0  0  0  0  0  0  0
  145.7312  134.5885  154.5253 C   0  0  0  0  0  0  0  0  0  0  0  0
  147.6441  135.8776  153.8683 N   0  0  0  0  0  0  0  0  0  0  0  0
  147.3131  136.9416  154.8353 C   0  0  0  0  0  0  0  0  0  0  0  0
  147.0789  138.3409  154.2310 C   0  0  0  0  0  0  0  0  0  0  0  0
  145.9413  138.8147  154.2393 O   0  0  0  0  0  0  0  0  0  0  0  0
  148.1350  139.0200  153.7213 N   0  0  0  0  0  0  0  0  0  0  0  0
  148.0249  140.3722  153.1668 C   0  0  0  0  0  0  0  0  0  0  0  0
  148.8316  141.3284  154.0623 C   0  0  0  0  0  0  0  0  0  0  0  0
  150.1873  140.8917  154.1277 O   0  0  0  0  0  0  0  0  0  0  0  0
  150.3317  139.5667  154.6370 C   0  0  2  0  0  0  0  0  0  0  0  0
  151.8262  139.2291  154.6770 C   0  0  0  0  0  0  0  0  0  0  0  0
  149.5375  138.5906  153.7456 C   0  0  0  0  0  0  0  0  0  0  0  0
  145.4964  133.5242  150.3148 C   0  0  0  0  0  0  0  0  0  0  0  0
  142.6422  132.0462  149.0517 H   0  0  0  0  0  0  0  0  0  0  0  0
  144.1324  132.0266  148.1269 H   0  0  0  0  0  0  0  0  0  0  0  0
  143.2946  133.5425  148.4106 H   0  0  0  0  0  0  0  0  0  0  0  0
  143.2775  131.6241  151.7344 H   0  0  0  0  0  0  0  0  0  0  0  0
  147.5810  134.5301  151.5597 H   0  0  0  0  0  0  0  0  0  0  0  0
  148.7971  133.3966  153.3451 H   0  0  0  0  0  0  0  0  0  0  0  0
  148.0935  132.1822  152.2980 H   0  0  0  0  0  0  0  0  0  0  0  0
  147.3510  132.5304  153.8570 H   0  0  0  0  0  0  0  0  0  0  0  0
  145.8195  135.8417  152.7953 H   0  0  0  0  0  0  0  0  0  0  0  0
  144.7879  134.1322  154.2262 H   0  0  0  0  0  0  0  0  0  0  0  0
  145.4858  135.3723  155.2430 H   0  0  0  0  0  0  0  0  0  0  0  0
  146.3188  133.8328  155.0480 H   0  0  0  0  0  0  0  0  0  0  0  0
  148.2203  136.2188  153.1127 H   0  0  0  0  0  0  0  0  0  0  0  0
  146.4014  136.6500  155.3573 H   0  0  0  0  0  0  0  0  0  0  0  0
  148.1008  136.9929  155.5841 H   0  0  0  0  0  0  0  0  0  0  0  0
  148.4227  140.3815  152.1511 H   0  0  0  0  0  0  0  0  0  0  0  0
  146.9941  140.7205  153.0899 H   0  0  0  0  0  0  0  0  0  0  0  0
  148.8052  142.3398  153.6570 H   0  0  0  0  0  0  0  0  0  0  0  0
  148.4052  141.3745  155.0658 H   0  0  0  0  0  0  0  0  0  0  0  0
  149.9399  139.5337  155.6552 H   0  0  0  0  0  0  0  0  0  0  0  0
  151.9917  138.2258  155.0698 H   0  0  0  0  0  0  0  0  0  0  0  0
  152.3665  139.9286  155.3150 H   0  0  0  0  0  0  0  0  0  0  0  0
  152.2682  139.2763  153.6812 H   0  0  0  0  0  0  0  0  0  0  0  0
  149.6824  137.5749  154.1083 H   0  0  0  0  0  0  0  0  0  0  0  0
  149.9309  138.6015  152.7277 H   0  0  0  0  0  0  0  0  0  0  0  0
  146.0741  134.1135  149.6179 H   0  0  0  0  0  0  0  0  0  0  0  0
  1  2  1  0  0  0  0
  1 22  1  0  0  0  0
  1 23  1  0  0  0  0
  1 24  1  0  0  0  0
  2 21  2  0  0  0  0
  2  3  1  0  0  0  0
  3  4  2  0  0  0  0
  3 25  1  0  0  0  0
  4  5  1  0  0  0  0
  5  6  1  0  0  0  0
  5 21  1  0  0  0  0
  6  7  1  0  0  0  0
  6  8  1  0  0  0  0
  6 26  1  0  0  0  0
  7 27  1  0  0  0  0
  7 28  1  0  0  0  0
  7 29  1  0  0  0  0
  8  9  1  0  0  0  0
  8 10  1  0  0  0  0
  8 30  1  0  0  0  0
  9 31  1  0  0  0  0
  9 32  1  0  0  0  0
  9 33  1  0  0  0  0
 10 11  1  0  0  0  0
 10 34  1  0  0  0  0
 11 12  1  0  0  0  0
 11 35  1  0  0  0  0
 11 36  1  0  0  0  0
 12 13  2  0  0  0  0
 12 14  1  0  0  0  0
 14 20  1  0  0  0  0
 14 15  1  0  0  0  0
 15 16  1  0  0  0  0
 15 37  1  0  0  0  0
 15 38  1  0  0  0  0
 16 17  1  0  0  0  0
 16 39  1  0  0  0  0
 16 40  1  0  0  0  0
 17 18  1  0  0  0  0
 18 19  1  0  0  0  0
 18 20  1  0  0  0  0
 18 41  1  0  0  0  0
 19 42  1  0  0  0  0
 19 43  1  0  0  0  0
 19 44  1  0  0  0  0
 20 45  1  0  0  0  0
 20 46  1  0  0  0  0
 21 47  1  0  0  0  0
M  END
> <s_m_source_file>
AV-unprocessed.smi

> <i_m_source_file_index>
3056

> <i_lp_mmshare_version>
43012

> <i_f3d_flags>
0

> <s_epik_input>
W0NIM11jMVtjSF1ubihbY0hdMSlbQ0BIXShbQ0gzXSlbQ0BIXShbQ0gzXSlbTkhdW0NIMl1DKD1PKU4yW0NIMl1bQ0gyXU9bQ0BASF0oW0NIM10pW0NIMl0y

> <s_epik_cmdline>
J2VwaWtfcHl0aG9uJywgJy1waCcsICc3LjAnLCAnLXRuJywgJzgnLCAnLW1hJywgJzIwMCcsICctbWV0YWxfYmluZGluZycsICctaW1hZScsICc8aW5maWxlLm1hZT4nLCAnLW9tYWUnLCAnPG91dGZpbGUubWFlPic=

> <r_lp_tautomer_probability>
1

> <r_epik_Ionization_Penalty>
0.667689

> <r_epik_Ionization_Penalty_Charging>
0

> <r_epik_Ionization_Penalty_Neutral>
0.667689

> <r_epik_State_Penalty>
0.684601

> <r_epik_Charging_Adjusted_Penalty>
0.684601

> <i_epik_Tot_Q>
0

> <i_epik_Tot_abs_Q>
0

> <r_epik_Metal_State_Penalty>
0.681448

> <b_epik_Metal_Only>
0

> <s_lp_Force_Field>
OPLS_2005

> <r_lp_Energy>
30.5855

> <b_lp_Chiralities_Consistent>
1

> <s_lp_Variant>
AV-unprocessed.smi:3056-15

> <Gold.Version>
5.8.1

> <Gold.Id.Protein>
6NUR|6NUR_protein|mol2

> <Gold.PLP.Fitness>
40.8269

> <Gold.PLP.PLP>
-33.1380

> <Gold.PLP.part.hbond>
-2.0000

> <Gold.PLP.part.metal>
0.0000

> <Gold.PLP.part.buried>
1.2354

> <Gold.PLP.part.nonpolar>
-31.9709

> <Gold.PLP.part.repulsive>
0.3275

> <Gold.PLP.ligand.clash>
0.0000

> <Gold.PLP.ligand.torsion>
0.4017

> <Gold.PLP.Chemscore.Hbond>
1.8000

> <Gold.PLP.Chemscore.CHOScore>
0.9985

> <Gold.PLP.Chemscore.Metal>
0.0000

> <Gold.Chemscore.Hbonds>
donor molecule, donor type, donor heavy atom, donor atom, acceptor molecule, acceptor atom, score
      L1  H    10    34       P1  7948  0.80
      P1  H  7989  7998       L1    17  0.41
      L1  C    21    47       P1  7921  0.92

> <Gold.PLP.Chemscore.Internal.Correction>
0.0967

> <Gold.Rescore>
     Score         DG    S(hbond)    S(metal)    S(lipo)     H(rot)  DE(clash)    DE(int)     intcor
     15.55     -17.48       1.81        0.00      87.47       1.68       0.29       1.63       ----

> <Gold.Chemscore.Fitness>
15.5540

> <Gold.Chemscore.DG>
-17.4767

> <Gold.Chemscore.ZeroCoef>
-5.4800

> <Gold.Chemscore.Hbond>
1.8150

> <Gold.Chemscore.Metal>
0.0000

> <Gold.Chemscore.Lipo>
87.4686

> <Gold.Chemscore.Internal_Hbond>
0.0000

> <Gold.Chemscore.DEClash>
0.2917

> <Gold.Chemscore.DEInternal>
1.6310

> <Gold.Chemscore.Rot>
1.6793

> <Gold.Chemscore.Internal.Correction>
   9.000000E+99

> <Gold.Chemscore.Hbonds>
donor molecule, donor type, donor heavy atom, donor atom, acceptor molecule, acceptor atom, score
      L1  H    10    34       P1  7948  0.78
      P1  H  7989  7998       L1    17  0.04

> <Gold.Chemscore.Hbond.Weighted>
-6.0619

> <Gold.Chemscore.Metal.Weighted>
-0.0000

> <Gold.Chemscore.Lipo.Weighted>
-10.2338

> <Gold.Chemscore.Internal_Hbond.Weighted>
0.0000

> <Gold.Chemscore.DEClash.Weighted>
0.2917

> <Gold.Chemscore.DEInternal.Weighted>
1.6310

> <Gold.Chemscore.Rot.Weighted>
4.2990

> <Gold.Chemscore.Internal.Correction.Weighted>
   9.000000E+99

> <Gold.Protein.RotatedTorsions>
[ 6907 6896 6895 6894 ] final -109.43 input  -60.11 | X-H torsion
[ 7974 7965 7964 7962 ] final  -47.72 input  175.53 | X-H torsion
[ 8008 7997 7996 7995 ] final  -17.91 input   59.86 | X-H torsion
[ 10167 10162 10161 10158 ] final  -88.81 input  -65.29 | X-H torsion
[ 10718 10713 10712 10709 ] final  137.87 input   66.30 | X-H torsion
[ 10763 10752 10751 10750 ] final  116.98 input  -60.55 | X-H torsion
[ 11005 11000 10999 10996 ] final  144.98 input  -57.11 | X-H torsion

> <Gold.Protein.ActiveResidues>
 VAL166  LYS551  ARG553  GLY616  TRP617  ASP618  TYR619  PRO620  LYS621  CYS622 
 ASP623  PHE694  ASN695  SER759  ASP760  ASP761  ALA762  ILE779  LEU786  VAL792 
 PHE793  MET794  SER795  GLU796  ALA797  LYS798  CYS799  TRP800  GLU811  SER814 

> <Gold.Protein.RotatedAtoms>
  150.7562  133.9530  159.3491 H   0  0  0  0  0  0  0  0  0  0  0  0  # atno 6907 bound_to 6896
  151.7449  135.0844  160.0331 H   0  0  0  0  0  0  0  0  0  0  0  0  # atno 6908 bound_to 6896
  152.3504  133.6136  159.5977 H   0  0  0  0  0  0  0  0  0  0  0  0  # atno 6909 bound_to 6896
  145.9587  140.7501  142.9468 H   0  0  0  0  0  0  0  0  0  0  0  0  # atno 7974 bound_to 7965
  154.4944  140.2130  155.9479 H   0  0  0  0  0  0  0  0  0  0  0  0  # atno 8008 bound_to 7997
  156.1350  140.3190  155.8375 H   0  0  0  0  0  0  0  0  0  0  0  0  # atno 8009 bound_to 7997
  155.4227  140.0498  157.3015 H   0  0  0  0  0  0  0  0  0  0  0  0  # atno 8010 bound_to 7997
  140.3710  143.2794  151.9500 H   0  0  0  0  0  0  0  0  0  0  0  0  # atno 10167 bound_to 10162
  157.4314  131.1049  151.0246 H   0  0  0  0  0  0  0  0  0  0  0  0  # atno 10718 bound_to 10713
  153.5454  135.3550  155.2736 H   0  0  0  0  0  0  0  0  0  0  0  0  # atno 10763 bound_to 10752
  154.8713  135.4101  154.2997 H   0  0  0  0  0  0  0  0  0  0  0  0  # atno 10764 bound_to 10752
  153.3712  135.7064  153.6704 H   0  0  0  0  0  0  0  0  0  0  0  0  # atno 10765 bound_to 10752
  140.0676  134.9170  157.1290 H   0  0  0  0  0  0  0  0  0  0  0  0  # atno 11005 bound_to 11000
  144.6810  140.2555  143.7326 LP  0  0  0  0  0  0  0  0  0  0  0  0  # atno 17320 bound_to 7965
  145.8070  139.1987  143.2015 LP  0  0  0  0  0  0  0  0  0  0  0  0  # atno 17321 bound_to 7965
  139.4804  144.5907  151.7777 LP  0  0  0  0  0  0  0  0  0  0  0  0  # atno 17342 bound_to 10162
  140.5033  144.1136  150.5976 LP  0  0  0  0  0  0  0  0  0  0  0  0  # atno 17343 bound_to 10162
  157.1141  130.6034  149.5489 LP  0  0  0  0  0  0  0  0  0  0  0  0  # atno 17370 bound_to 10713
  155.9914  130.4969  150.7300 LP  0  0  0  0  0  0  0  0  0  0  0  0  # atno 17371 bound_to 10713
  140.3676  134.2426  155.7181 LP  0  0  0  0  0  0  0  0  0  0  0  0  # atno 17394 bound_to 11000
  141.1999  133.8001  157.0515 LP  0  0  0  0  0  0  0  0  0  0  0  0  # atno 17395 bound_to 11000

$$$$
