AV-unprocessed.smi:3004|AV-procd|sdf|11439|dock1
  -GOLD-   2272016363D 1   1.00000     0.00000
 Structure written by MMmdl.
 47 48  0  0  0  0  0  0  0  0  2 V2000
  151.4878  144.5291  160.2920 C   0  0  0  0  0  0  0  0  0  0  0  0
  152.7468  143.9386  160.8543 C   0  0  0  0  0  0  0  0  0  0  0  0
  153.4059  144.2657  162.0721 C   0  0  0  0  0  0  0  0  0  0  0  0
  154.4901  143.4349  162.1037 C   0  0  0  0  0  0  0  0  0  0  0  0
  155.5656  143.2960  163.1306 C   0  0  0  0  0  0  0  0  0  0  0  0
  154.4451  142.6727  160.9494 N   0  0  0  0  0  0  0  0  0  0  0  0
  155.3540  141.6302  160.5003 C   0  0  0  0  0  0  0  0  0  0  0  0
  154.9276  141.0805  159.1380 C   0  0  0  0  0  0  0  0  0  0  0  0
  155.7142  141.0973  158.1914 O   0  0  0  0  0  0  0  0  0  0  0  0
  153.6817  140.5890  159.0536 N   0  0  0  0  0  0  0  0  0  0  0  0
  153.0953  139.9826  157.8640 C   0  0  0  0  0  0  0  0  0  0  0  0
  151.6625  139.4702  158.1282 C   0  0  0  0  0  0  0  0  0  0  0  0
  150.9426  139.0292  156.8972 N   0  3  2  0  0  0  0  0  0  0  0  0
  151.4420  137.7165  156.3918 C   0  0  0  0  0  0  0  0  0  0  0  0
  150.6173  137.2034  155.2026 C   0  0  0  0  0  0  0  0  0  0  0  0
  150.6131  138.2261  154.0675 C   0  0  0  0  0  0  0  0  0  0  0  0
  150.0984  139.5658  154.5978 C   0  0  0  0  0  0  0  0  0  0  0  0
  150.9201  140.0618  155.8080 C   0  0  1  0  0  0  0  0  0  0  0  0
  150.3534  141.4225  156.2639 C   0  0  0  0  0  0  0  0  0  0  0  0
  153.3755  142.9859  160.1851 N   0  0  0  0  0  0  0  0  0  0  0  0
  151.0385  145.2355  160.9902 H   0  0  0  0  0  0  0  0  0  0  0  0
  150.7492  143.7547  160.0839 H   0  0  0  0  0  0  0  0  0  0  0  0
  151.6856  145.0621  159.3618 H   0  0  0  0  0  0  0  0  0  0  0  0
  153.1231  144.9985  162.8134 H   0  0  0  0  0  0  0  0  0  0  0  0
  155.3894  143.9664  163.9718 H   0  0  0  0  0  0  0  0  0  0  0  0
  156.5402  143.5391  162.7074 H   0  0  0  0  0  0  0  0  0  0  0  0
  155.6061  142.2777  163.5172 H   0  0  0  0  0  0  0  0  0  0  0  0
  156.3676  142.0326  160.4552 H   0  0  0  0  0  0  0  0  0  0  0  0
  155.3692  140.8227  161.2325 H   0  0  0  0  0  0  0  0  0  0  0  0
  153.1097  140.6094  159.8861 H   0  0  0  0  0  0  0  0  0  0  0  0
  153.1246  140.7224  157.0643 H   0  0  0  0  0  0  0  0  0  0  0  0
  153.7368  139.1569  157.5549 H   0  0  0  0  0  0  0  0  0  0  0  0
  151.7636  138.6392  158.8225 H   0  0  0  0  0  0  0  0  0  0  0  0
  151.0667  140.2294  158.6369 H   0  0  0  0  0  0  0  0  0  0  0  0
  152.4913  137.8108  156.1074 H   0  0  0  0  0  0  0  0  0  0  0  0
  151.3935  136.9555  157.1678 H   0  0  0  0  0  0  0  0  0  0  0  0
  151.0239  136.2560  154.8477 H   0  0  0  0  0  0  0  0  0  0  0  0
  149.5941  137.0010  155.5231 H   0  0  0  0  0  0  0  0  0  0  0  0
  151.6208  138.3445  153.6671 H   0  0  0  0  0  0  0  0  0  0  0  0
  149.9862  137.8779  153.2462 H   0  0  0  0  0  0  0  0  0  0  0  0
  150.1301  140.3030  153.7947 H   0  0  0  0  0  0  0  0  0  0  0  0
  149.0490  139.4655  154.8800 H   0  0  0  0  0  0  0  0  0  0  0  0
  151.9480  140.2212  155.4773 H   0  0  0  0  0  0  0  0  0  0  0  0
  150.1999  142.0855  155.4118 H   0  0  0  0  0  0  0  0  0  0  0  0
  151.0304  141.9507  156.9346 H   0  0  0  0  0  0  0  0  0  0  0  0
  149.3921  141.3066  156.7656 H   0  0  0  0  0  0  0  0  0  0  0  0
  149.9801  138.8862  157.1680 H   0  0  0  0  0  0  0  0  0  0  0  0
  1  2  1  0  0  0  0
  1 21  1  0  0  0  0
  1 22  1  0  0  0  0
  1 23  1  0  0  0  0
  2 20  2  0  0  0  0
  2  3  1  0  0  0  0
  3  4  2  0  0  0  0
  3 24  1  0  0  0  0
  4  5  1  0  0  0  0
  4  6  1  0  0  0  0
  5 25  1  0  0  0  0
  5 26  1  0  0  0  0
  5 27  1  0  0  0  0
  6  7  1  0  0  0  0
  6 20  1  0  0  0  0
  7  8  1  0  0  0  0
  7 28  1  0  0  0  0
  7 29  1  0  0  0  0
  8  9  2  0  0  0  0
  8 10  1  0  0  0  0
 10 11  1  0  0  0  0
 10 30  1  0  0  0  0
 11 12  1  0  0  0  0
 11 31  1  0  0  0  0
 11 32  1  0  0  0  0
 12 13  1  0  0  0  0
 12 33  1  0  0  0  0
 12 34  1  0  0  0  0
 13 18  1  0  0  0  0
 13 14  1  0  0  0  0
 13 47  1  0  0  0  0
 14 15  1  0  0  0  0
 14 35  1  0  0  0  0
 14 36  1  0  0  0  0
 15 16  1  0  0  0  0
 15 37  1  0  0  0  0
 15 38  1  0  0  0  0
 16 17  1  0  0  0  0
 16 39  1  0  0  0  0
 16 40  1  0  0  0  0
 17 18  1  0  0  0  0
 17 41  1  0  0  0  0
 17 42  1  0  0  0  0
 18 19  1  0  0  0  0
 18 43  1  0  0  0  0
 19 44  1  0  0  0  0
 19 45  1  0  0  0  0
 19 46  1  0  0  0  0
M  CHG  1  13   1
M  END
> <s_m_source_file>
AV-unprocessed.smi

> <i_m_source_file_index>
3004

> <i_lp_mmshare_version>
43012

> <i_f3d_flags>
0

> <s_epik_input>
W0NIM11jMVtjSF1jKFtDSDNdKW4objEpW0NIMl1DKD1PKVtOSF1bQ0gyXVtDSDJdTjJbQ0gyXVtDSDJdW0NIMl1bQ0gyXVtDQEhdMltDSDNd

> <s_epik_cmdline>
J2VwaWtfcHl0aG9uJywgJy1waCcsICc3LjAnLCAnLXRuJywgJzgnLCAnLW1hJywgJzIwMCcsICctbWV0YWxfYmluZGluZycsICctaW1hZScsICc8aW5maWxlLm1hZT4nLCAnLW9tYWUnLCAnPG91dGZpbGUubWFlPic=

> <r_lp_tautomer_probability>
1

> <r_epik_Ionization_Penalty>
0.00303644

> <r_epik_Ionization_Penalty_Charging>
0.00284254

> <r_epik_Ionization_Penalty_Neutral>
0.000193908

> <r_epik_State_Penalty>
-0

> <r_epik_Charging_Adjusted_Penalty>
0.00284254

> <i_epik_Tot_Q>
1

> <i_epik_Tot_abs_Q>
1

> <r_epik_Metal_State_Penalty>
-0

> <b_epik_Metal_Only>
0

> <s_lp_Force_Field>
OPLS_2005

> <r_lp_Energy>
17.9788

> <b_lp_Chiralities_Consistent>
1

> <s_lp_Variant>
AV-unprocessed.smi:3004-1

> <Gold.Version>
5.8.1

> <Gold.Id.Protein>
6NUR|6NUR_protein|mol2

> <Gold.PLP.Fitness>
46.0897

> <Gold.PLP.PLP>
-43.2622

> <Gold.PLP.part.hbond>
-1.0000

> <Gold.PLP.part.metal>
0.0000

> <Gold.PLP.part.buried>
-3.0389

> <Gold.PLP.part.nonpolar>
-38.6563

> <Gold.PLP.part.repulsive>
0.1170

> <Gold.PLP.ligand.clash>
0.0000

> <Gold.PLP.ligand.torsion>
0.0997

> <Gold.PLP.Chemscore.Hbond>
0.9833

> <Gold.PLP.Chemscore.CHOScore>
0.0000

> <Gold.PLP.Chemscore.Metal>
0.0000

> <Gold.Chemscore.Hbonds>
donor molecule, donor type, donor heavy atom, donor atom, acceptor molecule, acceptor atom, score
      P1  H  7997  8008       L1     9  0.03

> <Gold.PLP.Chemscore.Internal.Correction>
0.0771

> <Gold.Rescore>
     Score         DG    S(hbond)    S(metal)    S(lipo)     H(rot)  DE(clash)    DE(int)     intcor
     15.60     -17.83       0.98        0.00     113.86       1.67       0.63       1.60       ----

> <Gold.Chemscore.Fitness>
15.6027

> <Gold.Chemscore.DG>
-17.8273

> <Gold.Chemscore.ZeroCoef>
-5.4800

> <Gold.Chemscore.Hbond>
0.9850

> <Gold.Chemscore.Metal>
0.0000

> <Gold.Chemscore.Lipo>
113.8590

> <Gold.Chemscore.Internal_Hbond>
0.0000

> <Gold.Chemscore.DEClash>
0.6266

> <Gold.Chemscore.DEInternal>
1.5980

> <Gold.Chemscore.Rot>
1.6657

> <Gold.Chemscore.Internal.Correction>
   9.000000E+99

> <Gold.Chemscore.Hbonds>
donor molecule, donor type, donor heavy atom, donor atom, acceptor molecule, acceptor atom, score
      P1  H  7997  8008       L1     9  0.04

> <Gold.Chemscore.Hbond.Weighted>
-3.2899

> <Gold.Chemscore.Metal.Weighted>
-0.0000

> <Gold.Chemscore.Lipo.Weighted>
-13.3215

> <Gold.Chemscore.Internal_Hbond.Weighted>
0.0000

> <Gold.Chemscore.DEClash.Weighted>
0.6266

> <Gold.Chemscore.DEInternal.Weighted>
1.5980

> <Gold.Chemscore.Rot.Weighted>
4.2641

> <Gold.Chemscore.Internal.Correction.Weighted>
   9.000000E+99

> <Gold.Protein.RotatedTorsions>
[ 6907 6896 6895 6894 ] final   20.77 input  -60.11 | X-H torsion
[ 7974 7965 7964 7962 ] final -120.59 input  175.53 | X-H torsion
[ 8008 7997 7996 7995 ] final -140.20 input   59.86 | X-H torsion
[ 10167 10162 10161 10158 ] final  159.09 input  -65.29 | X-H torsion
[ 10718 10713 10712 10709 ] final  142.46 input   66.30 | X-H torsion
[ 10763 10752 10751 10750 ] final  -62.22 input  -60.55 | X-H torsion
[ 11005 11000 10999 10996 ] final  165.58 input  -57.11 | X-H torsion

> <Gold.Protein.ActiveResidues>
 VAL166  LYS551  ARG553  GLY616  TRP617  ASP618  TYR619  PRO620  LYS621  CYS622 
 ASP623  PHE694  ASN695  SER759  ASP760  ASP761  ALA762  ILE779  LEU786  VAL792 
 PHE793  MET794  SER795  GLU796  ALA797  LYS798  CYS799  TRP800  GLU811  SER814 

> <Gold.Protein.RotatedAtoms>
  151.9016  135.0376  160.0506 H   0  0  0  0  0  0  0  0  0  0  0  0  # atno 6907 bound_to 6896
  152.2354  133.5087  159.5248 H   0  0  0  0  0  0  0  0  0  0  0  0  # atno 6908 bound_to 6896
  150.7037  134.1077  159.4031 H   0  0  0  0  0  0  0  0  0  0  0  0  # atno 6909 bound_to 6896
  145.0497  140.8209  143.4217 H   0  0  0  0  0  0  0  0  0  0  0  0  # atno 7974 bound_to 7965
  155.4575  140.0543  157.2994 H   0  0  0  0  0  0  0  0  0  0  0  0  # atno 8008 bound_to 7997
  154.4751  140.2057  155.9853 H   0  0  0  0  0  0  0  0  0  0  0  0  # atno 8009 bound_to 7997
  156.1119  140.3202  155.8089 H   0  0  0  0  0  0  0  0  0  0  0  0  # atno 8010 bound_to 7997
  139.4830  144.4763  151.8506 H   0  0  0  0  0  0  0  0  0  0  0  0  # atno 10167 bound_to 10162
  157.3802  131.0991  151.0745 H   0  0  0  0  0  0  0  0  0  0  0  0  # atno 10718 bound_to 10713
  154.2966  135.6243  153.5407 H   0  0  0  0  0  0  0  0  0  0  0  0  # atno 10763 bound_to 10752
  152.9846  135.5668  154.5331 H   0  0  0  0  0  0  0  0  0  0  0  0  # atno 10764 bound_to 10752
  154.4953  135.2869  155.1440 H   0  0  0  0  0  0  0  0  0  0  0  0  # atno 10765 bound_to 10752
  140.2576  134.7928  157.3560 H   0  0  0  0  0  0  0  0  0  0  0  0  # atno 11005 bound_to 11000
  145.1543  139.2496  143.5424 LP  0  0  0  0  0  0  0  0  0  0  0  0  # atno 17320 bound_to 7965
  146.3517  140.1254  142.8599 LP  0  0  0  0  0  0  0  0  0  0  0  0  # atno 17321 bound_to 7965
  140.4236  144.2211  150.5887 LP  0  0  0  0  0  0  0  0  0  0  0  0  # atno 17342 bound_to 10162
  140.4850  143.2366  151.8901 LP  0  0  0  0  0  0  0  0  0  0  0  0  # atno 17343 bound_to 10162
  157.1817  130.6312  149.5674 LP  0  0  0  0  0  0  0  0  0  0  0  0  # atno 17370 bound_to 10713
  155.9774  130.4751  150.6591 LP  0  0  0  0  0  0  0  0  0  0  0  0  # atno 17371 bound_to 10713
  140.1496  134.4866  155.7971 LP  0  0  0  0  0  0  0  0  0  0  0  0  # atno 17394 bound_to 11000
  141.2194  133.6857  156.7355 LP  0  0  0  0  0  0  0  0  0  0  0  0  # atno 17395 bound_to 11000

$$$$
