AV-unprocessed.smi:2507|AV-procd|sdf|9864|dock10
  -GOLD-   2272013493D 1   1.00000     0.00000
 Structure written by MMmdl.
 44 45  0  0  0  0  0  0  0  0  1 V2000
  151.3218  145.5919  159.9369 C   0  0  0  0  0  0  0  0  0  0  0  0
  151.8811  144.9958  158.6405 C   0  0  0  0  0  0  0  0  0  0  0  0
  152.1432  143.5202  158.7673 C   0  0  0  0  0  0  0  0  0  0  0  0
  152.9615  143.0720  159.7097 N   0  0  0  0  0  0  0  0  0  0  0  0
  152.9741  141.7259  159.5595 N   0  0  0  0  0  0  0  0  0  0  0  0
  153.7875  140.9220  160.4461 C   0  0  0  0  0  0  0  0  0  0  0  0
  152.1628  141.3071  158.5249 C   0  0  0  0  0  0  0  0  0  0  0  0
  151.6160  142.4447  158.0016 C   0  0  0  0  0  0  0  0  0  0  0  0
  150.7052  142.5867  156.9234 N   0  0  0  0  0  0  0  0  0  0  0  0
  150.2159  141.6173  156.1330 C   0  0  0  0  0  0  0  0  0  0  0  0
  150.4866  140.4203  156.2299 O   0  0  0  0  0  0  0  0  0  0  0  0
  149.3845  142.1182  155.2086 N   0  0  0  0  0  0  0  0  0  0  0  0
  148.6898  141.3358  154.1928 C   0  0  0  0  0  0  0  0  0  0  0  0
  147.8174  140.2361  154.8225 C   0  0  0  0  0  0  0  0  0  0  0  0
  146.8473  139.5938  153.8185 C   0  0  1  0  0  0  0  0  0  0  0  0
  147.5307  139.2945  152.4697 C   0  0  0  0  0  0  0  0  0  0  0  0
  146.5611  138.5843  151.5182 C   0  0  0  0  0  0  0  0  0  0  0  0
  145.9679  137.3527  152.2097 C   0  0  0  0  0  0  0  0  0  0  0  0
  145.3678  137.7420  153.5699 C   0  0  0  0  0  0  0  0  0  0  0  0
  146.3590  138.3743  154.3741 O   0  0  0  0  0  0  0  0  0  0  0  0
  151.1352  146.6601  159.8248 H   0  0  0  0  0  0  0  0  0  0  0  0
  152.0196  145.4606  160.7644 H   0  0  0  0  0  0  0  0  0  0  0  0
  150.3803  145.1163  160.2130 H   0  0  0  0  0  0  0  0  0  0  0  0
  151.1816  145.1827  157.8257 H   0  0  0  0  0  0  0  0  0  0  0  0
  152.8010  145.5162  158.3704 H   0  0  0  0  0  0  0  0  0  0  0  0
  153.6660  139.8645  160.2098 H   0  0  0  0  0  0  0  0  0  0  0  0
  153.4853  141.0913  161.4801 H   0  0  0  0  0  0  0  0  0  0  0  0
  154.8373  141.1929  160.3305 H   0  0  0  0  0  0  0  0  0  0  0  0
  152.0537  140.2642  158.2670 H   0  0  0  0  0  0  0  0  0  0  0  0
  150.3958  143.5283  156.7319 H   0  0  0  0  0  0  0  0  0  0  0  0
  149.2206  143.1142  155.2060 H   0  0  0  0  0  0  0  0  0  0  0  0
  148.0883  141.9930  153.5625 H   0  0  0  0  0  0  0  0  0  0  0  0
  149.4411  140.8865  153.5431 H   0  0  0  0  0  0  0  0  0  0  0  0
  148.4664  139.4628  155.2354 H   0  0  0  0  0  0  0  0  0  0  0  0
  147.2531  140.6437  155.6623 H   0  0  0  0  0  0  0  0  0  0  0  0
  146.0100  140.2747  153.6549 H   0  0  0  0  0  0  0  0  0  0  0  0
  147.8887  140.2179  152.0134 H   0  0  0  0  0  0  0  0  0  0  0  0
  148.4072  138.6655  152.6324 H   0  0  0  0  0  0  0  0  0  0  0  0
  145.7602  139.2675  151.2331 H   0  0  0  0  0  0  0  0  0  0  0  0
  147.0717  138.2967  150.5986 H   0  0  0  0  0  0  0  0  0  0  0  0
  145.2069  136.8940  151.5779 H   0  0  0  0  0  0  0  0  0  0  0  0
  146.7473  136.6039  152.3568 H   0  0  0  0  0  0  0  0  0  0  0  0
  144.5109  138.4048  153.4417 H   0  0  0  0  0  0  0  0  0  0  0  0
  145.0074  136.8538  154.0886 H   0  0  0  0  0  0  0  0  0  0  0  0
  1  2  1  0  0  0  0
  1 21  1  0  0  0  0
  1 22  1  0  0  0  0
  1 23  1  0  0  0  0
  2  3  1  0  0  0  0
  2 24  1  0  0  0  0
  2 25  1  0  0  0  0
  3  8  1  0  0  0  0
  3  4  2  0  0  0  0
  4  5  1  0  0  0  0
  5  6  1  0  0  0  0
  5  7  1  0  0  0  0
  6 26  1  0  0  0  0
  6 27  1  0  0  0  0
  6 28  1  0  0  0  0
  7  8  2  0  0  0  0
  7 29  1  0  0  0  0
  8  9  1  0  0  0  0
  9 10  1  0  0  0  0
  9 30  1  0  0  0  0
 10 11  2  0  0  0  0
 10 12  1  0  0  0  0
 12 13  1  0  0  0  0
 12 31  1  0  0  0  0
 13 14  1  0  0  0  0
 13 32  1  0  0  0  0
 13 33  1  0  0  0  0
 14 15  1  0  0  0  0
 14 34  1  0  0  0  0
 14 35  1  0  0  0  0
 15 20  1  0  0  0  0
 15 16  1  0  0  0  0
 15 36  1  0  0  0  0
 16 17  1  0  0  0  0
 16 37  1  0  0  0  0
 16 38  1  0  0  0  0
 17 18  1  0  0  0  0
 17 39  1  0  0  0  0
 17 40  1  0  0  0  0
 18 19  1  0  0  0  0
 18 41  1  0  0  0  0
 18 42  1  0  0  0  0
 19 20  1  0  0  0  0
 19 43  1  0  0  0  0
 19 44  1  0  0  0  0
M  END
> <s_m_source_file>
AV-unprocessed.smi

> <i_m_source_file_index>
2507

> <i_lp_mmshare_version>
43012

> <i_f3d_flags>
0

> <s_epik_input>
W0NIM11bQ0gyXWMxbm4oW0NIM10pW2NIXWMxW05IXUMoPU8pW05IXVtDSDJdW0NIMl1bQ0BASF0yW0NIMl1bQ0gyXVtDSDJdW0NIMl1PMg==

> <s_epik_cmdline>
J2VwaWtfcHl0aG9uJywgJy1waCcsICc3LjAnLCAnLXRuJywgJzgnLCAnLW1hJywgJzIwMCcsICctbWV0YWxfYmluZGluZycsICctaW1hZScsICc8aW5maWxlLm1hZT4nLCAnLW9tYWUnLCAnPG91dGZpbGUubWFlPic=

> <r_lp_tautomer_probability>
1

> <r_epik_Ionization_Penalty>
0.00072031

> <r_epik_Ionization_Penalty_Charging>
0

> <r_epik_Ionization_Penalty_Neutral>
0.00072031

> <r_epik_State_Penalty>
-0

> <r_epik_Charging_Adjusted_Penalty>
0

> <i_epik_Tot_Q>
0

> <i_epik_Tot_abs_Q>
0

> <r_epik_Metal_State_Penalty>
-0

> <b_epik_Metal_Only>
0

> <s_lp_Force_Field>
OPLS_2005

> <r_lp_Energy>
7.2839

> <b_lp_Chiralities_Consistent>
1

> <s_lp_Variant>
AV-unprocessed.smi:2507-2

> <Gold.Version>
5.8.1

> <Gold.Id.Protein>
6NUR|6NUR_protein|mol2

> <Gold.PLP.Fitness>
46.0980

> <Gold.PLP.PLP>
-41.7636

> <Gold.PLP.part.hbond>
-1.9064

> <Gold.PLP.part.metal>
0.0000

> <Gold.PLP.part.buried>
-1.3003

> <Gold.PLP.part.nonpolar>
-39.6804

> <Gold.PLP.part.repulsive>
0.3492

> <Gold.PLP.ligand.clash>
0.0000

> <Gold.PLP.ligand.torsion>
0.1715

> <Gold.PLP.Chemscore.Hbond>
1.5434

> <Gold.PLP.Chemscore.CHOScore>
0.0000

> <Gold.PLP.Chemscore.Metal>
0.0000

> <Gold.Chemscore.Hbonds>
donor molecule, donor type, donor heavy atom, donor atom, acceptor molecule, acceptor atom, score
      L1  H     9    30       P1  8028  0.54
      L1  H    12    31       P1  8028  1.00

> <Gold.PLP.Chemscore.Internal.Correction>
0.0472

> <Gold.Rescore>
     Score         DG    S(hbond)    S(metal)    S(lipo)     H(rot)  DE(clash)    DE(int)     intcor
     18.36     -19.75       1.91        0.00     100.34       1.50       0.14       1.25       ----

> <Gold.Chemscore.Fitness>
18.3613

> <Gold.Chemscore.DG>
-19.7516

> <Gold.Chemscore.ZeroCoef>
-5.4800

> <Gold.Chemscore.Hbond>
1.9109

> <Gold.Chemscore.Metal>
0.0000

> <Gold.Chemscore.Lipo>
100.3400

> <Gold.Chemscore.Internal_Hbond>
0.0000

> <Gold.Chemscore.DEClash>
0.1400

> <Gold.Chemscore.DEInternal>
1.2503

> <Gold.Chemscore.Rot>
1.5042

> <Gold.Chemscore.Internal.Correction>
   9.000000E+99

> <Gold.Chemscore.Hbonds>
donor molecule, donor type, donor heavy atom, donor atom, acceptor molecule, acceptor atom, score
      L1  H     9    30       P1  8028  0.53
      L1  H    12    31       P1  8028  1.00

> <Gold.Chemscore.Hbond.Weighted>
-6.3825

> <Gold.Chemscore.Metal.Weighted>
-0.0000

> <Gold.Chemscore.Lipo.Weighted>
-11.7398

> <Gold.Chemscore.Internal_Hbond.Weighted>
0.0000

> <Gold.Chemscore.DEClash.Weighted>
0.1400

> <Gold.Chemscore.DEInternal.Weighted>
1.2503

> <Gold.Chemscore.Rot.Weighted>
3.8507

> <Gold.Chemscore.Internal.Correction.Weighted>
   9.000000E+99

> <Gold.Protein.RotatedTorsions>
[ 6907 6896 6895 6894 ] final  104.20 input  -60.11 | X-H torsion
[ 7974 7965 7964 7962 ] final   87.69 input  175.53 | X-H torsion
[ 8008 7997 7996 7995 ] final  164.91 input   59.86 | X-H torsion
[ 10167 10162 10161 10158 ] final   35.16 input  -65.29 | X-H torsion
[ 10718 10713 10712 10709 ] final  -31.71 input   66.30 | X-H torsion
[ 10763 10752 10751 10750 ] final   13.45 input  -60.55 | X-H torsion
[ 11005 11000 10999 10996 ] final  -90.83 input  -57.11 | X-H torsion

> <Gold.Protein.ActiveResidues>
 VAL166  LYS551  ARG553  GLY616  TRP617  ASP618  TYR619  PRO620  LYS621  CYS622 
 ASP623  PHE694  ASN695  SER759  ASP760  ASP761  ALA762  ILE779  LEU786  VAL792 
 PHE793  MET794  SER795  GLU796  ALA797  LYS798  CYS799  TRP800  GLU811  SER814 

> <Gold.Protein.RotatedAtoms>
  152.5272  133.9711  159.7762 H   0  0  0  0  0  0  0  0  0  0  0  0  # atno 6907 bound_to 6896
  150.9983  133.6073  159.2705 H   0  0  0  0  0  0  0  0  0  0  0  0  # atno 6908 bound_to 6896
  151.3191  135.0820  159.9353 H   0  0  0  0  0  0  0  0  0  0  0  0  # atno 6909 bound_to 6896
  145.5556  139.2299  143.2488 H   0  0  0  0  0  0  0  0  0  0  0  0  # atno 7974 bound_to 7965
  156.1843  140.1684  156.8215 H   0  0  0  0  0  0  0  0  0  0  0  0  # atno 8008 bound_to 7997
  154.5395  140.0739  156.8519 H   0  0  0  0  0  0  0  0  0  0  0  0  # atno 8009 bound_to 7997
  155.3242  140.3375  155.4243 H   0  0  0  0  0  0  0  0  0  0  0  0  # atno 8010 bound_to 7997
  140.4247  144.1409  150.6152 H   0  0  0  0  0  0  0  0  0  0  0  0  # atno 10167 bound_to 10162
  156.3839  130.4361  149.7447 H   0  0  0  0  0  0  0  0  0  0  0  0  # atno 10718 bound_to 10713
  153.1720  135.6814  153.8595 H   0  0  0  0  0  0  0  0  0  0  0  0  # atno 10763 bound_to 10752
  153.7955  135.3163  155.3385 H   0  0  0  0  0  0  0  0  0  0  0  0  # atno 10764 bound_to 10752
  154.8004  135.4781  154.0354 H   0  0  0  0  0  0  0  0  0  0  0  0  # atno 10765 bound_to 10752
  141.1557  133.7717  156.9793 H   0  0  0  0  0  0  0  0  0  0  0  0  # atno 11005 bound_to 11000
  146.1886  140.6380  142.9156 LP  0  0  0  0  0  0  0  0  0  0  0  0  # atno 17320 bound_to 7965
  144.7508  140.5185  143.6803 LP  0  0  0  0  0  0  0  0  0  0  0  0  # atno 17321 bound_to 7965
  140.4494  143.2493  151.9368 LP  0  0  0  0  0  0  0  0  0  0  0  0  # atno 17342 bound_to 10162
  139.4783  144.5577  151.8288 LP  0  0  0  0  0  0  0  0  0  0  0  0  # atno 17343 bound_to 10162
  156.4527  130.7914  151.2935 LP  0  0  0  0  0  0  0  0  0  0  0  0  # atno 17370 bound_to 10713
  157.7494  131.0090  150.3251 LP  0  0  0  0  0  0  0  0  0  0  0  0  # atno 17371 bound_to 10713
  140.1076  134.9496  157.2018 LP  0  0  0  0  0  0  0  0  0  0  0  0  # atno 17394 bound_to 11000
  140.3235  134.2889  155.7241 LP  0  0  0  0  0  0  0  0  0  0  0  0  # atno 17395 bound_to 11000

$$$$
