#       Name:                AV-unprocessed.smi:373
#       Creating user name   scv26
#       Creation time:       Thu Mar 26 22:38:59 2020


#       File generated by GOLD software.
#

@<TRIPOS>MOLECULE
AV-unprocessed.smi:373
    46    47     1
SMALL
NO_CHARGES


@<TRIPOS>ATOM
      1 ****        -2.9303   4.1429  -1.1059 C.3            1 S1                 0.0000
      2 ****        -3.8108   2.9129  -1.3574 C.3            1 S1                 0.0000
      3 ****        -3.1077   1.5927  -1.0174 C.3            1 S1                 0.0000
      4 ****        -2.0178   1.4023  -1.9086 O.3            1 S1                 0.0000
      5 ****        -1.3351   0.1654  -1.7524 C.3            1 S1                 0.0000
      6 ****        -0.5014  -0.0651  -3.0247 C.3            1 S1                 0.0000
      7 ****         0.3431  -1.3418  -2.8904 C.3            1 S1                 0.0000
      8 ****         1.2102  -1.2944  -1.6219 C.3            1 S1                 0.0000
      9 ****         0.3879  -1.0353  -0.4425 N.3            1 S1                 0.0000
     10 ****         1.0664  -1.2735   0.7668 C.ar           1 S1                 0.0000
     11 ****         1.5620  -0.2025   1.4331 N.ar           1 S1                 0.0000
     12 ****         2.2393  -0.4076   2.5821 C.ar           1 S1                 0.0000
     13 ****         2.4716  -1.6880   3.1319 C.ar           1 S1                 0.0000
     14 ****         3.2111  -1.8714   4.4255 C.2            1 S1                 0.0000
     15 ****         4.1744  -0.9824   4.6868 N.am           1 S1                 0.0000
     16 ****         2.9729  -2.8221   5.1679 O.2            1 S1                 0.0000
     17 ****         1.9401  -2.8002   2.4456 C.ar           1 S1                 0.0000
     18 ****         1.2319  -2.5972   1.2450 C.ar           1 S1                 0.0000
     19 ****         0.5692  -3.9603   0.4114 Cl             1 S1                 0.0000
     20 ****        -0.4182   0.1835  -0.5105 C.3            1 S1                 0.0000
     21 ****        -3.4685   5.0600  -1.3464 H              1 S1                 0.0000
     22 ****        -2.0295   4.1166  -1.7195 H              1 S1                 0.0000
     23 ****        -2.6232   4.2011  -0.0614 H              1 S1                 0.0000
     24 ****        -4.7172   2.9987  -0.7574 H              1 S1                 0.0000
     25 ****        -4.1334   2.8986  -2.3991 H              1 S1                 0.0000
     26 ****        -2.7698   1.6063   0.0190 H              1 S1                 0.0000
     27 ****        -3.8160   0.7693  -1.1193 H              1 S1                 0.0000
     28 ****        -2.0585  -0.6475  -1.6650 H              1 S1                 0.0000
     29 ****        -1.1544  -0.1371  -3.8952 H              1 S1                 0.0000
     30 ****         0.1547   0.7896  -3.1958 H              1 S1                 0.0000
     31 ****        -0.3131  -2.2123  -2.8507 H              1 S1                 0.0000
     32 ****         0.9746  -1.4684  -3.7700 H              1 S1                 0.0000
     33 ****         1.7556  -2.2323  -1.5139 H              1 S1                 0.0000
     34 ****         1.9575  -0.5048  -1.7111 H              1 S1                 0.0000
     35 ****         2.6018   0.4850   3.0713 H              1 S1                 0.0000
     36 ****         4.7053  -1.0472   5.5431 H              1 S1                 0.0000
     37 ****         4.3641  -0.2429   4.0258 H              1 S1                 0.0000
     38 ****         2.0722  -3.8018   2.8291 H              1 S1                 0.0000
     39 ****         0.2401   1.0527  -0.5512 H              1 S1                 0.0000
     40 ****        -1.0112   0.2696   0.4002 H              1 S1                 0.0000
     41 ****        -1.3611   2.1419  -1.7608 LP             1 S1                 0.0000
     42 ****        -2.3679   1.4494  -2.8441 LP             1 S1                 0.0000
     43 ****        -0.3246  -1.7369  -0.4508 LP             1 S1                 0.0000
     44 ****         1.4282   0.7233   1.0796 LP             1 S1                 0.0000
     45 ****         2.2749  -3.4918   4.9144 LP             1 S1                 0.0000
     46 ****         3.4772  -2.9256   6.0252 LP             1 S1                 0.0000
@<TRIPOS>BOND
    1    1    2 1     
    2    1   21 1     
    3    1   22 1     
    4    1   23 1     
    5    2    3 1     
    6    2   24 1     
    7    2   25 1     
    8    3    4 1     
    9    3   26 1     
   10    3   27 1     
   11    4    5 1     
   12    5   20 1     
   13    5    6 1     
   14    5   28 1     
   15    6    7 1     
   16    6   29 1     
   17    6   30 1     
   18    7    8 1     
   19    7   31 1     
   20    7   32 1     
   21    8    9 1     
   22    8   33 1     
   23    8   34 1     
   24    9   10 1     
   25    9   20 1     
   26   10   18 ar    
   27   10   11 ar    
   28   11   12 ar    
   29   12   13 ar    
   30   12   35 1     
   31   13   14 1     
   32   13   17 ar    
   33   14   15 am    
   34   14   16 2     
   35   15   36 1     
   36   15   37 1     
   37   17   18 ar    
   38   17   38 1     
   39   18   19 1     
   40   20   39 1     
   41   20   40 1     
   42    4   41 1     
   43    4   42 1     
   44    9   43 1     
   45   11   44 1     
   46   16   45 1     
   47   16   46 1     
@<TRIPOS>SUBSTRUCTURE
      1 S1             1
@<TRIPOS>SET
LONE_PAIRS      STATIC     ATOMS    <user>   **** ""
6 41 42 43 44 45 46
DONOR_HYDROGENS      STATIC     ATOMS    <user>   **** ""
2 36 37
ATOM$BLUE        STATIC     ATOMS    COLORGROUP SYSTEM
6 41 42 43 44 45 46
ATOM$RED        STATIC     ATOMS    COLORGROUP SYSTEM
2 36 37
