AV-unprocessed.smi:1676|AV-procd|sdf|6719|dock4
  -GOLD-   22720 7463D 1   1.00000     0.00000
 Structure written by MMmdl.
 42 43  0  0  0  0  0  0  0  0  2 V2000
  154.7759  139.9270  159.6114 C   0  0  0  0  0  0  0  0  0  0  0  0
  154.1718  141.0689  160.3770 C   0  0  0  0  0  0  0  0  0  0  0  0
  154.5627  141.2911  161.6207 N   0  0  0  0  0  0  0  0  0  0  0  0
  153.8464  142.4112  162.0533 O   0  0  0  0  0  0  0  0  0  0  0  0
  153.0436  142.8251  161.0403 C   0  0  0  0  0  0  0  0  0  0  0  0
  152.1995  144.0253  161.3049 C   0  0  0  0  0  0  0  0  0  0  0  0
  153.1948  142.0143  159.9492 C   0  0  0  0  0  0  0  0  0  0  0  0
  152.5032  142.1039  158.6098 C   0  0  0  0  0  0  0  0  0  0  0  0
  151.8162  140.7864  158.2273 C   0  0  0  0  0  0  0  0  0  0  0  0
  151.3628  140.0417  159.0968 O   0  0  0  0  0  0  0  0  0  0  0  0
  151.7745  140.5436  156.9036 N   0  0  0  0  0  0  0  0  0  0  0  0
  151.2201  139.4360  156.1019 C   0  0  0  0  0  0  0  0  0  0  0  0
  152.4159  138.4651  155.9040 C   0  0  0  0  0  0  0  0  0  0  0  0
  152.2907  137.5055  155.1102 O   0  0  0  0  0  0  0  0  0  0  0  0
  153.4444  138.6769  156.5870 O   0  5  0  0  0  0  0  0  0  0  0  0
  150.0149  138.7023  156.7804 C   0  0  0  0  0  0  0  0  0  0  0  0
  149.2535  137.6984  155.8933 C   0  0  0  0  0  0  0  0  0  0  0  0
  148.0603  138.3446  155.1704 C   0  0  0  0  0  0  0  0  0  0  0  0
  148.4427  139.3449  154.0691 C   0  0  0  0  0  0  0  0  0  0  0  0
  149.3779  140.4829  154.5193 C   0  0  0  0  0  0  0  0  0  0  0  0
  150.8375  140.0258  154.7069 C   0  0  0  0  0  0  0  0  0  0  0  0
  154.1872  139.6823  158.7277 H   0  0  0  0  0  0  0  0  0  0  0  0
  154.8367  139.0276  160.2247 H   0  0  0  0  0  0  0  0  0  0  0  0
  155.7842  140.1729  159.2780 H   0  0  0  0  0  0  0  0  0  0  0  0
  151.9350  144.5285  160.3745 H   0  0  0  0  0  0  0  0  0  0  0  0
  152.7279  144.7415  161.9345 H   0  0  0  0  0  0  0  0  0  0  0  0
  151.2771  143.7433  161.8119 H   0  0  0  0  0  0  0  0  0  0  0  0
  151.7546  142.8965  158.6071 H   0  0  0  0  0  0  0  0  0  0  0  0
  153.2133  142.3611  157.8228 H   0  0  0  0  0  0  0  0  0  0  0  0
  152.2198  141.2506  156.3367 H   0  0  0  0  0  0  0  0  0  0  0  0
  150.3562  138.1803  157.6758 H   0  0  0  0  0  0  0  0  0  0  0  0
  149.2906  139.4263  157.1524 H   0  0  0  0  0  0  0  0  0  0  0  0
  149.9177  137.2030  155.1847 H   0  0  0  0  0  0  0  0  0  0  0  0
  148.8629  136.9080  156.5350 H   0  0  0  0  0  0  0  0  0  0  0  0
  147.4534  137.5568  154.7233 H   0  0  0  0  0  0  0  0  0  0  0  0
  147.4138  138.8353  155.8989 H   0  0  0  0  0  0  0  0  0  0  0  0
  148.8904  138.8115  153.2296 H   0  0  0  0  0  0  0  0  0  0  0  0
  147.5241  139.7841  153.6790 H   0  0  0  0  0  0  0  0  0  0  0  0
  149.3689  141.2381  153.7325 H   0  0  0  0  0  0  0  0  0  0  0  0
  148.9998  140.9857  155.4098 H   0  0  0  0  0  0  0  0  0  0  0  0
  151.4852  140.8777  154.4912 H   0  0  0  0  0  0  0  0  0  0  0  0
  151.0618  139.3133  153.9107 H   0  0  0  0  0  0  0  0  0  0  0  0
  1  2  1  0  0  0  0
  1 22  1  0  0  0  0
  1 23  1  0  0  0  0
  1 24  1  0  0  0  0
  2  7  1  0  0  0  0
  2  3  2  0  0  0  0
  3  4  1  0  0  0  0
  4  5  1  0  0  0  0
  5  6  1  0  0  0  0
  5  7  2  0  0  0  0
  6 25  1  0  0  0  0
  6 26  1  0  0  0  0
  6 27  1  0  0  0  0
  7  8  1  0  0  0  0
  8  9  1  0  0  0  0
  8 28  1  0  0  0  0
  8 29  1  0  0  0  0
  9 10  2  0  0  0  0
  9 11  1  0  0  0  0
 11 12  1  0  0  0  0
 11 30  1  0  0  0  0
 12 21  1  0  0  0  0
 12 13  1  0  0  0  0
 12 16  1  0  0  0  0
 13 14  2  0  0  0  0
 13 15  1  0  0  0  0
 16 17  1  0  0  0  0
 16 31  1  0  0  0  0
 16 32  1  0  0  0  0
 17 18  1  0  0  0  0
 17 33  1  0  0  0  0
 17 34  1  0  0  0  0
 18 19  1  0  0  0  0
 18 35  1  0  0  0  0
 18 36  1  0  0  0  0
 19 20  1  0  0  0  0
 19 37  1  0  0  0  0
 19 38  1  0  0  0  0
 20 21  1  0  0  0  0
 20 39  1  0  0  0  0
 20 40  1  0  0  0  0
 21 41  1  0  0  0  0
 21 42  1  0  0  0  0
M  CHG  1  15  -1
M  END
> <s_m_source_file>
AV-unprocessed.smi

> <i_m_source_file_index>
1676

> <i_lp_mmshare_version>
43012

> <i_f3d_flags>
0

> <s_epik_input>
W0NIM11jMW5vYyhbQ0gzXSljMVtDSDJdQyg9TylbTkhdQzIoQyg9TylbT0hdKVtDSDJdW0NIMl1bQ0gyXVtDSDJdW0NIMl1bQ0gyXTI=

> <s_epik_cmdline>
J2VwaWtfcHl0aG9uJywgJy1waCcsICc3LjAnLCAnLXRuJywgJzgnLCAnLW1hJywgJzIwMCcsICctbWV0YWxfYmluZGluZycsICctaW1hZScsICc8aW5maWxlLm1hZT4nLCAnLW9tYWUnLCAnPG91dGZpbGUubWFlPic=

> <r_epik_Ionization_Penalty>
0.000392727

> <r_epik_Ionization_Penalty_Charging>
0.000392708

> <r_epik_Ionization_Penalty_Neutral>
1.90763e-08

> <r_epik_State_Penalty>
0.000240388

> <r_epik_Charging_Adjusted_Penalty>
0.000633096

> <i_epik_Tot_Q>
-1

> <i_epik_Tot_abs_Q>
1

> <r_epik_Metal_State_Penalty>
-0

> <b_epik_Metal_Only>
0

> <s_lp_Force_Field>
OPLS_2005

> <r_lp_Energy>
9.66029

> <b_lp_Chiralities_Consistent>
1

> <s_lp_Variant>
AV-unprocessed.smi:1676-1

> <Gold.Version>
5.8.1

> <Gold.Id.Protein>
6NUR|6NUR_protein|mol2

> <Gold.PLP.Fitness>
43.6143

> <Gold.PLP.PLP>
-35.7821

> <Gold.PLP.part.hbond>
-3.5623

> <Gold.PLP.part.metal>
0.0000

> <Gold.PLP.part.buried>
-1.5043

> <Gold.PLP.part.nonpolar>
-30.8172

> <Gold.PLP.part.repulsive>
0.1896

> <Gold.PLP.ligand.clash>
0.0000

> <Gold.PLP.ligand.torsion>
1.1112

> <Gold.PLP.Chemscore.Hbond>
3.3280

> <Gold.PLP.Chemscore.CHOScore>
0.0000

> <Gold.PLP.Chemscore.Metal>
0.0000

> <Gold.Chemscore.Hbonds>
donor molecule, donor type, donor heavy atom, donor atom, acceptor molecule, acceptor atom, score
      P1  H  7997  8010       L1    15  1.82
      P1  H 10752 10763       L1    14  1.18

> <Gold.PLP.Chemscore.Internal.Correction>
0.0705

> <Gold.Rescore>
     Score         DG    S(hbond)    S(metal)    S(lipo)     H(rot)  DE(clash)    DE(int)     intcor
     14.08     -16.35       1.71        0.00      85.48       1.89       0.03       2.24       ----

> <Gold.Chemscore.Fitness>
14.0763

> <Gold.Chemscore.DG>
-16.3480

> <Gold.Chemscore.ZeroCoef>
-5.4800

> <Gold.Chemscore.Hbond>
1.7100

> <Gold.Chemscore.Metal>
0.0000

> <Gold.Chemscore.Lipo>
85.4792

> <Gold.Chemscore.Internal_Hbond>
0.0000

> <Gold.Chemscore.DEClash>
0.0341

> <Gold.Chemscore.DEInternal>
2.2376

> <Gold.Chemscore.Rot>
1.8924

> <Gold.Chemscore.Internal.Correction>
   9.000000E+99

> <Gold.Chemscore.Hbonds>
donor molecule, donor type, donor heavy atom, donor atom, acceptor molecule, acceptor atom, score
      P1  H  7997  8010       L1    15  0.89
      P1  H 10752 10763       L1    14  0.58

> <Gold.Chemscore.Hbond.Weighted>
-5.7114

> <Gold.Chemscore.Metal.Weighted>
-0.0000

> <Gold.Chemscore.Lipo.Weighted>
-10.0011

> <Gold.Chemscore.Internal_Hbond.Weighted>
0.0000

> <Gold.Chemscore.DEClash.Weighted>
0.0341

> <Gold.Chemscore.DEInternal.Weighted>
2.2376

> <Gold.Chemscore.Rot.Weighted>
4.8445

> <Gold.Chemscore.Internal.Correction.Weighted>
   9.000000E+99

> <Gold.Protein.RotatedTorsions>
[ 6907 6896 6895 6894 ] final   50.18 input  -60.11 | X-H torsion
[ 7974 7965 7964 7962 ] final   32.02 input  175.53 | X-H torsion
[ 8008 7997 7996 7995 ] final   54.14 input   59.86 | X-H torsion
[ 10167 10162 10161 10158 ] final  102.91 input  -65.29 | X-H torsion
[ 10718 10713 10712 10709 ] final  117.76 input   66.30 | X-H torsion
[ 10763 10752 10751 10750 ] final   68.79 input  -60.55 | X-H torsion
[ 11005 11000 10999 10996 ] final  118.09 input  -57.11 | X-H torsion

> <Gold.Protein.ActiveResidues>
 VAL166  LYS551  ARG553  GLY616  TRP617  ASP618  TYR619  PRO620  LYS621  CYS622 
 ASP623  PHE694  ASN695  SER759  ASP760  ASP761  ALA762  ILE779  LEU786  VAL792 
 PHE793  MET794  SER795  GLU796  ALA797  LYS798  CYS799  TRP800  GLU811  SER814 

> <Gold.Protein.RotatedAtoms>
  152.2989  134.7634  160.0361 H   0  0  0  0  0  0  0  0  0  0  0  0  # atno 6907 bound_to 6896
  151.8154  133.3382  159.3576 H   0  0  0  0  0  0  0  0  0  0  0  0  # atno 6908 bound_to 6896
  150.7264  134.5554  159.5860 H   0  0  0  0  0  0  0  0  0  0  0  0  # atno 6909 bound_to 6896
  146.1513  139.6580  142.9097 H   0  0  0  0  0  0  0  0  0  0  0  0  # atno 7974 bound_to 7965
  155.4797  140.3468  155.4338 H   0  0  0  0  0  0  0  0  0  0  0  0  # atno 8008 bound_to 7997
  156.1047  140.1445  156.9449 H   0  0  0  0  0  0  0  0  0  0  0  0  # atno 8009 bound_to 7997
  154.4716  140.0899  156.7137 H   0  0  0  0  0  0  0  0  0  0  0  0  # atno 8010 bound_to 7997
  139.7309  144.7036  151.0724 H   0  0  0  0  0  0  0  0  0  0  0  0  # atno 10167 bound_to 10162
  157.6075  131.1041  150.7660 H   0  0  0  0  0  0  0  0  0  0  0  0  # atno 10718 bound_to 10713
  153.0253  135.5234  154.7189 H   0  0  0  0  0  0  0  0  0  0  0  0  # atno 10763 bound_to 10752
  154.6250  135.2893  155.0284 H   0  0  0  0  0  0  0  0  0  0  0  0  # atno 10764 bound_to 10752
  154.1257  135.6601  153.4964 H   0  0  0  0  0  0  0  0  0  0  0  0  # atno 10765 bound_to 10752
  139.9097  134.9617  156.7450 H   0  0  0  0  0  0  0  0  0  0  0  0  # atno 11005 bound_to 11000
  145.4816  141.0438  143.2643 LP  0  0  0  0  0  0  0  0  0  0  0  0  # atno 17320 bound_to 7965
  144.7908  139.6333  143.7114 LP  0  0  0  0  0  0  0  0  0  0  0  0  # atno 17321 bound_to 7965
  140.7771  143.5045  150.9730 LP  0  0  0  0  0  0  0  0  0  0  0  0  # atno 17342 bound_to 10162
  139.8733  143.7165  152.3164 LP  0  0  0  0  0  0  0  0  0  0  0  0  # atno 17343 bound_to 10162
  156.8045  130.4932  149.5365 LP  0  0  0  0  0  0  0  0  0  0  0  0  # atno 17370 bound_to 10713
  156.1167  130.6080  151.0131 LP  0  0  0  0  0  0  0  0  0  0  0  0  # atno 17371 bound_to 10713
  140.6819  133.9467  155.7915 LP  0  0  0  0  0  0  0  0  0  0  0  0  # atno 17394 bound_to 11000
  141.0504  134.0493  157.3791 LP  0  0  0  0  0  0  0  0  0  0  0  0  # atno 17395 bound_to 11000

$$$$
