AV-unprocessed.smi:867|AV-procd|sdf|4001|dock4
  -GOLD-   22720 1483D 1   1.00000     0.00000
 Structure written by MMmdl.
 54 57  0  0  0  0  0  0  0  0  3 V2000
  152.9555  136.7980  160.0828 O   0  0  0  0  0  0  0  0  0  0  0  0
  153.5009  137.8144  160.5147 C   0  0  0  0  0  0  0  0  0  0  0  0
  153.8993  137.9269  161.7939 N   0  0  0  0  0  0  0  0  0  0  0  0
  153.8003  136.8896  162.8179 C   0  0  0  0  0  0  0  0  0  0  0  0
  154.8244  135.7571  162.6116 C   0  0  0  0  0  0  0  0  0  0  0  0
  154.4378  134.4545  163.2903 C   0  0  0  0  0  0  0  0  0  0  0  0
  154.0660  134.4303  164.6532 C   0  0  0  0  0  0  0  0  0  0  0  0
  153.6905  133.2067  165.2457 C   0  0  0  0  0  0  0  0  0  0  0  0
  153.6973  132.0341  164.4628 C   0  0  0  0  0  0  0  0  0  0  0  0
  154.0623  132.0953  163.1635 N   0  3  0  0  0  0  0  0  0  0  0  0
  154.4289  133.2466  162.5594 C   0  0  0  0  0  0  0  0  0  0  0  0
  153.6899  138.9287  159.7646 N   0  0  0  0  0  0  0  0  0  0  0  0
  152.9006  139.3248  158.5911 C   0  0  0  0  0  0  0  0  0  0  0  0
  151.9445  140.4627  158.9944 C   0  0  0  0  0  0  0  0  0  0  0  0
  152.6780  141.6195  159.5856 N   0  3  0  0  0  0  0  0  0  0  0  0
  151.7809  142.7327  160.0098 C   0  0  1  0  0  0  0  0  0  0  0  0
  152.5200  143.9463  160.6247 C   0  0  0  0  0  0  0  0  0  0  0  0
  151.9239  145.1430  159.8592 C   0  0  1  0  0  0  0  0  0  0  0  0
  152.5334  145.1804  158.4474 C   0  0  0  0  0  0  0  0  0  0  0  0
  151.8771  143.9651  157.7690 C   0  0  0  0  0  0  0  0  0  0  0  0
  150.9612  143.4002  158.8770 C   0  0  2  0  0  0  0  0  0  0  0  0
  150.5013  144.6780  159.5710 C   0  0  0  0  0  0  0  0  0  0  0  0
  153.6131  141.2001  160.6694 C   0  0  0  0  0  0  0  0  0  0  0  0
  154.5239  140.0422  160.2220 C   0  0  0  0  0  0  0  0  0  0  0  0
  154.3156  138.8016  162.0793 H   0  0  0  0  0  0  0  0  0  0  0  0
  153.9033  137.3200  163.8155 H   0  0  0  0  0  0  0  0  0  0  0  0
  152.7928  136.4757  162.7721 H   0  0  0  0  0  0  0  0  0  0  0  0
  154.9434  135.5659  161.5446 H   0  0  0  0  0  0  0  0  0  0  0  0
  155.8036  136.0762  162.9712 H   0  0  0  0  0  0  0  0  0  0  0  0
  154.0598  135.3385  165.2382 H   0  0  0  0  0  0  0  0  0  0  0  0
  153.3998  133.1686  166.2854 H   0  0  0  0  0  0  0  0  0  0  0  0
  153.4242  131.0569  164.8332 H   0  0  0  0  0  0  0  0  0  0  0  0
  154.6922  133.1684  161.5146 H   0  0  0  0  0  0  0  0  0  0  0  0
  153.5763  139.6677  157.8061 H   0  0  0  0  0  0  0  0  0  0  0  0
  152.3312  138.5096  158.1449 H   0  0  0  0  0  0  0  0  0  0  0  0
  151.3887  140.7747  158.1109 H   0  0  0  0  0  0  0  0  0  0  0  0
  151.2130  140.0930  159.7148 H   0  0  0  0  0  0  0  0  0  0  0  0
  151.0802  142.3343  160.7464 H   0  0  0  0  0  0  0  0  0  0  0  0
  152.3116  144.0192  161.6929 H   0  0  0  0  0  0  0  0  0  0  0  0
  153.6028  143.9057  160.5003 H   0  0  0  0  0  0  0  0  0  0  0  0
  152.0026  146.0903  160.3936 H   0  0  0  0  0  0  0  0  0  0  0  0
  152.2611  146.1016  157.9305 H   0  0  0  0  0  0  0  0  0  0  0  0
  153.6220  145.1145  158.4602 H   0  0  0  0  0  0  0  0  0  0  0  0
  151.2868  144.2847  156.9093 H   0  0  0  0  0  0  0  0  0  0  0  0
  152.6118  143.2432  157.4123 H   0  0  0  0  0  0  0  0  0  0  0  0
  150.1444  142.7837  158.5005 H   0  0  0  0  0  0  0  0  0  0  0  0
  149.9137  144.4973  160.4729 H   0  0  0  0  0  0  0  0  0  0  0  0
  149.9493  145.3534  158.9148 H   0  0  0  0  0  0  0  0  0  0  0  0
  154.2348  142.0379  160.9837 H   0  0  0  0  0  0  0  0  0  0  0  0
  153.0363  140.8938  161.5438 H   0  0  0  0  0  0  0  0  0  0  0  0
  155.1952  139.7582  161.0337 H   0  0  0  0  0  0  0  0  0  0  0  0
  155.1713  140.3678  159.4064 H   0  0  0  0  0  0  0  0  0  0  0  0
  153.2546  141.9881  158.8426 H   0  0  0  0  0  0  0  0  0  0  0  0
  154.0586  131.2358  162.6138 H   0  0  0  0  0  0  0  0  0  0  0  0
  1  2  2  0  0  0  0
  2  3  1  0  0  0  0
  2 12  1  0  0  0  0
  3  4  1  0  0  0  0
  3 25  1  0  0  0  0
  4  5  1  0  0  0  0
  4 26  1  0  0  0  0
  4 27  1  0  0  0  0
  5  6  1  0  0  0  0
  5 28  1  0  0  0  0
  5 29  1  0  0  0  0
  6 11  1  0  0  0  0
  6  7  2  0  0  0  0
  7  8  1  0  0  0  0
  7 30  1  0  0  0  0
  8  9  2  0  0  0  0
  8 31  1  0  0  0  0
  9 10  1  0  0  0  0
  9 32  1  0  0  0  0
 10 11  2  0  0  0  0
 10 54  1  0  0  0  0
 11 33  1  0  0  0  0
 12 24  1  0  0  0  0
 12 13  1  0  0  0  0
 13 14  1  0  0  0  0
 13 34  1  0  0  0  0
 13 35  1  0  0  0  0
 14 15  1  0  0  0  0
 14 36  1  0  0  0  0
 14 37  1  0  0  0  0
 15 16  1  0  0  0  0
 15 23  1  0  0  0  0
 15 53  1  0  0  0  0
 16 21  1  0  0  0  0
 16 17  1  0  0  0  0
 16 38  1  0  0  0  0
 17 18  1  0  0  0  0
 17 39  1  0  0  0  0
 17 40  1  0  0  0  0
 18 22  1  0  0  0  0
 18 19  1  0  0  0  0
 18 41  1  0  0  0  0
 19 20  1  0  0  0  0
 19 42  1  0  0  0  0
 19 43  1  0  0  0  0
 20 21  1  0  0  0  0
 20 44  1  0  0  0  0
 20 45  1  0  0  0  0
 21 22  1  0  0  0  0
 21 46  1  0  0  0  0
 22 47  1  0  0  0  0
 22 48  1  0  0  0  0
 23 24  1  0  0  0  0
 23 49  1  0  0  0  0
 23 50  1  0  0  0  0
 24 51  1  0  0  0  0
 24 52  1  0  0  0  0
M  CHG  1  10   1
M  CHG  1  15   1
M  END
> <s_m_source_file>
AV-unprocessed.smi

> <i_m_source_file_index>
867

> <i_lp_mmshare_version>
43012

> <i_f3d_flags>
0

> <s_epik_input>
W0NIMl0xW0NIMl1bQ0BASF0oW0NIMl0yKVtDQEBIXShbQ0gyXVtDQEhdMTIpTihbQ0gyXVtDSDJdMylbQ0gyXVtDSDJdTjNDKD1PKVtOSF1bQ0gyXVtDSDJdYzRbY0hdW2NIXVtjSF1uW2NIXTQ=

> <s_epik_cmdline>
J2VwaWtfcHl0aG9uJywgJy1waCcsICc3LjAnLCAnLXRuJywgJzgnLCAnLW1hJywgJzIwMCcsICctbWV0YWxfYmluZGluZycsICctaW1hZScsICc8aW5maWxlLm1hZT4nLCAnLW9tYWUnLCAnPG91dGZpbGUubWFlPic=

> <r_epik_Ionization_Penalty>
2.25108

> <r_epik_Ionization_Penalty_Charging>
2.25105

> <r_epik_Ionization_Penalty_Neutral>
2.64641e-05

> <r_epik_State_Penalty>
2.39519

> <r_epik_Charging_Adjusted_Penalty>
4.64625

> <i_epik_Tot_Q>
2

> <i_epik_Tot_abs_Q>
2

> <r_epik_Metal_State_Penalty>
2.40865

> <b_epik_Metal_Only>
0

> <s_lp_Force_Field>
OPLS_2005

> <r_lp_Energy>
106.845

> <b_lp_Chiralities_Consistent>
1

> <s_lp_Variant>
AV-unprocessed.smi:867-8

> <Gold.Version>
5.8.1

> <Gold.Id.Protein>
6NUR|6NUR_protein|mol2

> <Gold.PLP.Fitness>
53.9150

> <Gold.PLP.PLP>
-53.2878

> <Gold.PLP.part.hbond>
-0.9713

> <Gold.PLP.part.metal>
0.0000

> <Gold.PLP.part.buried>
-7.5126

> <Gold.PLP.part.nonpolar>
-44.9775

> <Gold.PLP.part.repulsive>
0.1413

> <Gold.PLP.ligand.clash>
1.4982

> <Gold.PLP.ligand.torsion>
0.4813

> <Gold.PLP.Chemscore.Hbond>
0.9913

> <Gold.PLP.Chemscore.CHOScore>
0.0000

> <Gold.PLP.Chemscore.Metal>
0.0000

> <Gold.Chemscore.Hbonds>
donor molecule, donor type, donor heavy atom, donor atom, acceptor molecule, acceptor atom, score
      P1  H  6896  6907       L1     1  1.00

> <Gold.PLP.Chemscore.Internal.Correction>
0.1144

> <Gold.Rescore>
     Score         DG    S(hbond)    S(metal)    S(lipo)     H(rot)  DE(clash)    DE(int)     intcor
     23.50     -24.13       0.94        0.00     164.31       1.46       0.17       0.46       ----

> <Gold.Chemscore.Fitness>
23.4966

> <Gold.Chemscore.DG>
-24.1282

> <Gold.Chemscore.ZeroCoef>
-5.4800

> <Gold.Chemscore.Hbond>
0.9444

> <Gold.Chemscore.Metal>
0.0000

> <Gold.Chemscore.Lipo>
164.3126

> <Gold.Chemscore.Internal_Hbond>
0.0000

> <Gold.Chemscore.DEClash>
0.1746

> <Gold.Chemscore.DEInternal>
0.4571

> <Gold.Chemscore.Rot>
1.4572

> <Gold.Chemscore.Internal.Correction>
   9.000000E+99

> <Gold.Chemscore.Hbonds>
donor molecule, donor type, donor heavy atom, donor atom, acceptor molecule, acceptor atom, score
      P1  H  6896  6907       L1     1  0.98

> <Gold.Chemscore.Hbond.Weighted>
-3.1542

> <Gold.Chemscore.Metal.Weighted>
-0.0000

> <Gold.Chemscore.Lipo.Weighted>
-19.2246

> <Gold.Chemscore.Internal_Hbond.Weighted>
0.0000

> <Gold.Chemscore.DEClash.Weighted>
0.1746

> <Gold.Chemscore.DEInternal.Weighted>
0.4571

> <Gold.Chemscore.Rot.Weighted>
3.7305

> <Gold.Chemscore.Internal.Correction.Weighted>
   9.000000E+99

> <Gold.Protein.RotatedTorsions>
[ 6907 6896 6895 6894 ] final   28.17 input  -60.11 | X-H torsion
[ 7974 7965 7964 7962 ] final -166.50 input  175.53 | X-H torsion
[ 8008 7997 7996 7995 ] final   89.88 input   59.86 | X-H torsion
[ 10167 10162 10161 10158 ] final -158.39 input  -65.29 | X-H torsion
[ 10718 10713 10712 10709 ] final  -40.83 input   66.30 | X-H torsion
[ 10763 10752 10751 10750 ] final   22.21 input  -60.55 | X-H torsion
[ 11005 11000 10999 10996 ] final  106.06 input  -57.11 | X-H torsion

> <Gold.Protein.ActiveResidues>
 VAL166  LYS551  ARG553  GLY616  TRP617  ASP618  TYR619  PRO620  LYS621  CYS622 
 ASP623  PHE694  ASN695  SER759  ASP760  ASP761  ALA762  ILE779  LEU786  VAL792 
 PHE793  MET794  SER795  GLU796  ALA797  LYS798  CYS799  TRP800  GLU811  SER814 

> <Gold.Protein.RotatedAtoms>
  152.0131  134.9865  160.0568 H   0  0  0  0  0  0  0  0  0  0  0  0  # atno 6907 bound_to 6896
  152.1410  133.4459  159.4775 H   0  0  0  0  0  0  0  0  0  0  0  0  # atno 6908 bound_to 6896
  150.6865  134.2224  159.4445 H   0  0  0  0  0  0  0  0  0  0  0  0  # atno 6909 bound_to 6896
  144.7244  140.2657  143.6258 H   0  0  0  0  0  0  0  0  0  0  0  0  # atno 7974 bound_to 7965
  156.0053  140.3355  155.6886 H   0  0  0  0  0  0  0  0  0  0  0  0  # atno 8008 bound_to 7997
  155.6233  140.0677  157.2689 H   0  0  0  0  0  0  0  0  0  0  0  0  # atno 8009 bound_to 7997
  154.4263  140.1772  156.1383 H   0  0  0  0  0  0  0  0  0  0  0  0  # atno 8010 bound_to 7997
  139.6696  143.9768  152.2275 H   0  0  0  0  0  0  0  0  0  0  0  0  # atno 10167 bound_to 10162
  156.2770  130.4213  149.8377 H   0  0  0  0  0  0  0  0  0  0  0  0  # atno 10718 bound_to 10713
  153.0934  135.6653  153.9811 H   0  0  0  0  0  0  0  0  0  0  0  0  # atno 10763 bound_to 10752
  153.9401  135.2995  155.3444 H   0  0  0  0  0  0  0  0  0  0  0  0  # atno 10764 bound_to 10752
  154.7350  135.5105  153.9100 H   0  0  0  0  0  0  0  0  0  0  0  0  # atno 10765 bound_to 10752
  139.8809  134.9356  156.5608 H   0  0  0  0  0  0  0  0  0  0  0  0  # atno 11005 bound_to 11000
  145.8092  139.1996  143.2003 LP  0  0  0  0  0  0  0  0  0  0  0  0  # atno 17320 bound_to 7965
  146.0610  140.7970  142.9734 LP  0  0  0  0  0  0  0  0  0  0  0  0  # atno 17321 bound_to 7965
  139.9529  144.6608  150.8154 LP  0  0  0  0  0  0  0  0  0  0  0  0  # atno 17342 bound_to 10162
  140.7613  143.3171  151.2709 LP  0  0  0  0  0  0  0  0  0  0  0  0  # atno 17343 bound_to 10162
  156.5837  130.8477  151.3390 LP  0  0  0  0  0  0  0  0  0  0  0  0  # atno 17370 bound_to 10713
  157.7302  130.9683  150.1824 LP  0  0  0  0  0  0  0  0  0  0  0  0  # atno 17371 bound_to 10713
  140.8170  133.8383  155.8861 LP  0  0  0  0  0  0  0  0  0  0  0  0  # atno 17394 bound_to 11000
  140.9453  134.1848  157.4768 LP  0  0  0  0  0  0  0  0  0  0  0  0  # atno 17395 bound_to 11000

$$$$
