AV-unprocessed.smi:2702|AV-procd|sdf|10437|dock2
  -GOLD-   2272014473D 1   1.00000     0.00000
 Structure written by MMmdl.
 47 48  0  0  0  0  0  0  0  0  1 V2000
  142.9121  141.7007  155.6186 C   0  0  0  0  0  0  0  0  0  0  0  0
  143.2381  143.0238  155.2309 O   0  0  0  0  0  0  0  0  0  0  0  0
  144.2821  143.5771  156.0144 C   0  0  0  0  0  0  0  0  0  0  0  0
  145.5958  142.8811  155.7205 C   0  0  0  0  0  0  0  0  0  0  0  0
  146.2659  142.1826  156.6665 C   0  0  0  0  0  0  0  0  0  0  0  0
  147.5379  141.5318  156.3524 C   0  0  0  0  0  0  0  0  0  0  0  0
  148.1759  140.8858  157.1842 O   0  0  0  0  0  0  0  0  0  0  0  0
  147.9668  141.6979  155.0662 N   0  0  0  0  0  0  0  0  0  0  0  0
  149.2352  141.1072  154.6010 C   0  0  0  0  0  0  0  0  0  0  0  0
  150.3889  141.2800  155.5997 C   0  0  0  0  0  0  0  0  0  0  0  0
  151.2056  140.3763  155.7824 O   0  0  0  0  0  0  0  0  0  0  0  0
  150.4489  142.4648  156.2257 N   0  0  0  0  0  0  0  0  0  0  0  0
  151.4423  142.8465  157.2272 C   0  0  1  0  0  0  0  0  0  0  0  0
  151.5297  144.3845  157.3102 C   0  0  0  0  0  0  0  0  0  0  0  0
  152.5010  144.8441  158.4061 C   0  0  0  0  0  0  0  0  0  0  0  0
  152.1294  144.2354  159.7672 C   0  0  0  0  0  0  0  0  0  0  0  0
  152.0594  142.6956  159.7180 C   0  0  2  0  0  0  0  0  0  0  0  0
  153.4644  142.0655  159.6275 C   0  0  0  0  0  0  0  0  0  0  0  0
  151.0816  142.2323  158.6048 C   0  0  2  0  0  0  0  0  0  0  0  0
  150.9288  140.6986  158.5581 C   0  0  0  0  0  0  0  0  0  0  0  0
  147.2270  142.4338  154.1191 C   0  0  0  0  0  0  0  0  0  0  0  0
  146.1034  143.0017  154.4229 N   0  0  0  0  0  0  0  0  0  0  0  0
  142.1087  141.3217  154.9872 H   0  0  0  0  0  0  0  0  0  0  0  0
  142.5709  141.6655  156.6540 H   0  0  0  0  0  0  0  0  0  0  0  0
  143.7690  141.0347  155.5091 H   0  0  0  0  0  0  0  0  0  0  0  0
  144.3929  144.6404  155.7954 H   0  0  0  0  0  0  0  0  0  0  0  0
  144.0414  143.4879  157.0749 H   0  0  0  0  0  0  0  0  0  0  0  0
  145.8647  142.0997  157.6662 H   0  0  0  0  0  0  0  0  0  0  0  0
  149.1287  140.0418  154.3897 H   0  0  0  0  0  0  0  0  0  0  0  0
  149.5164  141.5558  153.6463 H   0  0  0  0  0  0  0  0  0  0  0  0
  149.7394  143.1494  156.0084 H   0  0  0  0  0  0  0  0  0  0  0  0
  152.4142  142.4555  156.9211 H   0  0  0  0  0  0  0  0  0  0  0  0
  151.8446  144.7964  156.3509 H   0  0  0  0  0  0  0  0  0  0  0  0
  150.5407  144.7983  157.5121 H   0  0  0  0  0  0  0  0  0  0  0  0
  153.5194  144.5647  158.1354 H   0  0  0  0  0  0  0  0  0  0  0  0
  152.4916  145.9321  158.4742 H   0  0  0  0  0  0  0  0  0  0  0  0
  152.8421  144.5582  160.5268 H   0  0  0  0  0  0  0  0  0  0  0  0
  151.1605  144.6283  160.0783 H   0  0  0  0  0  0  0  0  0  0  0  0
  151.6422  142.3715  160.6725 H   0  0  0  0  0  0  0  0  0  0  0  0
  153.9526  142.2805  158.6775 H   0  0  0  0  0  0  0  0  0  0  0  0
  153.4254  140.9824  159.7421 H   0  0  0  0  0  0  0  0  0  0  0  0
  154.1104  142.4434  160.4201 H   0  0  0  0  0  0  0  0  0  0  0  0
  150.1003  142.6241  158.8785 H   0  0  0  0  0  0  0  0  0  0  0  0
  151.8273  140.2166  158.1722 H   0  0  0  0  0  0  0  0  0  0  0  0
  150.0984  140.3981  157.9188 H   0  0  0  0  0  0  0  0  0  0  0  0
  150.7311  140.2939  159.5509 H   0  0  0  0  0  0  0  0  0  0  0  0
  147.6635  142.4875  153.1204 H   0  0  0  0  0  0  0  0  0  0  0  0
  1  2  1  0  0  0  0
  1 23  1  0  0  0  0
  1 24  1  0  0  0  0
  1 25  1  0  0  0  0
  2  3  1  0  0  0  0
  3  4  1  0  0  0  0
  3 26  1  0  0  0  0
  3 27  1  0  0  0  0
  4 22  1  0  0  0  0
  4  5  2  0  0  0  0
  5  6  1  0  0  0  0
  5 28  1  0  0  0  0
  6  7  2  0  0  0  0
  6  8  1  0  0  0  0
  8  9  1  0  0  0  0
  8 21  1  0  0  0  0
  9 10  1  0  0  0  0
  9 29  1  0  0  0  0
  9 30  1  0  0  0  0
 10 11  2  0  0  0  0
 10 12  1  0  0  0  0
 12 13  1  0  0  0  0
 12 31  1  0  0  0  0
 13 19  1  0  0  0  0
 13 14  1  0  0  0  0
 13 32  1  0  0  0  0
 14 15  1  0  0  0  0
 14 33  1  0  0  0  0
 14 34  1  0  0  0  0
 15 16  1  0  0  0  0
 15 35  1  0  0  0  0
 15 36  1  0  0  0  0
 16 17  1  0  0  0  0
 16 37  1  0  0  0  0
 16 38  1  0  0  0  0
 17 18  1  0  0  0  0
 17 19  1  0  0  0  0
 17 39  1  0  0  0  0
 18 40  1  0  0  0  0
 18 41  1  0  0  0  0
 18 42  1  0  0  0  0
 19 20  1  0  0  0  0
 19 43  1  0  0  0  0
 20 44  1  0  0  0  0
 20 45  1  0  0  0  0
 20 46  1  0  0  0  0
 21 22  2  0  0  0  0
 21 47  1  0  0  0  0
M  END
> <s_m_source_file>
AV-unprocessed.smi

> <i_m_source_file_index>
2702

> <i_lp_mmshare_version>
43012

> <i_f3d_flags>
0

> <s_epik_input>
W0NIM11PW0NIMl1jMVtjSF1jKD1PKW4oW2NIXW4xKVtDSDJdQyg9TylbTkhdW0NAQEhdMltDSDJdW0NIMl1bQ0gyXVtDQEBIXShbQ0gzXSlbQ0BIXTJbQ0gzXQ==

> <s_epik_cmdline>
J2VwaWtfcHl0aG9uJywgJy1waCcsICc3LjAnLCAnLXRuJywgJzgnLCAnLW1hJywgJzIwMCcsICctbWV0YWxfYmluZGluZycsICctaW1hZScsICc8aW5maWxlLm1hZT4nLCAnLW9tYWUnLCAnPG91dGZpbGUubWFlPic=

> <r_lp_tautomer_probability>
1

> <r_epik_Ionization_Penalty>
1.22164e-06

> <r_epik_Ionization_Penalty_Charging>
3.17988e-07

> <r_epik_Ionization_Penalty_Neutral>
9.03656e-07

> <r_epik_State_Penalty>
-0

> <r_epik_Charging_Adjusted_Penalty>
3.17988e-07

> <i_epik_Tot_Q>
0

> <i_epik_Tot_abs_Q>
0

> <r_epik_Metal_State_Penalty>
-0

> <b_epik_Metal_Only>
0

> <s_lp_Force_Field>
OPLS_2005

> <r_lp_Energy>
19.2685

> <b_lp_Chiralities_Consistent>
1

> <s_lp_Variant>
AV-unprocessed.smi:2702-8

> <Gold.Version>
5.8.1

> <Gold.Id.Protein>
6NUR|6NUR_protein|mol2

> <Gold.PLP.Fitness>
45.2219

> <Gold.PLP.PLP>
-43.8425

> <Gold.PLP.part.hbond>
-1.2391

> <Gold.PLP.part.metal>
0.0000

> <Gold.PLP.part.buried>
-4.7533

> <Gold.PLP.part.nonpolar>
-37.3046

> <Gold.PLP.part.repulsive>
0.5224

> <Gold.PLP.ligand.clash>
0.0000

> <Gold.PLP.ligand.torsion>
0.8271

> <Gold.PLP.Chemscore.Hbond>
1.0000

> <Gold.PLP.Chemscore.CHOScore>
0.0000

> <Gold.PLP.Chemscore.Metal>
0.0000

> <Gold.Chemscore.Hbonds>
donor molecule, donor type, donor heavy atom, donor atom, acceptor molecule, acceptor atom, score
      L1  H    12    31       P1  8028  1.00

> <Gold.PLP.Chemscore.Internal.Correction>
0.0336

> <Gold.Rescore>
     Score         DG    S(hbond)    S(metal)    S(lipo)     H(rot)  DE(clash)    DE(int)     intcor
     12.23     -15.26       1.00        0.00      97.29       1.93       0.40       2.63       ----

> <Gold.Chemscore.Fitness>
12.2323

> <Gold.Chemscore.DG>
-15.2586

> <Gold.Chemscore.ZeroCoef>
-5.4800

> <Gold.Chemscore.Hbond>
0.9978

> <Gold.Chemscore.Metal>
0.0000

> <Gold.Chemscore.Lipo>
97.2876

> <Gold.Chemscore.Internal_Hbond>
0.0000

> <Gold.Chemscore.DEClash>
0.4000

> <Gold.Chemscore.DEInternal>
2.6263

> <Gold.Chemscore.Rot>
1.9284

> <Gold.Chemscore.Internal.Correction>
   9.000000E+99

> <Gold.Chemscore.Hbonds>
donor molecule, donor type, donor heavy atom, donor atom, acceptor molecule, acceptor atom, score
      L1  H    12    31       P1  8028  1.00

> <Gold.Chemscore.Hbond.Weighted>
-3.3327

> <Gold.Chemscore.Metal.Weighted>
-0.0000

> <Gold.Chemscore.Lipo.Weighted>
-11.3827

> <Gold.Chemscore.Internal_Hbond.Weighted>
0.0000

> <Gold.Chemscore.DEClash.Weighted>
0.4000

> <Gold.Chemscore.DEInternal.Weighted>
2.6263

> <Gold.Chemscore.Rot.Weighted>
4.9368

> <Gold.Chemscore.Internal.Correction.Weighted>
   9.000000E+99

> <Gold.Protein.RotatedTorsions>
[ 6907 6896 6895 6894 ] final  156.00 input  -60.11 | X-H torsion
[ 7974 7965 7964 7962 ] final  -14.30 input  175.53 | X-H torsion
[ 8008 7997 7996 7995 ] final    5.58 input   59.86 | X-H torsion
[ 10167 10162 10161 10158 ] final  -70.20 input  -65.29 | X-H torsion
[ 10718 10713 10712 10709 ] final  -52.63 input   66.30 | X-H torsion
[ 10763 10752 10751 10750 ] final -174.73 input  -60.55 | X-H torsion
[ 11005 11000 10999 10996 ] final   62.74 input  -57.11 | X-H torsion

> <Gold.Protein.ActiveResidues>
 VAL166  LYS551  ARG553  GLY616  TRP617  ASP618  TYR619  PRO620  LYS621  CYS622 
 ASP623  PHE694  ASN695  SER759  ASP760  ASP761  ALA762  ILE779  LEU786  VAL792 
 PHE793  MET794  SER795  GLU796  ALA797  LYS798  CYS799  TRP800  GLU811  SER814 

> <Gold.Protein.RotatedAtoms>
  152.0360  133.3957  159.4316 H   0  0  0  0  0  0  0  0  0  0  0  0  # atno 6907 bound_to 6896
  150.6879  134.3467  159.4900 H   0  0  0  0  0  0  0  0  0  0  0  0  # atno 6908 bound_to 6896
  152.1260  134.9170  160.0611 H   0  0  0  0  0  0  0  0  0  0  0  0  # atno 6909 bound_to 6896
  146.2079  140.3329  142.8400 H   0  0  0  0  0  0  0  0  0  0  0  0  # atno 7974 bound_to 7965
  154.7301  140.2729  155.6463 H   0  0  0  0  0  0  0  0  0  0  0  0  # atno 8008 bound_to 7997
  156.2847  140.2717  156.1924 H   0  0  0  0  0  0  0  0  0  0  0  0  # atno 8009 bound_to 7997
  155.0392  140.0371  157.2493 H   0  0  0  0  0  0  0  0  0  0  0  0  # atno 8010 bound_to 7997
  140.5371  143.2317  151.7157 H   0  0  0  0  0  0  0  0  0  0  0  0  # atno 10167 bound_to 10162
  156.1605  130.4150  149.9800 H   0  0  0  0  0  0  0  0  0  0  0  0  # atno 10718 bound_to 10713
  154.5928  135.2847  155.0617 H   0  0  0  0  0  0  0  0  0  0  0  0  # atno 10763 bound_to 10752
  154.1912  135.6440  153.5064 H   0  0  0  0  0  0  0  0  0  0  0  0  # atno 10764 bound_to 10752
  153.0127  135.5446  154.6620 H   0  0  0  0  0  0  0  0  0  0  0  0  # atno 10765 bound_to 10752
  140.0072  134.6352  155.9837 H   0  0  0  0  0  0  0  0  0  0  0  0  # atno 11005 bound_to 11000
  144.8840  140.7437  143.5969 LP  0  0  0  0  0  0  0  0  0  0  0  0  # atno 17320 bound_to 7965
  145.3250  139.1777  143.4567 LP  0  0  0  0  0  0  0  0  0  0  0  0  # atno 17321 bound_to 7965
  139.4975  144.4026  152.0165 LP  0  0  0  0  0  0  0  0  0  0  0  0  # atno 17342 bound_to 10162
  140.3132  144.3514  150.6028 LP  0  0  0  0  0  0  0  0  0  0  0  0  # atno 17343 bound_to 10162
  156.7631  130.9158  151.3642 LP  0  0  0  0  0  0  0  0  0  0  0  0  # atno 17370 bound_to 10713
  157.6729  130.9067  150.0081 LP  0  0  0  0  0  0  0  0  0  0  0  0  # atno 17371 bound_to 10713
  141.1685  133.6537  156.4566 LP  0  0  0  0  0  0  0  0  0  0  0  0  # atno 17394 bound_to 11000
  140.4620  134.6832  157.5090 LP  0  0  0  0  0  0  0  0  0  0  0  0  # atno 17395 bound_to 11000

$$$$
