#       Name:                AV-unprocessed.smi:933
#       Creating user name   scv26
#       Creation time:       Fri Mar 27 02:10:56 2020


#       File generated by GOLD software.
#

@<TRIPOS>MOLECULE
AV-unprocessed.smi:933
    45    46     1
SMALL
NO_CHARGES


@<TRIPOS>ATOM
      1 ****        -2.3810  -5.7597  -3.0789 C.3            1 S1                 0.0000
      2 ****        -3.6942  -5.3771  -2.3882 C.3            1 S1                 0.0000
      3 ****        -3.5271  -4.2469  -1.4288 C.2            1 S1                 0.0000
      4 ****        -3.6191  -2.9618  -1.7813 N.2            1 S1                 0.0000
      5 ****        -3.3800  -2.0919  -0.7130 C.2            1 S1                 0.0000
      6 ****        -3.4360  -0.6076  -0.9306 C.3            1 S1                 0.0000
      7 ****        -2.2182  -0.0594  -1.6934 C.3            1 S1                 0.0000
      8 ****        -0.9635  -0.4169  -1.0322 N.am           1 S1                 0.0000
      9 ****         0.2837  -0.1741  -1.4687 C.2            1 S1                 0.0000
     10 ****         0.4981   0.3974  -2.5359 O.2            1 S1                 0.0000
     11 ****         1.2546  -0.6177  -0.6517 N.am           1 S1                 0.0000
     12 ****         2.6941  -0.4863  -0.8788 C.3            1 S1                 0.0000
     13 ****         3.4075  -0.1464   0.4466 C.3            1 S1                 0.0000
     14 ****         4.4189  -1.2687   0.7044 C.3            1 S1                 0.0000
     15 ****         3.9216  -2.4497  -0.1242 C.3            1 S1                 0.0000
     16 ****         3.3443  -1.7975  -1.3811 C.3            1 S1                 0.0000
     17 ****         2.4610  -2.7401  -2.2171 C.3            1 S1                 0.0000
     18 ****        -3.1018  -2.7428   0.4634 C.2            1 S1                 0.0000
     19 ****        -3.1164  -4.4734   0.2674 S.3            1 S1                 0.0000
     20 ****        -2.5336  -6.5871  -3.7718 H              1 S1                 0.0000
     21 ****        -1.6295  -6.0677  -2.3513 H              1 S1                 0.0000
     22 ****        -1.9756  -4.9204  -3.6448 H              1 S1                 0.0000
     23 ****        -4.4403  -5.1002  -3.1337 H              1 S1                 0.0000
     24 ****        -4.0947  -6.2360  -1.8489 H              1 S1                 0.0000
     25 ****        -4.3446  -0.3462  -1.4739 H              1 S1                 0.0000
     26 ****        -3.5119  -0.0972   0.0303 H              1 S1                 0.0000
     27 ****        -2.2169  -0.4618  -2.7079 H              1 S1                 0.0000
     28 ****        -2.2927   1.0256  -1.7779 H              1 S1                 0.0000
     29 ****        -1.0500  -0.9255  -0.1640 H              1 S1                 0.0000
     30 ****         0.9741  -1.0815   0.1999 H              1 S1                 0.0000
     31 ****         2.8826   0.3089  -1.6024 H              1 S1                 0.0000
     32 ****         3.9046   0.8230   0.3967 H              1 S1                 0.0000
     33 ****         2.6981  -0.0945   1.2744 H              1 S1                 0.0000
     34 ****         5.4028  -0.9630   0.3460 H              1 S1                 0.0000
     35 ****         4.5143  -1.5114   1.7630 H              1 S1                 0.0000
     36 ****         4.7145  -3.1641  -0.3486 H              1 S1                 0.0000
     37 ****         3.1377  -2.9788   0.4197 H              1 S1                 0.0000
     38 ****         4.1918  -1.5102  -2.0058 H              1 S1                 0.0000
     39 ****         1.6202  -3.1266  -1.6402 H              1 S1                 0.0000
     40 ****         3.0361  -3.5965  -2.5698 H              1 S1                 0.0000
     41 ****         2.0625  -2.2281  -3.0932 H              1 S1                 0.0000
     42 ****        -2.8806  -2.3104   1.4280 H              1 S1                 0.0000
     43 ****        -3.8354  -2.6553  -2.7082 LP             1 S1                 0.0000
     44 ****        -0.2674   0.6958  -3.1059 LP             1 S1                 0.0000
     45 ****         1.4380   0.5639  -2.8339 LP             1 S1                 0.0000
@<TRIPOS>BOND
    1    1    2 1     
    2    1   20 1     
    3    1   21 1     
    4    1   22 1     
    5    2    3 1     
    6    2   23 1     
    7    2   24 1     
    8    3   19 1     
    9    3    4 2     
   10    4    5 1     
   11    5    6 1     
   12    5   18 2     
   13    6    7 1     
   14    6   25 1     
   15    6   26 1     
   16    7    8 1     
   17    7   27 1     
   18    7   28 1     
   19    8    9 am    
   20    8   29 1     
   21    9   10 2     
   22    9   11 am    
   23   11   12 1     
   24   11   30 1     
   25   12   16 1     
   26   12   13 1     
   27   12   31 1     
   28   13   14 1     
   29   13   32 1     
   30   13   33 1     
   31   14   15 1     
   32   14   34 1     
   33   14   35 1     
   34   15   16 1     
   35   15   36 1     
   36   15   37 1     
   37   16   17 1     
   38   16   38 1     
   39   17   39 1     
   40   17   40 1     
   41   17   41 1     
   42   18   19 1     
   43   18   42 1     
   44    4   43 1     
   45   10   44 1     
   46   10   45 1     
@<TRIPOS>SUBSTRUCTURE
      1 S1             1
@<TRIPOS>SET
LONE_PAIRS      STATIC     ATOMS    <user>   **** ""
3 43 44 45
DONOR_HYDROGENS      STATIC     ATOMS    <user>   **** ""
2 29 30
ATOM$BLUE        STATIC     ATOMS    COLORGROUP SYSTEM
3 43 44 45
ATOM$RED        STATIC     ATOMS    COLORGROUP SYSTEM
2 29 30
