#       Name:                AV-unprocessed.smi:2028
#       Creating user name   scv26
#       Creation time:       Fri Mar 27 10:49:16 2020


#       File generated by GOLD software.
#

@<TRIPOS>MOLECULE
AV-unprocessed.smi:2028
    43    44     1
SMALL
NO_CHARGES


@<TRIPOS>ATOM
      1 ****        -2.7347  -1.4857   1.8018 C.3            1 S1                 0.0000
      2 ****        -2.6057   0.0476   1.7976 C.3            1 S1                 0.0000
      3 ****        -3.1125   0.5910   0.4453 C.3            1 S1                 0.0000
      4 ****        -3.4378   0.6240   2.9628 C.3            1 S1                 0.0000
      5 ****        -1.1812   0.3536   1.9696 N.am           1 S1                 0.0000
      6 ****        -0.5846   1.5574   2.0415 C.2            1 S1                 0.0000
      7 ****        -1.1860   2.6304   2.0040 O.2            1 S1                 0.0000
      8 ****         0.9400   1.5454   2.1594 C.3            1 S1                 0.0000
      9 ****         1.5579   1.6204   0.7937 C.2            1 S1                 0.0000
     10 ****         2.0763   2.7380   0.1864 C.2            1 S1                 0.0000
     11 ****         2.6842   2.3923  -1.4094 S.3            1 S1                 0.0000
     12 ****         2.2066   0.7062  -1.1894 C.2            1 S1                 0.0000
     13 ****         2.3557  -0.3465  -2.1403 N.am           1 S1                 0.0000
     14 ****         1.7909  -1.6731  -1.9119 C.3            1 S1                 0.0000
     15 ****         1.9581  -2.4347  -3.2313 C.3            1 S1                 0.0000
     16 ****         2.9563  -1.6158  -4.0477 C.3            1 S1                 0.0000
     17 ****         3.0174  -0.2888  -3.3096 C.2            1 S1                 0.0000
     18 ****         3.6207   0.6773  -3.7740 O.2            1 S1                 0.0000
     19 ****         1.6465   0.4699   0.0015 N.2            1 S1                 0.0000
     20 ****        -3.7719  -1.7980   1.6746 H              1 S1                 0.0000
     21 ****        -2.3774  -1.9125   2.7400 H              1 S1                 0.0000
     22 ****        -2.1558  -1.9362   0.9945 H              1 S1                 0.0000
     23 ****        -2.5131   0.2128  -0.3839 H              1 S1                 0.0000
     24 ****        -3.0810   1.6798   0.4037 H              1 S1                 0.0000
     25 ****        -4.1459   0.2933   0.2646 H              1 S1                 0.0000
     26 ****        -4.4805   0.3132   2.8900 H              1 S1                 0.0000
     27 ****        -3.4321   1.7139   2.9734 H              1 S1                 0.0000
     28 ****        -3.0612   0.2822   3.9275 H              1 S1                 0.0000
     29 ****        -0.5705  -0.4495   2.0110 H              1 S1                 0.0000
     30 ****         1.2563   2.3897   2.7731 H              1 S1                 0.0000
     31 ****         1.2655   0.6456   2.6839 H              1 S1                 0.0000
     32 ****         2.1306   3.7428   0.5783 H              1 S1                 0.0000
     33 ****         2.3423  -2.1649  -1.1090 H              1 S1                 0.0000
     34 ****         0.7413  -1.6172  -1.6189 H              1 S1                 0.0000
     35 ****         2.3015  -3.4568  -3.0680 H              1 S1                 0.0000
     36 ****         1.0042  -2.4881  -3.7579 H              1 S1                 0.0000
     37 ****         3.9449  -2.0761  -4.0450 H              1 S1                 0.0000
     38 ****         2.6338  -1.4838  -5.0810 H              1 S1                 0.0000
     39 ****        -2.1819   2.6425   1.9149 LP             1 S1                 0.0000
     40 ****        -0.6787   3.4902   2.0626 LP             1 S1                 0.0000
     41 ****         3.6530   1.5380  -3.2659 LP             1 S1                 0.0000
     42 ****         4.0790   0.6020  -4.6597 LP             1 S1                 0.0000
     43 ****         1.3258  -0.4308   0.2943 LP             1 S1                 0.0000
@<TRIPOS>BOND
    1    1    2 1     
    2    1   20 1     
    3    1   21 1     
    4    1   22 1     
    5    2    3 1     
    6    2    4 1     
    7    2    5 1     
    8    3   23 1     
    9    3   24 1     
   10    3   25 1     
   11    4   26 1     
   12    4   27 1     
   13    4   28 1     
   14    5    6 am    
   15    5   29 1     
   16    6    7 2     
   17    6    8 1     
   18    8    9 1     
   19    8   30 1     
   20    8   31 1     
   21    9   19 1     
   22    9   10 2     
   23   10   11 1     
   24   10   32 1     
   25   11   12 1     
   26   12   13 1     
   27   12   19 2     
   28   13   17 am    
   29   13   14 1     
   30   14   15 1     
   31   14   33 1     
   32   14   34 1     
   33   15   16 1     
   34   15   35 1     
   35   15   36 1     
   36   16   17 1     
   37   16   37 1     
   38   16   38 1     
   39   17   18 2     
   40    7   39 1     
   41    7   40 1     
   42   18   41 1     
   43   18   42 1     
   44   19   43 1     
@<TRIPOS>SUBSTRUCTURE
      1 S1             1
@<TRIPOS>SET
LONE_PAIRS      STATIC     ATOMS    <user>   **** ""
5 39 40 41 42 43
DONOR_HYDROGENS      STATIC     ATOMS    <user>   **** ""
1 29
ATOM$BLUE        STATIC     ATOMS    COLORGROUP SYSTEM
5 39 40 41 42 43
ATOM$RED        STATIC     ATOMS    COLORGROUP SYSTEM
1 29
