AV-unprocessed.smi:1203|AV-procd|sdf|5035|dock6
  -GOLD-   22720 4 63D 1   1.00000     0.00000
 Structure written by MMmdl.
 40 41  0  0  0  0  0  0  0  0  2 V2000
  155.6324  138.3861  165.4965 C   0  0  0  0  0  0  0  0  0  0  0  0
  156.2714  139.1945  163.9732 S   0  0  0  0  0  0  0  0  0  0  0  0
  155.9755  140.6332  164.0512 O   0  0  0  0  0  0  0  0  0  0  0  0
  157.6497  138.7420  163.7316 O   0  0  0  0  0  0  0  0  0  0  0  0
  155.2701  138.5263  162.7308 N   0  0  0  0  0  0  0  0  0  0  0  0
  154.3985  137.3916  163.0630 C   0  0  0  0  0  0  0  0  0  0  0  0
  154.1236  136.6840  161.7394 C   0  0  0  0  0  0  0  0  0  0  0  0
  155.4009  136.9298  160.9495 C   0  0  0  0  0  0  0  0  0  0  0  0
  155.8545  138.3318  161.3929 C   0  0  1  0  0  0  0  0  0  0  0  0
  155.4589  139.4377  160.4059 C   0  0  0  0  0  0  0  0  0  0  0  0
  155.8579  139.4130  159.2413 O   0  0  0  0  0  0  0  0  0  0  0  0
  154.6510  140.3950  160.8853 N   0  0  0  0  0  0  0  0  0  0  0  0
  154.1406  141.5303  160.1232 C   0  0  0  0  0  0  0  0  0  0  0  0
  152.6002  141.5833  160.0741 C   0  0  0  0  0  0  0  0  0  0  0  0
  152.0468  142.9233  159.6191 C   0  0  0  0  0  0  0  0  0  0  0  0
  152.3323  144.1028  160.3418 C   0  0  0  0  0  0  0  0  0  0  0  0
  151.7992  145.3313  159.8994 C   0  0  0  0  0  0  0  0  0  0  0  0
  150.9959  145.3535  158.7411 C   0  0  0  0  0  0  0  0  0  0  0  0
  150.7469  144.2055  158.0737 N   0  3  0  0  0  0  0  0  0  0  0  0
  151.2342  143.0086  158.4676 C   0  0  0  0  0  0  0  0  0  0  0  0
  156.1446  138.7970  166.3663 H   0  0  0  0  0  0  0  0  0  0  0  0
  155.8179  137.3132  165.4459 H   0  0  0  0  0  0  0  0  0  0  0  0
  154.5615  138.5631  165.5842 H   0  0  0  0  0  0  0  0  0  0  0  0
  154.9218  136.7197  163.7446 H   0  0  0  0  0  0  0  0  0  0  0  0
  153.4849  137.7315  163.5510 H   0  0  0  0  0  0  0  0  0  0  0  0
  153.8995  135.6243  161.8644 H   0  0  0  0  0  0  0  0  0  0  0  0
  153.2764  137.1513  161.2356 H   0  0  0  0  0  0  0  0  0  0  0  0
  156.1561  136.1948  161.2318 H   0  0  0  0  0  0  0  0  0  0  0  0
  155.2448  136.8354  159.8738 H   0  0  0  0  0  0  0  0  0  0  0  0
  156.9430  138.3229  161.4767 H   0  0  0  0  0  0  0  0  0  0  0  0
  154.3654  140.3298  161.8519 H   0  0  0  0  0  0  0  0  0  0  0  0
  154.5185  142.4334  160.6030 H   0  0  0  0  0  0  0  0  0  0  0  0
  154.5542  141.5238  159.1135 H   0  0  0  0  0  0  0  0  0  0  0  0
  152.2280  140.8052  159.4069 H   0  0  0  0  0  0  0  0  0  0  0  0
  152.1954  141.3498  161.0597 H   0  0  0  0  0  0  0  0  0  0  0  0
  152.9496  144.0670  161.2277 H   0  0  0  0  0  0  0  0  0  0  0  0
  152.0034  146.2432  160.4411 H   0  0  0  0  0  0  0  0  0  0  0  0
  150.5472  146.2471  158.3324 H   0  0  0  0  0  0  0  0  0  0  0  0
  150.9572  142.1618  157.8565 H   0  0  0  0  0  0  0  0  0  0  0  0
  150.1633  144.2434  157.2380 H   0  0  0  0  0  0  0  0  0  0  0  0
  1  2  1  0  0  0  0
  1 21  1  0  0  0  0
  1 22  1  0  0  0  0
  1 23  1  0  0  0  0
  2  3  2  0  0  0  0
  2  4  2  0  0  0  0
  2  5  1  0  0  0  0
  5  9  1  0  0  0  0
  5  6  1  0  0  0  0
  6  7  1  0  0  0  0
  6 24  1  0  0  0  0
  6 25  1  0  0  0  0
  7  8  1  0  0  0  0
  7 26  1  0  0  0  0
  7 27  1  0  0  0  0
  8  9  1  0  0  0  0
  8 28  1  0  0  0  0
  8 29  1  0  0  0  0
  9 10  1  0  0  0  0
  9 30  1  0  0  0  0
 10 11  2  0  0  0  0
 10 12  1  0  0  0  0
 12 13  1  0  0  0  0
 12 31  1  0  0  0  0
 13 14  1  0  0  0  0
 13 32  1  0  0  0  0
 13 33  1  0  0  0  0
 14 15  1  0  0  0  0
 14 34  1  0  0  0  0
 14 35  1  0  0  0  0
 15 20  1  0  0  0  0
 15 16  2  0  0  0  0
 16 17  1  0  0  0  0
 16 36  1  0  0  0  0
 17 18  2  0  0  0  0
 17 37  1  0  0  0  0
 18 19  1  0  0  0  0
 18 38  1  0  0  0  0
 19 20  2  0  0  0  0
 19 40  1  0  0  0  0
 20 39  1  0  0  0  0
M  CHG  1  19   1
M  END
> <s_m_source_file>
AV-unprocessed.smi

> <i_m_source_file_index>
1203

> <i_lp_mmshare_version>
43012

> <i_f3d_flags>
0

> <s_epik_input>
W0NIM11TKD1PKSg9TylOMVtDSDJdW0NIMl1bQ0gyXVtDQEhdMUMoPU8pW05IXVtDSDJdW0NIMl1jMltjSF1bY0hdW2NIXW5bY0hdMg==

> <s_epik_cmdline>
J2VwaWtfcHl0aG9uJywgJy1waCcsICc3LjAnLCAnLXRuJywgJzgnLCAnLW1hJywgJzIwMCcsICctbWV0YWxfYmluZGluZycsICctaW1hZScsICc8aW5maWxlLm1hZT4nLCAnLW9tYWUnLCAnPG91dGZpbGUubWFlPic=

> <r_epik_Ionization_Penalty>
2.2835

> <r_epik_Ionization_Penalty_Charging>
2.2835

> <r_epik_Ionization_Penalty_Neutral>
1.4017e-07

> <r_epik_State_Penalty>
2.43297

> <r_epik_Charging_Adjusted_Penalty>
4.71647

> <i_epik_Tot_Q>
1

> <i_epik_Tot_abs_Q>
1

> <r_epik_Metal_State_Penalty>
2.44558

> <b_epik_Metal_Only>
0

> <s_lp_Force_Field>
OPLS_2005

> <r_lp_Energy>
11.8017

> <b_lp_Chiralities_Consistent>
1

> <s_lp_Variant>
AV-unprocessed.smi:1203-3

> <Gold.Version>
5.8.1

> <Gold.Id.Protein>
6NUR|6NUR_protein|mol2

> <Gold.PLP.Fitness>
45.7025

> <Gold.PLP.PLP>
-37.6923

> <Gold.PLP.part.hbond>
-3.0000

> <Gold.PLP.part.metal>
0.0000

> <Gold.PLP.part.buried>
-5.2233

> <Gold.PLP.part.nonpolar>
-29.3921

> <Gold.PLP.part.repulsive>
0.0819

> <Gold.PLP.ligand.clash>
0.0000

> <Gold.PLP.ligand.torsion>
0.7477

> <Gold.PLP.Chemscore.Hbond>
3.0000

> <Gold.PLP.Chemscore.CHOScore>
0.0000

> <Gold.PLP.Chemscore.Metal>
0.0000

> <Gold.Chemscore.Hbonds>
donor molecule, donor type, donor heavy atom, donor atom, acceptor molecule, acceptor atom, score
      L1  H    19    40       P1  8028  1.85
      P1  H  7997  8009       L1    11  1.00

> <Gold.PLP.Chemscore.Internal.Correction>
0.5056

> <Gold.Rescore>
     Score         DG    S(hbond)    S(metal)    S(lipo)     H(rot)  DE(clash)    DE(int)     intcor
     18.17     -18.99       1.96        0.00     103.23       2.00       0.08       0.74       ----

> <Gold.Chemscore.Fitness>
18.1746

> <Gold.Chemscore.DG>
-18.9904

> <Gold.Chemscore.ZeroCoef>
-5.4800

> <Gold.Chemscore.Hbond>
1.9649

> <Gold.Chemscore.Metal>
0.0000

> <Gold.Chemscore.Lipo>
103.2342

> <Gold.Chemscore.Internal_Hbond>
0.0000

> <Gold.Chemscore.DEClash>
0.0777

> <Gold.Chemscore.DEInternal>
0.7382

> <Gold.Chemscore.Rot>
2.0043

> <Gold.Chemscore.Internal.Correction>
   9.000000E+99

> <Gold.Chemscore.Hbonds>
donor molecule, donor type, donor heavy atom, donor atom, acceptor molecule, acceptor atom, score
      L1  H    19    40       P1  8028  0.66
      P1  H  7997  8009       L1    11  0.95

> <Gold.Chemscore.Hbond.Weighted>
-6.5629

> <Gold.Chemscore.Metal.Weighted>
-0.0000

> <Gold.Chemscore.Lipo.Weighted>
-12.0784

> <Gold.Chemscore.Internal_Hbond.Weighted>
0.0000

> <Gold.Chemscore.DEClash.Weighted>
0.0777

> <Gold.Chemscore.DEInternal.Weighted>
0.7382

> <Gold.Chemscore.Rot.Weighted>
5.1309

> <Gold.Chemscore.Internal.Correction.Weighted>
   9.000000E+99

> <Gold.Protein.RotatedTorsions>
[ 6907 6896 6895 6894 ] final  141.65 input  -60.11 | X-H torsion
[ 7974 7965 7964 7962 ] final    6.22 input  175.53 | X-H torsion
[ 8008 7997 7996 7995 ] final   93.24 input   59.86 | X-H torsion
[ 10167 10162 10161 10158 ] final -116.80 input  -65.29 | X-H torsion
[ 10718 10713 10712 10709 ] final  -48.91 input   66.30 | X-H torsion
[ 10763 10752 10751 10750 ] final   23.64 input  -60.55 | X-H torsion
[ 11005 11000 10999 10996 ] final  -49.31 input  -57.11 | X-H torsion

> <Gold.Protein.ActiveResidues>
 VAL166  LYS551  ARG553  GLY616  TRP617  ASP618  TYR619  PRO620  LYS621  CYS622 
 ASP623  PHE694  ASN695  SER759  ASP760  ASP761  ALA762  ILE779  LEU786  VAL792 
 PHE793  MET794  SER795  GLU796  ALA797  LYS798  CYS799  TRP800  GLU811  SER814 

> <Gold.Protein.RotatedAtoms>
  152.2283  133.5038  159.5201 H   0  0  0  0  0  0  0  0  0  0  0  0  # atno 6907 bound_to 6896
  150.7030  134.1250  159.4058 H   0  0  0  0  0  0  0  0  0  0  0  0  # atno 6908 bound_to 6896
  151.9171  135.0314  160.0570 H   0  0  0  0  0  0  0  0  0  0  0  0  # atno 6909 bound_to 6896
  146.2436  140.0266  142.8393 H   0  0  0  0  0  0  0  0  0  0  0  0  # atno 7974 bound_to 7965
  156.0445  140.3315  155.7280 H   0  0  0  0  0  0  0  0  0  0  0  0  # atno 8008 bound_to 7997
  155.5695  140.0626  157.2827 H   0  0  0  0  0  0  0  0  0  0  0  0  # atno 8009 bound_to 7997
  154.4407  140.1863  156.0853 H   0  0  0  0  0  0  0  0  0  0  0  0  # atno 8010 bound_to 7997
  140.0753  143.4839  152.1957 H   0  0  0  0  0  0  0  0  0  0  0  0  # atno 10167 bound_to 10162
  156.1943  130.4154  149.9328 H   0  0  0  0  0  0  0  0  0  0  0  0  # atno 10718 bound_to 10713
  153.0823  135.6622  154.0019 H   0  0  0  0  0  0  0  0  0  0  0  0  # atno 10763 bound_to 10752
  153.9637  135.2971  155.3433 H   0  0  0  0  0  0  0  0  0  0  0  0  # atno 10764 bound_to 10752
  154.7225  135.5158  153.8906 H   0  0  0  0  0  0  0  0  0  0  0  0  # atno 10765 bound_to 10752
  141.0751  133.6668  156.3567 H   0  0  0  0  0  0  0  0  0  0  0  0  # atno 11005 bound_to 11000
  145.1192  140.9452  143.4610 LP  0  0  0  0  0  0  0  0  0  0  0  0  # atno 17320 bound_to 7965
  145.0498  139.3191  143.5934 LP  0  0  0  0  0  0  0  0  0  0  0  0  # atno 17321 bound_to 7965
  139.5812  144.7511  151.3636 LP  0  0  0  0  0  0  0  0  0  0  0  0  # atno 17342 bound_to 10162
  140.7105  143.7402  150.7559 LP  0  0  0  0  0  0  0  0  0  0  0  0  # atno 17343 bound_to 10162
  156.7058  130.8951  151.3604 LP  0  0  0  0  0  0  0  0  0  0  0  0  # atno 17370 bound_to 10713
  157.6948  130.9270  150.0614 LP  0  0  0  0  0  0  0  0  0  0  0  0  # atno 17371 bound_to 10713
  140.5590  134.5953  157.5428 LP  0  0  0  0  0  0  0  0  0  0  0  0  # atno 17394 bound_to 11000
  139.9564  134.7528  156.0333 LP  0  0  0  0  0  0  0  0  0  0  0  0  # atno 17395 bound_to 11000

$$$$
