#       Name:                AV-unprocessed.smi:2365
#       Creating user name   scv26
#       Creation time:       Fri Mar 27 13:05:49 2020


#       File generated by GOLD software.
#

@<TRIPOS>MOLECULE
AV-unprocessed.smi:2365
    34    35     1
SMALL
NO_CHARGES


@<TRIPOS>ATOM
      1 ****        -3.2443   1.5875  -0.2944 C.3            1 S1                 0.0000
      2 ****        -2.2211   0.5262  -0.7112 C.3            1 S1                 0.0000
      3 ****        -2.7245  -0.4543  -1.7638 C.3            1 S1                 0.0000
      4 ****        -1.8096  -1.6529  -1.5752 C.3            1 S1                 0.0000
      5 ****        -1.3053  -1.5225  -0.1234 C.3            1 S1                 0.0000
      6 ****         0.2278  -1.4241  -0.0180 C.2            1 S1                 0.0000
      7 ****         0.9266  -2.2634  -0.5857 O.2            1 S1                 0.0000
      8 ****         0.7168  -0.4007   0.7068 N.am           1 S1                 0.0000
      9 ****         2.0750  -0.0502   0.9337 C.ar           1 S1                 0.0000
     10 ****         3.1214  -1.0028   0.9917 C.ar           1 S1                 0.0000
     11 ****         4.4100  -0.6795   1.2299 N.ar           1 S1                 0.0000
     12 ****         4.7103   0.6206   1.4277 C.ar           1 S1                 0.0000
     13 ****         3.7487   1.6496   1.4074 C.ar           1 S1                 0.0000
     14 ****         4.2292   3.2865   1.6807 Cl             1 S1                 0.0000
     15 ****         2.4016   1.3066   1.1606 C.ar           1 S1                 0.0000
     16 ****         1.1747   2.5284   1.1263 Cl             1 S1                 0.0000
     17 ****        -1.9186  -0.3322   0.3780 O.3            1 S1                 0.0000
     18 ****        -3.5073   2.2281  -1.1361 H              1 S1                 0.0000
     19 ****        -2.8438   2.2227   0.4959 H              1 S1                 0.0000
     20 ****        -4.1606   1.1295   0.0787 H              1 S1                 0.0000
     21 ****        -1.3024   1.0053  -1.0546 H              1 S1                 0.0000
     22 ****        -3.7546  -0.7423  -1.5492 H              1 S1                 0.0000
     23 ****        -2.6904  -0.0466  -2.7744 H              1 S1                 0.0000
     24 ****        -2.3420  -2.5901  -1.7398 H              1 S1                 0.0000
     25 ****        -0.9943  -1.6103  -2.2993 H              1 S1                 0.0000
     26 ****        -1.6395  -2.3660   0.4813 H              1 S1                 0.0000
     27 ****         0.0322   0.2603   1.0462 H              1 S1                 0.0000
     28 ****         2.9340  -2.0583   0.8676 H              1 S1                 0.0000
     29 ****         5.7502   0.8461   1.6133 H              1 S1                 0.0000
     30 ****         0.4977  -2.9999  -1.1089 LP             1 S1                 0.0000
     31 ****         1.9232  -2.2089  -0.5238 LP             1 S1                 0.0000
     32 ****         5.1206  -1.3826   1.2588 LP             1 S1                 0.0000
     33 ****        -2.7607  -0.5678   0.8631 LP             1 S1                 0.0000
     34 ****        -1.2911   0.1298   1.0047 LP             1 S1                 0.0000
@<TRIPOS>BOND
    1    1    2 1     
    2    1   18 1     
    3    1   19 1     
    4    1   20 1     
    5    2   17 1     
    6    2    3 1     
    7    2   21 1     
    8    3    4 1     
    9    3   22 1     
   10    3   23 1     
   11    4    5 1     
   12    4   24 1     
   13    4   25 1     
   14    5    6 1     
   15    5   17 1     
   16    5   26 1     
   17    6    7 2     
   18    6    8 am    
   19    8    9 1     
   20    8   27 1     
   21    9   15 ar    
   22    9   10 ar    
   23   10   11 ar    
   24   10   28 1     
   25   11   12 ar    
   26   12   13 ar    
   27   12   29 1     
   28   13   14 1     
   29   13   15 ar    
   30   15   16 1     
   31    7   30 1     
   32    7   31 1     
   33   11   32 1     
   34   17   33 1     
   35   17   34 1     
@<TRIPOS>SUBSTRUCTURE
      1 S1             1
@<TRIPOS>SET
LONE_PAIRS      STATIC     ATOMS    <user>   **** ""
5 30 31 32 33 34
DONOR_HYDROGENS      STATIC     ATOMS    <user>   **** ""
1 27
ATOM$BLUE        STATIC     ATOMS    COLORGROUP SYSTEM
5 30 31 32 33 34
ATOM$RED        STATIC     ATOMS    COLORGROUP SYSTEM
1 27
