AV-unprocessed.smi:711|AV-procd|sdf|3466|dock2
  -GOLD-   22720 0453D 1   1.00000     0.00000
 Structure written by MMmdl.
 28 29  0  0  0  0  0  0  0  0  2 V2000
  154.2854  134.1450  157.9023 O   0  0  0  0  0  0  0  0  0  0  0  0
  154.1802  135.3495  158.1294 C   0  0  0  0  0  0  0  0  0  0  0  0
  153.9228  136.2641  157.1492 N   0  5  0  0  0  0  0  0  0  0  0  0
  153.8049  137.6077  157.3810 C   0  0  0  0  0  0  0  0  0  0  0  0
  153.5815  138.4113  156.4758 O   0  0  0  0  0  0  0  0  0  0  0  0
  153.9484  138.0701  158.6595 N   0  0  0  0  0  0  0  0  0  0  0  0
  153.8611  139.4957  159.0144 C   0  0  0  0  0  0  0  0  0  0  0  0
  152.4075  139.9529  159.2717 C   0  0  2  0  0  0  0  0  0  0  0  0
  151.5919  139.4452  158.2348 O   0  0  0  0  0  0  0  0  0  0  0  0
  152.2745  141.4639  159.4277 C   0  0  0  0  0  0  0  0  0  0  0  0
  151.5183  142.2088  158.4952 C   0  0  0  0  0  0  0  0  0  0  0  0
  151.4122  143.6074  158.6190 C   0  0  0  0  0  0  0  0  0  0  0  0
  152.0627  144.2719  159.6754 C   0  0  0  0  0  0  0  0  0  0  0  0
  151.9608  145.6169  159.7947 F   0  0  0  0  0  0  0  0  0  0  0  0
  152.8199  143.5370  160.6070 C   0  0  0  0  0  0  0  0  0  0  0  0
  152.9278  142.1379  160.4853 C   0  0  0  0  0  0  0  0  0  0  0  0
  153.6698  141.4492  161.3859 F   0  0  0  0  0  0  0  0  0  0  0  0
  154.2112  137.1691  159.7050 C   0  0  0  0  0  0  0  0  0  0  0  0
  154.3329  135.8442  159.4958 C   0  0  0  0  0  0  0  0  0  0  0  0
  154.6634  134.7626  160.8019 Cl  0  0  0  0  0  0  0  0  0  0  0  0
  154.4814  139.7275  159.8817 H   0  0  0  0  0  0  0  0  0  0  0  0
  154.2897  140.0838  158.2012 H   0  0  0  0  0  0  0  0  0  0  0  0
  152.0516  139.4771  160.1857 H   0  0  0  0  0  0  0  0  0  0  0  0
  151.3053  138.5786  158.4786 H   0  0  0  0  0  0  0  0  0  0  0  0
  151.0254  141.7096  157.6740 H   0  0  0  0  0  0  0  0  0  0  0  0
  150.8353  144.1703  157.9002 H   0  0  0  0  0  0  0  0  0  0  0  0
  153.3230  144.0475  161.4148 H   0  0  0  0  0  0  0  0  0  0  0  0
  154.3131  137.6226  160.6802 H   0  0  0  0  0  0  0  0  0  0  0  0
  1  2  2  0  0  0  0
  2 19  1  0  0  0  0
  2  3  1  0  0  0  0
  3  4  1  0  0  0  0
  4  5  2  0  0  0  0
  4  6  1  0  0  0  0
  6  7  1  0  0  0  0
  6 18  1  0  0  0  0
  7  8  1  0  0  0  0
  7 21  1  0  0  0  0
  7 22  1  0  0  0  0
  8  9  1  0  0  0  0
  8 10  1  0  0  0  0
  8 23  1  0  0  0  0
  9 24  1  0  0  0  0
 10 16  1  0  0  0  0
 10 11  2  0  0  0  0
 11 12  1  0  0  0  0
 11 25  1  0  0  0  0
 12 13  2  0  0  0  0
 12 26  1  0  0  0  0
 13 14  1  0  0  0  0
 13 15  1  0  0  0  0
 15 16  2  0  0  0  0
 15 27  1  0  0  0  0
 16 17  1  0  0  0  0
 18 19  2  0  0  0  0
 18 28  1  0  0  0  0
 19 20  1  0  0  0  0
M  CHG  1   3  -1
M  END
> <s_m_source_file>
AV-unprocessed.smi

> <i_m_source_file_index>
711

> <i_lp_mmshare_version>
43012

> <i_f3d_flags>
0

> <s_epik_input>
Tz1jMVtuSF1jKD1PKW4oW2NIXWMxQ2wpW0NIMl1bQ0BIXShbT0hdKWMyW2NIXVtjSF1jKEYpW2NIXWMyRg==

> <s_epik_cmdline>
J2VwaWtfcHl0aG9uJywgJy1waCcsICc3LjAnLCAnLXRuJywgJzgnLCAnLW1hJywgJzIwMCcsICctbWV0YWxfYmluZGluZycsICctaW1hZScsICc8aW5maWxlLm1hZT4nLCAnLW9tYWUnLCAnPG91dGZpbGUubWFlPic=

> <r_epik_Ionization_Penalty>
1.7979

> <r_epik_Ionization_Penalty_Charging>
3.23819e-08

> <r_epik_Ionization_Penalty_Neutral>
1.7979

> <r_epik_State_Penalty>
1.91135

> <r_epik_Charging_Adjusted_Penalty>
1.91135

> <i_epik_Tot_Q>
-1

> <i_epik_Tot_abs_Q>
1

> <r_epik_Metal_State_Penalty>
0.014155

> <b_epik_Metal_Only>
0

> <s_lp_Force_Field>
OPLS_2005

> <r_lp_Energy>
19.2938

> <b_lp_Chiralities_Consistent>
1

> <s_lp_Variant>
AV-unprocessed.smi:711-3

> <Gold.Version>
5.8.1

> <Gold.Id.Protein>
6NUR|6NUR_protein|mol2

> <Gold.PLP.Fitness>
43.1188

> <Gold.PLP.PLP>
-35.8760

> <Gold.PLP.part.hbond>
-2.0000

> <Gold.PLP.part.metal>
0.0000

> <Gold.PLP.part.buried>
-2.7555

> <Gold.PLP.part.nonpolar>
-30.3786

> <Gold.PLP.part.repulsive>
0.0000

> <Gold.PLP.ligand.clash>
0.0000

> <Gold.PLP.ligand.torsion>
0.4701

> <Gold.PLP.Chemscore.Hbond>
2.7200

> <Gold.PLP.Chemscore.CHOScore>
0.0000

> <Gold.PLP.Chemscore.Metal>
0.0000

> <Gold.Chemscore.Hbonds>
donor molecule, donor type, donor heavy atom, donor atom, acceptor molecule, acceptor atom, score
      P1  H  7997  8008       L1     5  0.77
      P1  H 10752 10765       L1     3  2.00

> <Gold.PLP.Chemscore.Internal.Correction>
0.0229

> <Gold.Rescore>
     Score         DG    S(hbond)    S(metal)    S(lipo)     H(rot)  DE(clash)    DE(int)     intcor
     12.97     -14.72       1.48        0.00      87.42       2.32       0.18       1.57       ----

> <Gold.Chemscore.Fitness>
12.9691

> <Gold.Chemscore.DG>
-14.7230

> <Gold.Chemscore.ZeroCoef>
-5.4800

> <Gold.Chemscore.Hbond>
1.4804

> <Gold.Chemscore.Metal>
0.0000

> <Gold.Chemscore.Lipo>
87.4245

> <Gold.Chemscore.Internal_Hbond>
0.0000

> <Gold.Chemscore.DEClash>
0.1833

> <Gold.Chemscore.DEInternal>
1.5706

> <Gold.Chemscore.Rot>
2.3164

> <Gold.Chemscore.Internal.Correction>
   9.000000E+99

> <Gold.Chemscore.Hbonds>
donor molecule, donor type, donor heavy atom, donor atom, acceptor molecule, acceptor atom, score
      P1  H  7997  8008       L1     5  0.67
      P1  H 10752 10765       L1     3  0.62

> <Gold.Chemscore.Hbond.Weighted>
-4.9445

> <Gold.Chemscore.Metal.Weighted>
-0.0000

> <Gold.Chemscore.Lipo.Weighted>
-10.2287

> <Gold.Chemscore.Internal_Hbond.Weighted>
0.0000

> <Gold.Chemscore.DEClash.Weighted>
0.1833

> <Gold.Chemscore.DEInternal.Weighted>
1.5706

> <Gold.Chemscore.Rot.Weighted>
5.9301

> <Gold.Chemscore.Internal.Correction.Weighted>
   9.000000E+99

> <Gold.Protein.RotatedTorsions>
[ 6907 6896 6895 6894 ] final  -88.37 input  -60.11 | X-H torsion
[ 7974 7965 7964 7962 ] final   16.53 input  175.53 | X-H torsion
[ 8008 7997 7996 7995 ] final  -63.78 input   59.86 | X-H torsion
[ 10167 10162 10161 10158 ] final  165.60 input  -65.29 | X-H torsion
[ 10718 10713 10712 10709 ] final  166.57 input   66.30 | X-H torsion
[ 10763 10752 10751 10750 ] final  -91.78 input  -60.55 | X-H torsion
[ 11005 11000 10999 10996 ] final  110.36 input  -57.11 | X-H torsion

> <Gold.Protein.ActiveResidues>
 VAL166  LYS551  ARG553  GLY616  TRP617  ASP618  TYR619  PRO620  LYS621  CYS622 
 ASP623  PHE694  ASN695  SER759  ASP760  ASP761  ALA762  ILE779  LEU786  VAL792 
 PHE793  MET794  SER795  GLU796  ALA797  LYS798  CYS799  TRP800  GLU811  SER814 

> <Gold.Protein.RotatedAtoms>
  150.6868  134.2752  159.4604 H   0  0  0  0  0  0  0  0  0  0  0  0  # atno 6907 bound_to 6896
  152.0671  134.9555  160.0584 H   0  0  0  0  0  0  0  0  0  0  0  0  # atno 6908 bound_to 6896
  152.0959  133.4190  159.4602 H   0  0  0  0  0  0  0  0  0  0  0  0  # atno 6909 bound_to 6896
  146.2246  139.8734  142.8583 H   0  0  0  0  0  0  0  0  0  0  0  0  # atno 7974 bound_to 7965
  154.4573  140.0967  156.6795 H   0  0  0  0  0  0  0  0  0  0  0  0  # atno 8008 bound_to 7997
  155.5098  140.3476  155.4368 H   0  0  0  0  0  0  0  0  0  0  0  0  # atno 8009 bound_to 7997
  156.0803  140.1371  156.9709 H   0  0  0  0  0  0  0  0  0  0  0  0  # atno 8010 bound_to 7997
  139.4909  144.4115  151.9293 H   0  0  0  0  0  0  0  0  0  0  0  0  # atno 10167 bound_to 10162
  157.0639  131.0347  151.2636 H   0  0  0  0  0  0  0  0  0  0  0  0  # atno 10718 bound_to 10713
  154.6795  135.5255  153.8244 H   0  0  0  0  0  0  0  0  0  0  0  0  # atno 10763 bound_to 10752
  153.0555  135.6549  154.0598 H   0  0  0  0  0  0  0  0  0  0  0  0  # atno 10764 bound_to 10752
  154.0487  135.2971  155.3323 H   0  0  0  0  0  0  0  0  0  0  0  0  # atno 10765 bound_to 10752
  139.8880  134.9482  156.6267 H   0  0  0  0  0  0  0  0  0  0  0  0  # atno 11005 bound_to 11000
  145.2585  141.0069  143.3840 LP  0  0  0  0  0  0  0  0  0  0  0  0  # atno 17320 bound_to 7965
  144.9317  139.4290  143.6492 LP  0  0  0  0  0  0  0  0  0  0  0  0  # atno 17321 bound_to 7965
  140.3557  144.3035  150.5941 LP  0  0  0  0  0  0  0  0  0  0  0  0  # atno 17342 bound_to 10162
  140.5447  143.2217  151.8027 LP  0  0  0  0  0  0  0  0  0  0  0  0  # atno 17343 bound_to 10162
  157.4932  130.7835  149.7529 LP  0  0  0  0  0  0  0  0  0  0  0  0  # atno 17370 bound_to 10713
  155.9970  130.3902  150.2757 LP  0  0  0  0  0  0  0  0  0  0  0  0  # atno 17371 bound_to 10713
  140.7698  133.8748  155.8482 LP  0  0  0  0  0  0  0  0  0  0  0  0  # atno 17394 bound_to 11000
  140.9852  134.1353  157.4459 LP  0  0  0  0  0  0  0  0  0  0  0  0  # atno 17395 bound_to 11000

$$$$
