AV-unprocessed.smi:794|AV-procd|sdf|3763|dock5
  -GOLD-   22720 1193D 1   1.00000     0.00000
 Structure written by MMmdl.
 41 43  0  0  0  0  0  0  0  0  1 V2000
  143.5178  132.8852  151.5633 C   0  0  0  0  0  0  0  0  0  0  0  0
  143.8881  134.0753  152.3941 C   0  0  0  0  0  0  0  0  0  0  0  0
  145.2033  134.5488  152.3712 N   0  0  0  0  0  0  0  0  0  0  0  0
  145.3713  135.6140  153.1613 C   0  0  0  0  0  0  0  0  0  0  0  0
  146.6005  136.3039  153.3263 N   0  0  0  0  0  0  0  0  0  0  0  0
  146.9382  137.1832  154.2854 C   0  0  0  0  0  0  0  0  0  0  0  0
  146.2014  137.5635  155.1957 O   0  0  0  0  0  0  0  0  0  0  0  0
  148.2002  137.6062  154.1294 N   0  0  0  0  0  0  0  0  0  0  0  0
  148.8793  138.5602  155.0020 C   0  0  1  0  0  0  0  0  0  0  0  0
  150.2712  138.0275  155.4074 C   0  0  2  0  0  0  0  0  0  0  0  0
  150.7737  138.8331  156.6187 C   0  0  0  0  0  0  0  0  0  0  0  0
  151.1194  140.1964  155.9903 C   0  0  0  0  0  0  0  0  0  0  0  0
  150.7529  139.9969  154.5035 C   0  0  1  0  0  0  0  0  0  0  0  0
  151.1760  138.5486  154.2940 C   0  0  0  0  0  0  0  0  0  0  0  0
  149.2223  139.8918  154.2867 C   0  0  2  0  0  0  0  0  0  0  0  0
  148.3830  141.0946  154.7597 C   0  0  0  0  0  0  0  0  0  0  0  0
  148.7977  142.2727  154.1015 O   0  0  0  0  0  0  0  0  0  0  0  0
  143.9095  136.1098  153.9959 S   0  0  0  0  0  0  0  0  0  0  0  0
  143.0558  134.8029  153.2134 C   0  0  0  0  0  0  0  0  0  0  0  0
  141.6019  134.5804  153.4667 C   0  0  0  0  0  0  0  0  0  0  0  0
  142.8997  132.1869  152.1278 H   0  0  0  0  0  0  0  0  0  0  0  0
  144.3992  132.3402  151.2235 H   0  0  0  0  0  0  0  0  0  0  0  0
  142.9544  133.1856  150.6797 H   0  0  0  0  0  0  0  0  0  0  0  0
  147.3111  136.0917  152.6417 H   0  0  0  0  0  0  0  0  0  0  0  0
  148.7329  137.2438  153.3522 H   0  0  0  0  0  0  0  0  0  0  0  0
  148.2690  138.7246  155.8925 H   0  0  0  0  0  0  0  0  0  0  0  0
  150.3062  136.9489  155.5653 H   0  0  0  0  0  0  0  0  0  0  0  0
  150.0249  138.9143  157.4074 H   0  0  0  0  0  0  0  0  0  0  0  0
  151.6636  138.3731  157.0501 H   0  0  0  0  0  0  0  0  0  0  0  0
  150.5926  141.0257  156.4602 H   0  0  0  0  0  0  0  0  0  0  0  0
  152.1868  140.3960  156.0929 H   0  0  0  0  0  0  0  0  0  0  0  0
  151.2381  140.7100  153.8363 H   0  0  0  0  0  0  0  0  0  0  0  0
  152.2372  138.3748  154.4815 H   0  0  0  0  0  0  0  0  0  0  0  0
  150.9211  138.1591  153.3070 H   0  0  0  0  0  0  0  0  0  0  0  0
  149.0518  139.7761  153.2141 H   0  0  0  0  0  0  0  0  0  0  0  0
  147.3311  140.9273  154.5272 H   0  0  0  0  0  0  0  0  0  0  0  0
  148.4427  141.2369  155.8380 H   0  0  0  0  0  0  0  0  0  0  0  0
  149.0281  142.9161  154.7542 H   0  0  0  0  0  0  0  0  0  0  0  0
  141.0709  134.3842  152.5350 H   0  0  0  0  0  0  0  0  0  0  0  0
  141.1447  135.4532  153.9338 H   0  0  0  0  0  0  0  0  0  0  0  0
  141.4519  133.7269  154.1280 H   0  0  0  0  0  0  0  0  0  0  0  0
  1  2  1  0  0  0  0
  1 21  1  0  0  0  0
  1 22  1  0  0  0  0
  1 23  1  0  0  0  0
  2 19  2  0  0  0  0
  2  3  1  0  0  0  0
  3  4  2  0  0  0  0
  4  5  1  0  0  0  0
  4 18  1  0  0  0  0
  5  6  1  0  0  0  0
  5 24  1  0  0  0  0
  6  7  2  0  0  0  0
  6  8  1  0  0  0  0
  8  9  1  0  0  0  0
  8 25  1  0  0  0  0
  9 15  1  0  0  0  0
  9 10  1  0  0  0  0
  9 26  1  0  0  0  0
 10 14  1  0  0  0  0
 10 11  1  0  0  0  0
 10 27  1  0  0  0  0
 11 12  1  0  0  0  0
 11 28  1  0  0  0  0
 11 29  1  0  0  0  0
 12 13  1  0  0  0  0
 12 30  1  0  0  0  0
 12 31  1  0  0  0  0
 13 14  1  0  0  0  0
 13 15  1  0  0  0  0
 13 32  1  0  0  0  0
 14 33  1  0  0  0  0
 14 34  1  0  0  0  0
 15 16  1  0  0  0  0
 15 35  1  0  0  0  0
 16 17  1  0  0  0  0
 16 36  1  0  0  0  0
 16 37  1  0  0  0  0
 17 38  1  0  0  0  0
 18 19  1  0  0  0  0
 19 20  1  0  0  0  0
 20 39  1  0  0  0  0
 20 40  1  0  0  0  0
 20 41  1  0  0  0  0
M  END
> <s_m_source_file>
AV-unprocessed.smi

> <i_m_source_file_index>
794

> <i_lp_mmshare_version>
43012

> <i_f3d_flags>
0

> <s_epik_input>
W0NIM11jMW5jKHNjMVtDSDNdKVtOSF1DKD1PKVtOSF1bQ0BIXShbQ0BASF0yMylbQ0BIXShbQ0gyXVtPSF0pW0NAQEhdKFtDSDJdMylbQ0gyXVtDSDJdMg==

> <s_epik_cmdline>
J2VwaWtfcHl0aG9uJywgJy1waCcsICc3LjAnLCAnLXRuJywgJzgnLCAnLW1hJywgJzIwMCcsICctbWV0YWxfYmluZGluZycsICctaW1hZScsICc8aW5maWxlLm1hZT4nLCAnLW9tYWUnLCAnPG91dGZpbGUubWFlPic=

> <r_lp_tautomer_probability>
0.999

> <r_epik_Ionization_Penalty>
0.000713029

> <r_epik_Ionization_Penalty_Charging>
0

> <r_epik_Ionization_Penalty_Neutral>
0.000713029

> <r_epik_State_Penalty>
0.000177984

> <r_epik_Charging_Adjusted_Penalty>
0.000177984

> <i_epik_Tot_Q>
0

> <i_epik_Tot_abs_Q>
0

> <r_epik_Metal_State_Penalty>
-0

> <b_epik_Metal_Only>
0

> <s_lp_Force_Field>
OPLS_2005

> <r_lp_Energy>
46.861

> <b_lp_Chiralities_Consistent>
1

> <s_lp_Variant>
AV-unprocessed.smi:794-8

> <Gold.Version>
5.8.1

> <Gold.Id.Protein>
6NUR|6NUR_protein|mol2

> <Gold.PLP.Fitness>
39.6330

> <Gold.PLP.PLP>
-30.0657

> <Gold.PLP.part.hbond>
-4.0000

> <Gold.PLP.part.metal>
0.0000

> <Gold.PLP.part.buried>
-1.2797

> <Gold.PLP.part.nonpolar>
-24.4347

> <Gold.PLP.part.repulsive>
0.1251

> <Gold.PLP.ligand.clash>
0.0000

> <Gold.PLP.ligand.torsion>
0.1332

> <Gold.PLP.Chemscore.Hbond>
3.2720

> <Gold.PLP.Chemscore.CHOScore>
0.0000

> <Gold.PLP.Chemscore.Metal>
0.0000

> <Gold.Chemscore.Hbonds>
donor molecule, donor type, donor heavy atom, donor atom, acceptor molecule, acceptor atom, score
      L1  H     5    24       P1  7948  1.00
      L1  H     8    25       P1  7948  1.00
      L1  H    17    38       P1  8028  1.00
      P1  H  8011  8017       L1    17  0.26

> <Gold.PLP.Chemscore.Internal.Correction>
0.0178

> <Gold.Rescore>
     Score         DG    S(hbond)    S(metal)    S(lipo)     H(rot)  DE(clash)    DE(int)     intcor
     17.42     -19.36       3.11        0.00      68.79       1.78       0.68       1.26       ----

> <Gold.Chemscore.Fitness>
17.4207

> <Gold.Chemscore.DG>
-19.3632

> <Gold.Chemscore.ZeroCoef>
-5.4800

> <Gold.Chemscore.Hbond>
3.1110

> <Gold.Chemscore.Metal>
0.0000

> <Gold.Chemscore.Lipo>
68.7913

> <Gold.Chemscore.Internal_Hbond>
0.0000

> <Gold.Chemscore.DEClash>
0.6785

> <Gold.Chemscore.DEInternal>
1.2640

> <Gold.Chemscore.Rot>
1.7798

> <Gold.Chemscore.Internal.Correction>
   9.000000E+99

> <Gold.Chemscore.Hbonds>
donor molecule, donor type, donor heavy atom, donor atom, acceptor molecule, acceptor atom, score
      L1  H     5    24       P1  7948  0.99
      L1  H     8    25       P1  7948  0.98
      L1  H    17    38       P1  8028  0.93
      P1  H  8011  8017       L1    17  0.22

> <Gold.Chemscore.Hbond.Weighted>
-10.3909

> <Gold.Chemscore.Metal.Weighted>
-0.0000

> <Gold.Chemscore.Lipo.Weighted>
-8.0486

> <Gold.Chemscore.Internal_Hbond.Weighted>
0.0000

> <Gold.Chemscore.DEClash.Weighted>
0.6785

> <Gold.Chemscore.DEInternal.Weighted>
1.2640

> <Gold.Chemscore.Rot.Weighted>
4.5562

> <Gold.Chemscore.Internal.Correction.Weighted>
   9.000000E+99

> <Gold.Protein.RotatedTorsions>
[ 6907 6896 6895 6894 ] final  -51.57 input  -60.11 | X-H torsion
[ 7974 7965 7964 7962 ] final  -29.43 input  175.53 | X-H torsion
[ 8008 7997 7996 7995 ] final  110.33 input   59.86 | X-H torsion
[ 10167 10162 10161 10158 ] final  124.12 input  -65.29 | X-H torsion
[ 10718 10713 10712 10709 ] final  -85.66 input   66.30 | X-H torsion
[ 10763 10752 10751 10750 ] final   69.64 input  -60.55 | X-H torsion
[ 11005 11000 10999 10996 ] final -112.36 input  -57.11 | X-H torsion

> <Gold.Protein.ActiveResidues>
 VAL166  LYS551  ARG553  GLY616  TRP617  ASP618  TYR619  PRO620  LYS621  CYS622 
 ASP623  PHE694  ASN695  SER759  ASP760  ASP761  ALA762  ILE779  LEU786  VAL792 
 PHE793  MET794  SER795  GLU796  ALA797  LYS798  CYS799  TRP800  GLU811  SER814 

> <Gold.Protein.RotatedAtoms>
  150.8599  134.7948  159.7074 H   0  0  0  0  0  0  0  0  0  0  0  0  # atno 6907 bound_to 6896
  152.4639  134.5117  159.9765 H   0  0  0  0  0  0  0  0  0  0  0  0  # atno 6908 bound_to 6896
  151.5223  133.3426  159.2939 H   0  0  0  0  0  0  0  0  0  0  0  0  # atno 6909 bound_to 6896
  146.1217  140.5411  142.8732 H   0  0  0  0  0  0  0  0  0  0  0  0  # atno 7974 bound_to 7965
  156.2045  140.3040  155.9597 H   0  0  0  0  0  0  0  0  0  0  0  0  # atno 8008 bound_to 7997
  155.2875  140.0440  157.3037 H   0  0  0  0  0  0  0  0  0  0  0  0  # atno 8009 bound_to 7997
  154.5614  140.2321  155.8338 H   0  0  0  0  0  0  0  0  0  0  0  0  # atno 8010 bound_to 7997
  139.5760  144.6963  151.3653 H   0  0  0  0  0  0  0  0  0  0  0  0  # atno 10167 bound_to 10162
  155.9995  130.4738  150.4596 H   0  0  0  0  0  0  0  0  0  0  0  0  # atno 10718 bound_to 10713
  153.0298  135.5203  154.7319 H   0  0  0  0  0  0  0  0  0  0  0  0  # atno 10763 bound_to 10752
  154.6344  135.2904  155.0180 H   0  0  0  0  0  0  0  0  0  0  0  0  # atno 10764 bound_to 10752
  154.1121  135.6620  153.4939 H   0  0  0  0  0  0  0  0  0  0  0  0  # atno 10765 bound_to 10752
  141.0680  133.9427  157.2541 H   0  0  0  0  0  0  0  0  0  0  0  0  # atno 11005 bound_to 11000
  144.7603  140.5407  143.6740 LP  0  0  0  0  0  0  0  0  0  0  0  0  # atno 17320 bound_to 7965
  145.5452  139.1476  143.3425 LP  0  0  0  0  0  0  0  0  0  0  0  0  # atno 17321 bound_to 7965
  140.7042  143.7555  150.7454 LP  0  0  0  0  0  0  0  0  0  0  0  0  # atno 17342 bound_to 10162
  140.1075  143.4730  152.2390 LP  0  0  0  0  0  0  0  0  0  0  0  0  # atno 17343 bound_to 10162
  157.2622  131.0569  151.2313 LP  0  0  0  0  0  0  0  0  0  0  0  0  # atno 17370 bound_to 10713
  157.3424  130.7040  149.6390 LP  0  0  0  0  0  0  0  0  0  0  0  0  # atno 17371 bound_to 10713
  139.9495  135.0178  156.8951 LP  0  0  0  0  0  0  0  0  0  0  0  0  # atno 17394 bound_to 11000
  140.5734  134.0422  155.7438 LP  0  0  0  0  0  0  0  0  0  0  0  0  # atno 17395 bound_to 11000

$$$$
