#       Name:                AV-unprocessed.smi:2521
#       Creating user name   scv26
#       Creation time:       Fri Mar 27 13:55:21 2020


#       File generated by GOLD software.
#

@<TRIPOS>MOLECULE
AV-unprocessed.smi:2521
    42    43     1
SMALL
NO_CHARGES


@<TRIPOS>ATOM
      1 ****        -6.0490  -0.7993   1.6732 C.3            1 S1                 0.0000
      2 ****        -5.3575  -0.4598   0.3447 C.3            1 S1                 0.0000
      3 ****        -5.7803  -1.3825  -0.8078 C.3            1 S1                 0.0000
      4 ****        -3.8695  -0.3800   0.4875 C.2            1 S1                 0.0000
      5 ****        -3.1098  -1.4352   0.8117 N.2            1 S1                 0.0000
      6 ****        -1.7620  -1.1139   0.8842 N.2            1 S1                 0.0000
      7 ****        -1.5416   0.1795   0.6127 C.2            1 S1                 0.0000
      8 ****        -0.2543   0.7788   0.6175 N.am           1 S1                 0.0000
      9 ****         0.9350   0.1968   0.8516 C.2            1 S1                 0.0000
     10 ****         1.1078  -0.9955   1.1055 O.2            1 S1                 0.0000
     11 ****         1.9346   1.0864   0.7687 N.am           1 S1                 0.0000
     12 ****         3.3487   0.7757   0.9496 C.3            1 S1                 0.0000
     13 ****         3.9674   0.1459  -0.3128 C.3            1 S1                 0.0000
     14 ****         3.9332   1.0272  -1.5461 C.3            1 S1                 0.0000
     15 ****         4.9942   0.3735  -2.4250 C.3            1 S1                 0.0000
     16 ****         5.9659  -0.1571  -1.5285 O.3            1 S1                 0.0000
     17 ****         5.4642  -0.1396  -0.1947 C.3            1 S1                 0.0000
     18 ****        -2.9776   1.1184   0.2437 S.3            1 S1                 0.0000
     19 ****        -5.7929  -0.0730   2.4452 H              1 S1                 0.0000
     20 ****        -5.7554  -1.7859   2.0332 H              1 S1                 0.0000
     21 ****        -7.1338  -0.7957   1.5634 H              1 S1                 0.0000
     22 ****        -5.6935   0.5414   0.0725 H              1 S1                 0.0000
     23 ****        -5.3365  -1.0609  -1.7504 H              1 S1                 0.0000
     24 ****        -6.8632  -1.3810  -0.9350 H              1 S1                 0.0000
     25 ****        -5.4695  -2.4119  -0.6265 H              1 S1                 0.0000
     26 ****        -0.2370   1.7674   0.4154 H              1 S1                 0.0000
     27 ****         1.7034   2.0460   0.5570 H              1 S1                 0.0000
     28 ****         3.8672   1.7015   1.2002 H              1 S1                 0.0000
     29 ****         3.4775   0.1106   1.8051 H              1 S1                 0.0000
     30 ****         3.4577  -0.7916  -0.5423 H              1 S1                 0.0000
     31 ****         2.9531   1.0633  -2.0225 H              1 S1                 0.0000
     32 ****         4.2308   2.0465  -1.2954 H              1 S1                 0.0000
     33 ****         4.5608  -0.4502  -2.9937 H              1 S1                 0.0000
     34 ****         5.4412   1.0743  -3.1304 H              1 S1                 0.0000
     35 ****         5.9700   0.6594   0.3491 H              1 S1                 0.0000
     36 ****         5.6691  -1.0789   0.3196 H              1 S1                 0.0000
     37 ****        -3.4733  -2.3511   0.9822 LP             1 S1                 0.0000
     38 ****        -1.0415  -1.7690   1.1118 LP             1 S1                 0.0000
     39 ****         0.3247  -1.6157   1.1505 LP             1 S1                 0.0000
     40 ****         2.0313  -1.3437   1.2667 LP             1 S1                 0.0000
     41 ****         6.7972   0.3967  -1.5763 LP             1 S1                 0.0000
     42 ****         6.1774  -1.0989  -1.7898 LP             1 S1                 0.0000
@<TRIPOS>BOND
    1    1    2 1     
    2    1   19 1     
    3    1   20 1     
    4    1   21 1     
    5    2    3 1     
    6    2    4 1     
    7    2   22 1     
    8    3   23 1     
    9    3   24 1     
   10    3   25 1     
   11    4   18 1     
   12    4    5 2     
   13    5    6 1     
   14    6    7 2     
   15    7    8 1     
   16    7   18 1     
   17    8    9 am    
   18    8   26 1     
   19    9   10 2     
   20    9   11 am    
   21   11   12 1     
   22   11   27 1     
   23   12   13 1     
   24   12   28 1     
   25   12   29 1     
   26   13   17 1     
   27   13   14 1     
   28   13   30 1     
   29   14   15 1     
   30   14   31 1     
   31   14   32 1     
   32   15   16 1     
   33   15   33 1     
   34   15   34 1     
   35   16   17 1     
   36   17   35 1     
   37   17   36 1     
   38    5   37 1     
   39    6   38 1     
   40   10   39 1     
   41   10   40 1     
   42   16   41 1     
   43   16   42 1     
@<TRIPOS>SUBSTRUCTURE
      1 S1             1
@<TRIPOS>SET
LONE_PAIRS      STATIC     ATOMS    <user>   **** ""
6 37 38 39 40 41 42
DONOR_HYDROGENS      STATIC     ATOMS    <user>   **** ""
2 26 27
ATOM$BLUE        STATIC     ATOMS    COLORGROUP SYSTEM
6 37 38 39 40 41 42
ATOM$RED        STATIC     ATOMS    COLORGROUP SYSTEM
2 26 27
