#       Name:                AV-unprocessed.smi:1550
#       Creating user name   scv26
#       Creation time:       Fri Mar 27 06:39:55 2020


#       File generated by GOLD software.
#

@<TRIPOS>MOLECULE
AV-unprocessed.smi:1550
    51    52     1
SMALL
NO_CHARGES


@<TRIPOS>ATOM
      1 ****        -1.4019  -3.0038   1.8955 C.3            1 S1                 0.0000
      2 ****        -0.9485  -2.1281   0.7179 C.3            1 S1                 0.0000
      3 ****         0.4752  -2.0767   0.7467 O.3            1 S1                 0.0000
      4 ****         1.0929  -1.5570  -0.4257 C.3            1 S1                 0.0000
      5 ****         2.6156  -1.6117  -0.2516 C.3            1 S1                 0.0000
      6 ****         3.1182  -0.6195   0.8161 C.3            1 S1                 0.0000
      7 ****         4.6487  -0.6404   0.8931 C.3            1 S1                 0.0000
      8 ****         5.2390  -0.4184  -0.5035 C.3            1 S1                 0.0000
      9 ****         4.6336  -1.4153  -1.5044 C.3            1 S1                 0.0000
     10 ****         3.2138  -1.2999  -1.5080 O.3            1 S1                 0.0000
     11 ****        -1.5342  -0.7094   0.8134 C.2            1 S1                 0.0000
     12 ****        -1.3942  -0.0682   1.8542 O.2            1 S1                 0.0000
     13 ****        -2.1462  -0.2639  -0.3021 N.am           1 S1                 0.0000
     14 ****        -2.7626   0.9720  -0.5646 C.2            1 S1                 0.0000
     15 ****        -3.0124   1.9382   0.3583 C.2            1 S1                 0.0000
     16 ****        -3.6552   3.1938   0.0069 C.2            1 S1                 0.0000
     17 ****        -3.9809   4.2432   1.0589 C.3            1 S1                 0.0000
     18 ****        -5.0479   4.9640   0.7111 F              1 S1                 0.0000
     19 ****        -4.2262   3.6762   2.2403 F              1 S1                 0.0000
     20 ****        -2.9489   5.0732   1.2040 F              1 S1                 0.0000
     21 ****        -4.0179   3.3432  -1.2804 C.2            1 S1                 0.0000
     22 ****        -3.7621   2.3575  -2.2356 N.am           1 S1                 0.0000
     23 ****        -3.1585   1.1781  -1.9680 C.2            1 S1                 0.0000
     24 ****        -2.9719   0.3589  -2.8671 O.2            1 S1                 0.0000
     25 ****        -4.0546   2.5491  -3.1828 H              1 S1                 0.0000
     26 ****        -2.4890  -3.0799   1.9381 H              1 S1                 0.0000
     27 ****        -1.0553  -2.6059   2.8501 H              1 S1                 0.0000
     28 ****        -1.0056  -4.0149   1.7990 H              1 S1                 0.0000
     29 ****        -1.2743  -2.6058  -0.2084 H              1 S1                 0.0000
     30 ****         0.7993  -2.1643  -1.2831 H              1 S1                 0.0000
     31 ****         0.7798  -0.5327  -0.6311 H              1 S1                 0.0000
     32 ****         2.8983  -2.6291   0.0249 H              1 S1                 0.0000
     33 ****         2.7796   0.3881   0.5712 H              1 S1                 0.0000
     34 ****         2.6938  -0.8625   1.7908 H              1 S1                 0.0000
     35 ****         5.0057   0.1240   1.5837 H              1 S1                 0.0000
     36 ****         4.9835  -1.6014   1.2858 H              1 S1                 0.0000
     37 ****         5.0289   0.6001  -0.8326 H              1 S1                 0.0000
     38 ****         6.3240  -0.5213  -0.4760 H              1 S1                 0.0000
     39 ****         5.0059  -1.2100  -2.5081 H              1 S1                 0.0000
     40 ****         4.9257  -2.4379  -1.2606 H              1 S1                 0.0000
     41 ****        -2.1417  -0.8986  -1.0878 H              1 S1                 0.0000
     42 ****        -2.7454   1.8070   1.3933 H              1 S1                 0.0000
     43 ****        -4.5266   4.2114  -1.6728 H              1 S1                 0.0000
     44 ****         0.8144  -3.0069   0.8873 LP             1 S1                 0.0000
     45 ****         0.7473  -1.5025   1.5188 LP             1 S1                 0.0000
     46 ****         2.9731  -0.3597  -1.7487 LP             1 S1                 0.0000
     47 ****         2.8470  -1.9248  -2.1972 LP             1 S1                 0.0000
     48 ****        -0.9036  -0.4705   2.6272 LP             1 S1                 0.0000
     49 ****        -1.7710   0.8552   1.9271 LP             1 S1                 0.0000
     50 ****        -2.5252  -0.5126  -2.6647 LP             1 S1                 0.0000
     51 ****        -3.2669   0.5647  -3.8001 LP             1 S1                 0.0000
@<TRIPOS>BOND
    1    1    2 1     
    2    1   26 1     
    3    1   27 1     
    4    1   28 1     
    5    2    3 1     
    6    2   11 1     
    7    2   29 1     
    8    3    4 1     
    9    4    5 1     
   10    4   30 1     
   11    4   31 1     
   12    5   10 1     
   13    5    6 1     
   14    5   32 1     
   15    6    7 1     
   16    6   33 1     
   17    6   34 1     
   18    7    8 1     
   19    7   35 1     
   20    7   36 1     
   21    8    9 1     
   22    8   37 1     
   23    8   38 1     
   24    9   10 1     
   25    9   39 1     
   26    9   40 1     
   27   11   12 2     
   28   11   13 am    
   29   13   14 1     
   30   13   41 1     
   31   14   23 1     
   32   14   15 2     
   33   15   16 1     
   34   15   42 1     
   35   16   17 1     
   36   16   21 2     
   37   17   18 1     
   38   17   19 1     
   39   17   20 1     
   40   21   22 1     
   41   21   43 1     
   42   22   25 1     
   43   22   23 am    
   44   23   24 2     
   45    3   44 1     
   46    3   45 1     
   47   10   46 1     
   48   10   47 1     
   49   12   48 1     
   50   12   49 1     
   51   24   50 1     
   52   24   51 1     
@<TRIPOS>SUBSTRUCTURE
      1 S1             1
@<TRIPOS>SET
LONE_PAIRS      STATIC     ATOMS    <user>   **** ""
8 44 45 46 47 48 49 50 51
DONOR_HYDROGENS      STATIC     ATOMS    <user>   **** ""
2 41 25
ATOM$BLUE        STATIC     ATOMS    COLORGROUP SYSTEM
8 44 45 46 47 48 49 50 51
ATOM$RED        STATIC     ATOMS    COLORGROUP SYSTEM
2 41 25
