#       Name:                AV-unprocessed.smi:2189
#       Creating user name   scv26
#       Creation time:       Fri Mar 27 12:08:35 2020


#       File generated by GOLD software.
#

@<TRIPOS>MOLECULE
AV-unprocessed.smi:2189
    43    45     1
SMALL
NO_CHARGES


@<TRIPOS>ATOM
      1 ****         1.2200   1.0901   0.0747 O.2            1 S1                 0.0000
      2 ****         0.7739   0.0733   0.6090 C.2            1 S1                 0.0000
      3 ****         1.5903  -0.8659   1.1252 N.am           1 S1                 0.0000
      4 ****         3.0510  -0.8381   1.1093 C.3            1 S1                 0.0000
      5 ****         3.6390  -1.6464  -0.0634 C.3            1 S1                 0.0000
      6 ****         3.2568  -1.1050  -1.4305 C.ar           1 S1                 0.0000
      7 ****         2.2322  -1.7124  -2.1885 C.ar           1 S1                 0.0000
      8 ****         1.9018  -1.1535  -3.4381 C.ar           1 S1                 0.0000
      9 ****         2.6069  -0.0181  -3.8814 C.ar           1 S1                 0.0000
     10 ****         3.6150   0.5111  -3.0510 C.ar           1 S1                 0.0000
     11 ****         3.9394  -0.0163  -1.8510 N.ar           1 S1                 0.0000
     12 ****        -0.6575  -0.2503   0.7469 C.2            1 S1                 0.0000
     13 ****        -1.0502  -1.5500   0.6752 C.2            1 S1                 0.0000
     14 ****        -2.4322  -1.9349   0.8209 C.2            1 S1                 0.0000
     15 ****        -3.3394  -0.9675   0.9917 C.2            1 S1                 0.0000
     16 ****        -3.0127   0.3869   1.0330 N.pl3          1 S1                 0.0000
     17 ****        -4.1210   1.3327   1.1094 C.3            1 S1                 0.0000
     18 ****        -3.7838   2.4675   2.0590 C.3            1 S1                 0.0000
     19 ****        -2.3566   3.3349   1.3146 S.o2           1 S1                 0.0000
     20 ****        -2.7647   3.8323  -0.0086 O.2            1 S1                 0.0000
     21 ****        -1.8272   4.2798   2.3095 O.2            1 S1                 0.0000
     22 ****        -1.2916   2.0569   1.1186 N.2            1 S1                 0.0000
     23 ****        -1.6570   0.8154   0.9659 C.2            1 S1                 0.0000
     24 ****         1.1604  -1.6712   1.5564 H              1 S1                 0.0000
     25 ****         3.4222   0.1879   1.0880 H              1 S1                 0.0000
     26 ****         3.3989  -1.2649   2.0500 H              1 S1                 0.0000
     27 ****         4.7270  -1.6588   0.0145 H              1 S1                 0.0000
     28 ****         3.3221  -2.6875   0.0109 H              1 S1                 0.0000
     29 ****         1.7036  -2.5782  -1.8175 H              1 S1                 0.0000
     30 ****         1.1204  -1.5868  -4.0446 H              1 S1                 0.0000
     31 ****         2.3807   0.4376  -4.8339 H              1 S1                 0.0000
     32 ****         4.1763   1.3809  -3.3591 H              1 S1                 0.0000
     33 ****        -0.3373  -2.3426   0.4972 H              1 S1                 0.0000
     34 ****        -2.7256  -2.9741   0.7958 H              1 S1                 0.0000
     35 ****        -4.3897  -1.1932   1.1077 H              1 S1                 0.0000
     36 ****        -4.3411   1.7119   0.1110 H              1 S1                 0.0000
     37 ****        -5.0269   0.8383   1.4615 H              1 S1                 0.0000
     38 ****        -4.6093   3.1721   2.1581 H              1 S1                 0.0000
     39 ****        -3.5129   2.1072   3.0520 H              1 S1                 0.0000
     40 ****         2.2081   1.2322   0.0171 LP             1 S1                 0.0000
     41 ****         0.5938   1.7731  -0.3013 LP             1 S1                 0.0000
     42 ****         4.6628   0.3863  -1.2901 LP             1 S1                 0.0000
     43 ****        -0.3124   2.2597   1.1188 LP             1 S1                 0.0000
@<TRIPOS>BOND
    1    1    2 2     
    2    2    3 am    
    3    2   12 1     
    4    3    4 1     
    5    3   24 1     
    6    4    5 1     
    7    4   25 1     
    8    4   26 1     
    9    5    6 1     
   10    5   27 1     
   11    5   28 1     
   12    6   11 ar    
   13    6    7 ar    
   14    7    8 ar    
   15    7   29 1     
   16    8    9 ar    
   17    8   30 1     
   18    9   10 ar    
   19    9   31 1     
   20   10   11 ar    
   21   10   32 1     
   22   12   23 1     
   23   12   13 2     
   24   13   14 1     
   25   13   33 1     
   26   14   15 2     
   27   14   34 1     
   28   15   16 1     
   29   15   35 1     
   30   16   23 1     
   31   16   17 1     
   32   17   18 1     
   33   17   36 1     
   34   17   37 1     
   35   18   19 1     
   36   18   38 1     
   37   18   39 1     
   38   19   20 2     
   39   19   21 2     
   40   19   22 1     
   41   22   23 2     
   42    1   40 1     
   43    1   41 1     
   44   11   42 1     
   45   22   43 1     
@<TRIPOS>SUBSTRUCTURE
      1 S1             1
@<TRIPOS>SET
LONE_PAIRS      STATIC     ATOMS    <user>   **** ""
6 40 41 42 20 21 43
DONOR_HYDROGENS      STATIC     ATOMS    <user>   **** ""
1 24
ATOM$BLUE        STATIC     ATOMS    COLORGROUP SYSTEM
6 40 41 42 20 21 43
ATOM$RED        STATIC     ATOMS    COLORGROUP SYSTEM
1 24
