#       Name:                AV-unprocessed.smi:1071
#       Creating user name   scv26
#       Creation time:       Fri Mar 27 03:19:26 2020


#       File generated by GOLD software.
#

@<TRIPOS>MOLECULE
AV-unprocessed.smi:1071
    54    55     1
SMALL
NO_CHARGES


@<TRIPOS>ATOM
      1 ****        -8.8936  -1.5482   0.2460 C.3            1 S1                 0.0000
      2 ****        -7.5589  -1.0733   0.2601 O.3            1 S1                 0.0000
      3 ****        -7.0586  -0.8226  -1.0427 C.3            1 S1                 0.0000
      4 ****        -5.6141  -0.3235  -0.9407 C.3            1 S1                 0.0000
      5 ****        -4.7687  -1.4233  -0.6165 O.3            1 S1                 0.0000
      6 ****        -3.4136  -1.1974  -0.4876 C.ar           1 S1                 0.0000
      7 ****        -2.5781  -2.2836  -0.1605 C.ar           1 S1                 0.0000
      8 ****        -1.1946  -2.0601  -0.0296 C.ar           1 S1                 0.0000
      9 ****        -0.6851  -0.7631  -0.2393 C.ar           1 S1                 0.0000
     10 ****         0.7119  -0.5582  -0.0812 N.am           1 S1                 0.0000
     11 ****         1.4785   0.4238  -0.5963 C.2            1 S1                 0.0000
     12 ****         1.0613   1.2263  -1.4317 O.2            1 S1                 0.0000
     13 ****         2.7820   0.3727  -0.2112 N.am           1 S1                 0.0000
     14 ****         3.2669  -0.2998   1.0126 C.3            1 S1                 0.0000
     15 ****         4.0052   0.6841   1.9338 C.3            1 S1                 0.0000
     16 ****         5.0991   1.3705   1.2119 N.4            1 S1                 1.0000
     17 ****         5.8896   2.2588   2.0908 C.3            1 S1                 0.0000
     18 ****         4.6152   2.0618  -0.0046 C.3            1 S1                 0.0000
     19 ****         3.8312   1.1175  -0.9406 C.3            1 S1                 0.0000
     20 ****         4.7339   0.1596  -1.7379 C.3            1 S1                 0.0000
     21 ****        -1.6075   0.2654  -0.5509 C.ar           1 S1                 0.0000
     22 ****        -2.9354   0.0576  -0.6756 N.ar           1 S1                 0.0000
     23 ****        -9.2329  -1.7202   1.2673 H              1 S1                 0.0000
     24 ****        -8.9699  -2.4908  -0.2972 H              1 S1                 0.0000
     25 ****        -9.5660  -0.8229  -0.2144 H              1 S1                 0.0000
     26 ****        -7.1098  -1.7194  -1.6624 H              1 S1                 0.0000
     27 ****        -7.6735  -0.0586  -1.5207 H              1 S1                 0.0000
     28 ****        -5.3131   0.0936  -1.9030 H              1 S1                 0.0000
     29 ****        -5.5407   0.4684  -0.1933 H              1 S1                 0.0000
     30 ****        -2.9913  -3.2702  -0.0112 H              1 S1                 0.0000
     31 ****        -0.5356  -2.8778   0.2236 H              1 S1                 0.0000
     32 ****         1.1931  -1.2556   0.4675 H              1 S1                 0.0000
     33 ****         2.4768  -0.7674   1.6003 H              1 S1                 0.0000
     34 ****         3.9342  -1.1124   0.7247 H              1 S1                 0.0000
     35 ****         3.3059   1.4246   2.3261 H              1 S1                 0.0000
     36 ****         4.4138   0.1471   2.7907 H              1 S1                 0.0000
     37 ****         5.2763   3.0731   2.4791 H              1 S1                 0.0000
     38 ****         6.7288   2.6918   1.5453 H              1 S1                 0.0000
     39 ****         6.2951   1.7023   2.9364 H              1 S1                 0.0000
     40 ****         3.9688   2.8878   0.2975 H              1 S1                 0.0000
     41 ****         5.4567   2.5053  -0.5386 H              1 S1                 0.0000
     42 ****         3.3856   1.7708  -1.6917 H              1 S1                 0.0000
     43 ****         5.4468   0.7145  -2.3486 H              1 S1                 0.0000
     44 ****         4.1453  -0.4659  -2.4099 H              1 S1                 0.0000
     45 ****         5.3068  -0.4994  -1.0856 H              1 S1                 0.0000
     46 ****        -1.2950   1.2894  -0.6848 H              1 S1                 0.0000
     47 ****         5.7283   0.6468   0.8947 H              1 S1                 0.0000
     48 ****        -6.9790  -1.7591   0.7000 LP             1 S1                 0.0000
     49 ****        -7.5265  -0.2230   0.7853 LP             1 S1                 0.0000
     50 ****        -4.8866  -2.1081  -1.3357 LP             1 S1                 0.0000
     51 ****        -5.0899  -1.7957   0.2542 LP             1 S1                 0.0000
     52 ****         0.1172   1.1653  -1.7557 LP             1 S1                 0.0000
     53 ****         1.6665   1.9391  -1.7862 LP             1 S1                 0.0000
     54 ****        -3.5523   0.8116  -0.9014 LP             1 S1                 0.0000
@<TRIPOS>BOND
    1    1    2 1     
    2    1   23 1     
    3    1   24 1     
    4    1   25 1     
    5    2    3 1     
    6    3    4 1     
    7    3   26 1     
    8    3   27 1     
    9    4    5 1     
   10    4   28 1     
   11    4   29 1     
   12    5    6 1     
   13    6   22 ar    
   14    6    7 ar    
   15    7    8 ar    
   16    7   30 1     
   17    8    9 ar    
   18    8   31 1     
   19    9   10 1     
   20    9   21 ar    
   21   10   11 am    
   22   10   32 1     
   23   11   12 2     
   24   11   13 am    
   25   13   19 1     
   26   13   14 1     
   27   14   15 1     
   28   14   33 1     
   29   14   34 1     
   30   15   16 1     
   31   15   35 1     
   32   15   36 1     
   33   16   17 1     
   34   16   18 1     
   35   16   47 1     
   36   17   37 1     
   37   17   38 1     
   38   17   39 1     
   39   18   19 1     
   40   18   40 1     
   41   18   41 1     
   42   19   20 1     
   43   19   42 1     
   44   20   43 1     
   45   20   44 1     
   46   20   45 1     
   47   21   22 ar    
   48   21   46 1     
   49    2   48 1     
   50    2   49 1     
   51    5   50 1     
   52    5   51 1     
   53   12   52 1     
   54   12   53 1     
   55   22   54 1     
@<TRIPOS>SUBSTRUCTURE
      1 S1             1
@<TRIPOS>SET
LONE_PAIRS      STATIC     ATOMS    <user>   **** ""
7 48 49 50 51 52 53 54
DONOR_HYDROGENS      STATIC     ATOMS    <user>   **** ""
2 32 47
ATOM$BLUE        STATIC     ATOMS    COLORGROUP SYSTEM
7 48 49 50 51 52 53 54
ATOM$RED        STATIC     ATOMS    COLORGROUP SYSTEM
2 32 47
