AV-unprocessed.smi:2074|AV-procd|sdf|8455|dock3
  -GOLD-   2272011153D 1   1.00000     0.00000
 Structure written by MMmdl.
 44 45  0  0  0  0  0  0  0  0  2 V2000
  153.9475  140.5281  160.7604 C   0  0  0  0  0  0  0  0  0  0  0  0
  153.2680  141.8519  160.9639 C   0  0  0  0  0  0  0  0  0  0  0  0
  153.2666  142.4055  162.1646 N   0  0  0  0  0  0  0  0  0  0  0  0
  152.5706  143.6106  162.0304 O   0  0  0  0  0  0  0  0  0  0  0  0
  152.1787  143.7384  160.7372 C   0  0  0  0  0  0  0  0  0  0  0  0
  151.4159  144.9720  160.3892 C   0  0  0  0  0  0  0  0  0  0  0  0
  152.5893  142.6581  160.0049 C   0  0  0  0  0  0  0  0  0  0  0  0
  152.3784  142.3824  158.5382 C   0  0  0  0  0  0  0  0  0  0  0  0
  150.9167  142.0106  158.2902 C   0  0  0  0  0  0  0  0  0  0  0  0
  150.0459  142.3829  159.0761 O   0  0  0  0  0  0  0  0  0  0  0  0
  150.6623  141.2761  157.1953 N   0  0  0  0  0  0  0  0  0  0  0  0
  149.3375  140.8555  156.7447 C   0  0  0  0  0  0  0  0  0  0  0  0
  148.9538  141.4136  155.3447 C   0  0  1  0  0  0  0  0  0  0  0  0
  148.8750  140.2702  154.3037 C   0  0  0  0  0  0  0  0  0  0  0  0
  147.6799  142.2098  155.3722 N   0  3  0  0  0  0  0  0  0  0  0  0
  147.0739  142.4499  154.0314 C   0  0  0  0  0  0  0  0  0  0  0  0
  145.7751  143.2679  154.1324 C   0  0  0  0  0  0  0  0  0  0  0  0
  144.8565  142.6099  154.9895 O   0  0  0  0  0  0  0  0  0  0  0  0
  145.3737  142.4997  156.3056 C   0  0  0  0  0  0  0  0  0  0  0  0
  146.6503  141.6429  156.2890 C   0  0  0  0  0  0  0  0  0  0  0  0
  153.3476  139.8723  160.1295 H   0  0  0  0  0  0  0  0  0  0  0  0
  154.1141  140.0107  161.7063 H   0  0  0  0  0  0  0  0  0  0  0  0
  154.9160  140.6586  160.2777 H   0  0  0  0  0  0  0  0  0  0  0  0
  151.5976  145.2640  159.3549 H   0  0  0  0  0  0  0  0  0  0  0  0
  151.7078  145.8053  161.0286 H   0  0  0  0  0  0  0  0  0  0  0  0
  150.3449  144.8097  160.5115 H   0  0  0  0  0  0  0  0  0  0  0  0
  152.6408  143.2450  157.9246 H   0  0  0  0  0  0  0  0  0  0  0  0
  153.0143  141.5657  158.1947 H   0  0  0  0  0  0  0  0  0  0  0  0
  151.4451  141.0157  156.6129 H   0  0  0  0  0  0  0  0  0  0  0  0
  149.2440  139.7682  156.7568 H   0  0  0  0  0  0  0  0  0  0  0  0
  148.6601  141.2324  157.5097 H   0  0  0  0  0  0  0  0  0  0  0  0
  149.7533  142.0896  155.0368 H   0  0  0  0  0  0  0  0  0  0  0  0
  149.7841  139.6707  154.2856 H   0  0  0  0  0  0  0  0  0  0  0  0
  148.7621  140.6345  153.2844 H   0  0  0  0  0  0  0  0  0  0  0  0
  148.0436  139.5978  154.5176 H   0  0  0  0  0  0  0  0  0  0  0  0
  147.7508  143.0136  153.3916 H   0  0  0  0  0  0  0  0  0  0  0  0
  146.8777  141.4945  153.5423 H   0  0  0  0  0  0  0  0  0  0  0  0
  145.9766  144.2768  154.4967 H   0  0  0  0  0  0  0  0  0  0  0  0
  145.3219  143.3726  153.1465 H   0  0  0  0  0  0  0  0  0  0  0  0
  145.5718  143.4897  156.7202 H   0  0  0  0  0  0  0  0  0  0  0  0
  144.6196  142.0354  156.9415 H   0  0  0  0  0  0  0  0  0  0  0  0
  146.4093  140.6239  155.9824 H   0  0  0  0  0  0  0  0  0  0  0  0
  147.0163  141.5923  157.3121 H   0  0  0  0  0  0  0  0  0  0  0  0
  147.9208  143.1205  155.7373 H   0  0  0  0  0  0  0  0  0  0  0  0
  1  2  1  0  0  0  0
  1 21  1  0  0  0  0
  1 22  1  0  0  0  0
  1 23  1  0  0  0  0
  2  7  1  0  0  0  0
  2  3  2  0  0  0  0
  3  4  1  0  0  0  0
  4  5  1  0  0  0  0
  5  6  1  0  0  0  0
  5  7  2  0  0  0  0
  6 24  1  0  0  0  0
  6 25  1  0  0  0  0
  6 26  1  0  0  0  0
  7  8  1  0  0  0  0
  8  9  1  0  0  0  0
  8 27  1  0  0  0  0
  8 28  1  0  0  0  0
  9 10  2  0  0  0  0
  9 11  1  0  0  0  0
 11 12  1  0  0  0  0
 11 29  1  0  0  0  0
 12 13  1  0  0  0  0
 12 30  1  0  0  0  0
 12 31  1  0  0  0  0
 13 14  1  0  0  0  0
 13 15  1  0  0  0  0
 13 32  1  0  0  0  0
 14 33  1  0  0  0  0
 14 34  1  0  0  0  0
 14 35  1  0  0  0  0
 15 20  1  0  0  0  0
 15 16  1  0  0  0  0
 15 44  1  0  0  0  0
 16 17  1  0  0  0  0
 16 36  1  0  0  0  0
 16 37  1  0  0  0  0
 17 18  1  0  0  0  0
 17 38  1  0  0  0  0
 17 39  1  0  0  0  0
 18 19  1  0  0  0  0
 19 20  1  0  0  0  0
 19 40  1  0  0  0  0
 19 41  1  0  0  0  0
 20 42  1  0  0  0  0
 20 43  1  0  0  0  0
M  CHG  1  15   1
M  END
> <s_m_source_file>
AV-unprocessed.smi

> <i_m_source_file_index>
2074

> <i_lp_mmshare_version>
43012

> <i_f3d_flags>
0

> <s_epik_input>
W0NIM11jMW5vYyhbQ0gzXSljMVtDSDJdQyg9TylbTkhdW0NIMl1bQ0BIXShbQ0gzXSlOMltDSDJdW0NIMl1PW0NIMl1bQ0gyXTI=

> <s_epik_cmdline>
J2VwaWtfcHl0aG9uJywgJy1waCcsICc3LjAnLCAnLXRuJywgJzgnLCAnLW1hJywgJzIwMCcsICctbWV0YWxfYmluZGluZycsICctaW1hZScsICc8aW5maWxlLm1hZT4nLCAnLW9tYWUnLCAnPG91dGZpbGUubWFlPic=

> <r_epik_Ionization_Penalty>
0.663207

> <r_epik_Ionization_Penalty_Charging>
0.663207

> <r_epik_Ionization_Penalty_Neutral>
1.0751e-07

> <r_epik_State_Penalty>
0.682743

> <r_epik_Charging_Adjusted_Penalty>
1.34595

> <i_epik_Tot_Q>
1

> <i_epik_Tot_abs_Q>
1

> <r_epik_Metal_State_Penalty>
0.682743

> <b_epik_Metal_Only>
0

> <s_lp_Force_Field>
OPLS_2005

> <r_lp_Energy>
15.6967

> <b_lp_Chiralities_Consistent>
1

> <s_lp_Variant>
AV-unprocessed.smi:2074-4

> <Gold.Version>
5.8.1

> <Gold.Id.Protein>
6NUR|6NUR_protein|mol2

> <Gold.PLP.Fitness>
44.9489

> <Gold.PLP.PLP>
-42.1720

> <Gold.PLP.part.hbond>
-1.8300

> <Gold.PLP.part.metal>
0.0000

> <Gold.PLP.part.buried>
-7.0771

> <Gold.PLP.part.nonpolar>
-33.3024

> <Gold.PLP.part.repulsive>
0.6781

> <Gold.PLP.ligand.clash>
0.0000

> <Gold.PLP.ligand.torsion>
1.6448

> <Gold.PLP.Chemscore.Hbond>
2.0000

> <Gold.PLP.Chemscore.CHOScore>
0.0000

> <Gold.PLP.Chemscore.Metal>
0.0000

> <Gold.Chemscore.Hbonds>
donor molecule, donor type, donor heavy atom, donor atom, acceptor molecule, acceptor atom, score
      L1  H    15    44       P1  8028  2.00

> <Gold.PLP.Chemscore.Internal.Correction>
0.0665

> <Gold.Rescore>
     Score         DG    S(hbond)    S(metal)    S(lipo)     H(rot)  DE(clash)    DE(int)     intcor
     13.70     -15.77       0.85        0.00     102.92       1.80       0.51       1.56       ----

> <Gold.Chemscore.Fitness>
13.7021

> <Gold.Chemscore.DG>
-15.7725

> <Gold.Chemscore.ZeroCoef>
-5.4800

> <Gold.Chemscore.Hbond>
0.8531

> <Gold.Chemscore.Metal>
0.0000

> <Gold.Chemscore.Lipo>
102.9152

> <Gold.Chemscore.Internal_Hbond>
0.0000

> <Gold.Chemscore.DEClash>
0.5148

> <Gold.Chemscore.DEInternal>
1.5557

> <Gold.Chemscore.Rot>
1.7961

> <Gold.Chemscore.Internal.Correction>
   9.000000E+99

> <Gold.Chemscore.Hbonds>
donor molecule, donor type, donor heavy atom, donor atom, acceptor molecule, acceptor atom, score
      L1  H    15    44       P1  8028  0.53

> <Gold.Chemscore.Hbond.Weighted>
-2.8495

> <Gold.Chemscore.Metal.Weighted>
-0.0000

> <Gold.Chemscore.Lipo.Weighted>
-12.0411

> <Gold.Chemscore.Internal_Hbond.Weighted>
0.0000

> <Gold.Chemscore.DEClash.Weighted>
0.5148

> <Gold.Chemscore.DEInternal.Weighted>
1.5557

> <Gold.Chemscore.Rot.Weighted>
4.5980

> <Gold.Chemscore.Internal.Correction.Weighted>
   9.000000E+99

> <Gold.Protein.RotatedTorsions>
[ 6907 6896 6895 6894 ] final  -23.89 input  -60.11 | X-H torsion
[ 7974 7965 7964 7962 ] final -155.81 input  175.53 | X-H torsion
[ 8008 7997 7996 7995 ] final   19.40 input   59.86 | X-H torsion
[ 10167 10162 10161 10158 ] final  151.19 input  -65.29 | X-H torsion
[ 10718 10713 10712 10709 ] final  104.91 input   66.30 | X-H torsion
[ 10763 10752 10751 10750 ] final -156.09 input  -60.55 | X-H torsion
[ 11005 11000 10999 10996 ] final    9.12 input  -57.11 | X-H torsion

> <Gold.Protein.ActiveResidues>
 VAL166  LYS551  ARG553  GLY616  TRP617  ASP618  TYR619  PRO620  LYS621  CYS622 
 ASP623  PHE694  ASN695  SER759  ASP760  ASP761  ALA762  ILE779  LEU786  VAL792 
 PHE793  MET794  SER795  GLU796  ALA797  LYS798  CYS799  TRP800  GLU811  SER814 

> <Gold.Protein.RotatedAtoms>
  151.1975  135.0428  159.8858 H   0  0  0  0  0  0  0  0  0  0  0  0  # atno 6907 bound_to 6896
  152.5435  134.0887  159.8277 H   0  0  0  0  0  0  0  0  0  0  0  0  # atno 6908 bound_to 6896
  151.1023  133.5187  159.2641 H   0  0  0  0  0  0  0  0  0  0  0  0  # atno 6909 bound_to 6896
  144.7622  140.4198  143.5968 H   0  0  0  0  0  0  0  0  0  0  0  0  # atno 7974 bound_to 7965
  154.9203  140.3026  155.5220 H   0  0  0  0  0  0  0  0  0  0  0  0  # atno 8008 bound_to 7997
  156.3010  140.2373  156.4188 H   0  0  0  0  0  0  0  0  0  0  0  0  # atno 8009 bound_to 7997
  154.8338  140.0417  157.1483 H   0  0  0  0  0  0  0  0  0  0  0  0  # atno 8010 bound_to 7997
  139.4843  144.5461  151.7482 H   0  0  0  0  0  0  0  0  0  0  0  0  # atno 10167 bound_to 10162
  157.6724  131.0815  150.5778 H   0  0  0  0  0  0  0  0  0  0  0  0  # atno 10718 bound_to 10713
  154.7739  135.3153  154.8133 H   0  0  0  0  0  0  0  0  0  0  0  0  # atno 10763 bound_to 10752
  153.8861  135.6830  153.4768 H   0  0  0  0  0  0  0  0  0  0  0  0  # atno 10764 bound_to 10752
  153.1358  135.4760  154.9356 H   0  0  0  0  0  0  0  0  0  0  0  0  # atno 10765 bound_to 10752
  140.5293  134.0482  155.7868 H   0  0  0  0  0  0  0  0  0  0  0  0  # atno 11005 bound_to 11000
  145.6581  139.1576  143.2823 LP  0  0  0  0  0  0  0  0  0  0  0  0  # atno 17320 bound_to 7965
  146.1697  140.6664  142.9239 LP  0  0  0  0  0  0  0  0  0  0  0  0  # atno 17321 bound_to 7965
  140.5008  144.1172  150.5970 LP  0  0  0  0  0  0  0  0  0  0  0  0  # atno 17342 bound_to 10162
  140.4065  143.2678  151.9885 LP  0  0  0  0  0  0  0  0  0  0  0  0  # atno 17343 bound_to 10162
  156.6079  130.4372  149.5871 LP  0  0  0  0  0  0  0  0  0  0  0  0  # atno 17370 bound_to 10713
  156.2454  130.6876  151.1595 LP  0  0  0  0  0  0  0  0  0  0  0  0  # atno 17371 bound_to 10713
  141.1290  133.9333  157.2574 LP  0  0  0  0  0  0  0  0  0  0  0  0  # atno 17394 bound_to 11000
  139.9563  135.0165  156.9137 LP  0  0  0  0  0  0  0  0  0  0  0  0  # atno 17395 bound_to 11000

$$$$
