AV-unprocessed.smi:1778|AV-procd|sdf|7179|dock5
  -GOLD-   22720 8413D 1   1.00000     0.00000
 Structure written by MMmdl.
 34 35  0  0  0  0  0  0  0  0  1 V2000
  144.4090  134.5459  150.0173 C   0  0  0  0  0  0  0  0  0  0  0  0
  144.6893  133.1005  150.3147 C   0  0  0  0  0  0  0  0  0  0  0  0
  143.7555  132.1981  150.0655 N   0  0  0  0  0  0  0  0  0  0  0  0
  144.3064  130.9650  150.4266 O   0  0  0  0  0  0  0  0  0  0  0  0
  145.5671  131.1758  150.8828 C   0  0  0  0  0  0  0  0  0  0  0  0
  146.3365  129.9731  151.3139 C   0  0  0  0  0  0  0  0  0  0  0  0
  145.8748  132.5077  150.8399 C   0  0  0  0  0  0  0  0  0  0  0  0
  147.1612  133.1821  151.2433 C   0  0  0  0  0  0  0  0  0  0  0  0
  147.3521  133.0644  152.7551 C   0  0  0  0  0  0  0  0  0  0  0  0
  146.6055  132.3438  153.4168 O   0  0  0  0  0  0  0  0  0  0  0  0
  148.3581  133.7756  153.2865 N   0  0  0  0  0  0  0  0  0  0  0  0
  148.7257  133.7864  154.6978 C   0  0  2  0  0  0  0  0  0  0  0  0
  148.3294  135.1059  155.3907 C   0  0  0  0  0  0  0  0  0  0  0  0
  149.0704  135.1989  156.7301 C   0  0  0  0  0  0  0  0  0  0  0  0
  150.6572  134.3106  156.4976 S   0  0  0  0  0  0  0  0  0  0  0  0
  151.7482  135.2830  156.3334 O   0  0  0  0  0  0  0  0  0  0  0  0
  150.7485  133.2305  157.4915 O   0  0  0  0  0  0  0  0  0  0  0  0
  150.2403  133.5998  154.8612 C   0  0  0  0  0  0  0  0  0  0  0  0
  144.5307  134.7542  148.9542 H   0  0  0  0  0  0  0  0  0  0  0  0
  145.0845  135.2042  150.5628 H   0  0  0  0  0  0  0  0  0  0  0  0
  143.3906  134.8179  150.2963 H   0  0  0  0  0  0  0  0  0  0  0  0
  147.2231  129.8420  150.6932 H   0  0  0  0  0  0  0  0  0  0  0  0
  145.7322  129.0692  151.2360 H   0  0  0  0  0  0  0  0  0  0  0  0
  146.6613  130.0735  152.3495 H   0  0  0  0  0  0  0  0  0  0  0  0
  148.0222  132.7446  150.7373 H   0  0  0  0  0  0  0  0  0  0  0  0
  147.1575  134.2376  150.9681 H   0  0  0  0  0  0  0  0  0  0  0  0
  148.9185  134.3391  152.6640 H   0  0  0  0  0  0  0  0  0  0  0  0
  148.2283  132.9620  155.2127 H   0  0  0  0  0  0  0  0  0  0  0  0
  148.6352  135.9458  154.7649 H   0  0  0  0  0  0  0  0  0  0  0  0
  147.2503  135.1868  155.5260 H   0  0  0  0  0  0  0  0  0  0  0  0
  149.2544  136.2264  157.0447 H   0  0  0  0  0  0  0  0  0  0  0  0
  148.5125  134.6886  157.5158 H   0  0  0  0  0  0  0  0  0  0  0  0
  150.5491  132.5552  154.8149 H   0  0  0  0  0  0  0  0  0  0  0  0
  150.7938  134.1604  154.1070 H   0  0  0  0  0  0  0  0  0  0  0  0
  1  2  1  0  0  0  0
  1 19  1  0  0  0  0
  1 20  1  0  0  0  0
  1 21  1  0  0  0  0
  2  7  1  0  0  0  0
  2  3  2  0  0  0  0
  3  4  1  0  0  0  0
  4  5  1  0  0  0  0
  5  6  1  0  0  0  0
  5  7  2  0  0  0  0
  6 22  1  0  0  0  0
  6 23  1  0  0  0  0
  6 24  1  0  0  0  0
  7  8  1  0  0  0  0
  8  9  1  0  0  0  0
  8 25  1  0  0  0  0
  8 26  1  0  0  0  0
  9 10  2  0  0  0  0
  9 11  1  0  0  0  0
 11 12  1  0  0  0  0
 11 27  1  0  0  0  0
 12 18  1  0  0  0  0
 12 13  1  0  0  0  0
 12 28  1  0  0  0  0
 13 14  1  0  0  0  0
 13 29  1  0  0  0  0
 13 30  1  0  0  0  0
 14 15  1  0  0  0  0
 14 31  1  0  0  0  0
 14 32  1  0  0  0  0
 15 16  2  0  0  0  0
 15 17  2  0  0  0  0
 15 18  1  0  0  0  0
 18 33  1  0  0  0  0
 18 34  1  0  0  0  0
M  END
> <s_m_source_file>
AV-unprocessed.smi

> <i_m_source_file_index>
1778

> <i_lp_mmshare_version>
43012

> <i_f3d_flags>
0

> <s_epik_input>
W0NIM11jMW5vYyhbQ0gzXSljMVtDSDJdQyg9TylbTkhdW0NAQEhdKFtDSDJdMilbQ0gyXVtDSDJdUzIoPU8pPU8=

> <s_epik_cmdline>
J2VwaWtfcHl0aG9uJywgJy1waCcsICc3LjAnLCAnLXRuJywgJzgnLCAnLW1hJywgJzIwMCcsICctbWV0YWxfYmluZGluZycsICctaW1hZScsICc8aW5maWxlLm1hZT4nLCAnLW9tYWUnLCAnPG91dGZpbGUubWFlPic=

> <r_lp_tautomer_probability>
1

> <r_epik_Ionization_Penalty>
1.26334e-07

> <r_epik_Ionization_Penalty_Charging>
0

> <r_epik_Ionization_Penalty_Neutral>
1.26334e-07

> <r_epik_State_Penalty>
-0

> <r_epik_Charging_Adjusted_Penalty>
0

> <i_epik_Tot_Q>
0

> <i_epik_Tot_abs_Q>
0

> <r_epik_Metal_State_Penalty>
-0

> <b_epik_Metal_Only>
0

> <s_lp_Force_Field>
OPLS_2005

> <r_lp_Energy>
-2.84912

> <b_lp_Chiralities_Consistent>
1

> <s_lp_Variant>
AV-unprocessed.smi:1778-1

> <Gold.Version>
5.8.1

> <Gold.Id.Protein>
6NUR|6NUR_protein|mol2

> <Gold.PLP.Fitness>
34.4078

> <Gold.PLP.PLP>
-27.1389

> <Gold.PLP.part.hbond>
-3.8835

> <Gold.PLP.part.metal>
0.0000

> <Gold.PLP.part.buried>
-4.0223

> <Gold.PLP.part.nonpolar>
-20.1333

> <Gold.PLP.part.repulsive>
0.8548

> <Gold.PLP.ligand.clash>
0.0000

> <Gold.PLP.ligand.torsion>
0.2660

> <Gold.PLP.Chemscore.Hbond>
2.5995

> <Gold.PLP.Chemscore.CHOScore>
0.0000

> <Gold.PLP.Chemscore.Metal>
0.0000

> <Gold.Chemscore.Hbonds>
donor molecule, donor type, donor heavy atom, donor atom, acceptor molecule, acceptor atom, score
      L1  H    11    27       P1  7948  0.21
      P1  H  6896  6909       L1    17  0.91
      P1  H 10752 10763       L1    16  1.00
      P1  H 10785 10796       L1     4  0.11

> <Gold.PLP.Chemscore.Internal.Correction>
0.0023

> <Gold.Rescore>
     Score         DG    S(hbond)    S(metal)    S(lipo)     H(rot)  DE(clash)    DE(int)     intcor
     16.02     -16.81       2.20        0.00      67.07       1.51       0.38       0.42       ----

> <Gold.Chemscore.Fitness>
16.0153

> <Gold.Chemscore.DG>
-16.8126

> <Gold.Chemscore.ZeroCoef>
-5.4800

> <Gold.Chemscore.Hbond>
2.1973

> <Gold.Chemscore.Metal>
0.0000

> <Gold.Chemscore.Lipo>
67.0665

> <Gold.Chemscore.Internal_Hbond>
0.0000

> <Gold.Chemscore.DEClash>
0.3770

> <Gold.Chemscore.DEInternal>
0.4203

> <Gold.Chemscore.Rot>
1.5051

> <Gold.Chemscore.Internal.Correction>
   9.000000E+99

> <Gold.Chemscore.Hbonds>
donor molecule, donor type, donor heavy atom, donor atom, acceptor molecule, acceptor atom, score
      P1  H  6896  6909       L1    17  0.88
      P1  H 10752 10763       L1    16  0.99

> <Gold.Chemscore.Hbond.Weighted>
-7.3390

> <Gold.Chemscore.Metal.Weighted>
-0.0000

> <Gold.Chemscore.Lipo.Weighted>
-7.8468

> <Gold.Chemscore.Internal_Hbond.Weighted>
0.0000

> <Gold.Chemscore.DEClash.Weighted>
0.3770

> <Gold.Chemscore.DEInternal.Weighted>
0.4203

> <Gold.Chemscore.Rot.Weighted>
3.8531

> <Gold.Chemscore.Internal.Correction.Weighted>
   9.000000E+99

> <Gold.Protein.RotatedTorsions>
[ 6907 6896 6895 6894 ] final  -13.39 input  -60.11 | X-H torsion
[ 7974 7965 7964 7962 ] final   67.77 input  175.53 | X-H torsion
[ 8008 7997 7996 7995 ] final -132.75 input   59.86 | X-H torsion
[ 10167 10162 10161 10158 ] final  115.71 input  -65.29 | X-H torsion
[ 10718 10713 10712 10709 ] final  124.97 input   66.30 | X-H torsion
[ 10763 10752 10751 10750 ] final   96.48 input  -60.55 | X-H torsion
[ 11005 11000 10999 10996 ] final   51.98 input  -57.11 | X-H torsion

> <Gold.Protein.ActiveResidues>
 VAL166  LYS551  ARG553  GLY616  TRP617  ASP618  TYR619  PRO620  LYS621  CYS622 
 ASP623  PHE694  ASN695  SER759  ASP760  ASP761  ALA762  ILE779  LEU786  VAL792 
 PHE793  MET794  SER795  GLU796  ALA797  LYS798  CYS799  TRP800  GLU811  SER814 

> <Gold.Protein.RotatedAtoms>
  151.3557  135.0893  159.9417 H   0  0  0  0  0  0  0  0  0  0  0  0  # atno 6907 bound_to 6896
  152.5175  133.9308  159.7590 H   0  0  0  0  0  0  0  0  0  0  0  0  # atno 6908 bound_to 6896
  150.9692  133.6307  159.2770 H   0  0  0  0  0  0  0  0  0  0  0  0  # atno 6909 bound_to 6896
  145.8106  139.3030  143.1101 H   0  0  0  0  0  0  0  0  0  0  0  0  # atno 7974 bound_to 7965
  155.3341  140.0468  157.3043 H   0  0  0  0  0  0  0  0  0  0  0  0  # atno 8008 bound_to 7997
  154.5312  140.2257  155.8766 H   0  0  0  0  0  0  0  0  0  0  0  0  # atno 8009 bound_to 7997
  156.1790  140.3078  155.9120 H   0  0  0  0  0  0  0  0  0  0  0  0  # atno 8010 bound_to 7997
  139.6298  144.7113  151.2457 H   0  0  0  0  0  0  0  0  0  0  0  0  # atno 10167 bound_to 10162
  157.5542  131.1093  150.8651 H   0  0  0  0  0  0  0  0  0  0  0  0  # atno 10718 bound_to 10713
  153.2655  135.4217  155.0936 H   0  0  0  0  0  0  0  0  0  0  0  0  # atno 10763 bound_to 10752
  154.8436  135.3459  154.6318 H   0  0  0  0  0  0  0  0  0  0  0  0  # atno 10764 bound_to 10752
  153.6738  135.7042  153.5196 H   0  0  0  0  0  0  0  0  0  0  0  0  # atno 10765 bound_to 10752
  140.0887  134.5238  155.8873 H   0  0  0  0  0  0  0  0  0  0  0  0  # atno 11005 bound_to 11000
  145.9781  140.8705  143.0128 LP  0  0  0  0  0  0  0  0  0  0  0  0  # atno 17320 bound_to 7965
  144.6758  140.2041  143.7384 LP  0  0  0  0  0  0  0  0  0  0  0  0  # atno 17321 bound_to 7965
  140.7432  143.6502  150.8256 LP  0  0  0  0  0  0  0  0  0  0  0  0  # atno 17342 bound_to 10162
  140.0125  143.5628  152.2833 LP  0  0  0  0  0  0  0  0  0  0  0  0  # atno 17343 bound_to 10162
  156.9167  130.5300  149.5279 LP  0  0  0  0  0  0  0  0  0  0  0  0  # atno 17370 bound_to 10713
  156.0603  130.5657  150.9179 LP  0  0  0  0  0  0  0  0  0  0  0  0  # atno 17371 bound_to 10713
  141.2071  133.6661  156.6284 LP  0  0  0  0  0  0  0  0  0  0  0  0  # atno 17394 bound_to 11000
  140.3382  134.7871  157.4378 LP  0  0  0  0  0  0  0  0  0  0  0  0  # atno 17395 bound_to 11000

$$$$
