AV-unprocessed.smi:3195|AV-procd|sdf|12220|dock9
  -GOLD-   2272018 53D 1   1.00000     0.00000
 Structure written by MMmdl.
 29 30  0  0  0  0  0  0  0  0  2 V2000
  156.9018  138.1135  162.5090 C   0  0  0  0  0  0  0  0  0  0  0  0
  155.4038  138.3148  162.7956 C   0  0  2  0  0  0  0  0  0  0  0  0
  154.9872  139.7691  162.4844 C   0  0  0  0  0  0  0  0  0  0  0  0
  155.4409  140.6813  163.1773 O   0  0  0  0  0  0  0  0  0  0  0  0
  154.1440  139.9518  161.4498 N   0  0  0  0  0  0  0  0  0  0  0  0
  153.5896  141.1631  160.9513 C   0  0  0  0  0  0  0  0  0  0  0  0
  153.3073  142.2258  161.7467 N   0  0  0  0  0  0  0  0  0  0  0  0
  152.7828  143.3412  161.1992 C   0  0  0  0  0  0  0  0  0  0  0  0
  152.5065  143.4699  159.8269 C   0  0  0  0  0  0  0  0  0  0  0  0
  152.7928  142.3776  158.9897 C   0  0  0  0  0  0  0  0  0  0  0  0
  153.3401  141.2076  159.5540 C   0  0  0  0  0  0  0  0  0  0  0  0
  153.6161  140.1441  158.7378 O   0  5  0  0  0  0  0  0  0  0  0  0
  155.0282  137.9085  164.2408 C   0  0  0  0  0  0  0  0  0  0  0  0
  154.1093  136.7107  164.0750 C   0  0  0  0  0  0  0  0  0  0  0  0
  153.5531  136.9071  162.6742 C   0  0  0  0  0  0  0  0  0  0  0  0
  154.6779  137.4029  161.9641 O   0  0  0  0  0  0  0  0  0  0  0  0
  157.5209  138.7460  163.1463 H   0  0  0  0  0  0  0  0  0  0  0  0
  157.1417  138.3493  161.4714 H   0  0  0  0  0  0  0  0  0  0  0  0
  157.1970  137.0787  162.6855 H   0  0  0  0  0  0  0  0  0  0  0  0
  153.8533  139.1188  160.9576 H   0  0  0  0  0  0  0  0  0  0  0  0
  152.5777  144.1561  161.8772 H   0  0  0  0  0  0  0  0  0  0  0  0
  152.0866  144.3809  159.4276 H   0  0  0  0  0  0  0  0  0  0  0  0
  152.5943  142.4384  157.9296 H   0  0  0  0  0  0  0  0  0  0  0  0
  155.8978  137.6594  164.8502 H   0  0  0  0  0  0  0  0  0  0  0  0
  154.4931  138.7044  164.7620 H   0  0  0  0  0  0  0  0  0  0  0  0
  154.6909  135.7888  164.1146 H   0  0  0  0  0  0  0  0  0  0  0  0
  153.3329  136.6569  164.8385 H   0  0  0  0  0  0  0  0  0  0  0  0
  153.1738  135.9840  162.2361 H   0  0  0  0  0  0  0  0  0  0  0  0
  152.7519  137.6481  162.6694 H   0  0  0  0  0  0  0  0  0  0  0  0
  1  2  1  0  0  0  0
  1 17  1  0  0  0  0
  1 18  1  0  0  0  0
  1 19  1  0  0  0  0
  2 16  1  0  0  0  0
  2  3  1  0  0  0  0
  2 13  1  0  0  0  0
  3  4  2  0  0  0  0
  3  5  1  0  0  0  0
  5 20  1  0  0  0  0
  5  6  1  0  0  0  0
  6 11  2  0  0  0  0
  6  7  1  0  0  0  0
  7  8  2  0  0  0  0
  8 21  1  0  0  0  0
  8  9  1  0  0  0  0
  9 22  1  0  0  0  0
  9 10  2  0  0  0  0
 10 11  1  0  0  0  0
 10 23  1  0  0  0  0
 11 12  1  0  0  0  0
 13 14  1  0  0  0  0
 13 24  1  0  0  0  0
 13 25  1  0  0  0  0
 14 15  1  0  0  0  0
 14 26  1  0  0  0  0
 14 27  1  0  0  0  0
 15 16  1  0  0  0  0
 15 28  1  0  0  0  0
 15 29  1  0  0  0  0
M  CHG  1  12  -1
M  END
> <s_m_source_file>
AV-unprocessed.smi

> <i_m_source_file_index>
3195

> <i_lp_mmshare_version>
43012

> <i_f3d_flags>
0

> <s_epik_input>
TzFbQ0gyXVtDSDJdW0NIMl1bQ0BAXTEoW0NIM10pQyg9TylbTkhdYzJuW2NIXVtjSF1bY0hdYzJbT0hd

> <s_epik_cmdline>
J2VwaWtfcHl0aG9uJywgJy1waCcsICc3LjAnLCAnLXRuJywgJzgnLCAnLW1hJywgJzIwMCcsICctbWV0YWxfYmluZGluZycsICctaW1hZScsICc8aW5maWxlLm1hZT4nLCAnLW9tYWUnLCAnPG91dGZpbGUubWFlPic=

> <r_epik_Ionization_Penalty>
4.16712

> <r_epik_Ionization_Penalty_Charging>
2.09898

> <r_epik_Ionization_Penalty_Neutral>
2.06814

> <r_epik_State_Penalty>
2.6848

> <r_epik_Charging_Adjusted_Penalty>
4.78378

> <i_epik_Tot_Q>
-1

> <i_epik_Tot_abs_Q>
1

> <r_epik_Metal_State_Penalty>
0.595229

> <b_epik_Metal_Only>
0

> <s_lp_Force_Field>
OPLS_2005

> <r_lp_Energy>
19.5699

> <b_lp_Chiralities_Consistent>
1

> <s_lp_Variant>
AV-unprocessed.smi:3195-8

> <Gold.Version>
5.8.1

> <Gold.Id.Protein>
6NUR|6NUR_protein|mol2

> <Gold.PLP.Fitness>
39.3606

> <Gold.PLP.PLP>
-33.9537

> <Gold.PLP.part.hbond>
-2.0000

> <Gold.PLP.part.metal>
0.0000

> <Gold.PLP.part.buried>
-4.5567

> <Gold.PLP.part.nonpolar>
-26.7952

> <Gold.PLP.part.repulsive>
0.0428

> <Gold.PLP.ligand.clash>
0.0000

> <Gold.PLP.ligand.torsion>
0.2891

> <Gold.PLP.Chemscore.Hbond>
1.9840

> <Gold.PLP.Chemscore.CHOScore>
0.0000

> <Gold.PLP.Chemscore.Metal>
0.0000

> <Gold.Chemscore.Hbonds>
donor molecule, donor type, donor heavy atom, donor atom, acceptor molecule, acceptor atom, score
      P1  H  7997  8008       L1    12  1.92

> <Gold.PLP.Chemscore.Internal.Correction>
0.0332

> <Gold.Rescore>
     Score         DG    S(hbond)    S(metal)    S(lipo)     H(rot)  DE(clash)    DE(int)     intcor
     12.88     -14.70       0.82        0.00      77.32       1.00       0.49       1.33       ----

> <Gold.Chemscore.Fitness>
12.8756

> <Gold.Chemscore.DG>
-14.6953

> <Gold.Chemscore.ZeroCoef>
-5.4800

> <Gold.Chemscore.Hbond>
0.8169

> <Gold.Chemscore.Metal>
0.0000

> <Gold.Chemscore.Lipo>
77.3249

> <Gold.Chemscore.Internal_Hbond>
0.0000

> <Gold.Chemscore.DEClash>
0.4925

> <Gold.Chemscore.DEInternal>
1.3272

> <Gold.Chemscore.Rot>
1.0000

> <Gold.Chemscore.Internal.Correction>
   9.000000E+99

> <Gold.Chemscore.Hbonds>
donor molecule, donor type, donor heavy atom, donor atom, acceptor molecule, acceptor atom, score
      P1  H  7997  8008       L1    12  0.92

> <Gold.Chemscore.Hbond.Weighted>
-2.7283

> <Gold.Chemscore.Metal.Weighted>
-0.0000

> <Gold.Chemscore.Lipo.Weighted>
-9.0470

> <Gold.Chemscore.Internal_Hbond.Weighted>
0.0000

> <Gold.Chemscore.DEClash.Weighted>
0.4925

> <Gold.Chemscore.DEInternal.Weighted>
1.3272

> <Gold.Chemscore.Rot.Weighted>
2.5600

> <Gold.Chemscore.Internal.Correction.Weighted>
   9.000000E+99

> <Gold.Protein.RotatedTorsions>
[ 6907 6896 6895 6894 ] final -111.20 input  -60.11 | X-H torsion
[ 7974 7965 7964 7962 ] final  -37.11 input  175.53 | X-H torsion
[ 8008 7997 7996 7995 ] final -101.93 input   59.86 | X-H torsion
[ 10167 10162 10161 10158 ] final -155.16 input  -65.29 | X-H torsion
[ 10718 10713 10712 10709 ] final   11.13 input   66.30 | X-H torsion
[ 10763 10752 10751 10750 ] final -130.90 input  -60.55 | X-H torsion
[ 11005 11000 10999 10996 ] final  -21.57 input  -57.11 | X-H torsion

> <Gold.Protein.ActiveResidues>
 VAL166  LYS551  ARG553  GLY616  TRP617  ASP618  TYR619  PRO620  LYS621  CYS622 
 ASP623  PHE694  ASN695  SER759  ASP760  ASP761  ALA762  ILE779  LEU786  VAL792 
 PHE793  MET794  SER795  GLU796  ALA797  LYS798  CYS799  TRP800  GLU811  SER814 

> <Gold.Protein.RotatedAtoms>
  150.7674  133.9270  159.3415 H   0  0  0  0  0  0  0  0  0  0  0  0  # atno 6907 bound_to 6896
  151.7165  135.0901  160.0286 H   0  0  0  0  0  0  0  0  0  0  0  0  # atno 6908 bound_to 6896
  152.3677  133.6340  159.6098 H   0  0  0  0  0  0  0  0  0  0  0  0  # atno 6909 bound_to 6896
  146.0603  140.6357  142.9000 H   0  0  0  0  0  0  0  0  0  0  0  0  # atno 7974 bound_to 7965
  154.8494  140.0431  157.1594 H   0  0  0  0  0  0  0  0  0  0  0  0  # atno 8008 bound_to 7997
  154.8959  140.2993  155.5324 H   0  0  0  0  0  0  0  0  0  0  0  0  # atno 8009 bound_to 7997
  156.2995  140.2385  156.3981 H   0  0  0  0  0  0  0  0  0  0  0  0  # atno 8010 bound_to 7997
  139.6954  143.9351  152.2404 H   0  0  0  0  0  0  0  0  0  0  0  0  # atno 10167 bound_to 10162
  156.9911  130.6043  149.5686 H   0  0  0  0  0  0  0  0  0  0  0  0  # atno 10718 bound_to 10713
  154.8753  135.3847  154.4159 H   0  0  0  0  0  0  0  0  0  0  0  0  # atno 10763 bound_to 10752
  153.4868  135.7030  153.5912 H   0  0  0  0  0  0  0  0  0  0  0  0  # atno 10764 bound_to 10752
  153.4303  135.3880  155.2134 H   0  0  0  0  0  0  0  0  0  0  0  0  # atno 10765 bound_to 10752
  140.8574  133.7813  156.0035 H   0  0  0  0  0  0  0  0  0  0  0  0  # atno 11005 bound_to 11000
  144.7171  140.4248  143.7036 LP  0  0  0  0  0  0  0  0  0  0  0  0  # atno 17320 bound_to 7965
  145.6571  139.1575  143.2829 LP  0  0  0  0  0  0  0  0  0  0  0  0  # atno 17321 bound_to 7965
  139.9179  144.6817  150.8493 LP  0  0  0  0  0  0  0  0  0  0  0  0  # atno 17342 bound_to 10162
  140.7695  143.3396  151.2236 LP  0  0  0  0  0  0  0  0  0  0  0  0  # atno 17343 bound_to 10162
  156.0207  130.5301  150.8266 LP  0  0  0  0  0  0  0  0  0  0  0  0  # atno 17370 bound_to 10713
  157.5458  131.0942  150.9765 LP  0  0  0  0  0  0  0  0  0  0  0  0  # atno 17371 bound_to 10713
  140.8722  134.2713  157.5185 LP  0  0  0  0  0  0  0  0  0  0  0  0  # atno 17394 bound_to 11000
  139.8705  134.9573  156.4264 LP  0  0  0  0  0  0  0  0  0  0  0  0  # atno 17395 bound_to 11000

$$$$
