AV-unprocessed.smi:2124|AV-procd|sdf|8664|dock1
  -GOLD-   2272011413D 1   1.00000     0.00000
 Structure written by MMmdl.
 47 49  0  0  0  0  0  0  0  0  1 V2000
  146.5552  138.5611  151.6335 C   0  0  0  0  0  0  0  0  0  0  0  0
  147.4490  139.3444  152.5700 C   0  0  0  0  0  0  0  0  0  0  0  0
  148.5896  138.6597  152.9547 N   0  0  0  0  0  0  0  0  0  0  0  0
  149.4788  139.3040  153.7961 C   0  0  0  0  0  0  0  0  0  0  0  0
  150.7183  138.4961  154.1386 C   0  0  0  0  0  0  0  0  0  0  0  0
  149.2353  140.5613  154.2465 C   0  0  0  0  0  0  0  0  0  0  0  0
  150.2128  141.3220  155.1436 C   0  0  0  0  0  0  0  0  0  0  0  0
  149.8278  141.3435  156.6232 C   0  0  0  0  0  0  0  0  0  0  0  0
  149.8788  140.3128  157.2933 O   0  0  0  0  0  0  0  0  0  0  0  0
  149.4902  142.5416  157.1225 N   0  0  0  0  0  0  0  0  0  0  0  0
  149.3592  142.8706  158.5372 C   0  0  2  0  0  0  0  0  0  0  0  0
  147.8766  143.0684  158.8899 C   0  0  0  0  0  0  0  0  0  0  0  0
  150.2111  144.1249  158.8451 C   0  0  1  0  0  0  0  0  0  0  0  0
  150.3997  144.4265  160.3486 C   0  0  0  0  0  0  0  0  0  0  0  0
  151.9235  144.6176  160.4744 C   0  0  1  0  0  0  0  0  0  0  0  0
  152.6159  143.2463  160.3641 C   0  0  0  0  0  0  0  0  0  0  0  0
  152.4649  142.9101  158.8694 C   0  0  0  0  0  0  0  0  0  0  0  0
  151.6736  144.1179  158.3276 C   0  0  2  0  0  0  0  0  0  0  0  0
  152.2804  145.2578  159.1380 C   0  0  0  0  0  0  0  0  0  0  0  0
  147.9887  141.2365  153.8130 C   0  0  0  0  0  0  0  0  0  0  0  0
  147.7115  142.3764  154.1831 O   0  0  0  0  0  0  0  0  0  0  0  0
  147.1272  140.5443  152.9470 N   0  0  0  0  0  0  0  0  0  0  0  0
  148.8117  137.7259  152.6407 H   0  0  0  0  0  0  0  0  0  0  0  0
  145.8266  139.2156  151.1536 H   0  0  0  0  0  0  0  0  0  0  0  0
  146.0142  137.7912  152.1842 H   0  0  0  0  0  0  0  0  0  0  0  0
  147.1444  138.0798  150.8519 H   0  0  0  0  0  0  0  0  0  0  0  0
  151.6162  139.0099  153.7953 H   0  0  0  0  0  0  0  0  0  0  0  0
  150.6983  137.5114  153.6701 H   0  0  0  0  0  0  0  0  0  0  0  0
  150.7936  138.3511  155.2164 H   0  0  0  0  0  0  0  0  0  0  0  0
  150.2824  142.3505  154.7884 H   0  0  0  0  0  0  0  0  0  0  0  0
  151.2243  140.9252  155.0517 H   0  0  0  0  0  0  0  0  0  0  0  0
  149.4526  143.3185  156.4785 H   0  0  0  0  0  0  0  0  0  0  0  0
  149.7371  142.0406  159.1365 H   0  0  0  0  0  0  0  0  0  0  0  0
  147.7496  143.2968  159.9481 H   0  0  0  0  0  0  0  0  0  0  0  0
  147.2998  142.1672  158.6786 H   0  0  0  0  0  0  0  0  0  0  0  0
  147.4370  143.8863  158.3182 H   0  0  0  0  0  0  0  0  0  0  0  0
  149.7155  144.9828  158.3865 H   0  0  0  0  0  0  0  0  0  0  0  0
  149.8664  145.3372  160.6243 H   0  0  0  0  0  0  0  0  0  0  0  0
  150.0392  143.6251  160.9948 H   0  0  0  0  0  0  0  0  0  0  0  0
  152.2213  145.1875  161.3548 H   0  0  0  0  0  0  0  0  0  0  0  0
  153.6699  143.3176  160.6358 H   0  0  0  0  0  0  0  0  0  0  0  0
  152.1548  142.4962  161.0075 H   0  0  0  0  0  0  0  0  0  0  0  0
  153.4440  142.8537  158.3919 H   0  0  0  0  0  0  0  0  0  0  0  0
  151.9686  141.9552  158.6998 H   0  0  0  0  0  0  0  0  0  0  0  0
  151.7577  144.2423  157.2474 H   0  0  0  0  0  0  0  0  0  0  0  0
  151.7898  146.2188  158.9729 H   0  0  0  0  0  0  0  0  0  0  0  0
  153.3551  145.3744  158.9858 H   0  0  0  0  0  0  0  0  0  0  0  0
  1 24  1  0  0  0  0
  1 25  1  0  0  0  0
  1 26  1  0  0  0  0
  1  2  1  0  0  0  0
  2  3  1  0  0  0  0
  2 22  2  0  0  0  0
  3  4  1  0  0  0  0
  3 23  1  0  0  0  0
  4  6  2  0  0  0  0
  4  5  1  0  0  0  0
  5 27  1  0  0  0  0
  5 28  1  0  0  0  0
  5 29  1  0  0  0  0
  6 20  1  0  0  0  0
  6  7  1  0  0  0  0
  7  8  1  0  0  0  0
  7 30  1  0  0  0  0
  7 31  1  0  0  0  0
  8  9  2  0  0  0  0
  8 10  1  0  0  0  0
 10 11  1  0  0  0  0
 10 32  1  0  0  0  0
 11 12  1  0  0  0  0
 11 13  1  0  0  0  0
 11 33  1  0  0  0  0
 12 34  1  0  0  0  0
 12 35  1  0  0  0  0
 12 36  1  0  0  0  0
 13 18  1  0  0  0  0
 13 14  1  0  0  0  0
 13 37  1  0  0  0  0
 14 15  1  0  0  0  0
 14 38  1  0  0  0  0
 14 39  1  0  0  0  0
 15 19  1  0  0  0  0
 15 16  1  0  0  0  0
 15 40  1  0  0  0  0
 16 17  1  0  0  0  0
 16 41  1  0  0  0  0
 16 42  1  0  0  0  0
 17 18  1  0  0  0  0
 17 43  1  0  0  0  0
 17 44  1  0  0  0  0
 18 19  1  0  0  0  0
 18 45  1  0  0  0  0
 19 46  1  0  0  0  0
 19 47  1  0  0  0  0
 20 21  2  0  0  0  0
 20 22  1  0  0  0  0
M  END
> <s_m_source_file>
AV-unprocessed.smi

> <i_m_source_file_index>
2124

> <i_lp_mmshare_version>
43012

> <i_f3d_flags>
0

> <s_epik_input>
W0NIM11jMW5jKFtDSDNdKWMoYyg9TylbbkhdMSlbQ0gyXUMoPU8pW05IXVtDQEhdKFtDSDNdKVtDQEhdKFtDSDJdW0NASF0yMylbQ0BIXShbQ0gyXTMpW0NIMl1bQ0gyXTI=

> <s_epik_cmdline>
J2VwaWtfcHl0aG9uJywgJy1waCcsICc3LjAnLCAnLXRuJywgJzgnLCAnLW1hJywgJzIwMCcsICctbWV0YWxfYmluZGluZycsICctaW1hZScsICc8aW5maWxlLm1hZT4nLCAnLW9tYWUnLCAnPG91dGZpbGUubWFlPic=

> <r_lp_tautomer_probability>
0.156392

> <r_epik_Ionization_Penalty>
0.0139374

> <r_epik_Ionization_Penalty_Charging>
0.0138122

> <r_epik_Ionization_Penalty_Neutral>
0.000125146

> <r_epik_State_Penalty>
1.15342

> <r_epik_Charging_Adjusted_Penalty>
1.16723

> <i_epik_Tot_Q>
0

> <i_epik_Tot_abs_Q>
0

> <r_epik_Metal_State_Penalty>
1.3173

> <b_epik_Metal_Only>
0

> <s_lp_Force_Field>
OPLS_2005

> <r_lp_Energy>
54.2082

> <b_lp_Chiralities_Consistent>
1

> <s_lp_Variant>
AV-unprocessed.smi:2124-15

> <Gold.Version>
5.8.1

> <Gold.Id.Protein>
6NUR|6NUR_protein|mol2

> <Gold.PLP.Fitness>
54.1902

> <Gold.PLP.PLP>
-49.1712

> <Gold.PLP.part.hbond>
-3.0000

> <Gold.PLP.part.metal>
0.0000

> <Gold.PLP.part.buried>
-1.6468

> <Gold.PLP.part.nonpolar>
-45.1788

> <Gold.PLP.part.repulsive>
1.1303

> <Gold.PLP.ligand.clash>
0.0000

> <Gold.PLP.ligand.torsion>
0.5284

> <Gold.PLP.Chemscore.Hbond>
2.0000

> <Gold.PLP.Chemscore.CHOScore>
0.0000

> <Gold.PLP.Chemscore.Metal>
0.0000

> <Gold.Chemscore.Hbonds>
donor molecule, donor type, donor heavy atom, donor atom, acceptor molecule, acceptor atom, score
      L1  H     3    23       P1  7948  1.00
      L1  H    10    32       P1  8028  1.00

> <Gold.PLP.Chemscore.Internal.Correction>
0.0757

> <Gold.Rescore>
     Score         DG    S(hbond)    S(metal)    S(lipo)     H(rot)  DE(clash)    DE(int)     intcor
     21.70     -22.60       1.98        0.00     125.99       1.65       0.45       0.45       ----

> <Gold.Chemscore.Fitness>
21.6960

> <Gold.Chemscore.DG>
-22.6031

> <Gold.Chemscore.ZeroCoef>
-5.4800

> <Gold.Chemscore.Hbond>
1.9805

> <Gold.Chemscore.Metal>
0.0000

> <Gold.Chemscore.Lipo>
125.9906

> <Gold.Chemscore.Internal_Hbond>
0.0000

> <Gold.Chemscore.DEClash>
0.4536

> <Gold.Chemscore.DEInternal>
0.4536

> <Gold.Chemscore.Rot>
1.6534

> <Gold.Chemscore.Internal.Correction>
   9.000000E+99

> <Gold.Chemscore.Hbonds>
donor molecule, donor type, donor heavy atom, donor atom, acceptor molecule, acceptor atom, score
      L1  H     3    23       P1  7948  1.00
      L1  H    10    32       P1  8028  1.00

> <Gold.Chemscore.Hbond.Weighted>
-6.6148

> <Gold.Chemscore.Metal.Weighted>
-0.0000

> <Gold.Chemscore.Lipo.Weighted>
-14.7409

> <Gold.Chemscore.Internal_Hbond.Weighted>
0.0000

> <Gold.Chemscore.DEClash.Weighted>
0.4536

> <Gold.Chemscore.DEInternal.Weighted>
0.4536

> <Gold.Chemscore.Rot.Weighted>
4.2326

> <Gold.Chemscore.Internal.Correction.Weighted>
   9.000000E+99

> <Gold.Protein.RotatedTorsions>
[ 6907 6896 6895 6894 ] final   94.37 input  -60.11 | X-H torsion
[ 7974 7965 7964 7962 ] final -102.70 input  175.53 | X-H torsion
[ 8008 7997 7996 7995 ] final  -25.30 input   59.86 | X-H torsion
[ 10167 10162 10161 10158 ] final -118.01 input  -65.29 | X-H torsion
[ 10718 10713 10712 10709 ] final  -58.99 input   66.30 | X-H torsion
[ 10763 10752 10751 10750 ] final  -61.80 input  -60.55 | X-H torsion
[ 11005 11000 10999 10996 ] final  -87.39 input  -57.11 | X-H torsion

> <Gold.Protein.ActiveResidues>
 VAL166  LYS551  ARG553  GLY616  TRP617  ASP618  TYR619  PRO620  LYS621  CYS622 
 ASP623  PHE694  ASN695  SER759  ASP760  ASP761  ALA762  ILE779  LEU786  VAL792 
 PHE793  MET794  SER795  GLU796  ALA797  LYS798  CYS799  TRP800  GLU811  SER814 

> <Gold.Protein.RotatedAtoms>
  152.5449  134.1204  159.8396 H   0  0  0  0  0  0  0  0  0  0  0  0  # atno 6907 bound_to 6896
  151.1261  133.5062  159.2608 H   0  0  0  0  0  0  0  0  0  0  0  0  # atno 6908 bound_to 6896
  151.1726  135.0334  159.8813 H   0  0  0  0  0  0  0  0  0  0  0  0  # atno 6909 bound_to 6896
  145.2654  140.9282  143.3017 H   0  0  0  0  0  0  0  0  0  0  0  0  # atno 7974 bound_to 7965
  154.4483  140.1930  156.0597 H   0  0  0  0  0  0  0  0  0  0  0  0  # atno 8008 bound_to 7997
  156.0592  140.3299  155.7414 H   0  0  0  0  0  0  0  0  0  0  0  0  # atno 8009 bound_to 7997
  155.5438  140.0589  157.2855 H   0  0  0  0  0  0  0  0  0  0  0  0  # atno 8010 bound_to 7997
  140.0622  143.4957  152.2026 H   0  0  0  0  0  0  0  0  0  0  0  0  # atno 10167 bound_to 10162
  156.1095  130.4176  150.0653 H   0  0  0  0  0  0  0  0  0  0  0  0  # atno 10718 bound_to 10713
  154.2901  135.6255  153.5382 H   0  0  0  0  0  0  0  0  0  0  0  0  # atno 10763 bound_to 10752
  152.9854  135.5653  154.5400 H   0  0  0  0  0  0  0  0  0  0  0  0  # atno 10764 bound_to 10752
  154.5008  135.2872  155.1398 H   0  0  0  0  0  0  0  0  0  0  0  0  # atno 10765 bound_to 10752
  141.1617  133.7508  156.9299 H   0  0  0  0  0  0  0  0  0  0  0  0  # atno 11005 bound_to 11000
  144.9381  139.4220  143.6462 LP  0  0  0  0  0  0  0  0  0  0  0  0  # atno 17320 bound_to 7965
  146.3262  139.8327  142.8905 LP  0  0  0  0  0  0  0  0  0  0  0  0  # atno 17321 bound_to 7965
  139.5887  144.7541  151.3455 LP  0  0  0  0  0  0  0  0  0  0  0  0  # atno 17342 bound_to 10162
  140.7166  143.7248  150.7668 LP  0  0  0  0  0  0  0  0  0  0  0  0  # atno 17343 bound_to 10162
  156.8620  130.9495  151.3617 LP  0  0  0  0  0  0  0  0  0  0  0  0  # atno 17370 bound_to 10713
  157.6274  130.8702  149.9214 LP  0  0  0  0  0  0  0  0  0  0  0  0  # atno 17371 bound_to 10713
  140.1393  134.9304  157.2445 LP  0  0  0  0  0  0  0  0  0  0  0  0  # atno 17394 bound_to 11000
  140.2856  134.3300  155.7330 LP  0  0  0  0  0  0  0  0  0  0  0  0  # atno 17395 bound_to 11000

$$$$
