AV-unprocessed.smi:101|AV-procd|sdf|938|dock9
  -GOLD-   2262017453D 1   1.00000     0.00000
 Structure written by MMmdl.
 43 45  0  0  0  0  0  0  0  0  2 V2000
  148.9147  132.9202  153.2447 C   0  0  0  0  0  0  0  0  0  0  0  0
  149.2765  133.6922  154.5015 C   0  0  0  0  0  0  0  0  0  0  0  0
  148.9275  134.9859  154.6787 C   0  0  0  0  0  0  0  0  0  0  0  0
  149.2612  135.6843  155.8261 N   0  0  0  0  0  0  0  0  0  0  0  0
  148.8438  137.1250  156.0098 C   0  0  1  0  0  0  0  0  0  0  0  0
  149.9503  137.8701  156.4245 O   0  0  0  0  0  0  0  0  0  0  0  0
  150.0004  139.0942  155.7046 C   0  0  1  0  0  0  0  0  0  0  0  0
  151.4236  139.6698  155.6885 C   0  0  0  0  0  0  0  0  0  0  0  0
  151.4603  140.8504  156.4730 O   0  0  0  0  0  0  0  0  0  0  0  0
  152.1377  140.8646  157.6372 C   0  0  0  0  0  0  0  0  0  0  0  0
  152.7476  139.8904  158.0831 O   0  0  0  0  0  0  0  0  0  0  0  0
  152.0765  142.1847  158.3288 C   0  0  0  0  0  0  0  0  0  0  0  0
  151.5213  143.2962  157.6525 C   0  0  0  0  0  0  0  0  0  0  0  0
  151.4480  144.5548  158.2804 C   0  0  0  0  0  0  0  0  0  0  0  0
  151.9290  144.7173  159.5926 C   0  0  0  0  0  0  0  0  0  0  0  0
  152.4858  143.6202  160.2754 C   0  0  0  0  0  0  0  0  0  0  0  0
  152.5606  142.3609  159.6489 C   0  0  0  0  0  0  0  0  0  0  0  0
  149.4147  138.7379  154.3336 C   0  0  1  0  0  0  0  0  0  0  0  0
  150.3972  138.1641  153.4900 O   0  0  0  0  0  0  0  0  0  0  0  0
  148.3432  137.7115  154.6773 C   0  0  2  0  0  0  0  0  0  0  0  0
  147.0903  138.3443  154.8406 O   0  0  0  0  0  0  0  0  0  0  0  0
  149.9588  135.0265  156.8715 C   0  0  0  0  0  0  0  0  0  0  0  0
  150.1985  135.6634  157.8980 O   0  0  0  0  0  0  0  0  0  0  0  0
  150.3222  133.7240  156.6983 N   0  5  0  0  0  0  0  0  0  0  0  0
  150.0260  133.0184  155.5689 C   0  0  0  0  0  0  0  0  0  0  0  0
  150.3651  131.8441  155.4238 O   0  0  0  0  0  0  0  0  0  0  0  0
  148.3663  133.5456  152.5397 H   0  0  0  0  0  0  0  0  0  0  0  0
  148.2906  132.0608  153.4915 H   0  0  0  0  0  0  0  0  0  0  0  0
  149.8158  132.5607  152.7470 H   0  0  0  0  0  0  0  0  0  0  0  0
  148.3663  135.4808  153.9001 H   0  0  0  0  0  0  0  0  0  0  0  0
  148.0998  137.1291  156.8085 H   0  0  0  0  0  0  0  0  0  0  0  0
  149.3237  139.7991  156.1914 H   0  0  0  0  0  0  0  0  0  0  0  0
  152.1402  138.9380  156.0647 H   0  0  0  0  0  0  0  0  0  0  0  0
  151.7092  139.9180  154.6653 H   0  0  0  0  0  0  0  0  0  0  0  0
  151.1443  143.1956  156.6448 H   0  0  0  0  0  0  0  0  0  0  0  0
  151.0214  145.3958  157.7541 H   0  0  0  0  0  0  0  0  0  0  0  0
  151.8716  145.6821  160.0745 H   0  0  0  0  0  0  0  0  0  0  0  0
  152.8567  143.7437  161.2822 H   0  0  0  0  0  0  0  0  0  0  0  0
  152.9955  141.5404  160.2010 H   0  0  0  0  0  0  0  0  0  0  0  0
  149.0089  139.6140  153.8258 H   0  0  0  0  0  0  0  0  0  0  0  0
  149.9642  137.6215  152.8493 H   0  0  0  0  0  0  0  0  0  0  0  0
  148.2429  136.9399  153.9116 H   0  0  0  0  0  0  0  0  0  0  0  0
  147.1247  138.8639  155.6300 H   0  0  0  0  0  0  0  0  0  0  0  0
  1  2  1  0  0  0  0
  1 27  1  0  0  0  0
  1 28  1  0  0  0  0
  1 29  1  0  0  0  0
  2 25  1  0  0  0  0
  2  3  2  0  0  0  0
  3  4  1  0  0  0  0
  3 30  1  0  0  0  0
  4  5  1  0  0  0  0
  4 22  1  0  0  0  0
  5 20  1  0  0  0  0
  5  6  1  0  0  0  0
  5 31  1  0  0  0  0
  6  7  1  0  0  0  0
  7  8  1  0  0  0  0
  7 18  1  0  0  0  0
  7 32  1  0  0  0  0
  8  9  1  0  0  0  0
  8 33  1  0  0  0  0
  8 34  1  0  0  0  0
  9 10  1  0  0  0  0
 10 11  2  0  0  0  0
 10 12  1  0  0  0  0
 12 17  1  0  0  0  0
 12 13  2  0  0  0  0
 13 14  1  0  0  0  0
 13 35  1  0  0  0  0
 14 15  2  0  0  0  0
 14 36  1  0  0  0  0
 15 16  1  0  0  0  0
 15 37  1  0  0  0  0
 16 17  2  0  0  0  0
 16 38  1  0  0  0  0
 17 39  1  0  0  0  0
 18 19  1  0  0  0  0
 18 20  1  0  0  0  0
 18 40  1  0  0  0  0
 19 41  1  0  0  0  0
 20 21  1  0  0  0  0
 20 42  1  0  0  0  0
 21 43  1  0  0  0  0
 22 23  2  0  0  0  0
 22 24  1  0  0  0  0
 24 25  1  0  0  0  0
 25 26  2  0  0  0  0
M  CHG  1  24  -1
M  END
> <s_m_source_file>
AV-unprocessed.smi

> <i_m_source_file_index>
101

> <i_lp_mmshare_version>
43012

> <i_f3d_flags>
0

> <s_epik_input>
Tz1jMVtuSF1jKD1PKW4oW2NIXWMxW0NIM10pW0NAQEhdMk9bQ0BIXShbQ0BASF0oW09IXSlbQ0BIXTJbT0hdKVtDSDJdT0MoPU8pYzNbY0hdW2NIXVtjSF1bY0hdW2NIXTM=

> <s_epik_cmdline>
J2VwaWtfcHl0aG9uJywgJy1waCcsICc3LjAnLCAnLXRuJywgJzgnLCAnLW1hJywgJzIwMCcsICctbWV0YWxfYmluZGluZycsICctaW1hZScsICc8aW5maWxlLm1hZT4nLCAnLW9tYWUnLCAnPG91dGZpbGUubWFlPic=

> <r_lp_tautomer_probability>
0.999537

> <r_epik_Ionization_Penalty>
3.21006

> <r_epik_Ionization_Penalty_Charging>
5.75142e-08

> <r_epik_Ionization_Penalty_Neutral>
3.21006

> <r_epik_State_Penalty>
3.20925

> <r_epik_Charging_Adjusted_Penalty>
3.20925

> <i_epik_Tot_Q>
-1

> <i_epik_Tot_abs_Q>
1

> <r_epik_Metal_State_Penalty>
0.119957

> <b_epik_Metal_Only>
1

> <s_epik_Chemistry_Notes>
This compound has an ester and may undergo hydrolysis at high or low pH. This compound contains an acetal/aminal-like group ( X-CH(R)-Y where X, Y are N, S, or O) that may be acid/base labile, releasing an aldehyde.

> <s_lp_Force_Field>
OPLS_2005

> <r_lp_Energy>
38.3605

> <b_lp_Chiralities_Consistent>
1

> <s_lp_Variant>
AV-unprocessed.smi:101-26

> <Gold.Version>
5.8.1

> <Gold.Id.Protein>
6NUR|6NUR_protein|mol2

> <Gold.PLP.Fitness>
52.1597

> <Gold.PLP.PLP>
-43.5681

> <Gold.PLP.part.hbond>
-4.7451

> <Gold.PLP.part.metal>
0.0000

> <Gold.PLP.part.buried>
-3.8590

> <Gold.PLP.part.nonpolar>
-34.5777

> <Gold.PLP.part.repulsive>
0.0102

> <Gold.PLP.ligand.clash>
0.0000

> <Gold.PLP.ligand.torsion>
1.3178

> <Gold.PLP.Chemscore.Hbond>
2.7040

> <Gold.PLP.Chemscore.CHOScore>
0.9997

> <Gold.PLP.Chemscore.Metal>
0.0000

> <Gold.Chemscore.Hbonds>
donor molecule, donor type, donor heavy atom, donor atom, acceptor molecule, acceptor atom, score
      L1  H    19    41       P1  7948  0.95
      P1  H  6896  6909       L1    23  0.77
      P1  H  7997  8010       L1    11  0.74
      L1  C     3    30       P1  7948  1.00

> <Gold.PLP.Chemscore.Internal.Correction>
0.1161

> <Gold.Rescore>
     Score         DG    S(hbond)    S(metal)    S(lipo)     H(rot)  DE(clash)    DE(int)     intcor
     14.32     -17.28       2.50        0.00     100.81       3.27       0.07       2.89       ----

> <Gold.Chemscore.Fitness>
14.3175

> <Gold.Chemscore.DG>
-17.2770

> <Gold.Chemscore.ZeroCoef>
-5.4800

> <Gold.Chemscore.Hbond>
2.5038

> <Gold.Chemscore.Metal>
0.0000

> <Gold.Chemscore.Lipo>
100.8053

> <Gold.Chemscore.Internal_Hbond>
0.0000

> <Gold.Chemscore.DEClash>
0.0731

> <Gold.Chemscore.DEInternal>
2.8863

> <Gold.Chemscore.Rot>
3.2656

> <Gold.Chemscore.Internal.Correction>
   9.000000E+99

> <Gold.Chemscore.Hbonds>
donor molecule, donor type, donor heavy atom, donor atom, acceptor molecule, acceptor atom, score
      L1  H    19    41       P1  7948  0.21
      P1  H  6896  6909       L1    23  0.69
      P1  H  7997  8010       L1    11  0.17

> <Gold.Chemscore.Hbond.Weighted>
-8.3626

> <Gold.Chemscore.Metal.Weighted>
-0.0000

> <Gold.Chemscore.Lipo.Weighted>
-11.7942

> <Gold.Chemscore.Internal_Hbond.Weighted>
0.0000

> <Gold.Chemscore.DEClash.Weighted>
0.0731

> <Gold.Chemscore.DEInternal.Weighted>
2.8863

> <Gold.Chemscore.Rot.Weighted>
8.3598

> <Gold.Chemscore.Internal.Correction.Weighted>
   9.000000E+99

> <Gold.Protein.RotatedTorsions>
[ 6907 6896 6895 6894 ] final   51.87 input  -60.11 | X-H torsion
[ 7974 7965 7964 7962 ] final  -64.17 input  175.53 | X-H torsion
[ 8008 7997 7996 7995 ] final   39.68 input   59.86 | X-H torsion
[ 10167 10162 10161 10158 ] final  167.99 input  -65.29 | X-H torsion
[ 10718 10713 10712 10709 ] final   38.65 input   66.30 | X-H torsion
[ 10763 10752 10751 10750 ] final  108.20 input  -60.55 | X-H torsion
[ 11005 11000 10999 10996 ] final   45.13 input  -57.11 | X-H torsion

> <Gold.Protein.ActiveResidues>
 VAL166  LYS551  ARG553  GLY616  TRP617  ASP618  TYR619  PRO620  LYS621  CYS622 
 ASP623  PHE694  ASN695  SER759  ASP760  ASP761  ALA762  ILE779  LEU786  VAL792 
 PHE793  MET794  SER795  GLU796  ALA797  LYS798  CYS799  TRP800  GLU811  SER814 

> <Gold.Protein.RotatedAtoms>
  152.3172  134.7425  160.0322 H   0  0  0  0  0  0  0  0  0  0  0  0  # atno 6907 bound_to 6896
  151.7885  133.3351  159.3500 H   0  0  0  0  0  0  0  0  0  0  0  0  # atno 6908 bound_to 6896
  150.7351  134.5795  159.5976 H   0  0  0  0  0  0  0  0  0  0  0  0  # atno 6909 bound_to 6896
  145.7700  140.8818  143.0385 H   0  0  0  0  0  0  0  0  0  0  0  0  # atno 7974 bound_to 7965
  155.2406  140.3345  155.4293 H   0  0  0  0  0  0  0  0  0  0  0  0  # atno 8008 bound_to 7997
  156.2257  140.1828  156.7413 H   0  0  0  0  0  0  0  0  0  0  0  0  # atno 8009 bound_to 7997
  154.5896  140.0640  156.9204 H   0  0  0  0  0  0  0  0  0  0  0  0  # atno 8010 bound_to 7997
  139.4957  144.3863  151.9567 H   0  0  0  0  0  0  0  0  0  0  0  0  # atno 10167 bound_to 10162
  157.3614  130.7651  149.7050 H   0  0  0  0  0  0  0  0  0  0  0  0  # atno 10718 bound_to 10713
  153.4174  135.3819  155.2089 H   0  0  0  0  0  0  0  0  0  0  0  0  # atno 10763 bound_to 10752
  154.8742  135.3809  154.4426 H   0  0  0  0  0  0  0  0  0  0  0  0  # atno 10764 bound_to 10752
  153.4942  135.7088  153.5930 H   0  0  0  0  0  0  0  0  0  0  0  0  # atno 10765 bound_to 10752
  140.1488  134.4488  155.8396 H   0  0  0  0  0  0  0  0  0  0  0  0  # atno 11005 bound_to 11000
  144.6814  139.9842  143.7484 LP  0  0  0  0  0  0  0  0  0  0  0  0  # atno 17320 bound_to 7965
  146.0179  139.3226  143.0830 LP  0  0  0  0  0  0  0  0  0  0  0  0  # atno 17321 bound_to 7965
  140.3300  144.3328  150.5989 LP  0  0  0  0  0  0  0  0  0  0  0  0  # atno 17342 bound_to 10162
  140.5653  143.2187  151.7694 LP  0  0  0  0  0  0  0  0  0  0  0  0  # atno 17343 bound_to 10162
  155.9738  130.4113  150.3973 LP  0  0  0  0  0  0  0  0  0  0  0  0  # atno 17370 bound_to 10713
  157.2051  131.0447  151.2630 LP  0  0  0  0  0  0  0  0  0  0  0  0  # atno 17371 bound_to 10713
  141.2196  133.6863  156.7383 LP  0  0  0  0  0  0  0  0  0  0  0  0  # atno 17394 bound_to 11000
  140.2631  134.8451  157.3777 LP  0  0  0  0  0  0  0  0  0  0  0  0  # atno 17395 bound_to 11000

$$$$
