AV-unprocessed.smi:1692|AV-procd|sdf|6784|dock5
  -GOLD-   22720 7543D 1   1.00000     0.00000
 Structure written by MMmdl.
 45 46  0  0  0  0  0  0  0  0  1 V2000
  143.3680  141.5723  156.3349 C   0  0  0  0  0  0  0  0  0  0  0  0
  144.4719  142.6185  156.5653 C   0  0  1  0  0  0  0  0  0  0  0  0
  145.8037  142.2642  155.8729 C   0  0  0  0  0  0  0  0  0  0  0  0
  145.7594  142.4605  154.4251 N   0  0  0  0  0  0  0  0  0  0  0  0
  147.0360  142.1597  153.7783 C   0  0  0  0  0  0  0  0  0  0  0  0
  147.7067  140.8527  154.2347 C   0  0  0  0  0  0  0  0  0  0  0  0
  149.2374  140.9806  154.3012 C   0  0  0  0  0  0  0  0  0  0  0  0
  149.6546  141.9690  155.2895 N   0  0  0  0  0  0  0  0  0  0  0  0
  150.4446  141.7161  156.3434 C   0  0  0  0  0  0  0  0  0  0  0  0
  150.9111  140.6033  156.5892 O   0  0  0  0  0  0  0  0  0  0  0  0
  150.6496  142.8252  157.0759 N   0  0  0  0  0  0  0  0  0  0  0  0
  151.4315  142.9676  158.2535 C   0  0  0  0  0  0  0  0  0  0  0  0
  151.4354  144.2638  158.8167 C   0  0  0  0  0  0  0  0  0  0  0  0
  152.1828  144.5097  159.9849 C   0  0  0  0  0  0  0  0  0  0  0  0
  152.9079  143.4517  160.5611 C   0  0  0  0  0  0  0  0  0  0  0  0
  152.8496  142.1915  159.9379 C   0  0  0  0  0  0  0  0  0  0  0  0
  152.1343  141.9538  158.8181 N   0  0  0  0  0  0  0  0  0  0  0  0
  145.3455  143.8299  154.1459 C   0  0  0  0  0  0  0  0  0  0  0  0
  143.9826  144.1614  154.7797 C   0  0  2  0  0  0  0  0  0  0  0  0
  143.5833  145.6238  154.5570 C   0  0  0  0  0  0  0  0  0  0  0  0
  144.0471  143.9282  156.1855 O   0  0  0  0  0  0  0  0  0  0  0  0
  143.6650  140.6017  156.7321 H   0  0  0  0  0  0  0  0  0  0  0  0
  143.1463  141.4361  155.2768 H   0  0  0  0  0  0  0  0  0  0  0  0
  142.4449  141.8652  156.8351 H   0  0  0  0  0  0  0  0  0  0  0  0
  144.6538  142.6552  157.6398 H   0  0  0  0  0  0  0  0  0  0  0  0
  146.5958  142.8834  156.2967 H   0  0  0  0  0  0  0  0  0  0  0  0
  146.0589  141.2325  156.1125 H   0  0  0  0  0  0  0  0  0  0  0  0
  146.8711  142.0854  152.7025 H   0  0  0  0  0  0  0  0  0  0  0  0
  147.7270  142.9923  153.9181 H   0  0  0  0  0  0  0  0  0  0  0  0
  147.3304  140.5640  155.2159 H   0  0  0  0  0  0  0  0  0  0  0  0
  147.4392  140.0477  153.5486 H   0  0  0  0  0  0  0  0  0  0  0  0
  149.6785  140.0223  154.5770 H   0  0  0  0  0  0  0  0  0  0  0  0
  149.6428  141.2381  153.3212 H   0  0  0  0  0  0  0  0  0  0  0  0
  149.3142  142.9108  155.1627 H   0  0  0  0  0  0  0  0  0  0  0  0
  150.1964  143.6666  156.7522 H   0  0  0  0  0  0  0  0  0  0  0  0
  150.8727  145.0658  158.3612 H   0  0  0  0  0  0  0  0  0  0  0  0
  152.1988  145.4935  160.4304 H   0  0  0  0  0  0  0  0  0  0  0  0
  153.4926  143.6015  161.4566 H   0  0  0  0  0  0  0  0  0  0  0  0
  153.3911  141.3522  160.3486 H   0  0  0  0  0  0  0  0  0  0  0  0
  146.0998  144.5259  154.5172 H   0  0  0  0  0  0  0  0  0  0  0  0
  145.2853  143.9837  153.0679 H   0  0  0  0  0  0  0  0  0  0  0  0
  143.2125  143.5260  154.3414 H   0  0  0  0  0  0  0  0  0  0  0  0
  143.4976  145.8494  153.4939 H   0  0  0  0  0  0  0  0  0  0  0  0
  144.3195  146.3038  154.9863 H   0  0  0  0  0  0  0  0  0  0  0  0
  142.6205  145.8391  155.0207 H   0  0  0  0  0  0  0  0  0  0  0  0
  1  2  1  0  0  0  0
  1 22  1  0  0  0  0
  1 23  1  0  0  0  0
  1 24  1  0  0  0  0
  2 21  1  0  0  0  0
  2  3  1  0  0  0  0
  2 25  1  0  0  0  0
  3  4  1  0  0  0  0
  3 26  1  0  0  0  0
  3 27  1  0  0  0  0
  4  5  1  0  0  0  0
  4 18  1  0  0  0  0
  5  6  1  0  0  0  0
  5 28  1  0  0  0  0
  5 29  1  0  0  0  0
  6  7  1  0  0  0  0
  6 30  1  0  0  0  0
  6 31  1  0  0  0  0
  7  8  1  0  0  0  0
  7 32  1  0  0  0  0
  7 33  1  0  0  0  0
  8  9  1  0  0  0  0
  8 34  1  0  0  0  0
  9 10  2  0  0  0  0
  9 11  1  0  0  0  0
 11 12  1  0  0  0  0
 11 35  1  0  0  0  0
 12 17  1  0  0  0  0
 12 13  2  0  0  0  0
 13 14  1  0  0  0  0
 13 36  1  0  0  0  0
 14 15  2  0  0  0  0
 14 37  1  0  0  0  0
 15 16  1  0  0  0  0
 15 38  1  0  0  0  0
 16 17  2  0  0  0  0
 16 39  1  0  0  0  0
 18 19  1  0  0  0  0
 18 40  1  0  0  0  0
 18 41  1  0  0  0  0
 19 20  1  0  0  0  0
 19 21  1  0  0  0  0
 19 42  1  0  0  0  0
 20 43  1  0  0  0  0
 20 44  1  0  0  0  0
 20 45  1  0  0  0  0
M  END
> <s_m_source_file>
AV-unprocessed.smi

> <i_m_source_file_index>
1692

> <i_lp_mmshare_version>
43012

> <i_f3d_flags>
0

> <s_epik_input>
W0NIM11bQ0BASF0xW0NIMl1OKFtDSDJdW0NASF0oTzEpW0NIM10pW0NIMl1bQ0gyXVtDSDJdW05IXUMoPU8pW05IXWMyW2NIXVtjSF1bY0hdW2NIXW4y

> <s_epik_cmdline>
J2VwaWtfcHl0aG9uJywgJy1waCcsICc3LjAnLCAnLXRuJywgJzgnLCAnLW1hJywgJzIwMCcsICctbWV0YWxfYmluZGluZycsICctaW1hZScsICc8aW5maWxlLm1hZT4nLCAnLW9tYWUnLCAnPG91dGZpbGUubWFlPic=

> <r_epik_Ionization_Penalty>
0.594711

> <r_epik_Ionization_Penalty_Charging>
0

> <r_epik_Ionization_Penalty_Neutral>
0.594711

> <r_epik_State_Penalty>
0.608529

> <r_epik_Charging_Adjusted_Penalty>
0.608529

> <i_epik_Tot_Q>
0

> <i_epik_Tot_abs_Q>
0

> <r_epik_Metal_State_Penalty>
0.608528

> <b_epik_Metal_Only>
0

> <s_lp_Force_Field>
OPLS_2005

> <r_lp_Energy>
25.6838

> <b_lp_Chiralities_Consistent>
1

> <s_lp_Variant>
AV-unprocessed.smi:1692-7

> <Gold.Version>
5.8.1

> <Gold.Id.Protein>
6NUR|6NUR_protein|mol2

> <Gold.PLP.Fitness>
48.2414

> <Gold.PLP.PLP>
-42.8855

> <Gold.PLP.part.hbond>
-2.0000

> <Gold.PLP.part.metal>
0.0000

> <Gold.PLP.part.buried>
-8.2685

> <Gold.PLP.part.nonpolar>
-33.1454

> <Gold.PLP.part.repulsive>
0.5115

> <Gold.PLP.ligand.clash>
0.0000

> <Gold.PLP.ligand.torsion>
0.3398

> <Gold.PLP.Chemscore.Hbond>
2.0000

> <Gold.PLP.Chemscore.CHOScore>
0.0000

> <Gold.PLP.Chemscore.Metal>
0.0000

> <Gold.Chemscore.Hbonds>
donor molecule, donor type, donor heavy atom, donor atom, acceptor molecule, acceptor atom, score
      L1  H     8    34       P1  8028  1.00
      L1  H    11    35       P1  8028  1.00

> <Gold.PLP.Chemscore.Internal.Correction>
0.0354

> <Gold.Rescore>
     Score         DG    S(hbond)    S(metal)    S(lipo)     H(rot)  DE(clash)    DE(int)     intcor
     17.07     -18.79       1.97        0.00      95.19       1.73       0.05       1.66       ----

> <Gold.Chemscore.Fitness>
17.0749

> <Gold.Chemscore.DG>
-18.7873

> <Gold.Chemscore.ZeroCoef>
-5.4800

> <Gold.Chemscore.Hbond>
1.9729

> <Gold.Chemscore.Metal>
0.0000

> <Gold.Chemscore.Lipo>
95.1950

> <Gold.Chemscore.Internal_Hbond>
0.0000

> <Gold.Chemscore.DEClash>
0.0521

> <Gold.Chemscore.DEInternal>
1.6603

> <Gold.Chemscore.Rot>
1.7266

> <Gold.Chemscore.Internal.Correction>
   9.000000E+99

> <Gold.Chemscore.Hbonds>
donor molecule, donor type, donor heavy atom, donor atom, acceptor molecule, acceptor atom, score
      L1  H     8    34       P1  8028  0.99
      L1  H    11    35       P1  8028  0.95

> <Gold.Chemscore.Hbond.Weighted>
-6.5895

> <Gold.Chemscore.Metal.Weighted>
-0.0000

> <Gold.Chemscore.Lipo.Weighted>
-11.1378

> <Gold.Chemscore.Internal_Hbond.Weighted>
0.0000

> <Gold.Chemscore.DEClash.Weighted>
0.0521

> <Gold.Chemscore.DEInternal.Weighted>
1.6603

> <Gold.Chemscore.Rot.Weighted>
4.4200

> <Gold.Chemscore.Internal.Correction.Weighted>
   9.000000E+99

> <Gold.Protein.RotatedTorsions>
[ 6907 6896 6895 6894 ] final   54.30 input  -60.11 | X-H torsion
[ 7974 7965 7964 7962 ] final   95.44 input  175.53 | X-H torsion
[ 8008 7997 7996 7995 ] final  160.12 input   59.86 | X-H torsion
[ 10167 10162 10161 10158 ] final  -89.88 input  -65.29 | X-H torsion
[ 10718 10713 10712 10709 ] final -133.25 input   66.30 | X-H torsion
[ 10763 10752 10751 10750 ] final  167.23 input  -60.55 | X-H torsion
[ 11005 11000 10999 10996 ] final   36.89 input  -57.11 | X-H torsion

> <Gold.Protein.ActiveResidues>
 VAL166  LYS551  ARG553  GLY616  TRP617  ASP618  TYR619  PRO620  LYS621  CYS622 
 ASP623  PHE694  ASN695  SER759  ASP760  ASP761  ALA762  ILE779  LEU786  VAL792 
 PHE793  MET794  SER795  GLU796  ALA797  LYS798  CYS799  TRP800  GLU811  SER814 

> <Gold.Protein.RotatedAtoms>
  152.3425  134.7115  160.0259 H   0  0  0  0  0  0  0  0  0  0  0  0  # atno 6907 bound_to 6896
  151.7495  133.3321  159.3396 H   0  0  0  0  0  0  0  0  0  0  0  0  # atno 6908 bound_to 6896
  150.7489  134.6137  159.6144 H   0  0  0  0  0  0  0  0  0  0  0  0  # atno 6909 bound_to 6896
  145.4521  139.2292  143.3034 H   0  0  0  0  0  0  0  0  0  0  0  0  # atno 7974 bound_to 7965
  156.2194  140.1813  156.7513 H   0  0  0  0  0  0  0  0  0  0  0  0  # atno 8008 bound_to 7997
  154.5841  140.0661  156.9175 H   0  0  0  0  0  0  0  0  0  0  0  0  # atno 8009 bound_to 7997
  155.2450  140.3325  155.4290 H   0  0  0  0  0  0  0  0  0  0  0  0  # atno 8010 bound_to 7997
  140.3604  143.2845  151.9621 H   0  0  0  0  0  0  0  0  0  0  0  0  # atno 10167 bound_to 10162
  156.2430  130.7107  151.0976 H   0  0  0  0  0  0  0  0  0  0  0  0  # atno 10718 bound_to 10713
  154.3507  135.2753  155.2373 H   0  0  0  0  0  0  0  0  0  0  0  0  # atno 10763 bound_to 10752
  154.4604  135.5908  153.6255 H   0  0  0  0  0  0  0  0  0  0  0  0  # atno 10764 bound_to 10752
  152.9850  135.6063  154.3717 H   0  0  0  0  0  0  0  0  0  0  0  0  # atno 10765 bound_to 10752
  140.2280  134.3561  155.7976 H   0  0  0  0  0  0  0  0  0  0  0  0  # atno 11005 bound_to 11000
  146.2498  140.5281  142.8898 LP  0  0  0  0  0  0  0  0  0  0  0  0  # atno 17320 bound_to 7965
  144.8055  140.6291  143.6450 LP  0  0  0  0  0  0  0  0  0  0  0  0  # atno 17321 bound_to 7965
  139.4815  144.5997  151.7627 LP  0  0  0  0  0  0  0  0  0  0  0  0  # atno 17342 bound_to 10162
  140.5132  144.0993  150.6001 LP  0  0  0  0  0  0  0  0  0  0  0  0  # atno 17343 bound_to 10162
  157.7183  131.0697  150.6238 LP  0  0  0  0  0  0  0  0  0  0  0  0  # atno 17370 bound_to 10713
  156.6313  130.4432  149.5786 LP  0  0  0  0  0  0  0  0  0  0  0  0  # atno 17371 bound_to 10713
  141.2219  133.7230  156.8685 LP  0  0  0  0  0  0  0  0  0  0  0  0  # atno 17394 bound_to 11000
  140.1780  134.9053  157.2914 LP  0  0  0  0  0  0  0  0  0  0  0  0  # atno 17395 bound_to 11000

$$$$
