AV-unprocessed.smi:283|AV-procd|sdf|2134|dock4
  -GOLD-   2262021453D 1   1.00000     0.00000
 Structure written by MMmdl.
 48 51  0  0  0  0  0  0  0  0  1 V2000
  152.0112  144.7503  157.9117 C   0  0  0  0  0  0  0  0  0  0  0  0
  151.3345  143.4575  158.3874 C   0  0  1  0  0  0  0  0  0  0  0  0
  151.0669  142.5936  157.2399 N   0  0  0  0  0  0  0  0  0  0  0  0
  149.8163  142.1854  156.9289 C   0  0  0  0  0  0  0  0  0  0  0  0
  148.8520  142.5613  157.8020 N   0  0  0  0  0  0  0  0  0  0  0  0
  147.5794  142.2211  157.5836 C   0  0  0  0  0  0  0  0  0  0  0  0
  147.0674  141.5192  156.5727 N   0  0  0  0  0  0  0  0  0  0  0  0
  148.0309  141.1237  155.6918 C   0  0  0  0  0  0  0  0  0  0  0  0
  149.4234  141.4095  155.7972 C   0  0  0  0  0  0  0  0  0  0  0  0
  150.0905  140.8296  154.7239 N   0  0  0  0  0  0  0  0  0  0  0  0
  149.1496  140.2570  154.0254 C   0  0  0  0  0  0  0  0  0  0  0  0
  147.8786  140.3831  154.5357 N   0  0  0  0  0  0  0  0  0  0  0  0
  146.6158  139.8229  153.9635 C   0  0  2  0  0  0  0  0  0  0  0  0
  146.0057  139.0201  154.9278 O   0  0  0  0  0  0  0  0  0  0  0  0
  145.5056  137.8536  154.2950 C   0  0  2  0  0  0  0  0  0  0  0  0
  145.1146  136.7388  155.2889 C   0  0  0  0  0  0  0  0  0  0  0  0
  144.4586  135.6437  154.6846 O   0  0  0  0  0  0  0  0  0  0  0  0
  146.4737  137.5582  153.1388 C   0  0  2  0  0  0  0  0  0  0  0  0
  147.5996  136.7983  153.5303 O   0  0  0  0  0  0  0  0  0  0  0  0
  146.9181  138.9580  152.7209 C   0  0  1  0  0  0  0  0  0  0  0  0
  146.1584  139.3876  151.6084 O   0  0  0  0  0  0  0  0  0  0  0  0
  152.1555  142.8085  159.5057 C   0  0  0  0  0  0  0  0  0  0  0  0
  152.7835  141.5592  159.2911 C   0  0  0  0  0  0  0  0  0  0  0  0
  153.5379  140.9497  160.3111 C   0  0  0  0  0  0  0  0  0  0  0  0
  153.6816  141.5878  161.5561 C   0  0  0  0  0  0  0  0  0  0  0  0
  153.0745  142.8377  161.7764 C   0  0  0  0  0  0  0  0  0  0  0  0
  152.3174  143.4521  160.7591 C   0  0  0  0  0  0  0  0  0  0  0  0
  151.6050  144.9943  161.0825 Cl  0  0  0  0  0  0  0  0  0  0  0  0
  145.9986  140.6970  153.7502 H   0  0  0  0  0  0  0  0  0  0  0  0
  144.5711  138.1766  153.8320 H   0  0  0  0  0  0  0  0  0  0  0  0
  145.9748  137.0154  152.3346 H   0  0  0  0  0  0  0  0  0  0  0  0
  147.9764  139.0011  152.4565 H   0  0  0  0  0  0  0  0  0  0  0  0
  152.1454  145.4506  158.7365 H   0  0  0  0  0  0  0  0  0  0  0  0
  151.4112  145.2519  157.1516 H   0  0  0  0  0  0  0  0  0  0  0  0
  152.9937  144.5496  157.4826 H   0  0  0  0  0  0  0  0  0  0  0  0
  150.3604  143.7396  158.7831 H   0  0  0  0  0  0  0  0  0  0  0  0
  151.8842  142.1524  156.8442 H   0  0  0  0  0  0  0  0  0  0  0  0
  146.8683  142.5614  158.3220 H   0  0  0  0  0  0  0  0  0  0  0  0
  149.3607  139.7168  153.1140 H   0  0  0  0  0  0  0  0  0  0  0  0
  146.0012  136.3740  155.8077 H   0  0  0  0  0  0  0  0  0  0  0  0
  144.4495  137.1461  156.0506 H   0  0  0  0  0  0  0  0  0  0  0  0
  143.6871  135.4385  155.1903 H   0  0  0  0  0  0  0  0  0  0  0  0
  148.0554  136.5155  152.7520 H   0  0  0  0  0  0  0  0  0  0  0  0
  145.5325  140.0309  151.9044 H   0  0  0  0  0  0  0  0  0  0  0  0
  152.6886  141.0556  158.3403 H   0  0  0  0  0  0  0  0  0  0  0  0
  154.0076  139.9928  160.1369 H   0  0  0  0  0  0  0  0  0  0  0  0
  154.2606  141.1218  162.3396 H   0  0  0  0  0  0  0  0  0  0  0  0
  153.1926  143.3282  162.7314 H   0  0  0  0  0  0  0  0  0  0  0  0
  1  2  1  0  0  0  0
  1 33  1  0  0  0  0
  1 34  1  0  0  0  0
  1 35  1  0  0  0  0
  2  3  1  0  0  0  0
  2 22  1  0  0  0  0
  2 36  1  0  0  0  0
  3  4  1  0  0  0  0
  3 37  1  0  0  0  0
  4  9  1  0  0  0  0
  4  5  2  0  0  0  0
  5  6  1  0  0  0  0
  6  7  2  0  0  0  0
  6 38  1  0  0  0  0
  7  8  1  0  0  0  0
  8 12  1  0  0  0  0
  8  9  2  0  0  0  0
  9 10  1  0  0  0  0
 10 11  2  0  0  0  0
 11 12  1  0  0  0  0
 11 39  1  0  0  0  0
 12 13  1  0  0  0  0
 13 29  1  0  0  0  0
 13 20  1  0  0  0  0
 13 14  1  0  0  0  0
 14 15  1  0  0  0  0
 15 30  1  0  0  0  0
 15 16  1  0  0  0  0
 15 18  1  0  0  0  0
 16 17  1  0  0  0  0
 16 40  1  0  0  0  0
 16 41  1  0  0  0  0
 17 42  1  0  0  0  0
 18 31  1  0  0  0  0
 18 19  1  0  0  0  0
 18 20  1  0  0  0  0
 19 43  1  0  0  0  0
 20 32  1  0  0  0  0
 20 21  1  0  0  0  0
 21 44  1  0  0  0  0
 22 27  1  0  0  0  0
 22 23  2  0  0  0  0
 23 24  1  0  0  0  0
 23 45  1  0  0  0  0
 24 25  2  0  0  0  0
 24 46  1  0  0  0  0
 25 26  1  0  0  0  0
 25 47  1  0  0  0  0
 26 27  2  0  0  0  0
 26 48  1  0  0  0  0
 27 28  1  0  0  0  0
M  END
> <s_m_source_file>
AV-unprocessed.smi

> <i_m_source_file_index>
283

> <i_lp_mmshare_version>
43012

> <i_f3d_flags>
0

> <s_epik_input>
Q2xjMVtjSF1bY0hdW2NIXVtjSF1jMVtDQEhdKFtDSDNdKVtOSF1jKG5bY0hdbjIpYyhjMjMpbltjSF1uM1tDQEBIXTRPW0NASF0oW0NIMl1bT0hdKVtDQEBIXShbT0hdKVtDQEhdNFtPSF0=

> <s_epik_cmdline>
J2VwaWtfcHl0aG9uJywgJy1waCcsICc3LjAnLCAnLXRuJywgJzgnLCAnLW1hJywgJzIwMCcsICctbWV0YWxfYmluZGluZycsICctaW1hZScsICc8aW5maWxlLm1hZT4nLCAnLW9tYWUnLCAnPG91dGZpbGUubWFlPic=

> <r_lp_tautomer_probability>
1

> <r_epik_Ionization_Penalty>
0.000266407

> <r_epik_Ionization_Penalty_Charging>
0

> <r_epik_Ionization_Penalty_Neutral>
0.000266407

> <r_epik_State_Penalty>
-0

> <r_epik_Charging_Adjusted_Penalty>
0

> <i_epik_Tot_Q>
0

> <i_epik_Tot_abs_Q>
0

> <r_epik_Metal_State_Penalty>
-0

> <b_epik_Metal_Only>
0

> <s_epik_Chemistry_Notes>
This compound contains an acetal/aminal-like group ( X-CH(R)-Y where X, Y are N, S, or O) that may be acid/base labile, releasing an aldehyde.

> <s_lp_Force_Field>
OPLS_2005

> <r_lp_Energy>
45.8165

> <b_lp_Chiralities_Consistent>
1

> <s_lp_Variant>
AV-unprocessed.smi:283-10

> <Gold.Version>
5.8.1

> <Gold.Id.Protein>
6NUR|6NUR_protein|mol2

> <Gold.PLP.Fitness>
58.2572

> <Gold.PLP.PLP>
-46.8894

> <Gold.PLP.part.hbond>
-3.9442

> <Gold.PLP.part.metal>
0.0000

> <Gold.PLP.part.buried>
-5.1476

> <Gold.PLP.part.nonpolar>
-39.2262

> <Gold.PLP.part.repulsive>
0.8480

> <Gold.PLP.ligand.clash>
0.0000

> <Gold.PLP.ligand.torsion>
0.1978

> <Gold.PLP.Chemscore.Hbond>
2.9600

> <Gold.PLP.Chemscore.CHOScore>
0.9385

> <Gold.PLP.Chemscore.Metal>
0.0000

> <Gold.Chemscore.Hbonds>
donor molecule, donor type, donor heavy atom, donor atom, acceptor molecule, acceptor atom, score
      L1  H    19    43       P1  7948  0.41
      L1  H    21    44       P1 10175  0.99
      P1  H  7989  7998       L1    10  0.75
      L1  C    11    39       P1  7957  0.91

> <Gold.PLP.Chemscore.Internal.Correction>
0.0679

> <Gold.Rescore>
     Score         DG    S(hbond)    S(metal)    S(lipo)     H(rot)  DE(clash)    DE(int)     intcor
     17.07     -17.37       2.67        0.00     115.05       4.10       0.15       0.14       ----

> <Gold.Chemscore.Fitness>
17.0729

> <Gold.Chemscore.DG>
-17.3656

> <Gold.Chemscore.ZeroCoef>
-5.4800

> <Gold.Chemscore.Hbond>
2.6686

> <Gold.Chemscore.Metal>
0.0000

> <Gold.Chemscore.Lipo>
115.0468

> <Gold.Chemscore.Internal_Hbond>
0.0000

> <Gold.Chemscore.DEClash>
0.1506

> <Gold.Chemscore.DEInternal>
0.1421

> <Gold.Chemscore.Rot>
4.0968

> <Gold.Chemscore.Internal.Correction>
   9.000000E+99

> <Gold.Chemscore.Hbonds>
donor molecule, donor type, donor heavy atom, donor atom, acceptor molecule, acceptor atom, score
      L1  H    19    43       P1  7948  0.41
      L1  H    21    44       P1 10175  0.46
      P1  H  7989  7998       L1    10  0.33

> <Gold.Chemscore.Hbond.Weighted>
-8.9131

> <Gold.Chemscore.Metal.Weighted>
-0.0000

> <Gold.Chemscore.Lipo.Weighted>
-13.4605

> <Gold.Chemscore.Internal_Hbond.Weighted>
0.0000

> <Gold.Chemscore.DEClash.Weighted>
0.1506

> <Gold.Chemscore.DEInternal.Weighted>
0.1421

> <Gold.Chemscore.Rot.Weighted>
10.4879

> <Gold.Chemscore.Internal.Correction.Weighted>
   9.000000E+99

> <Gold.Protein.RotatedTorsions>
[ 6907 6896 6895 6894 ] final  -70.91 input  -60.11 | X-H torsion
[ 7974 7965 7964 7962 ] final -153.11 input  175.53 | X-H torsion
[ 8008 7997 7996 7995 ] final   11.85 input   59.86 | X-H torsion
[ 10167 10162 10161 10158 ] final -155.43 input  -65.29 | X-H torsion
[ 10718 10713 10712 10709 ] final   25.82 input   66.30 | X-H torsion
[ 10763 10752 10751 10750 ] final  -36.28 input  -60.55 | X-H torsion
[ 11005 11000 10999 10996 ] final -100.20 input  -57.11 | X-H torsion

> <Gold.Protein.ActiveResidues>
 VAL166  LYS551  ARG553  GLY616  TRP617  ASP618  TYR619  PRO620  LYS621  CYS622 
 ASP623  PHE694  ASN695  SER759  ASP760  ASP761  ALA762  ILE779  LEU786  VAL792 
 PHE793  MET794  SER795  GLU796  ALA797  LYS798  CYS799  TRP800  GLU811  SER814 

> <Gold.Protein.RotatedAtoms>
  150.7236  134.5384  159.5734 H   0  0  0  0  0  0  0  0  0  0  0  0  # atno 6907 bound_to 6896
  152.2901  134.7729  160.0388 H   0  0  0  0  0  0  0  0  0  0  0  0  # atno 6908 bound_to 6896
  151.8345  133.3378  159.3660 H   0  0  0  0  0  0  0  0  0  0  0  0  # atno 6909 bound_to 6896
  144.7758  140.4570  143.5874 H   0  0  0  0  0  0  0  0  0  0  0  0  # atno 7974 bound_to 7965
  154.8126  140.2870  155.5842 H   0  0  0  0  0  0  0  0  0  0  0  0  # atno 8008 bound_to 7997
  156.2990  140.2565  156.2947 H   0  0  0  0  0  0  0  0  0  0  0  0  # atno 8009 bound_to 7997
  154.9430  140.0381  157.2096 H   0  0  0  0  0  0  0  0  0  0  0  0  # atno 8010 bound_to 7997
  139.6931  143.9387  152.2394 H   0  0  0  0  0  0  0  0  0  0  0  0  # atno 10167 bound_to 10162
  157.1985  130.6879  149.6178 H   0  0  0  0  0  0  0  0  0  0  0  0  # atno 10718 bound_to 10713
  153.8772  135.6825  153.4769 H   0  0  0  0  0  0  0  0  0  0  0  0  # atno 10763 bound_to 10752
  153.1254  135.4721  154.9261 H   0  0  0  0  0  0  0  0  0  0  0  0  # atno 10764 bound_to 10752
  154.7686  135.3232  154.8187 H   0  0  0  0  0  0  0  0  0  0  0  0  # atno 10765 bound_to 10752
  141.1280  133.8380  157.1071 H   0  0  0  0  0  0  0  0  0  0  0  0  # atno 11005 bound_to 11000
  145.6191  139.1522  143.3032 LP  0  0  0  0  0  0  0  0  0  0  0  0  # atno 17320 bound_to 7965
  146.1936  140.6302  142.9134 LP  0  0  0  0  0  0  0  0  0  0  0  0  # atno 17321 bound_to 7965
  139.9208  144.6800  150.8463 LP  0  0  0  0  0  0  0  0  0  0  0  0  # atno 17342 bound_to 10162
  140.7688  143.3376  151.2276 LP  0  0  0  0  0  0  0  0  0  0  0  0  # atno 17343 bound_to 10162
  155.9703  130.4591  150.6023 LP  0  0  0  0  0  0  0  0  0  0  0  0  # atno 17370 bound_to 10713
  157.3791  131.0778  151.1492 LP  0  0  0  0  0  0  0  0  0  0  0  0  # atno 17371 bound_to 10713
  140.0297  134.9907  157.0757 LP  0  0  0  0  0  0  0  0  0  0  0  0  # atno 17394 bound_to 11000
  140.4305  134.1786  155.7168 LP  0  0  0  0  0  0  0  0  0  0  0  0  # atno 17395 bound_to 11000

$$$$
