AV-unprocessed.smi:72|AV-procd|sdf|695|dock3
  -GOLD-   2262017 13D 1   1.00000     0.00000
 Structure written by MMmdl.
 30 31  0  0  0  0  0  0  0  0  2 V2000
  151.8148  140.9242  159.1786 N   0  0  0  0  0  0  0  0  0  0  0  0
  151.3007  140.7608  157.9091 C   0  0  0  0  0  0  0  0  0  0  0  0
  150.0135  141.2111  157.6739 N   0  3  0  0  0  0  0  0  0  0  0  0
  149.3736  141.1354  156.4988 C   0  0  0  0  0  0  0  0  0  0  0  0
  149.9964  140.6075  155.4650 N   0  0  0  0  0  0  0  0  0  0  0  0
  149.3223  140.5025  154.1251 C   0  0  2  0  0  0  0  0  0  0  0  0
  148.6160  141.6869  153.9094 O   0  0  0  0  0  0  0  0  0  0  0  0
  147.2873  141.3960  153.4870 C   0  0  2  0  0  0  0  0  0  0  0  0
  146.3520  142.5505  153.8781 C   0  0  0  0  0  0  0  0  0  0  0  0
  146.5958  142.9388  155.2128 O   0  0  0  0  0  0  0  0  0  0  0  0
  146.9886  140.0883  154.2199 C   0  0  1  0  0  0  0  0  0  0  0  0
  145.9033  139.3728  153.6615 O   0  0  0  0  0  0  0  0  0  0  0  0
  148.3148  139.3424  154.1275 C   0  0  1  0  0  0  0  0  0  0  0  0
  148.4296  138.5731  152.9447 O   0  0  0  0  0  0  0  0  0  0  0  0
  151.3071  140.0884  155.6159 C   0  0  0  0  0  0  0  0  0  0  0  0
  151.8773  139.5509  154.6672 O   0  0  0  0  0  0  0  0  0  0  0  0
  151.8942  140.2155  156.8832 N   0  0  0  0  0  0  0  0  0  0  0  0
  150.1176  140.4108  153.3829 H   0  0  0  0  0  0  0  0  0  0  0  0
  147.2793  141.2241  152.4085 H   0  0  0  0  0  0  0  0  0  0  0  0
  146.7712  140.2989  155.2681 H   0  0  0  0  0  0  0  0  0  0  0  0
  148.4669  138.6825  154.9829 H   0  0  0  0  0  0  0  0  0  0  0  0
  152.7421  140.6221  159.4431 H   0  0  0  0  0  0  0  0  0  0  0  0
  151.3114  141.3546  159.9410 H   0  0  0  0  0  0  0  0  0  0  0  0
  148.3579  141.5021  156.4190 H   0  0  0  0  0  0  0  0  0  0  0  0
  146.5415  143.4186  153.2462 H   0  0  0  0  0  0  0  0  0  0  0  0
  145.3048  142.2768  153.7468 H   0  0  0  0  0  0  0  0  0  0  0  0
  147.4865  143.2475  155.2797 H   0  0  0  0  0  0  0  0  0  0  0  0
  145.3453  139.9799  153.1998 H   0  0  0  0  0  0  0  0  0  0  0  0
  148.9095  139.0732  152.3018 H   0  0  0  0  0  0  0  0  0  0  0  0
  149.5213  141.6290  158.4507 H   0  0  0  0  0  0  0  0  0  0  0  0
  1  2  1  0  0  0  0
  1 22  1  0  0  0  0
  1 23  1  0  0  0  0
  2 17  2  0  0  0  0
  2  3  1  0  0  0  0
  3  4  2  0  0  0  0
  3 30  1  0  0  0  0
  4  5  1  0  0  0  0
  4 24  1  0  0  0  0
  5  6  1  0  0  0  0
  5 15  1  0  0  0  0
  6 18  1  0  0  0  0
  6 13  1  0  0  0  0
  6  7  1  0  0  0  0
  7  8  1  0  0  0  0
  8 19  1  0  0  0  0
  8  9  1  0  0  0  0
  8 11  1  0  0  0  0
  9 10  1  0  0  0  0
  9 25  1  0  0  0  0
  9 26  1  0  0  0  0
 10 27  1  0  0  0  0
 11 20  1  0  0  0  0
 11 12  1  0  0  0  0
 11 13  1  0  0  0  0
 12 28  1  0  0  0  0
 13 21  1  0  0  0  0
 13 14  1  0  0  0  0
 14 29  1  0  0  0  0
 15 16  2  0  0  0  0
 15 17  1  0  0  0  0
M  CHG  1   3   1
M  END
> <s_m_source_file>
AV-unprocessed.smi

> <i_m_source_file_index>
72

> <i_lp_mmshare_version>
43012

> <i_f3d_flags>
0

> <s_epik_input>
W05IMl1jMW5bY0hdbihjKD1PKW4xKVtDQEBIXTJPW0NASF0oW0NIMl1bT0hdKVtDQEBIXShbT0hdKVtDQEhdMltPSF0=

> <s_epik_cmdline>
J2VwaWtfcHl0aG9uJywgJy1waCcsICc3LjAnLCAnLXRuJywgJzgnLCAnLW1hJywgJzIwMCcsICctbWV0YWxfYmluZGluZycsICctaW1hZScsICc8aW5maWxlLm1hZT4nLCAnLW9tYWUnLCAnPG91dGZpbGUubWFlPic=

> <r_lp_tautomer_probability>
4.77166e-05

> <r_epik_Ionization_Penalty>
0.104979

> <r_epik_Ionization_Penalty_Charging>
0.0999619

> <r_epik_Ionization_Penalty_Neutral>
0.00501745

> <r_epik_State_Penalty>
2.51541

> <r_epik_Charging_Adjusted_Penalty>
2.61537

> <i_epik_Tot_Q>
1

> <i_epik_Tot_abs_Q>
1

> <r_epik_Metal_State_Penalty>
3.53763

> <b_epik_Metal_Only>
0

> <s_epik_Chemistry_Notes>
This compound contains an acetal/aminal-like group ( X-CH(R)-Y where X, Y are N, S, or O) that may be acid/base labile, releasing an aldehyde.

> <s_lp_Force_Field>
OPLS_2005

> <r_lp_Energy>
34.3488

> <b_lp_Chiralities_Consistent>
1

> <s_lp_Variant>
AV-unprocessed.smi:72-33

> <Gold.Version>
5.8.1

> <Gold.Id.Protein>
6NUR|6NUR_protein|mol2

> <Gold.PLP.Fitness>
39.2966

> <Gold.PLP.PLP>
-27.4400

> <Gold.PLP.part.hbond>
-6.0000

> <Gold.PLP.part.metal>
0.0000

> <Gold.PLP.part.buried>
-2.4391

> <Gold.PLP.part.nonpolar>
-17.9890

> <Gold.PLP.part.repulsive>
0.4918

> <Gold.PLP.ligand.clash>
0.0000

> <Gold.PLP.ligand.torsion>
0.5780

> <Gold.PLP.Chemscore.Hbond>
4.3310

> <Gold.PLP.Chemscore.CHOScore>
0.0000

> <Gold.PLP.Chemscore.Metal>
0.0000

> <Gold.Chemscore.Hbonds>
donor molecule, donor type, donor heavy atom, donor atom, acceptor molecule, acceptor atom, score
      L1  H    10    27       P1  8028  0.90
      L1  H    12    28       P1 10175  1.00
      L1  H    14    29       P1  7957  1.00
      P1  H  7989  7998       L1    16  0.88
      P1  H  8011  8017       L1     7  0.45

> <Gold.PLP.Chemscore.Internal.Correction>
0.0195

> <Gold.Rescore>
     Score         DG    S(hbond)    S(metal)    S(lipo)     H(rot)  DE(clash)    DE(int)     intcor
      7.06      -7.39       2.88        0.00      23.43       4.08       0.04       0.29       ----

> <Gold.Chemscore.Fitness>
7.0630

> <Gold.Chemscore.DG>
-7.3930

> <Gold.Chemscore.ZeroCoef>
-5.4800

> <Gold.Chemscore.Hbond>
2.8777

> <Gold.Chemscore.Metal>
0.0000

> <Gold.Chemscore.Lipo>
23.4342

> <Gold.Chemscore.Internal_Hbond>
0.0000

> <Gold.Chemscore.DEClash>
0.0402

> <Gold.Chemscore.DEInternal>
0.2897

> <Gold.Chemscore.Rot>
4.0783

> <Gold.Chemscore.Internal.Correction>
   9.000000E+99

> <Gold.Chemscore.Hbonds>
donor molecule, donor type, donor heavy atom, donor atom, acceptor molecule, acceptor atom, score
      L1  H    10    27       P1  8028  0.16
      L1  H    12    28       P1 10175  0.96
      L1  H    14    29       P1  7957  0.98
      P1  H  7989  7998       L1    16  0.17
      P1  H  8011  8017       L1     7  0.07

> <Gold.Chemscore.Hbond.Weighted>
-9.6116

> <Gold.Chemscore.Metal.Weighted>
-0.0000

> <Gold.Chemscore.Lipo.Weighted>
-2.7418

> <Gold.Chemscore.Internal_Hbond.Weighted>
0.0000

> <Gold.Chemscore.DEClash.Weighted>
0.0402

> <Gold.Chemscore.DEInternal.Weighted>
0.2897

> <Gold.Chemscore.Rot.Weighted>
10.4404

> <Gold.Chemscore.Internal.Correction.Weighted>
   9.000000E+99

> <Gold.Protein.RotatedTorsions>
[ 6907 6896 6895 6894 ] final  178.20 input  -60.11 | X-H torsion
[ 7974 7965 7964 7962 ] final   34.39 input  175.53 | X-H torsion
[ 8008 7997 7996 7995 ] final  -24.12 input   59.86 | X-H torsion
[ 10167 10162 10161 10158 ] final  -18.09 input  -65.29 | X-H torsion
[ 10718 10713 10712 10709 ] final   37.56 input   66.30 | X-H torsion
[ 10763 10752 10751 10750 ] final  -51.38 input  -60.55 | X-H torsion
[ 11005 11000 10999 10996 ] final -149.70 input  -57.11 | X-H torsion

> <Gold.Protein.ActiveResidues>
 VAL166  LYS551  ARG553  GLY616  TRP617  ASP618  TYR619  PRO620  LYS621  CYS622 
 ASP623  PHE694  ASN695  SER759  ASP760  ASP761  ALA762  ILE779  LEU786  VAL792 
 PHE793  MET794  SER795  GLU796  ALA797  LYS798  CYS799  TRP800  GLU811  SER814 

> <Gold.Protein.RotatedAtoms>
  151.6917  133.3311  159.3244 H   0  0  0  0  0  0  0  0  0  0  0  0  # atno 6907 bound_to 6896
  150.7776  134.6692  159.6392 H   0  0  0  0  0  0  0  0  0  0  0  0  # atno 6908 bound_to 6896
  152.3823  134.6575  160.0190 H   0  0  0  0  0  0  0  0  0  0  0  0  # atno 6909 bound_to 6896
  146.1356  139.6275  142.9198 H   0  0  0  0  0  0  0  0  0  0  0  0  # atno 7974 bound_to 7965
  154.4546  140.1962  156.0416 H   0  0  0  0  0  0  0  0  0  0  0  0  # atno 8008 bound_to 7997
  156.0720  140.3283  155.7560 H   0  0  0  0  0  0  0  0  0  0  0  0  # atno 8009 bound_to 7997
  155.5248  140.0573  157.2891 H   0  0  0  0  0  0  0  0  0  0  0  0  # atno 8010 bound_to 7997
  140.7255  143.4950  150.9942 H   0  0  0  0  0  0  0  0  0  0  0  0  # atno 10167 bound_to 10162
  157.3484  130.7585  149.6961 H   0  0  0  0  0  0  0  0  0  0  0  0  # atno 10718 bound_to 10713
  154.1256  135.6528  153.4911 H   0  0  0  0  0  0  0  0  0  0  0  0  # atno 10763 bound_to 10752
  153.0211  135.5280  154.7053 H   0  0  0  0  0  0  0  0  0  0  0  0  # atno 10764 bound_to 10752
  154.6273  135.2972  155.0227 H   0  0  0  0  0  0  0  0  0  0  0  0  # atno 10765 bound_to 10752
  140.7480  134.3439  157.5132 H   0  0  0  0  0  0  0  0  0  0  0  0  # atno 11005 bound_to 11000
  145.5164  141.0433  143.2459 LP  0  0  0  0  0  0  0  0  0  0  0  0  # atno 17320 bound_to 7965
  144.7736  139.6680  143.7184 LP  0  0  0  0  0  0  0  0  0  0  0  0  # atno 17321 bound_to 7965
  139.8657  143.7257  152.3170 LP  0  0  0  0  0  0  0  0  0  0  0  0  # atno 17342 bound_to 10162
  139.7488  144.7540  151.0538 LP  0  0  0  0  0  0  0  0  0  0  0  0  # atno 17343 bound_to 10162
  155.9718  130.4147  150.4148 LP  0  0  0  0  0  0  0  0  0  0  0  0  # atno 17370 bound_to 10713
  157.2206  131.0481  151.2548 LP  0  0  0  0  0  0  0  0  0  0  0  0  # atno 17371 bound_to 10713
  139.8793  134.9124  156.3058 LP  0  0  0  0  0  0  0  0  0  0  0  0  # atno 17394 bound_to 11000
  140.9777  133.7287  156.0626 LP  0  0  0  0  0  0  0  0  0  0  0  0  # atno 17395 bound_to 11000

$$$$
