AV-unprocessed.smi:221|AV-procd|sdf|1693|dock7
  -GOLD-   2262020143D 1   1.00000     0.00000
 Structure written by MMmdl.
 50 53  0  0  0  0  0  0  0  0  1 V2000
  145.2093  128.2655  153.6581 N   0  0  0  0  0  0  0  0  0  0  0  0
  146.2956  128.3961  152.8935 C   0  0  0  0  0  0  0  0  0  0  0  0
  147.1438  127.5097  152.8056 O   0  0  0  0  0  0  0  0  0  0  0  0
  146.4522  129.7231  152.1336 C   0  0  1  0  0  0  0  0  0  0  0  0
  145.3894  129.8641  151.0313 C   0  0  0  0  0  0  0  0  0  0  0  0
  145.2123  131.3723  150.8861 C   0  0  2  0  0  0  0  0  0  0  0  0
  146.1826  131.8612  150.1119 F   0  0  0  0  0  0  0  0  0  0  0  0
  145.3923  131.8864  152.3142 C   0  0  0  0  0  0  0  0  0  0  0  0
  146.2225  130.8937  152.9865 N   0  0  0  0  0  0  0  0  0  0  0  0
  147.1126  131.2986  153.9317 C   0  0  0  0  0  0  0  0  0  0  0  0
  148.3587  130.7544  153.9539 N   0  0  0  0  0  0  0  0  0  0  0  0
  149.2500  131.1351  154.8731 C   0  0  0  0  0  0  0  0  0  0  0  0
  149.1074  132.0282  155.8531 N   0  0  0  0  0  0  0  0  0  0  0  0
  147.8575  132.5729  155.8450 C   0  0  0  0  0  0  0  0  0  0  0  0
  146.8093  132.2705  154.9291 C   0  0  0  0  0  0  0  0  0  0  0  0
  145.6795  133.0167  155.2476 N   0  0  0  0  0  0  0  0  0  0  0  0
  146.0381  133.7161  156.2890 C   0  0  0  0  0  0  0  0  0  0  0  0
  147.3282  133.5073  156.7177 N   0  0  0  0  0  0  0  0  0  0  0  0
  147.9766  134.1414  157.8517 C   0  0  0  0  0  0  0  0  0  0  0  0
  147.1899  134.0077  159.1832 C   0  0  1  0  0  0  0  0  0  0  0  0
  147.0464  132.5321  159.6382 C   0  0  0  0  0  0  0  0  0  0  0  0
  148.2963  131.9587  159.9634 O   0  0  0  0  0  0  0  0  0  0  0  0
  147.8531  134.8759  160.2849 C   0  0  2  0  0  0  0  0  0  0  0  0
  147.1666  134.8386  161.6413 C   0  0  0  0  0  0  0  0  0  0  0  0
  147.7129  136.0890  162.3214 C   0  0  0  0  0  0  0  0  0  0  0  0
  147.9390  137.0278  161.2772 O   0  0  0  0  0  0  0  0  0  0  0  0
  147.8245  136.3849  160.0125 C   0  0  0  0  0  0  0  0  0  0  0  0
  147.4455  129.7912  151.6852 H   0  0  0  0  0  0  0  0  0  0  0  0
  144.2592  131.6583  150.4408 H   0  0  0  0  0  0  0  0  0  0  0  0
  145.0595  127.4094  154.1719 H   0  0  0  0  0  0  0  0  0  0  0  0
  144.5395  129.0186  153.7155 H   0  0  0  0  0  0  0  0  0  0  0  0
  145.6849  129.3845  150.0974 H   0  0  0  0  0  0  0  0  0  0  0  0
  144.4412  129.4229  151.3444 H   0  0  0  0  0  0  0  0  0  0  0  0
  145.8289  132.8866  152.3231 H   0  0  0  0  0  0  0  0  0  0  0  0
  144.4300  131.9317  152.8254 H   0  0  0  0  0  0  0  0  0  0  0  0
  150.2152  130.6541  154.8156 H   0  0  0  0  0  0  0  0  0  0  0  0
  145.3649  134.4022  156.7821 H   0  0  0  0  0  0  0  0  0  0  0  0
  148.9745  133.7153  157.9625 H   0  0  0  0  0  0  0  0  0  0  0  0
  148.1203  135.1905  157.5933 H   0  0  0  0  0  0  0  0  0  0  0  0
  146.1865  134.4060  159.0231 H   0  0  0  0  0  0  0  0  0  0  0  0
  146.3721  132.4528  160.4915 H   0  0  0  0  0  0  0  0  0  0  0  0
  146.6262  131.9090  158.8510 H   0  0  0  0  0  0  0  0  0  0  0  0
  148.4901  132.1524  160.8680 H   0  0  0  0  0  0  0  0  0  0  0  0
  148.8917  134.5666  160.4149 H   0  0  0  0  0  0  0  0  0  0  0  0
  146.0849  134.9194  161.5240 H   0  0  0  0  0  0  0  0  0  0  0  0
  147.3820  133.9381  162.2161 H   0  0  0  0  0  0  0  0  0  0  0  0
  147.0318  136.4850  163.0748 H   0  0  0  0  0  0  0  0  0  0  0  0
  148.6659  135.8728  162.8057 H   0  0  0  0  0  0  0  0  0  0  0  0
  148.6232  136.7047  159.3429 H   0  0  0  0  0  0  0  0  0  0  0  0
  146.8733  136.6798  159.5672 H   0  0  0  0  0  0  0  0  0  0  0  0
  1  2  1  0  0  0  0
  1 30  1  0  0  0  0
  1 31  1  0  0  0  0
  2  3  2  0  0  0  0
  2  4  1  0  0  0  0
  4 28  1  0  0  0  0
  4  9  1  0  0  0  0
  4  5  1  0  0  0  0
  5  6  1  0  0  0  0
  5 32  1  0  0  0  0
  5 33  1  0  0  0  0
  6 29  1  0  0  0  0
  6  7  1  0  0  0  0
  6  8  1  0  0  0  0
  8  9  1  0  0  0  0
  8 34  1  0  0  0  0
  8 35  1  0  0  0  0
  9 10  1  0  0  0  0
 10 15  1  0  0  0  0
 10 11  2  0  0  0  0
 11 12  1  0  0  0  0
 12 13  2  0  0  0  0
 12 36  1  0  0  0  0
 13 14  1  0  0  0  0
 14 18  1  0  0  0  0
 14 15  2  0  0  0  0
 15 16  1  0  0  0  0
 16 17  2  0  0  0  0
 17 18  1  0  0  0  0
 17 37  1  0  0  0  0
 18 19  1  0  0  0  0
 19 20  1  0  0  0  0
 19 38  1  0  0  0  0
 19 39  1  0  0  0  0
 20 21  1  0  0  0  0
 20 23  1  0  0  0  0
 20 40  1  0  0  0  0
 21 22  1  0  0  0  0
 21 41  1  0  0  0  0
 21 42  1  0  0  0  0
 22 43  1  0  0  0  0
 23 27  1  0  0  0  0
 23 24  1  0  0  0  0
 23 44  1  0  0  0  0
 24 25  1  0  0  0  0
 24 45  1  0  0  0  0
 24 46  1  0  0  0  0
 25 26  1  0  0  0  0
 25 47  1  0  0  0  0
 25 48  1  0  0  0  0
 26 27  1  0  0  0  0
 27 49  1  0  0  0  0
 27 50  1  0  0  0  0
M  END
> <s_m_source_file>
AV-unprocessed.smi

> <i_m_source_file_index>
221

> <i_lp_mmshare_version>
43012

> <i_f3d_flags>
0

> <s_epik_input>
W05IMl1DKD1PKVtDQEBIXTFbQ0gyXVtDQEBIXShGKVtDSDJdTjFjKG5bY0hdbjIpYyhjMjMpbltjSF1uM1tDSDJdW0NASF0oW0NIMl1bT0hdKVtDQEBIXTRbQ0gyXVtDSDJdT1tDSDJdNA==

> <s_epik_cmdline>
J2VwaWtfcHl0aG9uJywgJy1waCcsICc3LjAnLCAnLXRuJywgJzgnLCAnLW1hJywgJzIwMCcsICctbWV0YWxfYmluZGluZycsICctaW1hZScsICc8aW5maWxlLm1hZT4nLCAnLW9tYWUnLCAnPG91dGZpbGUubWFlPic=

> <r_lp_tautomer_probability>
1

> <r_epik_Ionization_Penalty>
0.000818822

> <r_epik_Ionization_Penalty_Charging>
0

> <r_epik_Ionization_Penalty_Neutral>
0.000818822

> <r_epik_State_Penalty>
0.000440551

> <r_epik_Charging_Adjusted_Penalty>
0.000440551

> <i_epik_Tot_Q>
0

> <i_epik_Tot_abs_Q>
0

> <r_epik_Metal_State_Penalty>
-0

> <b_epik_Metal_Only>
0

> <s_lp_Force_Field>
OPLS_2005

> <r_lp_Energy>
48.2465

> <b_lp_Chiralities_Consistent>
1

> <s_lp_Variant>
AV-unprocessed.smi:221-8

> <Gold.Version>
5.8.1

> <Gold.Id.Protein>
6NUR|6NUR_protein|mol2

> <Gold.PLP.Fitness>
42.0952

> <Gold.PLP.PLP>
-34.9364

> <Gold.PLP.part.hbond>
-3.0000

> <Gold.PLP.part.metal>
0.0000

> <Gold.PLP.part.buried>
-5.3052

> <Gold.PLP.part.nonpolar>
-26.3989

> <Gold.PLP.part.repulsive>
0.3266

> <Gold.PLP.ligand.clash>
0.0000

> <Gold.PLP.ligand.torsion>
0.6685

> <Gold.PLP.Chemscore.Hbond>
2.7244

> <Gold.PLP.Chemscore.CHOScore>
0.0000

> <Gold.PLP.Chemscore.Metal>
0.0000

> <Gold.Chemscore.Hbonds>
donor molecule, donor type, donor heavy atom, donor atom, acceptor molecule, acceptor atom, score
      L1  H     1    31       P1 10956  0.77
      P1  H  6931  6943       L1    26  1.00
      P1  H  6934  6947       L1    26  0.51

> <Gold.PLP.Chemscore.Internal.Correction>
0.3225

> <Gold.Rescore>
     Score         DG    S(hbond)    S(metal)    S(lipo)     H(rot)  DE(clash)    DE(int)     intcor
     11.09     -12.05       1.91        0.00      73.98       3.31       0.30       0.66       ----

> <Gold.Chemscore.Fitness>
11.0902

> <Gold.Chemscore.DG>
-12.0466

> <Gold.Chemscore.ZeroCoef>
-5.4800

> <Gold.Chemscore.Hbond>
1.9106

> <Gold.Chemscore.Metal>
0.0000

> <Gold.Chemscore.Lipo>
73.9847

> <Gold.Chemscore.Internal_Hbond>
0.0000

> <Gold.Chemscore.DEClash>
0.2974

> <Gold.Chemscore.DEInternal>
0.6590

> <Gold.Chemscore.Rot>
3.3089

> <Gold.Chemscore.Internal.Correction>
   9.000000E+99

> <Gold.Chemscore.Hbonds>
donor molecule, donor type, donor heavy atom, donor atom, acceptor molecule, acceptor atom, score
      L1  H     1    31       P1 10956  0.70
      P1  H  6931  6943       L1    26  0.59
      P1  H  6934  6947       L1    26  0.26

> <Gold.Chemscore.Hbond.Weighted>
-6.3813

> <Gold.Chemscore.Metal.Weighted>
-0.0000

> <Gold.Chemscore.Lipo.Weighted>
-8.6562

> <Gold.Chemscore.Internal_Hbond.Weighted>
0.0000

> <Gold.Chemscore.DEClash.Weighted>
0.2974

> <Gold.Chemscore.DEInternal.Weighted>
0.6590

> <Gold.Chemscore.Rot.Weighted>
8.4709

> <Gold.Chemscore.Internal.Correction.Weighted>
   9.000000E+99

> <Gold.Protein.RotatedTorsions>
[ 6907 6896 6895 6894 ] final -112.78 input  -60.11 | X-H torsion
[ 7974 7965 7964 7962 ] final   13.01 input  175.53 | X-H torsion
[ 8008 7997 7996 7995 ] final -167.36 input   59.86 | X-H torsion
[ 10167 10162 10161 10158 ] final   29.00 input  -65.29 | X-H torsion
[ 10718 10713 10712 10709 ] final -174.23 input   66.30 | X-H torsion
[ 10763 10752 10751 10750 ] final  -29.47 input  -60.55 | X-H torsion
[ 11005 11000 10999 10996 ] final   94.52 input  -57.11 | X-H torsion

> <Gold.Protein.ActiveResidues>
 VAL166  LYS551  ARG553  GLY616  TRP617  ASP618  TYR619  PRO620  LYS621  CYS622 
 ASP623  PHE694  ASN695  SER759  ASP760  ASP761  ALA762  ILE779  LEU786  VAL792 
 PHE793  MET794  SER795  GLU796  ALA797  LYS798  CYS799  TRP800  GLU811  SER814 

> <Gold.Protein.RotatedAtoms>
  150.7782  133.9039  159.3349 H   0  0  0  0  0  0  0  0  0  0  0  0  # atno 6907 bound_to 6896
  151.6909  135.0945  160.0243 H   0  0  0  0  0  0  0  0  0  0  0  0  # atno 6908 bound_to 6896
  152.3826  133.6528  159.6208 H   0  0  0  0  0  0  0  0  0  0  0  0  # atno 6909 bound_to 6896
  146.2339  139.9252  142.8504 H   0  0  0  0  0  0  0  0  0  0  0  0  # atno 7974 bound_to 7965
  155.8766  140.1002  157.1514 H   0  0  0  0  0  0  0  0  0  0  0  0  # atno 8008 bound_to 7997
  154.4001  140.1337  156.4207 H   0  0  0  0  0  0  0  0  0  0  0  0  # atno 8009 bound_to 7997
  155.7690  140.3461  155.5239 H   0  0  0  0  0  0  0  0  0  0  0  0  # atno 8010 bound_to 7997
  140.4804  144.0625  150.6263 H   0  0  0  0  0  0  0  0  0  0  0  0  # atno 10167 bound_to 10162
  156.7820  130.9487  151.3120 H   0  0  0  0  0  0  0  0  0  0  0  0  # atno 10718 bound_to 10713
  153.7652  135.6916  153.4917 H   0  0  0  0  0  0  0  0  0  0  0  0  # atno 10763 bound_to 10752
  153.1912  135.4470  155.0150 H   0  0  0  0  0  0  0  0  0  0  0  0  # atno 10764 bound_to 10752
  154.8138  135.3389  154.7165 H   0  0  0  0  0  0  0  0  0  0  0  0  # atno 10765 bound_to 10752
  139.8798  134.8850  156.3877 H   0  0  0  0  0  0  0  0  0  0  0  0  # atno 11005 bound_to 11000
  145.2098  140.9890  143.4107 LP  0  0  0  0  0  0  0  0  0  0  0  0  # atno 17320 bound_to 7965
  144.9701  139.3889  143.6313 LP  0  0  0  0  0  0  0  0  0  0  0  0  # atno 17321 bound_to 7965
  140.3865  143.2775  152.0110 LP  0  0  0  0  0  0  0  0  0  0  0  0  # atno 17342 bound_to 10162
  139.4832  144.6112  151.7429 LP  0  0  0  0  0  0  0  0  0  0  0  0  # atno 17343 bound_to 10162
  157.6642  130.8992  149.9895 LP  0  0  0  0  0  0  0  0  0  0  0  0  # atno 17370 bound_to 10713
  156.1212  130.3646  149.9884 LP  0  0  0  0  0  0  0  0  0  0  0  0  # atno 17371 bound_to 10713
  140.9355  133.7550  156.0079 LP  0  0  0  0  0  0  0  0  0  0  0  0  # atno 17394 bound_to 11000
  140.8281  134.3210  157.5358 LP  0  0  0  0  0  0  0  0  0  0  0  0  # atno 17395 bound_to 11000

$$$$
