AV-unprocessed.smi:321|AV-procd|sdf|2334|dock5
  -GOLD-   2262022243D 1   1.00000     0.00000
 Structure written by MMmdl.
 49 50  0  0  0  0  0  0  0  0  1 V2000
  151.1042  143.0171  157.9325 C   0  0  0  0  0  0  0  0  0  0  0  0
  150.7787  141.7250  157.1743 C   0  0  0  0  0  0  0  0  0  0  0  0
  148.9666  141.3588  157.1770 S   0  0  0  0  0  0  0  0  0  0  0  0
  148.7593  139.9843  157.6594 O   0  0  0  0  0  0  0  0  0  0  0  0
  148.2737  142.4768  157.8353 O   0  0  0  0  0  0  0  0  0  0  0  0
  148.5247  141.3942  155.4928 N   0  0  0  0  0  0  0  0  0  0  0  0
  149.2729  140.5932  154.5010 C   0  0  0  0  0  0  0  0  0  0  0  0
  148.4930  139.3422  154.0588 C   0  0  0  0  0  0  0  0  0  0  0  0
  147.0730  139.6989  153.5863 C   0  0  0  0  0  0  0  0  0  0  0  0
  146.3147  138.4963  153.2562 N   0  0  0  0  0  0  0  0  0  0  0  0
  146.2442  137.9294  152.0381 C   0  0  0  0  0  0  0  0  0  0  0  0
  146.8356  138.3819  151.0566 O   0  0  0  0  0  0  0  0  0  0  0  0
  145.3979  136.7068  151.9519 C   0  0  0  0  0  0  0  0  0  0  0  0
  145.7170  135.7464  150.9092 C   0  0  0  0  0  0  0  0  0  0  0  0
  144.9632  134.6295  150.8134 C   0  0  0  0  0  0  0  0  0  0  0  0
  143.8475  134.3666  151.7237 C   0  0  0  0  0  0  0  0  0  0  0  0
  143.1517  133.3539  151.6571 O   0  0  0  0  0  0  0  0  0  0  0  0
  143.6501  135.3475  152.6560 N   0  0  0  0  0  0  0  0  0  0  0  0
  142.5825  135.2445  153.6578 C   0  0  0  0  0  0  0  0  0  0  0  0
  141.5154  136.3356  153.4711 C   0  0  0  0  0  0  0  0  0  0  0  0
  140.3490  136.0017  154.2052 O   0  0  0  0  0  0  0  0  0  0  0  0
  139.2384  136.8099  153.8595 C   0  0  0  0  0  0  0  0  0  0  0  0
  144.4152  136.4974  152.7673 N   0  0  0  0  0  0  0  0  0  0  0  0
  146.3504  140.4803  154.6926 C   0  0  0  0  0  0  0  0  0  0  0  0
  147.1434  141.7340  155.1006 C   0  0  0  0  0  0  0  0  0  0  0  0
  152.1788  143.1986  157.9443 H   0  0  0  0  0  0  0  0  0  0  0  0
  150.7635  142.9685  158.9663 H   0  0  0  0  0  0  0  0  0  0  0  0
  150.6284  143.8790  157.4643 H   0  0  0  0  0  0  0  0  0  0  0  0
  151.0876  141.8336  156.1346 H   0  0  0  0  0  0  0  0  0  0  0  0
  151.3205  140.8746  157.5801 H   0  0  0  0  0  0  0  0  0  0  0  0
  149.4659  141.2228  153.6316 H   0  0  0  0  0  0  0  0  0  0  0  0
  150.2486  140.3103  154.8944 H   0  0  0  0  0  0  0  0  0  0  0  0
  149.0398  138.8463  153.2561 H   0  0  0  0  0  0  0  0  0  0  0  0
  148.4468  138.6230  154.8755 H   0  0  0  0  0  0  0  0  0  0  0  0
  147.1375  140.3354  152.7014 H   0  0  0  0  0  0  0  0  0  0  0  0
  145.7991  138.0615  154.0081 H   0  0  0  0  0  0  0  0  0  0  0  0
  146.5350  135.9137  150.2237 H   0  0  0  0  0  0  0  0  0  0  0  0
  145.1896  133.9072  150.0429 H   0  0  0  0  0  0  0  0  0  0  0  0
  142.1081  134.2658  153.5676 H   0  0  0  0  0  0  0  0  0  0  0  0
  142.9787  135.2754  154.6741 H   0  0  0  0  0  0  0  0  0  0  0  0
  141.9023  137.3056  153.7880 H   0  0  0  0  0  0  0  0  0  0  0  0
  141.2640  136.4180  152.4126 H   0  0  0  0  0  0  0  0  0  0  0  0
  138.3735  136.5179  154.4550 H   0  0  0  0  0  0  0  0  0  0  0  0
  138.9778  136.6920  152.8069 H   0  0  0  0  0  0  0  0  0  0  0  0
  139.4411  137.8637  154.0546 H   0  0  0  0  0  0  0  0  0  0  0  0
  145.3569  140.7746  154.3525 H   0  0  0  0  0  0  0  0  0  0  0  0
  146.1989  139.8389  155.5606 H   0  0  0  0  0  0  0  0  0  0  0  0
  146.6367  142.2566  155.9116 H   0  0  0  0  0  0  0  0  0  0  0  0
  147.1839  142.4308  154.2627 H   0  0  0  0  0  0  0  0  0  0  0  0
  1  2  1  0  0  0  0
  1 26  1  0  0  0  0
  1 27  1  0  0  0  0
  1 28  1  0  0  0  0
  2  3  1  0  0  0  0
  2 29  1  0  0  0  0
  2 30  1  0  0  0  0
  3  4  2  0  0  0  0
  3  5  2  0  0  0  0
  3  6  1  0  0  0  0
  6 25  1  0  0  0  0
  6  7  1  0  0  0  0
  7  8  1  0  0  0  0
  7 31  1  0  0  0  0
  7 32  1  0  0  0  0
  8  9  1  0  0  0  0
  8 33  1  0  0  0  0
  8 34  1  0  0  0  0
  9 10  1  0  0  0  0
  9 24  1  0  0  0  0
  9 35  1  0  0  0  0
 10 11  1  0  0  0  0
 10 36  1  0  0  0  0
 11 12  2  0  0  0  0
 11 13  1  0  0  0  0
 13 23  2  0  0  0  0
 13 14  1  0  0  0  0
 14 15  2  0  0  0  0
 14 37  1  0  0  0  0
 15 16  1  0  0  0  0
 15 38  1  0  0  0  0
 16 17  2  0  0  0  0
 16 18  1  0  0  0  0
 18 19  1  0  0  0  0
 18 23  1  0  0  0  0
 19 20  1  0  0  0  0
 19 39  1  0  0  0  0
 19 40  1  0  0  0  0
 20 21  1  0  0  0  0
 20 41  1  0  0  0  0
 20 42  1  0  0  0  0
 21 22  1  0  0  0  0
 22 43  1  0  0  0  0
 22 44  1  0  0  0  0
 22 45  1  0  0  0  0
 24 25  1  0  0  0  0
 24 46  1  0  0  0  0
 24 47  1  0  0  0  0
 25 48  1  0  0  0  0
 25 49  1  0  0  0  0
M  END
> <s_m_source_file>
AV-unprocessed.smi

> <i_m_source_file_index>
321

> <i_lp_mmshare_version>
43012

> <i_f3d_flags>
0

> <s_epik_input>
W0NIM11bQ0gyXVMoPU8pKD1PKU4xW0NIMl1bQ0gyXVtDSF0oW0NIMl1bQ0gyXTEpW05IXUMoPU8pYzJbY0hdW2NIXWMoPU8pbihuMilbQ0gyXVtDSDJdT1tDSDNd

> <s_epik_cmdline>
J2VwaWtfcHl0aG9uJywgJy1waCcsICc3LjAnLCAnLXRuJywgJzgnLCAnLW1hJywgJzIwMCcsICctbWV0YWxfYmluZGluZycsICctaW1hZScsICc8aW5maWxlLm1hZT4nLCAnLW9tYWUnLCAnPG91dGZpbGUubWFlPic=

> <r_lp_tautomer_probability>
1

> <r_epik_Ionization_Penalty>
1.38514e-06

> <r_epik_Ionization_Penalty_Charging>
6.369e-09

> <r_epik_Ionization_Penalty_Neutral>
1.37877e-06

> <r_epik_State_Penalty>
-0

> <r_epik_Charging_Adjusted_Penalty>
6.369e-09

> <i_epik_Tot_Q>
0

> <i_epik_Tot_abs_Q>
0

> <r_epik_Metal_State_Penalty>
-0

> <b_epik_Metal_Only>
0

> <s_lp_Force_Field>
OPLS_2005

> <r_lp_Energy>
23.8323

> <b_lp_Chiralities_Consistent>
1

> <s_lp_Variant>
AV-unprocessed.smi:321-1

> <Gold.Version>
5.8.1

> <Gold.Id.Protein>
6NUR|6NUR_protein|mol2

> <Gold.PLP.Fitness>
47.1001

> <Gold.PLP.PLP>
-42.8256

> <Gold.PLP.part.hbond>
-2.0000

> <Gold.PLP.part.metal>
0.0000

> <Gold.PLP.part.buried>
-7.2890

> <Gold.PLP.part.nonpolar>
-35.7316

> <Gold.PLP.part.repulsive>
1.1163

> <Gold.PLP.ligand.clash>
0.0000

> <Gold.PLP.ligand.torsion>
1.9764

> <Gold.PLP.Chemscore.Hbond>
2.0000

> <Gold.PLP.Chemscore.CHOScore>
0.0000

> <Gold.PLP.Chemscore.Metal>
0.0000

> <Gold.Chemscore.Hbonds>
donor molecule, donor type, donor heavy atom, donor atom, acceptor molecule, acceptor atom, score
      P1  H  7954  7966       L1    12  1.00
      P1  H 11000 11005       L1    21  0.62

> <Gold.PLP.Chemscore.Internal.Correction>
2.2272

> <Gold.Rescore>
     Score         DG    S(hbond)    S(metal)    S(lipo)     H(rot)  DE(clash)    DE(int)     intcor
     13.83     -16.36       1.93        0.00      78.44       1.86       0.45       2.08       ----

> <Gold.Chemscore.Fitness>
13.8340

> <Gold.Chemscore.DG>
-16.3567

> <Gold.Chemscore.ZeroCoef>
-5.4800

> <Gold.Chemscore.Hbond>
1.9317

> <Gold.Chemscore.Metal>
0.0000

> <Gold.Chemscore.Lipo>
78.4431

> <Gold.Chemscore.Internal_Hbond>
0.0000

> <Gold.Chemscore.DEClash>
0.4470

> <Gold.Chemscore.DEInternal>
2.0757

> <Gold.Chemscore.Rot>
1.8567

> <Gold.Chemscore.Internal.Correction>
   9.000000E+99

> <Gold.Chemscore.Hbonds>
donor molecule, donor type, donor heavy atom, donor atom, acceptor molecule, acceptor atom, score
      P1  H  7954  7966       L1    12  0.99
      P1  H 11000 11005       L1    21  0.57

> <Gold.Chemscore.Hbond.Weighted>
-6.4518

> <Gold.Chemscore.Metal.Weighted>
-0.0000

> <Gold.Chemscore.Lipo.Weighted>
-9.1778

> <Gold.Chemscore.Internal_Hbond.Weighted>
0.0000

> <Gold.Chemscore.DEClash.Weighted>
0.4470

> <Gold.Chemscore.DEInternal.Weighted>
2.0757

> <Gold.Chemscore.Rot.Weighted>
4.7530

> <Gold.Chemscore.Internal.Correction.Weighted>
   9.000000E+99

> <Gold.Protein.RotatedTorsions>
[ 6907 6896 6895 6894 ] final  -23.20 input  -60.11 | X-H torsion
[ 7974 7965 7964 7962 ] final   84.40 input  175.53 | X-H torsion
[ 8008 7997 7996 7995 ] final  157.16 input   59.86 | X-H torsion
[ 10167 10162 10161 10158 ] final -173.49 input  -65.29 | X-H torsion
[ 10718 10713 10712 10709 ] final  -41.23 input   66.30 | X-H torsion
[ 10763 10752 10751 10750 ] final  166.09 input  -60.55 | X-H torsion
[ 11005 11000 10999 10996 ] final   52.60 input  -57.11 | X-H torsion

> <Gold.Protein.ActiveResidues>
 VAL166  LYS551  ARG553  GLY616  TRP617  ASP618  TYR619  PRO620  LYS621  CYS622 
 ASP623  PHE694  ASN695  SER759  ASP760  ASP761  ALA762  ILE779  LEU786  VAL792 
 PHE793  MET794  SER795  GLU796  ALA797  LYS798  CYS799  TRP800  GLU811  SER814 

> <Gold.Protein.RotatedAtoms>
  151.2074  135.0467  159.8897 H   0  0  0  0  0  0  0  0  0  0  0  0  # atno 6907 bound_to 6896
  152.5427  134.0782  159.8234 H   0  0  0  0  0  0  0  0  0  0  0  0  # atno 6908 bound_to 6896
  151.0931  133.5253  159.2646 H   0  0  0  0  0  0  0  0  0  0  0  0  # atno 6909 bound_to 6896
  145.5992  139.2350  143.2255 H   0  0  0  0  0  0  0  0  0  0  0  0  # atno 7974 bound_to 7965
  156.2380  140.1893  156.7066 H   0  0  0  0  0  0  0  0  0  0  0  0  # atno 8008 bound_to 7997
  154.6143  140.0617  156.9561 H   0  0  0  0  0  0  0  0  0  0  0  0  # atno 8009 bound_to 7997
  155.1965  140.3289  155.4352 H   0  0  0  0  0  0  0  0  0  0  0  0  # atno 8010 bound_to 7997
  139.5686  144.1696  152.1350 H   0  0  0  0  0  0  0  0  0  0  0  0  # atno 10167 bound_to 10162
  156.2726  130.4208  149.8422 H   0  0  0  0  0  0  0  0  0  0  0  0  # atno 10718 bound_to 10713
  154.3338  135.2754  155.2458 H   0  0  0  0  0  0  0  0  0  0  0  0  # atno 10763 bound_to 10752
  154.4758  135.5871  153.6357 H   0  0  0  0  0  0  0  0  0  0  0  0  # atno 10764 bound_to 10752
  152.9864  135.6099  154.3533 H   0  0  0  0  0  0  0  0  0  0  0  0  # atno 10765 bound_to 10752
  140.0836  134.5305  155.8922 H   0  0  0  0  0  0  0  0  0  0  0  0  # atno 11005 bound_to 11000
  146.1589  140.6817  142.9287 LP  0  0  0  0  0  0  0  0  0  0  0  0  # atno 17320 bound_to 7965
  144.7317  140.4691  143.6933 LP  0  0  0  0  0  0  0  0  0  0  0  0  # atno 17321 bound_to 7965
  140.1224  144.5361  150.6854 LP  0  0  0  0  0  0  0  0  0  0  0  0  # atno 17342 bound_to 10162
  140.6970  143.2410  151.4973 LP  0  0  0  0  0  0  0  0  0  0  0  0  # atno 17343 bound_to 10162
  156.5898  130.8501  151.3405 LP  0  0  0  0  0  0  0  0  0  0  0  0  # atno 17370 bound_to 10713
  157.7289  130.9663  150.1762 LP  0  0  0  0  0  0  0  0  0  0  0  0  # atno 17371 bound_to 10713
  141.2055  133.6647  156.6184 LP  0  0  0  0  0  0  0  0  0  0  0  0  # atno 17394 bound_to 11000
  140.3453  134.7815  157.4427 LP  0  0  0  0  0  0  0  0  0  0  0  0  # atno 17395 bound_to 11000

$$$$
