#       Name:                AV-unprocessed.smi:2889
#       Creating user name   scv26
#       Creation time:       Fri Mar 27 15:58:00 2020


#       File generated by GOLD software.
#

@<TRIPOS>MOLECULE
AV-unprocessed.smi:2889
    39    40     1
SMALL
NO_CHARGES


@<TRIPOS>ATOM
      1 ****        -0.3433  -0.7331  -4.2341 C.3            1 S1                 0.0000
      2 ****        -0.4949   0.4464  -2.8663 S.3            1 S1                 0.0000
      3 ****        -1.2949  -0.5970  -1.6038 C.3            1 S1                 0.0000
      4 ****        -2.8168  -0.7145  -1.9000 C.3            1 S1                 0.0000
      5 ****        -3.5793  -1.5576  -0.8579 C.3            1 S1                 0.0000
      6 ****        -3.3095  -0.9961   0.5508 C.3            1 S1                 0.0000
      7 ****        -1.7971  -0.8985   0.8639 C.3            1 S1                 0.0000
      8 ****        -1.0008  -0.0631  -0.1717 C.3            1 S1                 0.0000
      9 ****         0.4247  -0.1496   0.1217 N.pl3          1 S1                -1.0000
     10 ****         1.1103   0.9421   1.1050 S.o2           1 S1                 0.0000
     11 ****         1.1183   2.2973   0.5305 O.2            1 S1                 0.0000
     12 ****         0.6561   0.8125   2.4995 O.2            1 S1                 0.0000
     13 ****         2.8622   0.3665   1.0809 C.3            1 S1                 0.0000
     14 ****         3.7225   1.2830   1.9058 C.2            1 S1                 0.0000
     15 ****         3.7420   1.4471   3.3190 C.2            1 S1                 0.0000
     16 ****         4.7065   2.3919   3.5183 C.2            1 S1                 0.0000
     17 ****         5.2493   2.7737   2.3350 O.3            1 S1                 0.0000
     18 ****         4.6173   2.0581   1.3117 N.2            1 S1                 0.0000
     19 ****         0.1610  -0.2624  -5.0778 H              1 S1                 0.0000
     20 ****        -1.3242  -1.0708  -4.5665 H              1 S1                 0.0000
     21 ****         0.2395  -1.6008  -3.9250 H              1 S1                 0.0000
     22 ****        -0.8594  -1.5943  -1.6851 H              1 S1                 0.0000
     23 ****        -3.2655   0.2796  -1.9530 H              1 S1                 0.0000
     24 ****        -2.9685  -1.1578  -2.8837 H              1 S1                 0.0000
     25 ****        -4.6483  -1.5533  -1.0719 H              1 S1                 0.0000
     26 ****        -3.2498  -2.5959  -0.9109 H              1 S1                 0.0000
     27 ****        -3.7787  -0.0150   0.6486 H              1 S1                 0.0000
     28 ****        -3.7929  -1.6322   1.2928 H              1 S1                 0.0000
     29 ****        -1.6677  -0.4750   1.8602 H              1 S1                 0.0000
     30 ****        -1.3866  -1.9084   0.9092 H              1 S1                 0.0000
     31 ****        -1.3602   0.9657  -0.1220 H              1 S1                 0.0000
     32 ****         2.8928  -0.6510   1.4692 H              1 S1                 0.0000
     33 ****         3.1938   0.3357   0.0425 H              1 S1                 0.0000
     34 ****         3.1364   0.9542   4.0650 H              1 S1                 0.0000
     35 ****         5.1048   2.8712   4.4003 H              1 S1                 0.0000
     36 ****         0.9772  -0.8790  -0.2817 LP             1 S1                 0.0000
     37 ****         6.2292   2.5741   2.3321 LP             1 S1                 0.0000
     38 ****         5.1085   3.7544   2.1989 LP             1 S1                 0.0000
     39 ****         4.8035   2.1195   0.3311 LP             1 S1                 0.0000
@<TRIPOS>BOND
    1    1    2 1     
    2    1   19 1     
    3    1   20 1     
    4    1   21 1     
    5    2    3 1     
    6    3    8 1     
    7    3    4 1     
    8    3   22 1     
    9    4    5 1     
   10    4   23 1     
   11    4   24 1     
   12    5    6 1     
   13    5   25 1     
   14    5   26 1     
   15    6    7 1     
   16    6   27 1     
   17    6   28 1     
   18    7    8 1     
   19    7   29 1     
   20    7   30 1     
   21    8    9 1     
   22    8   31 1     
   23    9   10 1     
   24   10   11 2     
   25   10   12 2     
   26   10   13 1     
   27   13   14 1     
   28   13   32 1     
   29   13   33 1     
   30   14   18 2     
   31   14   15 1     
   32   15   16 2     
   33   15   34 1     
   34   16   17 1     
   35   16   35 1     
   36   17   18 1     
   37    9   36 1     
   38   17   37 1     
   39   17   38 1     
   40   18   39 1     
@<TRIPOS>SUBSTRUCTURE
      1 S1             1
@<TRIPOS>SET
LONE_PAIRS      STATIC     ATOMS    <user>   **** ""
6 36 11 12 37 38 39
ATOM$BLUE        STATIC     ATOMS    COLORGROUP SYSTEM
6 36 11 12 37 38 39
