AV-unprocessed.smi:2059|AV-procd|sdf|8348|dock10
  -GOLD-   2272011 13D 1   1.00000     0.00000
 Structure written by MMmdl.
 30 31  0  0  0  0  0  0  0  0  1 V2000
  143.8111  132.3786  149.8091 C   0  0  0  0  0  0  0  0  0  0  0  0
  144.2546  133.4625  150.7307 C   0  0  0  0  0  0  0  0  0  0  0  0
  145.3955  134.2106  150.8059 C   0  0  0  0  0  0  0  0  0  0  0  0
  145.1552  135.0580  151.9204 C   0  0  0  0  0  0  0  0  0  0  0  0
  146.1384  136.0039  152.3287 N   0  0  0  0  0  0  0  0  0  0  0  0
  146.0369  137.1130  153.0910 C   0  0  0  0  0  0  0  0  0  0  0  0
  144.9574  137.4593  153.5678 O   0  0  0  0  0  0  0  0  0  0  0  0
  147.1728  137.8010  153.2927 N   0  0  0  0  0  0  0  0  0  0  0  0
  147.2912  139.0220  154.0819 C   0  0  2  0  0  0  0  0  0  0  0  0
  147.3625  140.2821  153.1954 C   0  0  0  0  0  0  0  0  0  0  0  0
  147.8598  141.4570  154.0467 C   0  0  0  0  0  0  0  0  0  0  0  0
  148.9462  140.7328  155.3334 S   0  0  0  0  0  0  0  0  0  0  0  0
  150.3537  140.9973  154.9988 O   0  0  0  0  0  0  0  0  0  0  0  0
  148.4060  141.0743  156.6582 O   0  0  0  0  0  0  0  0  0  0  0  0
  148.5563  138.9845  154.9493 C   0  0  0  0  0  0  0  0  0  0  0  0
  143.9717  134.8409  152.4764 N   0  0  0  0  0  0  0  0  0  0  0  0
  143.3892  133.8190  151.7178 O   0  0  0  0  0  0  0  0  0  0  0  0
  144.3942  132.3883  148.8882 H   0  0  0  0  0  0  0  0  0  0  0  0
  142.7608  132.4998  149.5435 H   0  0  0  0  0  0  0  0  0  0  0  0
  143.9320  131.4014  150.2765 H   0  0  0  0  0  0  0  0  0  0  0  0
  146.2620  134.1579  150.1631 H   0  0  0  0  0  0  0  0  0  0  0  0
  147.0717  135.8058  151.9981 H   0  0  0  0  0  0  0  0  0  0  0  0
  148.0180  137.4486  152.8656 H   0  0  0  0  0  0  0  0  0  0  0  0
  146.4300  139.1130  154.7467 H   0  0  0  0  0  0  0  0  0  0  0  0
  148.0758  140.1114  152.3878 H   0  0  0  0  0  0  0  0  0  0  0  0
  146.4032  140.5075  152.7286 H   0  0  0  0  0  0  0  0  0  0  0  0
  148.4058  142.2007  153.4663 H   0  0  0  0  0  0  0  0  0  0  0  0
  147.0268  141.9493  154.5488 H   0  0  0  0  0  0  0  0  0  0  0  0
  148.4282  138.4156  155.8705 H   0  0  0  0  0  0  0  0  0  0  0  0
  149.4020  138.5705  154.3984 H   0  0  0  0  0  0  0  0  0  0  0  0
  1  2  1  0  0  0  0
  1 18  1  0  0  0  0
  1 19  1  0  0  0  0
  1 20  1  0  0  0  0
  2 17  1  0  0  0  0
  2  3  2  0  0  0  0
  3  4  1  0  0  0  0
  3 21  1  0  0  0  0
  4  5  1  0  0  0  0
  4 16  2  0  0  0  0
  5  6  1  0  0  0  0
  5 22  1  0  0  0  0
  6  7  2  0  0  0  0
  6  8  1  0  0  0  0
  8  9  1  0  0  0  0
  8 23  1  0  0  0  0
  9 15  1  0  0  0  0
  9 10  1  0  0  0  0
  9 24  1  0  0  0  0
 10 11  1  0  0  0  0
 10 25  1  0  0  0  0
 10 26  1  0  0  0  0
 11 12  1  0  0  0  0
 11 27  1  0  0  0  0
 11 28  1  0  0  0  0
 12 13  2  0  0  0  0
 12 14  2  0  0  0  0
 12 15  1  0  0  0  0
 15 29  1  0  0  0  0
 15 30  1  0  0  0  0
 16 17  1  0  0  0  0
M  END
> <s_m_source_file>
AV-unprocessed.smi

> <i_m_source_file_index>
2059

> <i_lp_mmshare_version>
43012

> <i_f3d_flags>
0

> <s_epik_input>
W0NIM11jMVtjSF1jKG5vMSlbTkhdQyg9TylbTkhdW0NAQEhdKFtDSDJdMilbQ0gyXVtDSDJdUzIoPU8pPU8=

> <s_epik_cmdline>
J2VwaWtfcHl0aG9uJywgJy1waCcsICc3LjAnLCAnLXRuJywgJzgnLCAnLW1hJywgJzIwMCcsICctbWV0YWxfYmluZGluZycsICctaW1hZScsICc8aW5maWxlLm1hZT4nLCAnLW9tYWUnLCAnPG91dGZpbGUubWFlPic=

> <r_lp_tautomer_probability>
1

> <r_epik_Ionization_Penalty>
3.88767e-05

> <r_epik_Ionization_Penalty_Charging>
0

> <r_epik_Ionization_Penalty_Neutral>
3.88767e-05

> <r_epik_State_Penalty>
-0

> <r_epik_Charging_Adjusted_Penalty>
0

> <i_epik_Tot_Q>
0

> <i_epik_Tot_abs_Q>
0

> <r_epik_Metal_State_Penalty>
0.0251347

> <b_epik_Metal_Only>
0

> <s_lp_Force_Field>
OPLS_2005

> <r_lp_Energy>
4.38419

> <b_lp_Chiralities_Consistent>
1

> <s_lp_Variant>
AV-unprocessed.smi:2059-1

> <Gold.Version>
5.8.1

> <Gold.Id.Protein>
6NUR|6NUR_protein|mol2

> <Gold.PLP.Fitness>
30.5568

> <Gold.PLP.PLP>
-23.0536

> <Gold.PLP.part.hbond>
-3.0000

> <Gold.PLP.part.metal>
0.0000

> <Gold.PLP.part.buried>
-3.0488

> <Gold.PLP.part.nonpolar>
-17.9290

> <Gold.PLP.part.repulsive>
0.6708

> <Gold.PLP.ligand.clash>
0.0000

> <Gold.PLP.ligand.torsion>
0.3285

> <Gold.PLP.Chemscore.Hbond>
2.7200

> <Gold.PLP.Chemscore.CHOScore>
0.0000

> <Gold.PLP.Chemscore.Metal>
0.0000

> <Gold.Chemscore.Hbonds>
donor molecule, donor type, donor heavy atom, donor atom, acceptor molecule, acceptor atom, score
      L1  H     5    22       P1  7948  1.00
      L1  H     8    23       P1  7948  1.00
      P1  H  7989  7998       L1    13  0.72

> <Gold.PLP.Chemscore.Internal.Correction>
0.0002

> <Gold.Rescore>
     Score         DG    S(hbond)    S(metal)    S(lipo)     H(rot)  DE(clash)    DE(int)     intcor
     15.86     -17.37       2.73        0.00      45.63       1.00       0.11       1.41       ----

> <Gold.Chemscore.Fitness>
15.8564

> <Gold.Chemscore.DG>
-17.3737

> <Gold.Chemscore.ZeroCoef>
-5.4800

> <Gold.Chemscore.Hbond>
2.7292

> <Gold.Chemscore.Metal>
0.0000

> <Gold.Chemscore.Lipo>
45.6266

> <Gold.Chemscore.Internal_Hbond>
0.0000

> <Gold.Chemscore.DEClash>
0.1055

> <Gold.Chemscore.DEInternal>
1.4119

> <Gold.Chemscore.Rot>
1.0000

> <Gold.Chemscore.Internal.Correction>
   9.000000E+99

> <Gold.Chemscore.Hbonds>
donor molecule, donor type, donor heavy atom, donor atom, acceptor molecule, acceptor atom, score
      L1  H     5    22       P1  7948  0.97
      L1  H     8    23       P1  7948  0.97
      P1  H  7989  7998       L1    13  0.71

> <Gold.Chemscore.Hbond.Weighted>
-9.1154

> <Gold.Chemscore.Metal.Weighted>
-0.0000

> <Gold.Chemscore.Lipo.Weighted>
-5.3383

> <Gold.Chemscore.Internal_Hbond.Weighted>
0.0000

> <Gold.Chemscore.DEClash.Weighted>
0.1055

> <Gold.Chemscore.DEInternal.Weighted>
1.4119

> <Gold.Chemscore.Rot.Weighted>
2.5600

> <Gold.Chemscore.Internal.Correction.Weighted>
   9.000000E+99

> <Gold.Protein.RotatedTorsions>
[ 6907 6896 6895 6894 ] final  141.68 input  -60.11 | X-H torsion
[ 7974 7965 7964 7962 ] final   29.41 input  175.53 | X-H torsion
[ 8008 7997 7996 7995 ] final  -21.00 input   59.86 | X-H torsion
[ 10167 10162 10161 10158 ] final   25.15 input  -65.29 | X-H torsion
[ 10718 10713 10712 10709 ] final   73.87 input   66.30 | X-H torsion
[ 10763 10752 10751 10750 ] final  -79.65 input  -60.55 | X-H torsion
[ 11005 11000 10999 10996 ] final   97.54 input  -57.11 | X-H torsion

> <Gold.Protein.ActiveResidues>
 VAL166  LYS551  ARG553  GLY616  TRP617  ASP618  TYR619  PRO620  LYS621  CYS622 
 ASP623  PHE694  ASN695  SER759  ASP760  ASP761  ALA762  ILE779  LEU786  VAL792 
 PHE793  MET794  SER795  GLU796  ALA797  LYS798  CYS799  TRP800  GLU811  SER814 

> <Gold.Protein.RotatedAtoms>
  152.2280  133.5036  159.5199 H   0  0  0  0  0  0  0  0  0  0  0  0  # atno 6907 bound_to 6896
  150.7030  134.1254  159.4059 H   0  0  0  0  0  0  0  0  0  0  0  0  # atno 6908 bound_to 6896
  151.9175  135.0312  160.0570 H   0  0  0  0  0  0  0  0  0  0  0  0  # atno 6909 bound_to 6896
  146.1673  139.6925  142.8992 H   0  0  0  0  0  0  0  0  0  0  0  0  # atno 7974 bound_to 7965
  154.4734  140.2047  155.9939 H   0  0  0  0  0  0  0  0  0  0  0  0  # atno 8008 bound_to 7997
  156.1048  140.3238  155.7962 H   0  0  0  0  0  0  0  0  0  0  0  0  # atno 8009 bound_to 7997
  155.4736  140.0533  157.2967 H   0  0  0  0  0  0  0  0  0  0  0  0  # atno 8010 bound_to 7997
  140.5129  144.0130  150.6381 H   0  0  0  0  0  0  0  0  0  0  0  0  # atno 10167 bound_to 10162
  157.6567  130.9650  150.1130 H   0  0  0  0  0  0  0  0  0  0  0  0  # atno 10718 bound_to 10713
  154.5413  135.5688  153.6842 H   0  0  0  0  0  0  0  0  0  0  0  0  # atno 10763 bound_to 10752
  152.9964  135.6228  154.2498 H   0  0  0  0  0  0  0  0  0  0  0  0  # atno 10764 bound_to 10752
  154.2429  135.2862  155.2826 H   0  0  0  0  0  0  0  0  0  0  0  0  # atno 10765 bound_to 10752
  139.8775  134.9006  156.4323 H   0  0  0  0  0  0  0  0  0  0  0  0  # atno 11005 bound_to 11000
  145.4434  141.0424  143.2845 LP  0  0  0  0  0  0  0  0  0  0  0  0  # atno 17320 bound_to 7965
  144.8111  139.5961  143.7029 LP  0  0  0  0  0  0  0  0  0  0  0  0  # atno 17321 bound_to 7965
  140.3458  143.2992  152.0540 LP  0  0  0  0  0  0  0  0  0  0  0  0  # atno 17342 bound_to 10162
  139.4901  144.6410  151.6877 LP  0  0  0  0  0  0  0  0  0  0  0  0  # atno 17343 bound_to 10162
  156.2022  130.3661  149.8774 LP  0  0  0  0  0  0  0  0  0  0  0  0  # atno 17370 bound_to 10713
  156.6675  130.8807  151.3557 LP  0  0  0  0  0  0  0  0  0  0  0  0  # atno 17371 bound_to 10713
  140.9058  133.7747  155.9733 LP  0  0  0  0  0  0  0  0  0  0  0  0  # atno 17394 bound_to 11000
  140.8601  134.2851  157.5238 LP  0  0  0  0  0  0  0  0  0  0  0  0  # atno 17395 bound_to 11000

$$$$
