AV-unprocessed.smi:1475|AV-procd|sdf|5978|dock5
  -GOLD-   22720 6 73D 1   1.00000     0.00000
 Structure written by MMmdl.
 50 51  0  0  0  0  0  0  0  0  2 V2000
  152.7986  140.5000  159.1056 C   0  0  0  0  0  0  0  0  0  0  0  0
  152.0230  140.5025  157.8214 C   0  0  0  0  0  0  0  0  0  0  0  0
  151.1093  141.4843  157.3462 C   0  0  0  0  0  0  0  0  0  0  0  0
  150.6890  140.9989  156.1401 C   0  0  0  0  0  0  0  0  0  0  0  0
  149.7238  141.5735  155.1557 C   0  0  0  0  0  0  0  0  0  0  0  0
  151.3411  139.7945  155.9429 N   0  0  0  0  0  0  0  0  0  0  0  0
  151.2591  138.8796  154.8155 C   0  0  0  0  0  0  0  0  0  0  0  0
  149.9464  138.0956  154.8402 C   0  0  0  0  0  0  0  0  0  0  0  0
  149.9454  136.9020  155.1408 O   0  0  0  0  0  0  0  0  0  0  0  0
  148.8347  138.7784  154.5255 N   0  0  0  0  0  0  0  0  0  0  0  0
  147.4851  138.2273  154.5232 C   0  0  0  0  0  0  0  0  0  0  0  0
  146.6247  138.8257  153.3918 C   0  0  0  0  0  0  0  0  0  0  0  0
  145.3298  138.1190  153.2241 N   0  3  1  0  0  0  0  0  0  0  0  0
  145.4407  136.9633  152.2965 C   0  0  0  0  0  0  0  0  0  0  0  0
  144.0619  136.3425  151.9986 C   0  0  1  0  0  0  0  0  0  0  0  0
  144.1807  135.1426  151.0480 C   0  0  0  0  0  0  0  0  0  0  0  0
  143.3586  135.9478  153.3096 C   0  0  0  0  0  0  0  0  0  0  0  0
  143.2984  137.1242  154.3010 C   0  0  2  0  0  0  0  0  0  0  0  0
  142.2651  138.1927  153.9019 C   0  0  0  0  0  0  0  0  0  0  0  0
  144.7032  137.7220  154.5139 C   0  0  0  0  0  0  0  0  0  0  0  0
  152.1588  139.4939  156.9760 N   0  0  0  0  0  0  0  0  0  0  0  0
  152.5614  141.3751  159.7107 H   0  0  0  0  0  0  0  0  0  0  0  0
  153.8721  140.5088  158.9159 H   0  0  0  0  0  0  0  0  0  0  0  0
  152.5713  139.6149  159.6999 H   0  0  0  0  0  0  0  0  0  0  0  0
  150.8073  142.4066  157.8202 H   0  0  0  0  0  0  0  0  0  0  0  0
  149.3573  142.5438  155.4910 H   0  0  0  0  0  0  0  0  0  0  0  0
  148.8630  140.9171  155.0273 H   0  0  0  0  0  0  0  0  0  0  0  0
  150.1947  141.7129  154.1828 H   0  0  0  0  0  0  0  0  0  0  0  0
  151.3486  139.4425  153.8846 H   0  0  0  0  0  0  0  0  0  0  0  0
  152.1040  138.1912  154.8487 H   0  0  0  0  0  0  0  0  0  0  0  0
  148.9309  139.7588  154.3013 H   0  0  0  0  0  0  0  0  0  0  0  0
  147.5525  137.1420  154.4478 H   0  0  0  0  0  0  0  0  0  0  0  0
  147.0304  138.4442  155.4901 H   0  0  0  0  0  0  0  0  0  0  0  0
  146.4333  139.8720  153.6344 H   0  0  0  0  0  0  0  0  0  0  0  0
  147.1621  138.8238  152.4422 H   0  0  0  0  0  0  0  0  0  0  0  0
  145.8933  137.2904  151.3593 H   0  0  0  0  0  0  0  0  0  0  0  0
  146.1103  136.2164  152.7270 H   0  0  0  0  0  0  0  0  0  0  0  0
  143.4541  137.0944  151.4938 H   0  0  0  0  0  0  0  0  0  0  0  0
  144.7835  134.3466  151.4865 H   0  0  0  0  0  0  0  0  0  0  0  0
  144.6458  135.4311  150.1051 H   0  0  0  0  0  0  0  0  0  0  0  0
  143.1994  134.7269  150.8169 H   0  0  0  0  0  0  0  0  0  0  0  0
  142.3539  135.5750  153.1057 H   0  0  0  0  0  0  0  0  0  0  0  0
  143.9006  135.1219  153.7729 H   0  0  0  0  0  0  0  0  0  0  0  0
  142.9666  136.7218  155.2590 H   0  0  0  0  0  0  0  0  0  0  0  0
  142.5260  138.6850  152.9651 H   0  0  0  0  0  0  0  0  0  0  0  0
  142.1876  138.9654  154.6673 H   0  0  0  0  0  0  0  0  0  0  0  0
  141.2745  137.7535  153.7803 H   0  0  0  0  0  0  0  0  0  0  0  0
  145.3440  136.9914  155.0105 H   0  0  0  0  0  0  0  0  0  0  0  0
  144.6282  138.5734  155.1891 H   0  0  0  0  0  0  0  0  0  0  0  0
  144.7024  138.7756  152.7822 H   0  0  0  0  0  0  0  0  0  0  0  0
  1  2  1  0  0  0  0
  1 22  1  0  0  0  0
  1 23  1  0  0  0  0
  1 24  1  0  0  0  0
  2 21  2  0  0  0  0
  2  3  1  0  0  0  0
  3  4  2  0  0  0  0
  3 25  1  0  0  0  0
  4  5  1  0  0  0  0
  4  6  1  0  0  0  0
  5 26  1  0  0  0  0
  5 27  1  0  0  0  0
  5 28  1  0  0  0  0
  6  7  1  0  0  0  0
  6 21  1  0  0  0  0
  7  8  1  0  0  0  0
  7 29  1  0  0  0  0
  7 30  1  0  0  0  0
  8  9  2  0  0  0  0
  8 10  1  0  0  0  0
 10 11  1  0  0  0  0
 10 31  1  0  0  0  0
 11 12  1  0  0  0  0
 11 32  1  0  0  0  0
 11 33  1  0  0  0  0
 12 13  1  0  0  0  0
 12 34  1  0  0  0  0
 12 35  1  0  0  0  0
 13 20  1  0  0  0  0
 13 14  1  0  0  0  0
 13 50  1  0  0  0  0
 14 15  1  0  0  0  0
 14 36  1  0  0  0  0
 14 37  1  0  0  0  0
 15 16  1  0  0  0  0
 15 17  1  0  0  0  0
 15 38  1  0  0  0  0
 16 39  1  0  0  0  0
 16 40  1  0  0  0  0
 16 41  1  0  0  0  0
 17 18  1  0  0  0  0
 17 42  1  0  0  0  0
 17 43  1  0  0  0  0
 18 19  1  0  0  0  0
 18 20  1  0  0  0  0
 18 44  1  0  0  0  0
 19 45  1  0  0  0  0
 19 46  1  0  0  0  0
 19 47  1  0  0  0  0
 20 48  1  0  0  0  0
 20 49  1  0  0  0  0
M  CHG  1  13   1
M  END
> <s_m_source_file>
AV-unprocessed.smi

> <i_m_source_file_index>
1475

> <i_lp_mmshare_version>
43012

> <i_f3d_flags>
0

> <s_epik_input>
W0NIM11jMVtjSF1jKFtDSDNdKW4objEpW0NIMl1DKD1PKVtOSF1bQ0gyXVtDSDJdTjJbQ0gyXVtDQEBIXShbQ0gzXSlbQ0gyXVtDQEBIXShbQ0gzXSlbQ0gyXTI=

> <s_epik_cmdline>
J2VwaWtfcHl0aG9uJywgJy1waCcsICc3LjAnLCAnLXRuJywgJzgnLCAnLW1hJywgJzIwMCcsICctbWV0YWxfYmluZGluZycsICctaW1hZScsICc8aW5maWxlLm1hZT4nLCAnLW9tYWUnLCAnPG91dGZpbGUubWFlPic=

> <r_lp_tautomer_probability>
1

> <r_epik_Ionization_Penalty>
0.00206431

> <r_epik_Ionization_Penalty_Charging>
0.00187095

> <r_epik_Ionization_Penalty_Neutral>
0.000193364

> <r_epik_State_Penalty>
-0

> <r_epik_Charging_Adjusted_Penalty>
0.00187095

> <i_epik_Tot_Q>
1

> <i_epik_Tot_abs_Q>
1

> <r_epik_Metal_State_Penalty>
-0

> <b_epik_Metal_Only>
0

> <s_lp_Force_Field>
OPLS_2005

> <r_lp_Energy>
16.2356

> <b_lp_Chiralities_Consistent>
1

> <s_lp_Variant>
AV-unprocessed.smi:1475-3

> <Gold.Version>
5.8.1

> <Gold.Id.Protein>
6NUR|6NUR_protein|mol2

> <Gold.PLP.Fitness>
37.9811

> <Gold.PLP.PLP>
-31.8685

> <Gold.PLP.part.hbond>
-1.5241

> <Gold.PLP.part.metal>
0.0000

> <Gold.PLP.part.buried>
0.5232

> <Gold.PLP.part.nonpolar>
-29.9118

> <Gold.PLP.part.repulsive>
0.1947

> <Gold.PLP.ligand.clash>
0.0000

> <Gold.PLP.ligand.torsion>
0.7861

> <Gold.PLP.Chemscore.Hbond>
2.5525

> <Gold.PLP.Chemscore.CHOScore>
0.0000

> <Gold.PLP.Chemscore.Metal>
0.0000

> <Gold.Chemscore.Hbonds>
donor molecule, donor type, donor heavy atom, donor atom, acceptor molecule, acceptor atom, score
      L1  H    13    50       P1 10175  2.00
      P1  H  7997  8008       L1    21  0.16

> <Gold.PLP.Chemscore.Internal.Correction>
0.0273

> <Gold.Rescore>
     Score         DG    S(hbond)    S(metal)    S(lipo)     H(rot)  DE(clash)    DE(int)     intcor
     11.38     -13.67       1.12        0.00      73.87       1.64       1.39       0.90       ----

> <Gold.Chemscore.Fitness>
11.3822

> <Gold.Chemscore.DG>
-13.6714

> <Gold.Chemscore.ZeroCoef>
-5.4800

> <Gold.Chemscore.Hbond>
1.1218

> <Gold.Chemscore.Metal>
0.0000

> <Gold.Chemscore.Lipo>
73.8705

> <Gold.Chemscore.Internal_Hbond>
0.0000

> <Gold.Chemscore.DEClash>
1.3883

> <Gold.Chemscore.DEInternal>
0.9009

> <Gold.Chemscore.Rot>
1.6399

> <Gold.Chemscore.Internal.Correction>
   9.000000E+99

> <Gold.Chemscore.Hbonds>
donor molecule, donor type, donor heavy atom, donor atom, acceptor molecule, acceptor atom, score
      L1  H    13    50       P1 10175  0.96
      P1  H  7997  8008       L1    21  0.01

> <Gold.Chemscore.Hbond.Weighted>
-3.7467

> <Gold.Chemscore.Metal.Weighted>
-0.0000

> <Gold.Chemscore.Lipo.Weighted>
-8.6428

> <Gold.Chemscore.Internal_Hbond.Weighted>
0.0000

> <Gold.Chemscore.DEClash.Weighted>
1.3883

> <Gold.Chemscore.DEInternal.Weighted>
0.9009

> <Gold.Chemscore.Rot.Weighted>
4.1982

> <Gold.Chemscore.Internal.Correction.Weighted>
   9.000000E+99

> <Gold.Protein.RotatedTorsions>
[ 6907 6896 6895 6894 ] final   -4.87 input  -60.11 | X-H torsion
[ 7974 7965 7964 7962 ] final  140.29 input  175.53 | X-H torsion
[ 8008 7997 7996 7995 ] final  -46.23 input   59.86 | X-H torsion
[ 10167 10162 10161 10158 ] final  -74.74 input  -65.29 | X-H torsion
[ 10718 10713 10712 10709 ] final  -87.25 input   66.30 | X-H torsion
[ 10763 10752 10751 10750 ] final -121.25 input  -60.55 | X-H torsion
[ 11005 11000 10999 10996 ] final    0.61 input  -57.11 | X-H torsion

> <Gold.Protein.ActiveResidues>
 VAL166  LYS551  ARG553  GLY616  TRP617  ASP618  TYR619  PRO620  LYS621  CYS622 
 ASP623  PHE694  ASN695  SER759  ASP760  ASP761  ALA762  ILE779  LEU786  VAL792 
 PHE793  MET794  SER795  GLU796  ALA797  LYS798  CYS799  TRP800  GLU811  SER814 

> <Gold.Protein.RotatedAtoms>
  151.4906  135.1057  159.9802 H   0  0  0  0  0  0  0  0  0  0  0  0  # atno 6907 bound_to 6896
  152.4742  133.8096  159.7007 H   0  0  0  0  0  0  0  0  0  0  0  0  # atno 6908 bound_to 6896
  150.8770  133.7363  159.2970 H   0  0  0  0  0  0  0  0  0  0  0  0  # atno 6909 bound_to 6896
  144.9200  139.5180  143.5668 H   0  0  0  0  0  0  0  0  0  0  0  0  # atno 7974 bound_to 7965
  154.4006  140.1376  156.3978 H   0  0  0  0  0  0  0  0  0  0  0  0  # atno 8008 bound_to 7997
  155.7853  140.3480  155.5299 H   0  0  0  0  0  0  0  0  0  0  0  0  # atno 8009 bound_to 7997
  155.8633  140.0960  157.1589 H   0  0  0  0  0  0  0  0  0  0  0  0  # atno 8010 bound_to 7997
  140.5001  143.2363  151.7766 H   0  0  0  0  0  0  0  0  0  0  0  0  # atno 10167 bound_to 10162
  155.9986  130.4793  150.4838 H   0  0  0  0  0  0  0  0  0  0  0  0  # atno 10718 bound_to 10713
  154.8664  135.4174  154.2590 H   0  0  0  0  0  0  0  0  0  0  0  0  # atno 10763 bound_to 10752
  153.3521  135.6999  153.6785 H   0  0  0  0  0  0  0  0  0  0  0  0  # atno 10764 bound_to 10752
  153.5721  135.3589  155.2814 H   0  0  0  0  0  0  0  0  0  0  0  0  # atno 10765 bound_to 10752
  140.6247  133.9630  155.8243 H   0  0  0  0  0  0  0  0  0  0  0  0  # atno 11005 bound_to 11000
  146.3200  139.8072  142.8953 LP  0  0  0  0  0  0  0  0  0  0  0  0  # atno 17320 bound_to 7965
  145.3312  141.0267  143.3445 LP  0  0  0  0  0  0  0  0  0  0  0  0  # atno 17321 bound_to 7965
  139.4870  144.4533  151.9628 LP  0  0  0  0  0  0  0  0  0  0  0  0  # atno 17342 bound_to 10162
  140.3622  144.2959  150.5932 LP  0  0  0  0  0  0  0  0  0  0  0  0  # atno 17343 bound_to 10162
  157.2840  131.0613  151.2178 LP  0  0  0  0  0  0  0  0  0  0  0  0  # atno 17370 bound_to 10713
  157.3214  130.6939  149.6271 LP  0  0  0  0  0  0  0  0  0  0  0  0  # atno 17371 bound_to 10713
  141.0718  134.0194  157.3515 LP  0  0  0  0  0  0  0  0  0  0  0  0  # atno 17394 bound_to 11000
  139.9139  135.0194  156.7805 LP  0  0  0  0  0  0  0  0  0  0  0  0  # atno 17395 bound_to 11000

$$$$
