AV-unprocessed.smi:1686|AV-procd|sdf|6760|dock9
  -GOLD-   22720 7523D 1   1.00000     0.00000
 Structure written by MMmdl.
 41 43  0  0  0  0  0  0  0  0  1 V2000
  148.4954  136.5712  156.5285 C   0  0  0  0  0  0  0  0  0  0  0  0
  149.7978  136.8049  155.8182 C   0  0  0  0  0  0  0  0  0  0  0  0
  150.3408  135.8195  155.1160 N   0  0  0  0  0  0  0  0  0  0  0  0
  151.5249  136.3292  154.5712 O   0  0  0  0  0  0  0  0  0  0  0  0
  151.6303  137.6129  154.9842 C   0  0  0  0  0  0  0  0  0  0  0  0
  152.9425  138.6224  154.5223 Cl  0  0  0  0  0  0  0  0  0  0  0  0
  150.5839  137.9937  155.7744 C   0  0  0  0  0  0  0  0  0  0  0  0
  150.3058  139.3299  156.4194 C   0  0  0  0  0  0  0  0  0  0  0  0
  151.5479  139.8010  157.1770 C   0  0  0  0  0  0  0  0  0  0  0  0
  152.6414  139.2857  156.9486 O   0  0  0  0  0  0  0  0  0  0  0  0
  151.3620  140.7991  158.0549 N   0  0  0  0  0  0  0  0  0  0  0  0
  152.4074  141.5294  158.7651 C   0  0  2  0  0  0  0  0  0  0  0  0
  153.1132  140.5644  159.7314 C   0  0  0  0  0  0  0  0  0  0  0  0
  151.7771  142.7437  159.4899 C   0  0  1  0  0  0  0  0  0  0  0  0
  152.8159  143.7568  160.0289 C   0  0  0  0  0  0  0  0  0  0  0  0
  152.3458  145.0961  159.4343 C   0  0  2  0  0  0  0  0  0  0  0  0
  151.0216  145.5200  160.0959 C   0  0  0  0  0  0  0  0  0  0  0  0
  150.0078  144.5349  159.4852 C   0  0  0  0  0  0  0  0  0  0  0  0
  150.8940  143.6494  158.5895 C   0  0  1  0  0  0  0  0  0  0  0  0
  151.8888  144.6691  158.0460 C   0  0  0  0  0  0  0  0  0  0  0  0
  147.8938  137.4795  156.5592 H   0  0  0  0  0  0  0  0  0  0  0  0
  148.6652  136.2501  157.5564 H   0  0  0  0  0  0  0  0  0  0  0  0
  147.9010  135.8028  156.0330 H   0  0  0  0  0  0  0  0  0  0  0  0
  150.0368  140.0855  155.6807 H   0  0  0  0  0  0  0  0  0  0  0  0
  149.4642  139.2673  157.1105 H   0  0  0  0  0  0  0  0  0  0  0  0
  150.4198  141.1413  158.1748 H   0  0  0  0  0  0  0  0  0  0  0  0
  153.1485  141.8988  158.0543 H   0  0  0  0  0  0  0  0  0  0  0  0
  153.9242  141.0553  160.2690 H   0  0  0  0  0  0  0  0  0  0  0  0
  153.5459  139.7207  159.1926 H   0  0  0  0  0  0  0  0  0  0  0  0
  152.4191  140.1650  160.4714 H   0  0  0  0  0  0  0  0  0  0  0  0
  151.1737  142.3639  160.3162 H   0  0  0  0  0  0  0  0  0  0  0  0
  152.8512  143.7752  161.1187 H   0  0  0  0  0  0  0  0  0  0  0  0
  153.8204  143.5288  159.6706 H   0  0  0  0  0  0  0  0  0  0  0  0
  153.1110  145.8728  159.4489 H   0  0  0  0  0  0  0  0  0  0  0  0
  151.0637  145.4533  161.1836 H   0  0  0  0  0  0  0  0  0  0  0  0
  150.7646  146.5466  159.8320 H   0  0  0  0  0  0  0  0  0  0  0  0
  149.4706  143.9616  160.2417 H   0  0  0  0  0  0  0  0  0  0  0  0
  149.2685  145.0693  158.8871 H   0  0  0  0  0  0  0  0  0  0  0  0
  150.3224  143.1233  157.8252 H   0  0  0  0  0  0  0  0  0  0  0  0
  151.4177  145.4737  157.4786 H   0  0  0  0  0  0  0  0  0  0  0  0
  152.6830  144.2255  157.4434 H   0  0  0  0  0  0  0  0  0  0  0  0
  1  2  1  0  0  0  0
  1 21  1  0  0  0  0
  1 22  1  0  0  0  0
  1 23  1  0  0  0  0
  2  7  1  0  0  0  0
  2  3  2  0  0  0  0
  3  4  1  0  0  0  0
  4  5  1  0  0  0  0
  5  6  1  0  0  0  0
  5  7  2  0  0  0  0
  7  8  1  0  0  0  0
  8  9  1  0  0  0  0
  8 24  1  0  0  0  0
  8 25  1  0  0  0  0
  9 10  2  0  0  0  0
  9 11  1  0  0  0  0
 11 12  1  0  0  0  0
 11 26  1  0  0  0  0
 12 13  1  0  0  0  0
 12 14  1  0  0  0  0
 12 27  1  0  0  0  0
 13 28  1  0  0  0  0
 13 29  1  0  0  0  0
 13 30  1  0  0  0  0
 14 19  1  0  0  0  0
 14 15  1  0  0  0  0
 14 31  1  0  0  0  0
 15 16  1  0  0  0  0
 15 32  1  0  0  0  0
 15 33  1  0  0  0  0
 16 20  1  0  0  0  0
 16 17  1  0  0  0  0
 16 34  1  0  0  0  0
 17 18  1  0  0  0  0
 17 35  1  0  0  0  0
 17 36  1  0  0  0  0
 18 19  1  0  0  0  0
 18 37  1  0  0  0  0
 18 38  1  0  0  0  0
 19 20  1  0  0  0  0
 19 39  1  0  0  0  0
 20 40  1  0  0  0  0
 20 41  1  0  0  0  0
M  END
> <s_m_source_file>
AV-unprocessed.smi

> <i_m_source_file_index>
1686

> <i_lp_mmshare_version>
43012

> <i_f3d_flags>
0

> <s_epik_input>
W0NIM11jMW5vYyhDbCljMVtDSDJdQyg9TylbTkhdW0NASF0oW0NIM10pW0NASF0oW0NIMl1bQ0BIXTIzKVtDQEhdKFtDSDJdMylbQ0gyXVtDSDJdMg==

> <s_epik_cmdline>
J2VwaWtfcHl0aG9uJywgJy1waCcsICc3LjAnLCAnLXRuJywgJzgnLCAnLW1hJywgJzIwMCcsICctbWV0YWxfYmluZGluZycsICctaW1hZScsICc8aW5maWxlLm1hZT4nLCAnLW9tYWUnLCAnPG91dGZpbGUubWFlPic=

> <r_lp_tautomer_probability>
1

> <r_epik_Ionization_Penalty>
2.01576e-08

> <r_epik_Ionization_Penalty_Charging>
0

> <r_epik_Ionization_Penalty_Neutral>
2.01576e-08

> <r_epik_State_Penalty>
-0

> <r_epik_Charging_Adjusted_Penalty>
0

> <i_epik_Tot_Q>
0

> <i_epik_Tot_abs_Q>
0

> <r_epik_Metal_State_Penalty>
-0

> <b_epik_Metal_Only>
0

> <s_lp_Force_Field>
OPLS_2005

> <r_lp_Energy>
45.33

> <b_lp_Chiralities_Consistent>
1

> <s_lp_Variant>
AV-unprocessed.smi:1686-3

> <Gold.Version>
5.8.1

> <Gold.Id.Protein>
6NUR|6NUR_protein|mol2

> <Gold.PLP.Fitness>
42.2544

> <Gold.PLP.PLP>
-37.1654

> <Gold.PLP.part.hbond>
-2.0000

> <Gold.PLP.part.metal>
0.0000

> <Gold.PLP.part.buried>
-6.4581

> <Gold.PLP.part.nonpolar>
-29.9177

> <Gold.PLP.part.repulsive>
0.3914

> <Gold.PLP.ligand.clash>
0.0000

> <Gold.PLP.ligand.torsion>
0.4648

> <Gold.PLP.Chemscore.Hbond>
2.0000

> <Gold.PLP.Chemscore.CHOScore>
0.0000

> <Gold.PLP.Chemscore.Metal>
0.0000

> <Gold.Chemscore.Hbonds>
donor molecule, donor type, donor heavy atom, donor atom, acceptor molecule, acceptor atom, score
      P1  H  7997  8008       L1    10  1.00
      P1  H 10752 10764       L1     4  1.00

> <Gold.PLP.Chemscore.Internal.Correction>
0.0186

> <Gold.Rescore>
     Score         DG    S(hbond)    S(metal)    S(lipo)     H(rot)  DE(clash)    DE(int)     intcor
     19.21     -22.58       1.96        0.00     122.29       1.46       0.05       3.33       ----

> <Gold.Chemscore.Fitness>
19.2108

> <Gold.Chemscore.DG>
-22.5819

> <Gold.Chemscore.ZeroCoef>
-5.4800

> <Gold.Chemscore.Hbond>
1.9593

> <Gold.Chemscore.Metal>
0.0000

> <Gold.Chemscore.Lipo>
122.2889

> <Gold.Chemscore.Internal_Hbond>
0.0000

> <Gold.Chemscore.DEClash>
0.0455

> <Gold.Chemscore.DEInternal>
3.3256

> <Gold.Chemscore.Rot>
1.4648

> <Gold.Chemscore.Internal.Correction>
   9.000000E+99

> <Gold.Chemscore.Hbonds>
donor molecule, donor type, donor heavy atom, donor atom, acceptor molecule, acceptor atom, score
      P1  H  7997  8008       L1    10  0.99
      P1  H 10752 10764       L1     4  0.80

> <Gold.Chemscore.Hbond.Weighted>
-6.5441

> <Gold.Chemscore.Metal.Weighted>
-0.0000

> <Gold.Chemscore.Lipo.Weighted>
-14.3078

> <Gold.Chemscore.Internal_Hbond.Weighted>
0.0000

> <Gold.Chemscore.DEClash.Weighted>
0.0455

> <Gold.Chemscore.DEInternal.Weighted>
3.3256

> <Gold.Chemscore.Rot.Weighted>
3.7500

> <Gold.Chemscore.Internal.Correction.Weighted>
   9.000000E+99

> <Gold.Protein.RotatedTorsions>
[ 6907 6896 6895 6894 ] final -128.97 input  -60.11 | X-H torsion
[ 7974 7965 7964 7962 ] final  155.04 input  175.53 | X-H torsion
[ 8008 7997 7996 7995 ] final  -49.76 input   59.86 | X-H torsion
[ 10167 10162 10161 10158 ] final   -9.52 input  -65.29 | X-H torsion
[ 10718 10713 10712 10709 ] final   55.62 input   66.30 | X-H torsion
[ 10763 10752 10751 10750 ] final  -63.69 input  -60.55 | X-H torsion
[ 11005 11000 10999 10996 ] final  126.22 input  -57.11 | X-H torsion

> <Gold.Protein.ActiveResidues>
 VAL166  LYS551  ARG553  GLY616  TRP617  ASP618  TYR619  PRO620  LYS621  CYS622 
 ASP623  PHE694  ASN695  SER759  ASP760  ASP761  ALA762  ILE779  LEU786  VAL792 
 PHE793  MET794  SER795  GLU796  ALA797  LYS798  CYS799  TRP800  GLU811  SER814 

> <Gold.Protein.RotatedAtoms>
  150.9237  133.6850  159.2826 H   0  0  0  0  0  0  0  0  0  0  0  0  # atno 6907 bound_to 6896
  151.4295  135.1006  159.9648 H   0  0  0  0  0  0  0  0  0  0  0  0  # atno 6908 bound_to 6896
  152.4992  133.8670  159.7334 H   0  0  0  0  0  0  0  0  0  0  0  0  # atno 6909 bound_to 6896
  144.8050  139.7015  143.6166 H   0  0  0  0  0  0  0  0  0  0  0  0  # atno 7974 bound_to 7965
  154.4049  140.1289  156.4555 H   0  0  0  0  0  0  0  0  0  0  0  0  # atno 8008 bound_to 7997
  155.7324  140.3491  155.5046 H   0  0  0  0  0  0  0  0  0  0  0  0  # atno 8009 bound_to 7997
  155.9115  140.1036  157.1266 H   0  0  0  0  0  0  0  0  0  0  0  0  # atno 8010 bound_to 7997
  140.7089  143.5849  150.8953 H   0  0  0  0  0  0  0  0  0  0  0  0  # atno 10167 bound_to 10162
  157.5360  130.8664  149.8754 H   0  0  0  0  0  0  0  0  0  0  0  0  # atno 10718 bound_to 10713
  154.3188  135.6200  153.5498 H   0  0  0  0  0  0  0  0  0  0  0  0  # atno 10763 bound_to 10752
  152.9822  135.5719  154.5093 H   0  0  0  0  0  0  0  0  0  0  0  0  # atno 10764 bound_to 10752
  154.4757  135.2861  155.1585 H   0  0  0  0  0  0  0  0  0  0  0  0  # atno 10765 bound_to 10752
  139.9445  134.9631  156.8675 H   0  0  0  0  0  0  0  0  0  0  0  0  # atno 11005 bound_to 11000
  146.2339  139.5867  142.9537 LP  0  0  0  0  0  0  0  0  0  0  0  0  # atno 17320 bound_to 7965
  145.5461  141.0417  143.2304 LP  0  0  0  0  0  0  0  0  0  0  0  0  # atno 17321 bound_to 7965
  139.9575  143.6202  152.3012 LP  0  0  0  0  0  0  0  0  0  0  0  0  # atno 17342 bound_to 10162
  139.6742  144.7659  151.1726 LP  0  0  0  0  0  0  0  0  0  0  0  0  # atno 17343 bound_to 10162
  156.0459  130.3728  150.1319 LP  0  0  0  0  0  0  0  0  0  0  0  0  # atno 17370 bound_to 10713
  156.9501  130.9772  151.3500 LP  0  0  0  0  0  0  0  0  0  0  0  0  # atno 17371 bound_to 10713
  140.5868  134.0299  155.7484 LP  0  0  0  0  0  0  0  0  0  0  0  0  # atno 17394 bound_to 11000
  141.1091  133.9645  157.2943 LP  0  0  0  0  0  0  0  0  0  0  0  0  # atno 17395 bound_to 11000

$$$$
