AV-unprocessed.smi:3289|AV-procd|sdf|12609|dock2
  -GOLD-   2272018533D 1   1.00000     0.00000
 Structure written by MMmdl.
 39 40  0  0  0  0  0  0  0  0  1 V2000
  148.0745  140.6318  156.4388 C   0  0  0  0  0  0  0  0  0  0  0  0
  149.1674  141.0306  155.4370 C   0  0  0  0  0  0  0  0  0  0  0  0
  148.5878  141.3489  154.0504 C   0  0  0  0  0  0  0  0  0  0  0  0
  150.2509  139.9886  155.3587 C   0  0  0  0  0  0  0  0  0  0  0  0
  150.6389  139.4282  154.2153 N   0  0  0  0  0  0  0  0  0  0  0  0
  151.6406  138.5340  154.5714 C   0  0  0  0  0  0  0  0  0  0  0  0
  151.8221  138.5756  155.9315 C   0  0  0  0  0  0  0  0  0  0  0  0
  150.9192  139.5068  156.4309 N   0  0  0  0  0  0  0  0  0  0  0  0
  150.7696  139.8501  157.8396 C   0  0  0  0  0  0  0  0  0  0  0  0
  152.0825  140.3162  158.4816 C   0  0  0  0  0  0  0  0  0  0  0  0
  153.1713  139.9690  158.0218 O   0  0  0  0  0  0  0  0  0  0  0  0
  151.9597  141.1167  159.5512 N   0  0  0  0  0  0  0  0  0  0  0  0
  153.0692  141.6676  160.3213 C   0  0  0  0  0  0  0  0  0  0  0  0
  153.1140  143.2021  160.2303 C   0  0  2  0  0  0  0  0  0  0  0  0
  151.9214  143.8882  160.8953 C   0  0  0  0  0  0  0  0  0  0  0  0
  151.8764  145.2072  160.1587 C   0  0  0  0  0  0  0  0  0  0  0  0
  152.2293  144.7782  158.7382 C   0  0  0  0  0  0  0  0  0  0  0  0
  153.0756  143.6395  158.8729 O   0  0  0  0  0  0  0  0  0  0  0  0
  148.4946  140.4715  157.4322 H   0  0  0  0  0  0  0  0  0  0  0  0
  147.5743  139.7114  156.1357 H   0  0  0  0  0  0  0  0  0  0  0  0
  147.3157  141.4101  156.5232 H   0  0  0  0  0  0  0  0  0  0  0  0
  149.6006  141.9602  155.8013 H   0  0  0  0  0  0  0  0  0  0  0  0
  149.3686  141.6870  153.3685 H   0  0  0  0  0  0  0  0  0  0  0  0
  147.8382  142.1382  154.1099 H   0  0  0  0  0  0  0  0  0  0  0  0
  148.1134  140.4736  153.6056 H   0  0  0  0  0  0  0  0  0  0  0  0
  152.1472  137.9355  153.8289 H   0  0  0  0  0  0  0  0  0  0  0  0
  152.5005  138.0303  156.5710 H   0  0  0  0  0  0  0  0  0  0  0  0
  150.0055  140.6196  157.9495 H   0  0  0  0  0  0  0  0  0  0  0  0
  150.3987  138.9710  158.3689 H   0  0  0  0  0  0  0  0  0  0  0  0
  151.0285  141.3543  159.8606 H   0  0  0  0  0  0  0  0  0  0  0  0
  153.0212  141.3436  161.3623 H   0  0  0  0  0  0  0  0  0  0  0  0
  153.9907  141.2519  159.9128 H   0  0  0  0  0  0  0  0  0  0  0  0
  154.0344  143.5804  160.6782 H   0  0  0  0  0  0  0  0  0  0  0  0
  151.0028  143.3289  160.7116 H   0  0  0  0  0  0  0  0  0  0  0  0
  152.0426  144.0028  161.9729 H   0  0  0  0  0  0  0  0  0  0  0  0
  150.9096  145.7064  160.2259 H   0  0  0  0  0  0  0  0  0  0  0  0
  152.6394  145.8814  160.5499 H   0  0  0  0  0  0  0  0  0  0  0  0
  151.3318  144.4786  158.1957 H   0  0  0  0  0  0  0  0  0  0  0  0
  152.7173  145.5726  158.1731 H   0  0  0  0  0  0  0  0  0  0  0  0
  1  2  1  0  0  0  0
  1 19  1  0  0  0  0
  1 20  1  0  0  0  0
  1 21  1  0  0  0  0
  2  3  1  0  0  0  0
  2  4  1  0  0  0  0
  2 22  1  0  0  0  0
  3 23  1  0  0  0  0
  3 24  1  0  0  0  0
  3 25  1  0  0  0  0
  4  8  1  0  0  0  0
  4  5  2  0  0  0  0
  5  6  1  0  0  0  0
  6  7  2  0  0  0  0
  6 26  1  0  0  0  0
  7  8  1  0  0  0  0
  7 27  1  0  0  0  0
  8  9  1  0  0  0  0
  9 10  1  0  0  0  0
  9 28  1  0  0  0  0
  9 29  1  0  0  0  0
 10 11  2  0  0  0  0
 10 12  1  0  0  0  0
 12 13  1  0  0  0  0
 12 30  1  0  0  0  0
 13 14  1  0  0  0  0
 13 31  1  0  0  0  0
 13 32  1  0  0  0  0
 14 18  1  0  0  0  0
 14 15  1  0  0  0  0
 14 33  1  0  0  0  0
 15 16  1  0  0  0  0
 15 34  1  0  0  0  0
 15 35  1  0  0  0  0
 16 17  1  0  0  0  0
 16 36  1  0  0  0  0
 16 37  1  0  0  0  0
 17 18  1  0  0  0  0
 17 38  1  0  0  0  0
 17 39  1  0  0  0  0
M  END
> <s_m_source_file>
AV-unprocessed.smi

> <i_m_source_file_index>
3289

> <i_lp_mmshare_version>
43012

> <i_f3d_flags>
0

> <s_epik_input>
W0NIM11bQ0hdKFtDSDNdKWMxbltjSF1bY0hdbjFbQ0gyXUMoPU8pW05IXVtDSDJdW0NAQEhdMltDSDJdW0NIMl1bQ0gyXU8y

> <s_epik_cmdline>
J2VwaWtfcHl0aG9uJywgJy1waCcsICc3LjAnLCAnLXRuJywgJzgnLCAnLW1hJywgJzIwMCcsICctbWV0YWxfYmluZGluZycsICctaW1hZScsICc8aW5maWxlLm1hZT4nLCAnLW9tYWUnLCAnPG91dGZpbGUubWFlPic=

> <r_lp_tautomer_probability>
1

> <r_epik_Ionization_Penalty>
0.587725

> <r_epik_Ionization_Penalty_Charging>
0.587725

> <r_epik_Ionization_Penalty_Neutral>
1.43432e-07

> <r_epik_State_Penalty>
0.601029

> <r_epik_Charging_Adjusted_Penalty>
1.18875

> <i_epik_Tot_Q>
0

> <i_epik_Tot_abs_Q>
0

> <r_epik_Metal_State_Penalty>
0.297663

> <b_epik_Metal_Only>
0

> <s_lp_Force_Field>
OPLS_2005

> <r_lp_Energy>
18.7222

> <b_lp_Chiralities_Consistent>
1

> <s_lp_Variant>
AV-unprocessed.smi:3289-3

> <Gold.Version>
5.8.1

> <Gold.Id.Protein>
6NUR|6NUR_protein|mol2

> <Gold.PLP.Fitness>
45.7765

> <Gold.PLP.PLP>
-40.6120

> <Gold.PLP.part.hbond>
-2.0000

> <Gold.PLP.part.metal>
0.0000

> <Gold.PLP.part.buried>
-4.5665

> <Gold.PLP.part.nonpolar>
-34.4495

> <Gold.PLP.part.repulsive>
0.3251

> <Gold.PLP.ligand.clash>
0.0000

> <Gold.PLP.ligand.torsion>
0.4458

> <Gold.PLP.Chemscore.Hbond>
2.0000

> <Gold.PLP.Chemscore.CHOScore>
0.0000

> <Gold.PLP.Chemscore.Metal>
0.0000

> <Gold.Chemscore.Hbonds>
donor molecule, donor type, donor heavy atom, donor atom, acceptor molecule, acceptor atom, score
      P1  H  7989  7998       L1     5  1.00
      P1  H  7997  8010       L1    11  1.00

> <Gold.PLP.Chemscore.Internal.Correction>
0.0561

> <Gold.Rescore>
     Score         DG    S(hbond)    S(metal)    S(lipo)     H(rot)  DE(clash)    DE(int)     intcor
     13.80     -15.55       1.03        0.00      94.12       1.72       0.00       1.75       ----

> <Gold.Chemscore.Fitness>
13.7986

> <Gold.Chemscore.DG>
-15.5484

> <Gold.Chemscore.ZeroCoef>
-5.4800

> <Gold.Chemscore.Hbond>
1.0338

> <Gold.Chemscore.Metal>
0.0000

> <Gold.Chemscore.Lipo>
94.1226

> <Gold.Chemscore.Internal_Hbond>
0.0000

> <Gold.Chemscore.DEClash>
0.0045

> <Gold.Chemscore.DEInternal>
1.7452

> <Gold.Chemscore.Rot>
1.7175

> <Gold.Chemscore.Internal.Correction>
   9.000000E+99

> <Gold.Chemscore.Hbonds>
donor molecule, donor type, donor heavy atom, donor atom, acceptor molecule, acceptor atom, score
      P1  H  7989  7998       L1     5  0.09
      P1  H  7997  8010       L1    11  0.98

> <Gold.Chemscore.Hbond.Weighted>
-3.4527

> <Gold.Chemscore.Metal.Weighted>
-0.0000

> <Gold.Chemscore.Lipo.Weighted>
-11.0123

> <Gold.Chemscore.Internal_Hbond.Weighted>
0.0000

> <Gold.Chemscore.DEClash.Weighted>
0.0045

> <Gold.Chemscore.DEInternal.Weighted>
1.7452

> <Gold.Chemscore.Rot.Weighted>
4.3967

> <Gold.Chemscore.Internal.Correction.Weighted>
   9.000000E+99

> <Gold.Protein.RotatedTorsions>
[ 6907 6896 6895 6894 ] final  125.04 input  -60.11 | X-H torsion
[ 7974 7965 7964 7962 ] final -161.52 input  175.53 | X-H torsion
[ 8008 7997 7996 7995 ] final   33.93 input   59.86 | X-H torsion
[ 10167 10162 10161 10158 ] final  -76.06 input  -65.29 | X-H torsion
[ 10718 10713 10712 10709 ] final  158.72 input   66.30 | X-H torsion
[ 10763 10752 10751 10750 ] final  141.73 input  -60.55 | X-H torsion
[ 11005 11000 10999 10996 ] final  -90.18 input  -57.11 | X-H torsion

> <Gold.Protein.ActiveResidues>
 VAL166  LYS551  ARG553  GLY616  TRP617  ASP618  TYR619  PRO620  LYS621  CYS622 
 ASP623  PHE694  ASN695  SER759  ASP760  ASP761  ALA762  ILE779  LEU786  VAL792 
 PHE793  MET794  SER795  GLU796  ALA797  LYS798  CYS799  TRP800  GLU811  SER814 

> <Gold.Protein.RotatedAtoms>
  152.4026  133.6840  159.6328 H   0  0  0  0  0  0  0  0  0  0  0  0  # atno 6907 bound_to 6896
  150.7915  133.8765  159.3282 H   0  0  0  0  0  0  0  0  0  0  0  0  # atno 6908 bound_to 6896
  151.6527  135.1001  160.0215 H   0  0  0  0  0  0  0  0  0  0  0  0  # atno 6909 bound_to 6896
  144.7388  140.3386  143.6139 H   0  0  0  0  0  0  0  0  0  0  0  0  # atno 7974 bound_to 7965
  155.1467  140.3271  155.4440 H   0  0  0  0  0  0  0  0  0  0  0  0  # atno 8008 bound_to 7997
  156.2587  140.1984  156.6530 H   0  0  0  0  0  0  0  0  0  0  0  0  # atno 8009 bound_to 7997
  154.6503  140.0559  156.9934 H   0  0  0  0  0  0  0  0  0  0  0  0  # atno 8010 bound_to 7997
  140.4889  143.2385  151.7939 H   0  0  0  0  0  0  0  0  0  0  0  0  # atno 10167 bound_to 10162
  157.1740  131.0616  151.2168 H   0  0  0  0  0  0  0  0  0  0  0  0  # atno 10718 bound_to 10713
  153.9440  135.2977  155.3441 H   0  0  0  0  0  0  0  0  0  0  0  0  # atno 10763 bound_to 10752
  154.7462  135.5002  153.9211 H   0  0  0  0  0  0  0  0  0  0  0  0  # atno 10764 bound_to 10752
  153.1028  135.6739  153.9749 H   0  0  0  0  0  0  0  0  0  0  0  0  # atno 10765 bound_to 10752
  141.1571  133.7676  156.9701 H   0  0  0  0  0  0  0  0  0  0  0  0  # atno 11005 bound_to 11000
  145.7398  139.1761  143.2382 LP  0  0  0  0  0  0  0  0  0  0  0  0  # atno 17320 bound_to 7965
  146.1143  140.7389  142.9488 LP  0  0  0  0  0  0  0  0  0  0  0  0  # atno 17321 bound_to 7965
  139.4847  144.4675  151.9466 LP  0  0  0  0  0  0  0  0  0  0  0  0  # atno 17342 bound_to 10162
  140.3762  144.2794  150.5914 LP  0  0  0  0  0  0  0  0  0  0  0  0  # atno 17343 bound_to 10162
  157.4016  130.7336  149.6772 LP  0  0  0  0  0  0  0  0  0  0  0  0  # atno 17370 bound_to 10713
  155.9734  130.4119  150.4005 LP  0  0  0  0  0  0  0  0  0  0  0  0  # atno 17371 bound_to 10713
  140.1135  134.9462  157.2100 LP  0  0  0  0  0  0  0  0  0  0  0  0  # atno 17394 bound_to 11000
  140.3163  134.2967  155.7255 LP  0  0  0  0  0  0  0  0  0  0  0  0  # atno 17395 bound_to 11000

$$$$
