AV-unprocessed.smi:781|AV-procd|sdf|3711|dock4
  -GOLD-   22720 1133D 1   1.00000     0.00000
 Structure written by MMmdl.
 38 40  0  0  0  0  0  0  0  0  1 V2000
  152.1790  132.3944  157.0655 C   0  0  0  0  0  0  0  0  0  0  0  0
  151.3275  133.2469  156.1883 C   0  0  0  0  0  0  0  0  0  0  0  0
  150.3354  132.9601  155.2933 C   0  0  0  0  0  0  0  0  0  0  0  0
  149.9565  134.2422  154.8139 C   0  0  0  0  0  0  0  0  0  0  0  0
  148.9307  134.3823  153.8449 N   0  0  0  0  0  0  0  0  0  0  0  0
  147.8243  133.6319  153.7084 C   0  0  0  0  0  0  0  0  0  0  0  0
  147.5268  132.6703  154.4175 O   0  0  0  0  0  0  0  0  0  0  0  0
  147.0635  134.0686  152.6941 N   0  0  0  0  0  0  0  0  0  0  0  0
  145.7929  133.4766  152.2723 C   0  0  2  0  0  0  0  0  0  0  0  0
  146.0476  132.1882  151.4599 C   0  0  1  0  0  0  0  0  0  0  0  0
  144.7382  131.3838  151.3695 C   0  0  0  0  0  0  0  0  0  0  0  0
  143.8916  132.2329  150.4021 C   0  0  0  0  0  0  0  0  0  0  0  0
  144.8316  133.4069  150.0616 C   0  0  2  0  0  0  0  0  0  0  0  0
  146.1867  132.7115  150.0355 C   0  0  0  0  0  0  0  0  0  0  0  0
  144.9497  134.3448  151.2886 C   0  0  2  0  0  0  0  0  0  0  0  0
  145.5253  135.7368  150.9405 C   0  0  0  0  0  0  0  0  0  0  0  0
  144.9944  136.2002  149.7172 O   0  0  0  0  0  0  0  0  0  0  0  0
  150.6553  135.2230  155.3649 N   0  0  0  0  0  0  0  0  0  0  0  0
  151.5375  134.5900  156.2486 O   0  0  0  0  0  0  0  0  0  0  0  0
  151.7342  131.4083  157.1995 H   0  0  0  0  0  0  0  0  0  0  0  0
  152.2985  132.8468  158.0501 H   0  0  0  0  0  0  0  0  0  0  0  0
  153.1698  132.2624  156.6306 H   0  0  0  0  0  0  0  0  0  0  0  0
  149.9460  131.9886  155.0271 H   0  0  0  0  0  0  0  0  0  0  0  0
  149.0487  135.1404  153.1894 H   0  0  0  0  0  0  0  0  0  0  0  0
  147.3857  134.8675  152.1678 H   0  0  0  0  0  0  0  0  0  0  0  0
  145.2059  133.2350  153.1608 H   0  0  0  0  0  0  0  0  0  0  0  0
  146.8903  131.5953  151.8184 H   0  0  0  0  0  0  0  0  0  0  0  0
  144.9196  130.3930  150.9505 H   0  0  0  0  0  0  0  0  0  0  0  0
  144.2596  131.2527  152.3406 H   0  0  0  0  0  0  0  0  0  0  0  0
  143.6465  131.6604  149.5067 H   0  0  0  0  0  0  0  0  0  0  0  0
  142.9548  132.5659  150.8504 H   0  0  0  0  0  0  0  0  0  0  0  0
  144.5602  133.9137  149.1351 H   0  0  0  0  0  0  0  0  0  0  0  0
  147.0279  133.3930  149.9020 H   0  0  0  0  0  0  0  0  0  0  0  0
  146.2511  131.9186  149.2880 H   0  0  0  0  0  0  0  0  0  0  0  0
  143.9611  134.5042  151.7224 H   0  0  0  0  0  0  0  0  0  0  0  0
  145.2593  136.4634  151.7083 H   0  0  0  0  0  0  0  0  0  0  0  0
  146.6131  135.7172  150.8723 H   0  0  0  0  0  0  0  0  0  0  0  0
  144.7377  137.1032  149.8238 H   0  0  0  0  0  0  0  0  0  0  0  0
  1  2  1  0  0  0  0
  1 20  1  0  0  0  0
  1 21  1  0  0  0  0
  1 22  1  0  0  0  0
  2 19  1  0  0  0  0
  2  3  2  0  0  0  0
  3  4  1  0  0  0  0
  3 23  1  0  0  0  0
  4  5  1  0  0  0  0
  4 18  2  0  0  0  0
  5  6  1  0  0  0  0
  5 24  1  0  0  0  0
  6  7  2  0  0  0  0
  6  8  1  0  0  0  0
  8  9  1  0  0  0  0
  8 25  1  0  0  0  0
  9 15  1  0  0  0  0
  9 10  1  0  0  0  0
  9 26  1  0  0  0  0
 10 14  1  0  0  0  0
 10 11  1  0  0  0  0
 10 27  1  0  0  0  0
 11 12  1  0  0  0  0
 11 28  1  0  0  0  0
 11 29  1  0  0  0  0
 12 13  1  0  0  0  0
 12 30  1  0  0  0  0
 12 31  1  0  0  0  0
 13 14  1  0  0  0  0
 13 15  1  0  0  0  0
 13 32  1  0  0  0  0
 14 33  1  0  0  0  0
 14 34  1  0  0  0  0
 15 16  1  0  0  0  0
 15 35  1  0  0  0  0
 16 17  1  0  0  0  0
 16 36  1  0  0  0  0
 16 37  1  0  0  0  0
 17 38  1  0  0  0  0
 18 19  1  0  0  0  0
M  END
> <s_m_source_file>
AV-unprocessed.smi

> <i_m_source_file_index>
781

> <i_lp_mmshare_version>
43012

> <i_f3d_flags>
0

> <s_epik_input>
W0NIM11jMVtjSF1jKG5vMSlbTkhdQyg9TylbTkhdW0NASF0oW0NAQEhdMjMpW0NASF0oW0NIMl1bT0hdKVtDQEBIXShbQ0gyXTMpW0NIMl1bQ0gyXTI=

> <s_epik_cmdline>
J2VwaWtfcHl0aG9uJywgJy1waCcsICc3LjAnLCAnLXRuJywgJzgnLCAnLW1hJywgJzIwMCcsICctbWV0YWxfYmluZGluZycsICctaW1hZScsICc8aW5maWxlLm1hZT4nLCAnLW9tYWUnLCAnPG91dGZpbGUubWFlPic=

> <r_lp_tautomer_probability>
1

> <r_epik_Ionization_Penalty>
2.32222e-05

> <r_epik_Ionization_Penalty_Charging>
0

> <r_epik_Ionization_Penalty_Neutral>
2.32222e-05

> <r_epik_State_Penalty>
-0

> <r_epik_Charging_Adjusted_Penalty>
0

> <i_epik_Tot_Q>
0

> <i_epik_Tot_abs_Q>
0

> <r_epik_Metal_State_Penalty>
-0

> <b_epik_Metal_Only>
0

> <s_lp_Force_Field>
OPLS_2005

> <r_lp_Energy>
47.5532

> <b_lp_Chiralities_Consistent>
1

> <s_lp_Variant>
AV-unprocessed.smi:781-5

> <Gold.Version>
5.8.1

> <Gold.Id.Protein>
6NUR|6NUR_protein|mol2

> <Gold.PLP.Fitness>
42.5867

> <Gold.PLP.PLP>
-34.4891

> <Gold.PLP.part.hbond>
-5.0000

> <Gold.PLP.part.metal>
0.0000

> <Gold.PLP.part.buried>
-3.0389

> <Gold.PLP.part.nonpolar>
-24.9227

> <Gold.PLP.part.repulsive>
0.1351

> <Gold.PLP.ligand.clash>
0.0000

> <Gold.PLP.ligand.torsion>
0.6311

> <Gold.PLP.Chemscore.Hbond>
3.1162

> <Gold.PLP.Chemscore.CHOScore>
0.0000

> <Gold.PLP.Chemscore.Metal>
0.0000

> <Gold.Chemscore.Hbonds>
donor molecule, donor type, donor heavy atom, donor atom, acceptor molecule, acceptor atom, score
      L1  H     5    24       P1  7948  0.95
      L1  H     8    25       P1  7948  0.86
      L1  H    17    38       P1 10171  1.00
      P1  H 10752 10764       L1    19  0.27

> <Gold.PLP.Chemscore.Internal.Correction>
0.0112

> <Gold.Rescore>
     Score         DG    S(hbond)    S(metal)    S(lipo)     H(rot)  DE(clash)    DE(int)     intcor
     15.37     -17.44       2.30        0.00      77.12       1.86       0.43       1.64       ----

> <Gold.Chemscore.Fitness>
15.3723

> <Gold.Chemscore.DG>
-17.4416

> <Gold.Chemscore.ZeroCoef>
-5.4800

> <Gold.Chemscore.Hbond>
2.3045

> <Gold.Chemscore.Metal>
0.0000

> <Gold.Chemscore.Lipo>
77.1178

> <Gold.Chemscore.Internal_Hbond>
0.0000

> <Gold.Chemscore.DEClash>
0.4296

> <Gold.Chemscore.DEInternal>
1.6397

> <Gold.Chemscore.Rot>
1.8587

> <Gold.Chemscore.Internal.Correction>
   9.000000E+99

> <Gold.Chemscore.Hbonds>
donor molecule, donor type, donor heavy atom, donor atom, acceptor molecule, acceptor atom, score
      L1  H     5    24       P1  7948  0.22
      L1  H     8    25       P1  7948  0.74
      L1  H    17    38       P1 10171  1.00
      P1  H 10752 10764       L1    19  0.02

> <Gold.Chemscore.Hbond.Weighted>
-7.6972

> <Gold.Chemscore.Metal.Weighted>
-0.0000

> <Gold.Chemscore.Lipo.Weighted>
-9.0228

> <Gold.Chemscore.Internal_Hbond.Weighted>
0.0000

> <Gold.Chemscore.DEClash.Weighted>
0.4296

> <Gold.Chemscore.DEInternal.Weighted>
1.6397

> <Gold.Chemscore.Rot.Weighted>
4.7583

> <Gold.Chemscore.Internal.Correction.Weighted>
   9.000000E+99

> <Gold.Protein.RotatedTorsions>
[ 6907 6896 6895 6894 ] final  147.65 input  -60.11 | X-H torsion
[ 7974 7965 7964 7962 ] final    6.85 input  175.53 | X-H torsion
[ 8008 7997 7996 7995 ] final  -19.65 input   59.86 | X-H torsion
[ 10167 10162 10161 10158 ] final  -59.27 input  -65.29 | X-H torsion
[ 10718 10713 10712 10709 ] final -141.55 input   66.30 | X-H torsion
[ 10763 10752 10751 10750 ] final  -16.56 input  -60.55 | X-H torsion
[ 11005 11000 10999 10996 ] final  -10.00 input  -57.11 | X-H torsion

> <Gold.Protein.ActiveResidues>
 VAL166  LYS551  ARG553  GLY616  TRP617  ASP618  TYR619  PRO620  LYS621  CYS622 
 ASP623  PHE694  ASN695  SER759  ASP760  ASP761  ALA762  ILE779  LEU786  VAL792 
 PHE793  MET794  SER795  GLU796  ALA797  LYS798  CYS799  TRP800  GLU811  SER814 

> <Gold.Protein.RotatedAtoms>
  152.1519  133.4527  159.4817 H   0  0  0  0  0  0  0  0  0  0  0  0  # atno 6907 bound_to 6896
  150.6896  134.2178  159.4394 H   0  0  0  0  0  0  0  0  0  0  0  0  # atno 6908 bound_to 6896
  152.0075  134.9894  160.0618 H   0  0  0  0  0  0  0  0  0  0  0  0  # atno 6909 bound_to 6896
  146.2431  140.0172  142.8401 H   0  0  0  0  0  0  0  0  0  0  0  0  # atno 7974 bound_to 7965
  154.4822  140.2083  155.9737 H   0  0  0  0  0  0  0  0  0  0  0  0  # atno 8008 bound_to 7997
  156.1182  140.3218  155.8139 H   0  0  0  0  0  0  0  0  0  0  0  0  # atno 8009 bound_to 7997
  155.4515  140.0517  157.2991 H   0  0  0  0  0  0  0  0  0  0  0  0  # atno 8010 bound_to 7997
  140.6145  143.2398  151.5630 H   0  0  0  0  0  0  0  0  0  0  0  0  # atno 10167 bound_to 10162
  156.3353  130.7608  151.1734 H   0  0  0  0  0  0  0  0  0  0  0  0  # atno 10718 bound_to 10713
  153.5604  135.7010  153.5550 H   0  0  0  0  0  0  0  0  0  0  0  0  # atno 10763 bound_to 10752
  153.3434  135.4015  155.1589 H   0  0  0  0  0  0  0  0  0  0  0  0  # atno 10764 bound_to 10752
  154.8648  135.3748  154.5121 H   0  0  0  0  0  0  0  0  0  0  0  0  # atno 10765 bound_to 10752
  140.7401  133.8677  155.8961 H   0  0  0  0  0  0  0  0  0  0  0  0  # atno 11005 bound_to 11000
  145.1274  140.9498  143.4564 LP  0  0  0  0  0  0  0  0  0  0  0  0  # atno 17320 bound_to 7965
  145.0421  139.3251  143.5971 LP  0  0  0  0  0  0  0  0  0  0  0  0  # atno 17321 bound_to 7965
  139.5387  144.2707  152.1307 LP  0  0  0  0  0  0  0  0  0  0  0  0  # atno 17342 bound_to 10162
  140.1913  144.4749  150.6477 LP  0  0  0  0  0  0  0  0  0  0  0  0  # atno 17343 bound_to 10162
  157.7437  131.0470  150.4920 LP  0  0  0  0  0  0  0  0  0  0  0  0  # atno 17370 bound_to 10713
  156.5092  130.4135  149.6310 LP  0  0  0  0  0  0  0  0  0  0  0  0  # atno 17371 bound_to 10713
  140.9844  134.1362  157.4465 LP  0  0  0  0  0  0  0  0  0  0  0  0  # atno 17394 bound_to 11000
  139.8808  135.0021  156.6105 LP  0  0  0  0  0  0  0  0  0  0  0  0  # atno 17395 bound_to 11000

$$$$
