AV-unprocessed.smi:2493|AV-procd|sdf|9819|dock3
  -GOLD-   2272013453D 1   1.00000     0.00000
 Structure written by MMmdl.
 41 42  0  0  0  0  0  0  0  0  1 V2000
  152.0731  144.3012  156.8735 C   0  0  0  0  0  0  0  0  0  0  0  0
  151.6285  143.3864  158.0381 C   0  0  0  0  0  0  0  0  0  0  0  0
  151.1081  142.0381  157.4637 C   0  0  0  0  0  0  0  0  0  0  0  0
  150.1490  142.1989  156.3717 N   0  0  0  0  0  0  0  0  0  0  0  0
  150.0096  141.3761  155.3202 C   0  0  0  0  0  0  0  0  0  0  0  0
  150.6989  140.3719  155.1443 O   0  0  0  0  0  0  0  0  0  0  0  0
  148.9300  141.7481  154.3035 C   0  0  0  0  0  0  0  0  0  0  0  0
  147.9926  140.6070  154.0693 C   0  0  0  0  0  0  0  0  0  0  0  0
  147.1159  139.9724  154.9048 C   0  0  0  0  0  0  0  0  0  0  0  0
  146.5198  138.9695  154.0867 C   0  0  0  0  0  0  0  0  0  0  0  0
  146.9819  138.9773  152.8465 N   0  0  0  0  0  0  0  0  0  0  0  0
  147.8784  139.9816  152.8472 N   0  0  0  0  0  0  0  0  0  0  0  0
  152.8819  143.0977  158.9100 C   0  0  0  0  0  0  0  0  0  0  0  0
  152.6213  142.6065  160.3465 C   0  0  0  0  0  0  0  0  0  0  0  0
  152.4935  143.7592  161.3566 C   0  0  0  0  0  0  0  0  0  0  0  0
  151.1897  144.5627  161.2486 C   0  0  0  0  0  0  0  0  0  0  0  0
  150.9128  145.1531  159.8553 C   0  0  0  0  0  0  0  0  0  0  0  0
  150.4868  144.0873  158.8285 C   0  0  0  0  0  0  0  0  0  0  0  0
  148.4029  140.2240  152.0185 H   0  0  0  0  0  0  0  0  0  0  0  0
  152.8383  143.8195  156.2634 H   0  0  0  0  0  0  0  0  0  0  0  0
  152.4903  145.2406  157.2371 H   0  0  0  0  0  0  0  0  0  0  0  0
  151.2449  144.5583  156.2134 H   0  0  0  0  0  0  0  0  0  0  0  0
  151.9436  141.4108  157.1476 H   0  0  0  0  0  0  0  0  0  0  0  0
  150.6016  141.4724  158.2457 H   0  0  0  0  0  0  0  0  0  0  0  0
  149.5351  142.9988  156.4258 H   0  0  0  0  0  0  0  0  0  0  0  0
  148.3805  142.6180  154.6651 H   0  0  0  0  0  0  0  0  0  0  0  0
  149.4000  142.0460  153.3652 H   0  0  0  0  0  0  0  0  0  0  0  0
  146.9290  140.1896  155.9461 H   0  0  0  0  0  0  0  0  0  0  0  0
  145.7697  138.2408  154.3569 H   0  0  0  0  0  0  0  0  0  0  0  0
  153.4993  142.3578  158.3984 H   0  0  0  0  0  0  0  0  0  0  0  0
  153.5154  143.9843  158.9617 H   0  0  0  0  0  0  0  0  0  0  0  0
  151.7557  141.9455  160.3948 H   0  0  0  0  0  0  0  0  0  0  0  0
  153.4735  141.9980  160.6515 H   0  0  0  0  0  0  0  0  0  0  0  0
  152.5582  143.3491  162.3648 H   0  0  0  0  0  0  0  0  0  0  0  0
  153.3470  144.4311  161.2580 H   0  0  0  0  0  0  0  0  0  0  0  0
  150.3494  143.9402  161.5580 H   0  0  0  0  0  0  0  0  0  0  0  0
  151.2318  145.3781  161.9712 H   0  0  0  0  0  0  0  0  0  0  0  0
  150.0916  145.8630  159.9597 H   0  0  0  0  0  0  0  0  0  0  0  0
  151.7619  145.7363  159.4985 H   0  0  0  0  0  0  0  0  0  0  0  0
  149.8043  144.5543  158.1168 H   0  0  0  0  0  0  0  0  0  0  0  0
  149.8773  143.3410  159.3398 H   0  0  0  0  0  0  0  0  0  0  0  0
  1  2  1  0  0  0  0
  1 20  1  0  0  0  0
  1 21  1  0  0  0  0
  1 22  1  0  0  0  0
  2 18  1  0  0  0  0
  2  3  1  0  0  0  0
  2 13  1  0  0  0  0
  3  4  1  0  0  0  0
  3 23  1  0  0  0  0
  3 24  1  0  0  0  0
  4  5  1  0  0  0  0
  4 25  1  0  0  0  0
  5  6  2  0  0  0  0
  5  7  1  0  0  0  0
  7  8  1  0  0  0  0
  7 26  1  0  0  0  0
  7 27  1  0  0  0  0
  8 12  1  0  0  0  0
  8  9  2  0  0  0  0
  9 10  1  0  0  0  0
  9 28  1  0  0  0  0
 10 11  2  0  0  0  0
 10 29  1  0  0  0  0
 11 12  1  0  0  0  0
 12 19  1  0  0  0  0
 13 14  1  0  0  0  0
 13 30  1  0  0  0  0
 13 31  1  0  0  0  0
 14 15  1  0  0  0  0
 14 32  1  0  0  0  0
 14 33  1  0  0  0  0
 15 16  1  0  0  0  0
 15 34  1  0  0  0  0
 15 35  1  0  0  0  0
 16 17  1  0  0  0  0
 16 36  1  0  0  0  0
 16 37  1  0  0  0  0
 17 18  1  0  0  0  0
 17 38  1  0  0  0  0
 17 39  1  0  0  0  0
 18 40  1  0  0  0  0
 18 41  1  0  0  0  0
M  END
> <s_m_source_file>
AV-unprocessed.smi

> <i_m_source_file_index>
2493

> <i_lp_mmshare_version>
43012

> <i_f3d_flags>
0

> <s_epik_input>
W0NIMl0xW0NIMl1bQ0gyXVtDSDJdW0NIMl1bQ0gyXUMxKFtDSDNdKVtDSDJdW05IXUMoPU8pW0NIMl1jMltjSF1bY0hdbltuSF0y

> <s_epik_cmdline>
J2VwaWtfcHl0aG9uJywgJy1waCcsICc3LjAnLCAnLXRuJywgJzgnLCAnLW1hJywgJzIwMCcsICctbWV0YWxfYmluZGluZycsICctaW1hZScsICc8aW5maWxlLm1hZT4nLCAnLW9tYWUnLCAnPG91dGZpbGUubWFlPic=

> <r_lp_tautomer_probability>
0.5

> <r_epik_Ionization_Penalty>
2.55018e-05

> <r_epik_Ionization_Penalty_Charging>
0

> <r_epik_Ionization_Penalty_Neutral>
2.55018e-05

> <r_epik_State_Penalty>
0.41068

> <r_epik_Charging_Adjusted_Penalty>
0.41068

> <i_epik_Tot_Q>
0

> <i_epik_Tot_abs_Q>
0

> <r_epik_Metal_State_Penalty>
0.410675

> <b_epik_Metal_Only>
0

> <s_lp_Force_Field>
OPLS_2005

> <r_lp_Energy>
19.8643

> <b_lp_Chiralities_Consistent>
1

> <s_lp_Variant>
AV-unprocessed.smi:2493-1

> <Gold.Version>
5.8.1

> <Gold.Id.Protein>
6NUR|6NUR_protein|mol2

> <Gold.PLP.Fitness>
45.4949

> <Gold.PLP.PLP>
-37.2000

> <Gold.PLP.part.hbond>
-2.7859

> <Gold.PLP.part.metal>
0.0000

> <Gold.PLP.part.buried>
-3.1049

> <Gold.PLP.part.nonpolar>
-31.4798

> <Gold.PLP.part.repulsive>
0.5046

> <Gold.PLP.ligand.clash>
0.0000

> <Gold.PLP.ligand.torsion>
0.3484

> <Gold.PLP.Chemscore.Hbond>
2.9920

> <Gold.PLP.Chemscore.CHOScore>
0.0000

> <Gold.PLP.Chemscore.Metal>
0.0000

> <Gold.Chemscore.Hbonds>
donor molecule, donor type, donor heavy atom, donor atom, acceptor molecule, acceptor atom, score
      L1  H     4    25       P1  8028  0.99
      L1  H    12    19       P1  7957  0.86
      P1  H  7989  7998       L1     6  1.00

> <Gold.PLP.Chemscore.Internal.Correction>
0.0158

> <Gold.Rescore>
     Score         DG    S(hbond)    S(metal)    S(lipo)     H(rot)  DE(clash)    DE(int)     intcor
     21.49     -23.58       2.53        0.00     118.84       1.66       1.61       0.48       ----

> <Gold.Chemscore.Fitness>
21.4923

> <Gold.Chemscore.DG>
-23.5813

> <Gold.Chemscore.ZeroCoef>
-5.4800

> <Gold.Chemscore.Hbond>
2.5282

> <Gold.Chemscore.Metal>
0.0000

> <Gold.Chemscore.Lipo>
118.8419

> <Gold.Chemscore.Internal_Hbond>
0.0000

> <Gold.Chemscore.DEClash>
1.6059

> <Gold.Chemscore.DEInternal>
0.4831

> <Gold.Chemscore.Rot>
1.6592

> <Gold.Chemscore.Internal.Correction>
   9.000000E+99

> <Gold.Chemscore.Hbonds>
donor molecule, donor type, donor heavy atom, donor atom, acceptor molecule, acceptor atom, score
      L1  H     4    25       P1  8028  0.91
      L1  H    12    19       P1  7957  0.80
      P1  H  7989  7998       L1     6  0.25

> <Gold.Chemscore.Hbond.Weighted>
-8.4443

> <Gold.Chemscore.Metal.Weighted>
-0.0000

> <Gold.Chemscore.Lipo.Weighted>
-13.9045

> <Gold.Chemscore.Internal_Hbond.Weighted>
0.0000

> <Gold.Chemscore.DEClash.Weighted>
1.6059

> <Gold.Chemscore.DEInternal.Weighted>
0.4831

> <Gold.Chemscore.Rot.Weighted>
4.2475

> <Gold.Chemscore.Internal.Correction.Weighted>
   9.000000E+99

> <Gold.Protein.RotatedTorsions>
[ 6907 6896 6895 6894 ] final -156.61 input  -60.11 | X-H torsion
[ 7974 7965 7964 7962 ] final   91.69 input  175.53 | X-H torsion
[ 8008 7997 7996 7995 ] final -157.53 input   59.86 | X-H torsion
[ 10167 10162 10161 10158 ] final  -84.60 input  -65.29 | X-H torsion
[ 10718 10713 10712 10709 ] final  155.28 input   66.30 | X-H torsion
[ 10763 10752 10751 10750 ] final   48.57 input  -60.55 | X-H torsion
[ 11005 11000 10999 10996 ] final  -80.47 input  -57.11 | X-H torsion

> <Gold.Protein.ActiveResidues>
 VAL166  LYS551  ARG553  GLY616  TRP617  ASP618  TYR619  PRO620  LYS621  CYS622 
 ASP623  PHE694  ASN695  SER759  ASP760  ASP761  ALA762  ILE779  LEU786  VAL792 
 PHE793  MET794  SER795  GLU796  ALA797  LYS798  CYS799  TRP800  GLU811  SER814 

> <Gold.Protein.RotatedAtoms>
  151.2903  133.4168  159.2632 H   0  0  0  0  0  0  0  0  0  0  0  0  # atno 6907 bound_to 6896
  151.0283  134.9521  159.8107 H   0  0  0  0  0  0  0  0  0  0  0  0  # atno 6908 bound_to 6896
  152.5340  134.2864  159.9079 H   0  0  0  0  0  0  0  0  0  0  0  0  # atno 6909 bound_to 6896
  145.5022  139.2276  143.2771 H   0  0  0  0  0  0  0  0  0  0  0  0  # atno 7974 bound_to 7965
  155.7339  140.0805  157.2276 H   0  0  0  0  0  0  0  0  0  0  0  0  # atno 8008 bound_to 7997
  154.4029  140.1590  156.2594 H   0  0  0  0  0  0  0  0  0  0  0  0  # atno 8009 bound_to 7997
  155.9083  140.3405  155.6082 H   0  0  0  0  0  0  0  0  0  0  0  0  # atno 8010 bound_to 7997
  140.4117  143.2620  151.9009 H   0  0  0  0  0  0  0  0  0  0  0  0  # atno 10167 bound_to 10162
  157.2204  131.0717  151.1915 H   0  0  0  0  0  0  0  0  0  0  0  0  # atno 10718 bound_to 10713
  152.9791  135.5940  154.3947 H   0  0  0  0  0  0  0  0  0  0  0  0  # atno 10763 bound_to 10752
  154.3599  135.2767  155.2328 H   0  0  0  0  0  0  0  0  0  0  0  0  # atno 10764 bound_to 10752
  154.4330  135.6032  153.6135 H   0  0  0  0  0  0  0  0  0  0  0  0  # atno 10765 bound_to 10752
  141.1668  133.7152  156.8278 H   0  0  0  0  0  0  0  0  0  0  0  0  # atno 11005 bound_to 11000
  146.2219  140.5824  142.9013 LP  0  0  0  0  0  0  0  0  0  0  0  0  # atno 17320 bound_to 7965
  144.7773  140.5767  143.6629 LP  0  0  0  0  0  0  0  0  0  0  0  0  # atno 17321 bound_to 7965
  139.4782  144.5530  151.8356 LP  0  0  0  0  0  0  0  0  0  0  0  0  # atno 17342 bound_to 10162
  140.4631  144.1694  150.5908 LP  0  0  0  0  0  0  0  0  0  0  0  0  # atno 17343 bound_to 10162
  157.3581  130.7117  149.6484 LP  0  0  0  0  0  0  0  0  0  0  0  0  # atno 17370 bound_to 10713
  155.9683  130.4233  150.4557 LP  0  0  0  0  0  0  0  0  0  0  0  0  # atno 17371 bound_to 10713
  140.2073  134.8853  157.3236 LP  0  0  0  0  0  0  0  0  0  0  0  0  # atno 17394 bound_to 11000
  140.2124  134.4123  155.7606 LP  0  0  0  0  0  0  0  0  0  0  0  0  # atno 17395 bound_to 11000

$$$$
