AV-unprocessed.smi:248|AV-procd|sdf|1896|dock5
  -GOLD-   2262020563D 1   1.00000     0.00000
 Structure written by MMmdl.
 62 65  0  0  0  0  0  0  0  0  1 V2000
  152.0196  144.9066  160.0278 C   0  0  0  0  0  0  0  0  0  0  0  0
  151.9566  143.3750  160.1272 C   0  0  0  0  0  0  0  0  0  0  0  0
  152.5217  142.9051  161.4786 C   0  0  0  0  0  0  0  0  0  0  0  0
  152.6487  142.7257  158.9047 C   0  0  0  0  0  0  0  0  0  0  0  0
  151.9507  141.5312  158.4059 N   0  0  0  0  0  0  0  0  0  0  0  0
  150.6280  141.8005  157.8294 C   0  0  0  0  0  0  0  0  0  0  0  0
  149.7303  140.5602  157.8119 C   0  0  0  0  0  0  0  0  0  0  0  0
  150.4569  139.4501  157.2157 N   0  0  0  0  0  0  0  0  0  0  0  0
  149.6433  138.4172  156.8987 C   0  0  0  0  0  0  0  0  0  0  0  0
  149.4875  138.0483  155.6004 N   0  0  0  0  0  0  0  0  0  0  0  0
  148.6921  137.0194  155.2928 C   0  0  0  0  0  0  0  0  0  0  0  0
  147.9767  136.2435  156.1105 N   0  0  0  0  0  0  0  0  0  0  0  0
  148.1289  136.6176  157.4135 C   0  0  0  0  0  0  0  0  0  0  0  0
  148.9431  137.6822  157.8900 C   0  0  0  0  0  0  0  0  0  0  0  0
  148.8655  137.7629  159.2734 N   0  0  0  0  0  0  0  0  0  0  0  0
  148.0515  136.7958  159.5986 C   0  0  0  0  0  0  0  0  0  0  0  0
  147.5465  136.0670  158.5434 N   0  0  0  0  0  0  0  0  0  0  0  0
  146.6307  134.9361  158.6255 C   0  0  0  0  0  0  0  0  0  0  0  0
  147.2155  133.6479  159.2883 C   0  0  0  0  0  0  0  0  0  0  0  0
  148.2343  132.9990  158.3092 C   0  0  0  0  0  0  0  0  0  0  0  0
  149.3266  133.8393  157.9915 O   0  0  0  0  0  0  0  0  0  0  0  0
  147.9114  133.9606  160.6385 C   0  0  0  0  0  0  0  0  0  0  0  0
  146.9118  134.3629  161.7391 C   0  0  0  0  0  0  0  0  0  0  0  0
  145.9367  133.3415  161.9070 O   0  0  0  0  0  0  0  0  0  0  0  0
  145.1539  133.1275  160.7393 C   0  0  0  0  0  0  0  0  0  0  0  0
  146.0544  132.6611  159.5803 C   0  0  0  0  0  0  0  0  0  0  0  0
  151.7282  139.0879  157.8576 C   0  0  1  0  0  0  0  0  0  0  0  0
  152.5849  138.2280  156.9011 C   0  0  0  0  0  0  0  0  0  0  0  0
  152.5281  140.3028  158.3902 C   0  0  0  0  0  0  0  0  0  0  0  0
  153.6661  140.1089  158.8207 O   0  0  0  0  0  0  0  0  0  0  0  0
  153.0500  145.2624  160.0488 H   0  0  0  0  0  0  0  0  0  0  0  0
  151.4881  145.3780  160.8550 H   0  0  0  0  0  0  0  0  0  0  0  0
  151.5641  145.2605  159.1026 H   0  0  0  0  0  0  0  0  0  0  0  0
  150.9022  143.0971  160.1029 H   0  0  0  0  0  0  0  0  0  0  0  0
  153.5926  143.0982  161.5485 H   0  0  0  0  0  0  0  0  0  0  0  0
  152.3615  141.8381  161.6318 H   0  0  0  0  0  0  0  0  0  0  0  0
  152.0366  143.4217  162.3071 H   0  0  0  0  0  0  0  0  0  0  0  0
  152.7077  143.4548  158.0950 H   0  0  0  0  0  0  0  0  0  0  0  0
  153.6877  142.4958  159.1469 H   0  0  0  0  0  0  0  0  0  0  0  0
  150.1280  142.6002  158.3770 H   0  0  0  0  0  0  0  0  0  0  0  0
  150.7715  142.1626  156.8105 H   0  0  0  0  0  0  0  0  0  0  0  0
  149.4318  140.3009  158.8294 H   0  0  0  0  0  0  0  0  0  0  0  0
  148.8175  140.7727  157.2523 H   0  0  0  0  0  0  0  0  0  0  0  0
  148.6187  136.7828  154.2414 H   0  0  0  0  0  0  0  0  0  0  0  0
  147.7894  136.5902  160.6262 H   0  0  0  0  0  0  0  0  0  0  0  0
  145.7343  135.2784  159.1403 H   0  0  0  0  0  0  0  0  0  0  0  0
  146.3070  134.7064  157.6092 H   0  0  0  0  0  0  0  0  0  0  0  0
  148.6318  132.0757  158.7322 H   0  0  0  0  0  0  0  0  0  0  0  0
  147.7530  132.7354  157.3675 H   0  0  0  0  0  0  0  0  0  0  0  0
  149.3753  133.9276  157.0519 H   0  0  0  0  0  0  0  0  0  0  0  0
  148.4453  133.0777  160.9918 H   0  0  0  0  0  0  0  0  0  0  0  0
  148.6723  134.7309  160.5184 H   0  0  0  0  0  0  0  0  0  0  0  0
  147.4376  134.4987  162.6841 H   0  0  0  0  0  0  0  0  0  0  0  0
  146.4237  135.3116  161.5170 H   0  0  0  0  0  0  0  0  0  0  0  0
  144.4096  132.3616  160.9580 H   0  0  0  0  0  0  0  0  0  0  0  0
  144.6000  134.0314  160.4848 H   0  0  0  0  0  0  0  0  0  0  0  0
  145.4549  132.5007  158.6837 H   0  0  0  0  0  0  0  0  0  0  0  0
  146.4486  131.6825  159.8544 H   0  0  0  0  0  0  0  0  0  0  0  0
  151.5050  138.4868  158.7406 H   0  0  0  0  0  0  0  0  0  0  0  0
  153.5407  137.9535  157.3485 H   0  0  0  0  0  0  0  0  0  0  0  0
  152.7941  138.7612  155.9729 H   0  0  0  0  0  0  0  0  0  0  0  0
  152.0858  137.2944  156.6409 H   0  0  0  0  0  0  0  0  0  0  0  0
  1  2  1  0  0  0  0
  1 31  1  0  0  0  0
  1 32  1  0  0  0  0
  1 33  1  0  0  0  0
  2  3  1  0  0  0  0
  2  4  1  0  0  0  0
  2 34  1  0  0  0  0
  3 35  1  0  0  0  0
  3 36  1  0  0  0  0
  3 37  1  0  0  0  0
  4  5  1  0  0  0  0
  4 38  1  0  0  0  0
  4 39  1  0  0  0  0
  5 29  1  0  0  0  0
  5  6  1  0  0  0  0
  6  7  1  0  0  0  0
  6 40  1  0  0  0  0
  6 41  1  0  0  0  0
  7  8  1  0  0  0  0
  7 42  1  0  0  0  0
  7 43  1  0  0  0  0
  8  9  1  0  0  0  0
  8 27  1  0  0  0  0
  9 14  1  0  0  0  0
  9 10  2  0  0  0  0
 10 11  1  0  0  0  0
 11 12  2  0  0  0  0
 11 44  1  0  0  0  0
 12 13  1  0  0  0  0
 13 17  1  0  0  0  0
 13 14  2  0  0  0  0
 14 15  1  0  0  0  0
 15 16  2  0  0  0  0
 16 17  1  0  0  0  0
 16 45  1  0  0  0  0
 17 18  1  0  0  0  0
 18 19  1  0  0  0  0
 18 46  1  0  0  0  0
 18 47  1  0  0  0  0
 19 26  1  0  0  0  0
 19 20  1  0  0  0  0
 19 22  1  0  0  0  0
 20 21  1  0  0  0  0
 20 48  1  0  0  0  0
 20 49  1  0  0  0  0
 21 50  1  0  0  0  0
 22 23  1  0  0  0  0
 22 51  1  0  0  0  0
 22 52  1  0  0  0  0
 23 24  1  0  0  0  0
 23 53  1  0  0  0  0
 23 54  1  0  0  0  0
 24 25  1  0  0  0  0
 25 26  1  0  0  0  0
 25 55  1  0  0  0  0
 25 56  1  0  0  0  0
 26 57  1  0  0  0  0
 26 58  1  0  0  0  0
 27 28  1  0  0  0  0
 27 29  1  0  0  0  0
 27 59  1  0  0  0  0
 28 60  1  0  0  0  0
 28 61  1  0  0  0  0
 28 62  1  0  0  0  0
 29 30  2  0  0  0  0
M  END
> <s_m_source_file>
AV-unprocessed.smi

> <i_m_source_file_index>
248

> <i_lp_mmshare_version>
43012

> <i_f3d_flags>
0

> <s_epik_input>
W0NIM11bQ0hdKFtDSDNdKVtDSDJdTjFbQ0gyXVtDSDJdTihbQ0BASF0oW0NIM10pQzE9TyljKG5bY0hdbjIpYyhjMjMpbltjSF1uM1tDSDJdQzQoW0NIMl1bT0hdKVtDSDJdW0NIMl1PW0NIMl1bQ0gyXTQ=

> <s_epik_cmdline>
J2VwaWtfcHl0aG9uJywgJy1waCcsICc3LjAnLCAnLXRuJywgJzgnLCAnLW1hJywgJzIwMCcsICctbWV0YWxfYmluZGluZycsICctaW1hZScsICc8aW5maWxlLm1hZT4nLCAnLW9tYWUnLCAnPG91dGZpbGUubWFlPic=

> <r_lp_tautomer_probability>
1

> <r_epik_Ionization_Penalty>
0.000593973

> <r_epik_Ionization_Penalty_Charging>
0

> <r_epik_Ionization_Penalty_Neutral>
0.000593973

> <r_epik_State_Penalty>
0.000283267

> <r_epik_Charging_Adjusted_Penalty>
0.000283267

> <i_epik_Tot_Q>
0

> <i_epik_Tot_abs_Q>
0

> <r_epik_Metal_State_Penalty>
-0

> <b_epik_Metal_Only>
0

> <s_lp_Force_Field>
OPLS_2005

> <r_lp_Energy>
46.1111

> <b_lp_Chiralities_Consistent>
1

> <s_lp_Variant>
AV-unprocessed.smi:248-1

> <Gold.Version>
5.8.1

> <Gold.Id.Protein>
6NUR|6NUR_protein|mol2

> <Gold.PLP.Fitness>
47.0373

> <Gold.PLP.PLP>
-39.7002

> <Gold.PLP.part.hbond>
-3.8961

> <Gold.PLP.part.metal>
0.0000

> <Gold.PLP.part.buried>
-5.7390

> <Gold.PLP.part.nonpolar>
-29.4905

> <Gold.PLP.part.repulsive>
0.0982

> <Gold.PLP.ligand.clash>
0.0000

> <Gold.PLP.ligand.torsion>
0.8521

> <Gold.PLP.Chemscore.Hbond>
1.9760

> <Gold.PLP.Chemscore.CHOScore>
0.9022

> <Gold.PLP.Chemscore.Metal>
0.0000

> <Gold.Chemscore.Hbonds>
donor molecule, donor type, donor heavy atom, donor atom, acceptor molecule, acceptor atom, score
      P1  H  6896  6907       L1    21  1.00
      P1  H  7997  8008       L1    30  0.99
      L1  C    11    44       P1  7948  1.00

> <Gold.PLP.Chemscore.Internal.Correction>
0.4068

> <Gold.Rescore>
     Score         DG    S(hbond)    S(metal)    S(lipo)     H(rot)  DE(clash)    DE(int)     intcor
     13.26     -16.34       1.83        0.00     100.85       2.75       0.05       3.03       ----

> <Gold.Chemscore.Fitness>
13.2599

> <Gold.Chemscore.DG>
-16.3383

> <Gold.Chemscore.ZeroCoef>
-5.4800

> <Gold.Chemscore.Hbond>
1.8277

> <Gold.Chemscore.Metal>
0.0000

> <Gold.Chemscore.Lipo>
100.8523

> <Gold.Chemscore.Internal_Hbond>
0.0000

> <Gold.Chemscore.DEClash>
0.0453

> <Gold.Chemscore.DEInternal>
3.0331

> <Gold.Chemscore.Rot>
2.7523

> <Gold.Chemscore.Internal.Correction>
   9.000000E+99

> <Gold.Chemscore.Hbonds>
donor molecule, donor type, donor heavy atom, donor atom, acceptor molecule, acceptor atom, score
      P1  H  6896  6907       L1    21  0.94
      P1  H  7997  8008       L1    30  0.46

> <Gold.Chemscore.Hbond.Weighted>
-6.1045

> <Gold.Chemscore.Metal.Weighted>
-0.0000

> <Gold.Chemscore.Lipo.Weighted>
-11.7997

> <Gold.Chemscore.Internal_Hbond.Weighted>
0.0000

> <Gold.Chemscore.DEClash.Weighted>
0.0453

> <Gold.Chemscore.DEInternal.Weighted>
3.0331

> <Gold.Chemscore.Rot.Weighted>
7.0459

> <Gold.Chemscore.Internal.Correction.Weighted>
   9.000000E+99

> <Gold.Protein.RotatedTorsions>
[ 6907 6896 6895 6894 ] final  -99.99 input  -60.11 | X-H torsion
[ 7974 7965 7964 7962 ] final   75.80 input  175.53 | X-H torsion
[ 8008 7997 7996 7995 ] final -101.37 input   59.86 | X-H torsion
[ 10167 10162 10161 10158 ] final  -94.05 input  -65.29 | X-H torsion
[ 10718 10713 10712 10709 ] final   65.40 input   66.30 | X-H torsion
[ 10763 10752 10751 10750 ] final   88.77 input  -60.55 | X-H torsion
[ 11005 11000 10999 10996 ] final   90.54 input  -57.11 | X-H torsion

> <Gold.Protein.ActiveResidues>
 VAL166  LYS551  ARG553  GLY616  TRP617  ASP618  TYR619  PRO620  LYS621  CYS622 
 ASP623  PHE694  ASN695  SER759  ASP760  ASP761  ALA762  ILE779  LEU786  VAL792 
 PHE793  MET794  SER795  GLU796  ALA797  LYS798  CYS799  TRP800  GLU811  SER814 

> <Gold.Protein.RotatedAtoms>
  150.7100  134.0955  159.3946 H   0  0  0  0  0  0  0  0  0  0  0  0  # atno 6907 bound_to 6896
  151.8941  135.0402  160.0510 H   0  0  0  0  0  0  0  0  0  0  0  0  # atno 6908 bound_to 6896
  152.2467  133.5145  159.5338 H   0  0  0  0  0  0  0  0  0  0  0  0  # atno 6909 bound_to 6896
  145.7109  139.2614  143.1651 H   0  0  0  0  0  0  0  0  0  0  0  0  # atno 7974 bound_to 7965
  154.8416  140.0435  157.1545 H   0  0  0  0  0  0  0  0  0  0  0  0  # atno 8008 bound_to 7997
  154.9040  140.3004  155.5282 H   0  0  0  0  0  0  0  0  0  0  0  0  # atno 8009 bound_to 7997
  156.2992  140.2370  156.4072 H   0  0  0  0  0  0  0  0  0  0  0  0  # atno 8010 bound_to 7997
  140.3184  143.3063  152.0073 H   0  0  0  0  0  0  0  0  0  0  0  0  # atno 10167 bound_to 10162
  157.6103  130.9212  149.9971 H   0  0  0  0  0  0  0  0  0  0  0  0  # atno 10718 bound_to 10713
  153.1802  135.4495  155.0018 H   0  0  0  0  0  0  0  0  0  0  0  0  # atno 10763 bound_to 10752
  154.8025  135.3261  154.7517 H   0  0  0  0  0  0  0  0  0  0  0  0  # atno 10764 bound_to 10752
  153.7982  135.6964  153.4915 H   0  0  0  0  0  0  0  0  0  0  0  0  # atno 10765 bound_to 10752
  139.8854  134.8620  156.3300 H   0  0  0  0  0  0  0  0  0  0  0  0  # atno 11005 bound_to 11000
  146.0713  140.7866  142.9687 LP  0  0  0  0  0  0  0  0  0  0  0  0  # atno 17320 bound_to 7965
  144.6942  140.3346  143.7210 LP  0  0  0  0  0  0  0  0  0  0  0  0  # atno 17321 bound_to 7965
  139.4879  144.6330  151.7032 LP  0  0  0  0  0  0  0  0  0  0  0  0  # atno 17342 bound_to 10162
  140.5505  144.0432  150.6125 LP  0  0  0  0  0  0  0  0  0  0  0  0  # atno 17343 bound_to 10162
  156.1203  130.3646  149.9899 LP  0  0  0  0  0  0  0  0  0  0  0  0  # atno 17370 bound_to 10713
  156.7980  130.9280  151.3646 LP  0  0  0  0  0  0  0  0  0  0  0  0  # atno 17371 bound_to 10713
  140.9729  133.7316  156.0561 LP  0  0  0  0  0  0  0  0  0  0  0  0  # atno 17394 bound_to 11000
  140.7847  134.3685  157.5479 LP  0  0  0  0  0  0  0  0  0  0  0  0  # atno 17395 bound_to 11000

$$$$
