AV-unprocessed.smi:212|AV-procd|sdf|1629|dock7
  -GOLD-   2262019583D 1   1.00000     0.00000
 Structure written by MMmdl.
 65 68  0  0  0  0  0  0  0  0  2 V2000
  146.2308  139.0648  151.3863 C   0  0  0  0  0  0  0  0  0  0  0  0
  146.3260  137.9721  152.4685 C   0  0  2  0  0  0  0  0  0  0  0  0
  145.0593  137.8621  153.3456 C   0  0  0  0  0  0  0  0  0  0  0  0
  145.1824  136.7528  154.3272 N   0  3  2  0  0  0  0  0  0  0  0  0
  143.9591  136.5640  155.1516 C   0  0  0  0  0  0  0  0  0  0  0  0
  142.7820  135.9664  154.3452 C   0  0  0  0  0  0  0  0  0  0  0  0
  142.1631  137.0427  153.4374 C   0  0  0  0  0  0  0  0  0  0  0  0
  143.2072  134.7450  153.5091 C   0  0  0  0  0  0  0  0  0  0  0  0
  141.7640  135.5614  155.2390 O   0  0  0  0  0  0  0  0  0  0  0  0
  146.4278  136.8436  155.1344 C   0  0  0  0  0  0  0  0  0  0  0  0
  147.6703  136.9336  154.2287 C   0  0  0  0  0  0  0  0  0  0  0  0
  147.5448  138.0403  153.2849 N   0  0  0  0  0  0  0  0  0  0  0  0
  147.9813  139.2183  153.8006 C   0  0  0  0  0  0  0  0  0  0  0  0
  147.1816  140.3173  153.8002 N   0  0  0  0  0  0  0  0  0  0  0  0
  147.6105  141.4626  154.3396 C   0  0  0  0  0  0  0  0  0  0  0  0
  148.7785  141.7203  154.9318 N   0  0  0  0  0  0  0  0  0  0  0  0
  149.5796  140.6170  154.9438 C   0  0  0  0  0  0  0  0  0  0  0  0
  149.2619  139.3394  154.4047 C   0  0  0  0  0  0  0  0  0  0  0  0
  150.3220  138.4626  154.5994 N   0  0  0  0  0  0  0  0  0  0  0  0
  151.2160  139.1810  155.2229 C   0  0  0  0  0  0  0  0  0  0  0  0
  150.8481  140.4832  155.4783 N   0  0  0  0  0  0  0  0  0  0  0  0
  151.6353  141.4946  156.1603 C   0  0  0  0  0  0  0  0  0  0  0  0
  151.5252  141.4418  157.7079 C   0  0  1  0  0  0  0  0  0  0  0  0
  152.2199  140.1927  158.3095 C   0  0  0  0  0  0  0  0  0  0  0  0
  153.6176  140.2119  158.1015 O   0  0  0  0  0  0  0  0  0  0  0  0
  152.0873  142.7450  158.3339 C   0  0  1  0  0  0  0  0  0  0  0  0
  151.2753  143.9975  158.0472 C   0  0  0  0  0  0  0  0  0  0  0  0
  151.7672  144.9526  159.1269 C   0  0  0  0  0  0  0  0  0  0  0  0
  152.0094  144.1351  160.2637 O   0  0  0  0  0  0  0  0  0  0  0  0
  152.1037  142.7695  159.8690 C   0  0  0  0  0  0  0  0  0  0  0  0
  145.3992  138.8635  150.7104 H   0  0  0  0  0  0  0  0  0  0  0  0
  147.1390  139.0987  150.7839 H   0  0  0  0  0  0  0  0  0  0  0  0
  146.0687  140.0575  151.8049 H   0  0  0  0  0  0  0  0  0  0  0  0
  146.4082  137.0303  151.9239 H   0  0  0  0  0  0  0  0  0  0  0  0
  144.8639  138.7952  153.8742 H   0  0  0  0  0  0  0  0  0  0  0  0
  144.1939  137.6782  152.7073 H   0  0  0  0  0  0  0  0  0  0  0  0
  144.1843  135.9459  156.0228 H   0  0  0  0  0  0  0  0  0  0  0  0
  143.6383  137.5254  155.5566 H   0  0  0  0  0  0  0  0  0  0  0  0
  142.8872  137.4074  152.7076 H   0  0  0  0  0  0  0  0  0  0  0  0
  141.8178  137.9018  154.0143 H   0  0  0  0  0  0  0  0  0  0  0  0
  141.3078  136.6543  152.8830 H   0  0  0  0  0  0  0  0  0  0  0  0
  144.0030  135.0045  152.8099 H   0  0  0  0  0  0  0  0  0  0  0  0
  142.3725  134.3556  152.9248 H   0  0  0  0  0  0  0  0  0  0  0  0
  143.5712  133.9293  154.1348 H   0  0  0  0  0  0  0  0  0  0  0  0
  140.9835  135.3704  154.7407 H   0  0  0  0  0  0  0  0  0  0  0  0
  146.3754  137.7188  155.7839 H   0  0  0  0  0  0  0  0  0  0  0  0
  146.5164  135.9743  155.7854 H   0  0  0  0  0  0  0  0  0  0  0  0
  148.5705  137.0331  154.8371 H   0  0  0  0  0  0  0  0  0  0  0  0
  147.7859  136.0083  153.6631 H   0  0  0  0  0  0  0  0  0  0  0  0
  146.9182  142.2902  154.2926 H   0  0  0  0  0  0  0  0  0  0  0  0
  152.1704  138.7753  155.5250 H   0  0  0  0  0  0  0  0  0  0  0  0
  152.6768  141.3827  155.8559 H   0  0  0  0  0  0  0  0  0  0  0  0
  151.3071  142.4635  155.7841 H   0  0  0  0  0  0  0  0  0  0  0  0
  150.4666  141.3926  157.9689 H   0  0  0  0  0  0  0  0  0  0  0  0
  152.0080  140.1073  159.3759 H   0  0  0  0  0  0  0  0  0  0  0  0
  151.8583  139.2763  157.8455 H   0  0  0  0  0  0  0  0  0  0  0  0
  154.0399  139.8433  158.8626 H   0  0  0  0  0  0  0  0  0  0  0  0
  153.1045  142.9092  157.9740 H   0  0  0  0  0  0  0  0  0  0  0  0
  151.4312  144.3947  157.0440 H   0  0  0  0  0  0  0  0  0  0  0  0
  150.2097  143.8015  158.1768 H   0  0  0  0  0  0  0  0  0  0  0  0
  152.7066  145.4171  158.8242 H   0  0  0  0  0  0  0  0  0  0  0  0
  151.0504  145.7444  159.3466 H   0  0  0  0  0  0  0  0  0  0  0  0
  151.2422  142.2389  160.2766 H   0  0  0  0  0  0  0  0  0  0  0  0
  153.0041  142.3137  160.2811 H   0  0  0  0  0  0  0  0  0  0  0  0
  145.2706  135.9124  153.7741 H   0  0  0  0  0  0  0  0  0  0  0  0
  1  2  1  0  0  0  0
  1 31  1  0  0  0  0
  1 32  1  0  0  0  0
  1 33  1  0  0  0  0
  2 12  1  0  0  0  0
  2  3  1  0  0  0  0
  2 34  1  0  0  0  0
  3  4  1  0  0  0  0
  3 35  1  0  0  0  0
  3 36  1  0  0  0  0
  4  5  1  0  0  0  0
  4 10  1  0  0  0  0
  4 65  1  0  0  0  0
  5  6  1  0  0  0  0
  5 37  1  0  0  0  0
  5 38  1  0  0  0  0
  6  7  1  0  0  0  0
  6  8  1  0  0  0  0
  6  9  1  0  0  0  0
  7 39  1  0  0  0  0
  7 40  1  0  0  0  0
  7 41  1  0  0  0  0
  8 42  1  0  0  0  0
  8 43  1  0  0  0  0
  8 44  1  0  0  0  0
  9 45  1  0  0  0  0
 10 11  1  0  0  0  0
 10 46  1  0  0  0  0
 10 47  1  0  0  0  0
 11 12  1  0  0  0  0
 11 48  1  0  0  0  0
 11 49  1  0  0  0  0
 12 13  1  0  0  0  0
 13 18  1  0  0  0  0
 13 14  2  0  0  0  0
 14 15  1  0  0  0  0
 15 16  2  0  0  0  0
 15 50  1  0  0  0  0
 16 17  1  0  0  0  0
 17 21  1  0  0  0  0
 17 18  2  0  0  0  0
 18 19  1  0  0  0  0
 19 20  2  0  0  0  0
 20 21  1  0  0  0  0
 20 51  1  0  0  0  0
 21 22  1  0  0  0  0
 22 23  1  0  0  0  0
 22 52  1  0  0  0  0
 22 53  1  0  0  0  0
 23 24  1  0  0  0  0
 23 26  1  0  0  0  0
 23 54  1  0  0  0  0
 24 25  1  0  0  0  0
 24 55  1  0  0  0  0
 24 56  1  0  0  0  0
 25 57  1  0  0  0  0
 26 30  1  0  0  0  0
 26 27  1  0  0  0  0
 26 58  1  0  0  0  0
 27 28  1  0  0  0  0
 27 59  1  0  0  0  0
 27 60  1  0  0  0  0
 28 29  1  0  0  0  0
 28 61  1  0  0  0  0
 28 62  1  0  0  0  0
 29 30  1  0  0  0  0
 30 63  1  0  0  0  0
 30 64  1  0  0  0  0
M  CHG  1   4   1
M  END
> <s_m_source_file>
AV-unprocessed.smi

> <i_m_source_file_index>
212

> <i_lp_mmshare_version>
43012

> <i_f3d_flags>
0

> <s_epik_input>
W0NIM11bQ0BASF0xW0NIMl1OKFtDSDJdQyhbQ0gzXSkoW0NIM10pW09IXSlbQ0gyXVtDSDJdTjFjKG5bY0hdbjIpYyhjMjMpbltjSF1uM1tDSDJdW0NASF0oW0NIMl1bT0hdKVtDQEBIXTRbQ0gyXVtDSDJdT1tDSDJdNA==

> <s_epik_cmdline>
J2VwaWtfcHl0aG9uJywgJy1waCcsICc3LjAnLCAnLXRuJywgJzgnLCAnLW1hJywgJzIwMCcsICctbWV0YWxfYmluZGluZycsICctaW1hZScsICc8aW5maWxlLm1hZT4nLCAnLW9tYWUnLCAnPG91dGZpbGUubWFlPic=

> <r_lp_tautomer_probability>
1

> <r_epik_Ionization_Penalty>
0.00182193

> <r_epik_Ionization_Penalty_Charging>
0.00173996

> <r_epik_Ionization_Penalty_Neutral>
8.19718e-05

> <r_epik_State_Penalty>
-0

> <r_epik_Charging_Adjusted_Penalty>
0.00173996

> <i_epik_Tot_Q>
1

> <i_epik_Tot_abs_Q>
1

> <r_epik_Metal_State_Penalty>
-0

> <b_epik_Metal_Only>
0

> <s_lp_Force_Field>
OPLS_2005

> <r_lp_Energy>
57.8479

> <b_lp_Chiralities_Consistent>
1

> <s_lp_Variant>
AV-unprocessed.smi:212-13

> <Gold.Version>
5.8.1

> <Gold.Id.Protein>
6NUR|6NUR_protein|mol2

> <Gold.PLP.Fitness>
46.2366

> <Gold.PLP.PLP>
-43.8906

> <Gold.PLP.part.hbond>
-2.0218

> <Gold.PLP.part.metal>
0.0000

> <Gold.PLP.part.buried>
-1.2824

> <Gold.PLP.part.nonpolar>
-42.6868

> <Gold.PLP.part.repulsive>
2.6990

> <Gold.PLP.ligand.clash>
0.0000

> <Gold.PLP.ligand.torsion>
0.9401

> <Gold.PLP.Chemscore.Hbond>
0.9760

> <Gold.PLP.Chemscore.CHOScore>
0.0000

> <Gold.PLP.Chemscore.Metal>
0.0000

> <Gold.Chemscore.Hbonds>
donor molecule, donor type, donor heavy atom, donor atom, acceptor molecule, acceptor atom, score
      P1  H  7997  8010       L1    25  0.50

> <Gold.PLP.Chemscore.Internal.Correction>
1.2982

> <Gold.Rescore>
     Score         DG    S(hbond)    S(metal)    S(lipo)     H(rot)  DE(clash)    DE(int)     intcor
      6.44     -11.00       0.94        0.00     100.91       3.68       2.16       2.40       ----

> <Gold.Chemscore.Fitness>
6.4419

> <Gold.Chemscore.DG>
-10.9971

> <Gold.Chemscore.ZeroCoef>
-5.4800

> <Gold.Chemscore.Hbond>
0.9385

> <Gold.Chemscore.Metal>
0.0000

> <Gold.Chemscore.Lipo>
100.9109

> <Gold.Chemscore.Internal_Hbond>
0.0000

> <Gold.Chemscore.DEClash>
2.1578

> <Gold.Chemscore.DEInternal>
2.3974

> <Gold.Chemscore.Rot>
3.6812

> <Gold.Chemscore.Internal.Correction>
   9.000000E+99

> <Gold.Chemscore.Hbonds>
donor molecule, donor type, donor heavy atom, donor atom, acceptor molecule, acceptor atom, score
      P1  H  7997  8010       L1    25  0.05

> <Gold.Chemscore.Hbond.Weighted>
-3.1345

> <Gold.Chemscore.Metal.Weighted>
-0.0000

> <Gold.Chemscore.Lipo.Weighted>
-11.8066

> <Gold.Chemscore.Internal_Hbond.Weighted>
0.0000

> <Gold.Chemscore.DEClash.Weighted>
2.1578

> <Gold.Chemscore.DEInternal.Weighted>
2.3974

> <Gold.Chemscore.Rot.Weighted>
9.4239

> <Gold.Chemscore.Internal.Correction.Weighted>
   9.000000E+99

> <Gold.Protein.RotatedTorsions>
[ 6907 6896 6895 6894 ] final  -83.92 input  -60.11 | X-H torsion
[ 7974 7965 7964 7962 ] final -112.55 input  175.53 | X-H torsion
[ 8008 7997 7996 7995 ] final   14.87 input   59.86 | X-H torsion
[ 10167 10162 10161 10158 ] final  -23.26 input  -65.29 | X-H torsion
[ 10718 10713 10712 10709 ] final -144.57 input   66.30 | X-H torsion
[ 10763 10752 10751 10750 ] final   21.11 input  -60.55 | X-H torsion
[ 11005 11000 10999 10996 ] final   33.67 input  -57.11 | X-H torsion

> <Gold.Protein.ActiveResidues>
 VAL166  LYS551  ARG553  GLY616  TRP617  ASP618  TYR619  PRO620  LYS621  CYS622 
 ASP623  PHE694  ASN695  SER759  ASP760  ASP761  ALA762  ILE779  LEU786  VAL792 
 PHE793  MET794  SER795  GLU796  ALA797  LYS798  CYS799  TRP800  GLU811  SER814 

> <Gold.Protein.RotatedAtoms>
  150.6881  134.3439  159.4879 H   0  0  0  0  0  0  0  0  0  0  0  0  # atno 6907 bound_to 6896
  152.1288  134.9148  160.0569 H   0  0  0  0  0  0  0  0  0  0  0  0  # atno 6908 bound_to 6896
  152.0325  133.3908  159.4340 H   0  0  0  0  0  0  0  0  0  0  0  0  # atno 6909 bound_to 6896
  145.1427  140.8786  143.3692 H   0  0  0  0  0  0  0  0  0  0  0  0  # atno 7974 bound_to 7965
  154.8547  140.2935  155.5576 H   0  0  0  0  0  0  0  0  0  0  0  0  # atno 8008 bound_to 7997
  156.3018  140.2489  156.3443 H   0  0  0  0  0  0  0  0  0  0  0  0  # atno 8009 bound_to 7997
  154.8983  140.0392  157.1868 H   0  0  0  0  0  0  0  0  0  0  0  0  # atno 8010 bound_to 7997
  140.7288  143.4459  151.0588 H   0  0  0  0  0  0  0  0  0  0  0  0  # atno 10167 bound_to 10162
  156.3717  130.7791  151.1973 H   0  0  0  0  0  0  0  0  0  0  0  0  # atno 10718 bound_to 10713
  153.1022  135.6675  153.9652 H   0  0  0  0  0  0  0  0  0  0  0  0  # atno 10763 bound_to 10752
  153.9219  135.3013  155.3449 H   0  0  0  0  0  0  0  0  0  0  0  0  # atno 10764 bound_to 10752
  154.7443  135.5065  153.9252 H   0  0  0  0  0  0  0  0  0  0  0  0  # atno 10765 bound_to 10752
  140.2608  134.3195  155.7858 H   0  0  0  0  0  0  0  0  0  0  0  0  # atno 11005 bound_to 11000
  145.0515  139.3178  143.5926 LP  0  0  0  0  0  0  0  0  0  0  0  0  # atno 17320 bound_to 7965
  146.3503  139.9925  142.8684 LP  0  0  0  0  0  0  0  0  0  0  0  0  # atno 17321 bound_to 7965
  139.8131  143.7924  152.3172 LP  0  0  0  0  0  0  0  0  0  0  0  0  # atno 17342 bound_to 10162
  139.7980  144.7385  150.9863 LP  0  0  0  0  0  0  0  0  0  0  0  0  # atno 17343 bound_to 10162
  157.7484  131.0370  150.4436 LP  0  0  0  0  0  0  0  0  0  0  0  0  # atno 17370 bound_to 10713
  156.4664  130.4043  149.6544 LP  0  0  0  0  0  0  0  0  0  0  0  0  # atno 17371 bound_to 10713
  141.2190  133.7408  156.9183 LP  0  0  0  0  0  0  0  0  0  0  0  0  # atno 17394 bound_to 11000
  140.1467  134.9257  157.2538 LP  0  0  0  0  0  0  0  0  0  0  0  0  # atno 17395 bound_to 11000

$$$$
