AV-unprocessed.smi:3267|AV-procd|sdf|12506|dock6
  -GOLD-   2272018413D 1   1.00000     0.00000
 Structure written by MMmdl.
 38 39  0  0  0  0  0  0  0  0  1 V2000
  146.8426  133.0363  154.4861 C   0  0  0  0  0  0  0  0  0  0  0  0
  146.4013  133.6268  153.1395 C   0  0  2  0  0  0  0  0  0  0  0  0
  146.9507  132.8107  151.9431 C   0  0  0  0  0  0  0  0  0  0  0  0
  145.9637  132.6594  150.8907 N   0  0  0  0  0  0  0  0  0  0  0  0
  146.0823  131.9822  149.6956 C   0  0  0  0  0  0  0  0  0  0  0  0
  144.9004  132.1284  149.0277 C   0  0  0  0  0  0  0  0  0  0  0  0
  144.1116  132.9219  149.9071 C   0  0  0  0  0  0  0  0  0  0  0  0
  144.7505  133.2380  151.0221 N   0  0  0  0  0  0  0  0  0  0  0  0
  146.8260  135.0227  153.0660 N   0  0  0  0  0  0  0  0  0  0  0  0
  146.1213  136.0675  153.5239 C   0  0  0  0  0  0  0  0  0  0  0  0
  145.0143  135.9747  154.0547 O   0  0  0  0  0  0  0  0  0  0  0  0
  146.7631  137.2265  153.3253 N   0  0  0  0  0  0  0  0  0  0  0  0
  146.2358  138.5403  153.6749 C   0  0  0  0  0  0  0  0  0  0  0  0
  147.2258  139.6580  153.3079 C   0  0  1  0  0  0  0  0  0  0  0  0
  146.7963  141.0427  153.7904 C   0  0  0  0  0  0  0  0  0  0  0  0
  148.1253  141.7535  153.9026 C   0  0  0  0  0  0  0  0  0  0  0  0
  149.0213  140.6441  154.4434 C   0  0  0  0  0  0  0  0  0  0  0  0
  148.4927  139.4273  153.9222 O   0  0  0  0  0  0  0  0  0  0  0  0
  146.5005  132.0061  154.5902 H   0  0  0  0  0  0  0  0  0  0  0  0
  146.4297  133.6048  155.3200 H   0  0  0  0  0  0  0  0  0  0  0  0
  147.9286  133.0387  154.5848 H   0  0  0  0  0  0  0  0  0  0  0  0
  145.3091  133.6123  153.1263 H   0  0  0  0  0  0  0  0  0  0  0  0
  147.8361  133.2798  151.5111 H   0  0  0  0  0  0  0  0  0  0  0  0
  147.2695  131.8160  152.2585 H   0  0  0  0  0  0  0  0  0  0  0  0
  146.9889  131.4626  149.4218 H   0  0  0  0  0  0  0  0  0  0  0  0
  144.6403  131.7315  148.0579 H   0  0  0  0  0  0  0  0  0  0  0  0
  143.1008  133.2763  149.7687 H   0  0  0  0  0  0  0  0  0  0  0  0
  147.7237  135.2040  152.6415 H   0  0  0  0  0  0  0  0  0  0  0  0
  147.6680  137.2029  152.8785 H   0  0  0  0  0  0  0  0  0  0  0  0
  145.2801  138.7023  153.1739 H   0  0  0  0  0  0  0  0  0  0  0  0
  146.0302  138.5562  154.7455 H   0  0  0  0  0  0  0  0  0  0  0  0
  147.3791  139.6946  152.2280 H   0  0  0  0  0  0  0  0  0  0  0  0
  146.1035  141.5343  153.1068 H   0  0  0  0  0  0  0  0  0  0  0  0
  146.3236  140.9813  154.7719 H   0  0  0  0  0  0  0  0  0  0  0  0
  148.4678  142.0677  152.9157 H   0  0  0  0  0  0  0  0  0  0  0  0
  148.0924  142.6300  154.5503 H   0  0  0  0  0  0  0  0  0  0  0  0
  150.0664  140.7787  154.1638 H   0  0  0  0  0  0  0  0  0  0  0  0
  148.9640  140.6069  155.5320 H   0  0  0  0  0  0  0  0  0  0  0  0
  1  2  1  0  0  0  0
  1 19  1  0  0  0  0
  1 20  1  0  0  0  0
  1 21  1  0  0  0  0
  2  3  1  0  0  0  0
  2  9  1  0  0  0  0
  2 22  1  0  0  0  0
  3  4  1  0  0  0  0
  3 23  1  0  0  0  0
  3 24  1  0  0  0  0
  4  8  1  0  0  0  0
  4  5  1  0  0  0  0
  5  6  2  0  0  0  0
  5 25  1  0  0  0  0
  6  7  1  0  0  0  0
  6 26  1  0  0  0  0
  7  8  2  0  0  0  0
  7 27  1  0  0  0  0
  9 10  1  0  0  0  0
  9 28  1  0  0  0  0
 10 11  2  0  0  0  0
 10 12  1  0  0  0  0
 12 13  1  0  0  0  0
 12 29  1  0  0  0  0
 13 14  1  0  0  0  0
 13 30  1  0  0  0  0
 13 31  1  0  0  0  0
 14 18  1  0  0  0  0
 14 15  1  0  0  0  0
 14 32  1  0  0  0  0
 15 16  1  0  0  0  0
 15 33  1  0  0  0  0
 15 34  1  0  0  0  0
 16 17  1  0  0  0  0
 16 35  1  0  0  0  0
 16 36  1  0  0  0  0
 17 18  1  0  0  0  0
 17 37  1  0  0  0  0
 17 38  1  0  0  0  0
M  END
> <s_m_source_file>
AV-unprocessed.smi

> <i_m_source_file_index>
3267

> <i_lp_mmshare_version>
43012

> <i_f3d_flags>
0

> <s_epik_input>
bjFbY0hdW2NIXVtjSF1uMVtDSDJdW0NAQEhdKFtDSDNdKVtOSF1DKD1PKVtOSF1bQ0gyXVtDQEBIXTJbQ0gyXVtDSDJdW0NIMl1PMg==

> <s_epik_cmdline>
J2VwaWtfcHl0aG9uJywgJy1waCcsICc3LjAnLCAnLXRuJywgJzgnLCAnLW1hJywgJzIwMCcsICctbWV0YWxfYmluZGluZycsICctaW1hZScsICc8aW5maWxlLm1hZT4nLCAnLW9tYWUnLCAnPG91dGZpbGUubWFlPic=

> <r_lp_tautomer_probability>
1

> <r_epik_Ionization_Penalty>
6.24796e-05

> <r_epik_Ionization_Penalty_Charging>
0

> <r_epik_Ionization_Penalty_Neutral>
6.24796e-05

> <r_epik_State_Penalty>
-0

> <r_epik_Charging_Adjusted_Penalty>
0

> <i_epik_Tot_Q>
0

> <i_epik_Tot_abs_Q>
0

> <r_epik_Metal_State_Penalty>
-0

> <b_epik_Metal_Only>
0

> <s_lp_Force_Field>
OPLS_2005

> <r_lp_Energy>
17.3536

> <b_lp_Chiralities_Consistent>
1

> <s_lp_Variant>
AV-unprocessed.smi:3267-3

> <Gold.Version>
5.8.1

> <Gold.Id.Protein>
6NUR|6NUR_protein|mol2

> <Gold.PLP.Fitness>
40.0563

> <Gold.PLP.PLP>
-29.9460

> <Gold.PLP.part.hbond>
-2.0000

> <Gold.PLP.part.metal>
0.0000

> <Gold.PLP.part.buried>
-3.2713

> <Gold.PLP.part.nonpolar>
-25.5079

> <Gold.PLP.part.repulsive>
0.4501

> <Gold.PLP.ligand.clash>
0.0000

> <Gold.PLP.ligand.torsion>
0.9419

> <Gold.PLP.Chemscore.Hbond>
1.9920

> <Gold.PLP.Chemscore.CHOScore>
2.0000

> <Gold.PLP.Chemscore.Metal>
0.0000

> <Gold.Chemscore.Hbonds>
donor molecule, donor type, donor heavy atom, donor atom, acceptor molecule, acceptor atom, score
      L1  H     9    28       P1  7948  1.00
      L1  H    12    29       P1  7948  0.98
      L1  C     5    25       P1 10747  1.00
      L1  C     7    27       P1 10186  1.00

> <Gold.PLP.Chemscore.Internal.Correction>
0.0182

> <Gold.Rescore>
     Score         DG    S(hbond)    S(metal)    S(lipo)     H(rot)  DE(clash)    DE(int)     intcor
     15.20     -16.30       1.88        0.00      79.67       1.87       0.10       0.99       ----

> <Gold.Chemscore.Fitness>
15.2042

> <Gold.Chemscore.DG>
-16.2976

> <Gold.Chemscore.ZeroCoef>
-5.4800

> <Gold.Chemscore.Hbond>
1.8830

> <Gold.Chemscore.Metal>
0.0000

> <Gold.Chemscore.Lipo>
79.6717

> <Gold.Chemscore.Internal_Hbond>
0.0000

> <Gold.Chemscore.DEClash>
0.1009

> <Gold.Chemscore.DEInternal>
0.9926

> <Gold.Chemscore.Rot>
1.8724

> <Gold.Chemscore.Internal.Correction>
   9.000000E+99

> <Gold.Chemscore.Hbonds>
donor molecule, donor type, donor heavy atom, donor atom, acceptor molecule, acceptor atom, score
      L1  H     9    28       P1  7948  0.98
      L1  H    12    29       P1  7948  0.93

> <Gold.Chemscore.Hbond.Weighted>
-6.2893

> <Gold.Chemscore.Metal.Weighted>
-0.0000

> <Gold.Chemscore.Lipo.Weighted>
-9.3216

> <Gold.Chemscore.Internal_Hbond.Weighted>
0.0000

> <Gold.Chemscore.DEClash.Weighted>
0.1009

> <Gold.Chemscore.DEInternal.Weighted>
0.9926

> <Gold.Chemscore.Rot.Weighted>
4.7933

> <Gold.Chemscore.Internal.Correction.Weighted>
   9.000000E+99

> <Gold.Protein.RotatedTorsions>
[ 6907 6896 6895 6894 ] final  113.40 input  -60.11 | X-H torsion
[ 7974 7965 7964 7962 ] final   72.97 input  175.53 | X-H torsion
[ 8008 7997 7996 7995 ] final  -89.56 input   59.86 | X-H torsion
[ 10167 10162 10161 10158 ] final  -64.26 input  -65.29 | X-H torsion
[ 10718 10713 10712 10709 ] final  167.37 input   66.30 | X-H torsion
[ 10763 10752 10751 10750 ] final   57.39 input  -60.55 | X-H torsion
[ 11005 11000 10999 10996 ] final -148.56 input  -57.11 | X-H torsion

> <Gold.Protein.ActiveResidues>
 VAL166  LYS551  ARG553  GLY616  TRP617  ASP618  TYR619  PRO620  LYS621  CYS622 
 ASP623  PHE694  ASN695  SER759  ASP760  ASP761  ALA762  ILE779  LEU786  VAL792 
 PHE793  MET794  SER795  GLU796  ALA797  LYS798  CYS799  TRP800  GLU811  SER814 

> <Gold.Protein.RotatedAtoms>
  152.4862  133.8380  159.7137 H   0  0  0  0  0  0  0  0  0  0  0  0  # atno 6907 bound_to 6896
  150.8951  133.7182  159.2900 H   0  0  0  0  0  0  0  0  0  0  0  0  # atno 6908 bound_to 6896
  151.4641  135.1044  159.9785 H   0  0  0  0  0  0  0  0  0  0  0  0  # atno 6909 bound_to 6896
  145.7467  139.2743  143.1455 H   0  0  0  0  0  0  0  0  0  0  0  0  # atno 7974 bound_to 7965
  154.6880  140.0540  157.0334 H   0  0  0  0  0  0  0  0  0  0  0  0  # atno 8008 bound_to 7997
  155.0857  140.3214  155.4569 H   0  0  0  0  0  0  0  0  0  0  0  0  # atno 8009 bound_to 7997
  156.2718  140.2057  156.5984 H   0  0  0  0  0  0  0  0  0  0  0  0  # atno 8010 bound_to 7997
  140.5813  143.2328  151.6335 H   0  0  0  0  0  0  0  0  0  0  0  0  # atno 10167 bound_to 10162
  157.0526  131.0317  151.2675 H   0  0  0  0  0  0  0  0  0  0  0  0  # atno 10718 bound_to 10713
  152.9849  135.5643  154.5383 H   0  0  0  0  0  0  0  0  0  0  0  0  # atno 10763 bound_to 10752
  154.4842  135.2790  155.1549 H   0  0  0  0  0  0  0  0  0  0  0  0  # atno 10764 bound_to 10752
  154.3045  135.6301  153.5492 H   0  0  0  0  0  0  0  0  0  0  0  0  # atno 10765 bound_to 10752
  140.7599  134.3310  157.5104 H   0  0  0  0  0  0  0  0  0  0  0  0  # atno 11005 bound_to 11000
  146.0396  140.8178  142.9835 LP  0  0  0  0  0  0  0  0  0  0  0  0  # atno 17320 bound_to 7965
  144.6858  140.2890  143.7281 LP  0  0  0  0  0  0  0  0  0  0  0  0  # atno 17321 bound_to 7965
  139.5172  144.3324  152.0814 LP  0  0  0  0  0  0  0  0  0  0  0  0  # atno 17342 bound_to 10162
  140.2474  144.4205  150.6235 LP  0  0  0  0  0  0  0  0  0  0  0  0  # atno 17343 bound_to 10162
  157.5018  130.7885  149.7613 LP  0  0  0  0  0  0  0  0  0  0  0  0  # atno 17370 bound_to 10713
  156.0003  130.3884  150.2632 LP  0  0  0  0  0  0  0  0  0  0  0  0  # atno 17371 bound_to 10713
  139.8772  134.9195  156.3229 LP  0  0  0  0  0  0  0  0  0  0  0  0  # atno 17394 bound_to 11000
  140.9673  133.7350  156.0484 LP  0  0  0  0  0  0  0  0  0  0  0  0  # atno 17395 bound_to 11000

$$$$
