AV-unprocessed.smi:2105|AV-procd|sdf|8592|dock10
  -GOLD-   2272011323D 1   1.00000     0.00000
 Structure written by MMmdl.
 43 44  0  0  0  0  0  0  0  0  2 V2000
  146.2067  137.9730  152.4037 C   0  0  0  0  0  0  0  0  0  0  0  0
  146.6254  138.7149  153.6683 C   0  0  0  0  0  0  0  0  0  0  0  0
  145.9610  138.6042  154.6981 O   0  0  0  0  0  0  0  0  0  0  0  0
  147.7310  139.4691  153.5756 N   0  0  0  0  0  0  0  0  0  0  0  0
  148.3133  140.2475  154.6643 C   0  0  0  0  0  0  0  0  0  0  0  0
  149.6460  139.6508  155.1583 C   0  0  0  0  0  0  0  0  0  0  0  0
  150.2682  140.4730  156.1914 N   0  0  0  0  0  0  0  0  0  0  0  0
  151.0766  140.0162  157.1582 C   0  0  0  0  0  0  0  0  0  0  0  0
  151.3939  138.8330  157.2782 O   0  0  0  0  0  0  0  0  0  0  0  0
  151.4704  141.0082  157.9744 N   0  0  0  0  0  0  0  0  0  0  0  0
  152.3054  140.9185  159.1246 C   0  0  0  0  0  0  0  0  0  0  0  0
  152.9304  139.6970  159.4856 C   0  0  0  0  0  0  0  0  0  0  0  0
  153.7333  139.6314  160.6397 C   0  0  0  0  0  0  0  0  0  0  0  0
  153.9046  140.7904  161.4152 C   0  0  0  0  0  0  0  0  0  0  0  0
  153.3148  141.9423  161.0346 N   0  3  0  0  0  0  0  0  0  0  0  0
  152.5427  142.0732  159.9267 C   0  0  0  0  0  0  0  0  0  0  0  0
  152.0023  143.3496  159.6482 N   0  0  0  0  0  0  0  0  0  0  0  0
  152.0931  144.4205  160.6340 C   0  0  0  0  0  0  0  0  0  0  0  0
  151.7354  145.6923  159.8699 C   0  0  0  0  0  0  0  0  0  0  0  0
  152.3266  145.4221  158.4896 C   0  0  0  0  0  0  0  0  0  0  0  0
  152.1549  143.9098  158.3092 C   0  0  0  0  0  0  0  0  0  0  0  0
  146.1170  138.6640  151.5653 H   0  0  0  0  0  0  0  0  0  0  0  0
  145.2438  137.4807  152.5440 H   0  0  0  0  0  0  0  0  0  0  0  0
  146.9449  137.2122  152.1486 H   0  0  0  0  0  0  0  0  0  0  0  0
  148.2125  139.4962  152.6884 H   0  0  0  0  0  0  0  0  0  0  0  0
  148.4766  141.2704  154.3212 H   0  0  0  0  0  0  0  0  0  0  0  0
  147.5905  140.3165  155.4777 H   0  0  0  0  0  0  0  0  0  0  0  0
  149.5025  138.6418  155.5462 H   0  0  0  0  0  0  0  0  0  0  0  0
  150.3356  139.5528  154.3183 H   0  0  0  0  0  0  0  0  0  0  0  0
  150.0581  141.4601  156.1697 H   0  0  0  0  0  0  0  0  0  0  0  0
  151.0459  141.9096  157.8129 H   0  0  0  0  0  0  0  0  0  0  0  0
  152.8108  138.8052  158.8893 H   0  0  0  0  0  0  0  0  0  0  0  0
  154.2093  138.7044  160.9251 H   0  0  0  0  0  0  0  0  0  0  0  0
  154.4981  140.8344  162.3168 H   0  0  0  0  0  0  0  0  0  0  0  0
  151.4184  144.2491  161.4731 H   0  0  0  0  0  0  0  0  0  0  0  0
  153.1105  144.4996  161.0189 H   0  0  0  0  0  0  0  0  0  0  0  0
  150.6514  145.7930  159.7982 H   0  0  0  0  0  0  0  0  0  0  0  0
  152.1307  146.5950  160.3366 H   0  0  0  0  0  0  0  0  0  0  0  0
  151.8468  146.0007  157.6995 H   0  0  0  0  0  0  0  0  0  0  0  0
  153.3882  145.6732  158.4919 H   0  0  0  0  0  0  0  0  0  0  0  0
  153.0019  143.4758  157.7759 H   0  0  0  0  0  0  0  0  0  0  0  0
  151.2495  143.7041  157.7373 H   0  0  0  0  0  0  0  0  0  0  0  0
  153.4666  142.7687  161.6130 H   0  0  0  0  0  0  0  0  0  0  0  0
  1  2  1  0  0  0  0
  1 22  1  0  0  0  0
  1 23  1  0  0  0  0
  1 24  1  0  0  0  0
  2  3  2  0  0  0  0
  2  4  1  0  0  0  0
  4  5  1  0  0  0  0
  4 25  1  0  0  0  0
  5  6  1  0  0  0  0
  5 26  1  0  0  0  0
  5 27  1  0  0  0  0
  6  7  1  0  0  0  0
  6 28  1  0  0  0  0
  6 29  1  0  0  0  0
  7  8  1  0  0  0  0
  7 30  1  0  0  0  0
  8  9  2  0  0  0  0
  8 10  1  0  0  0  0
 10 11  1  0  0  0  0
 10 31  1  0  0  0  0
 11 16  1  0  0  0  0
 11 12  2  0  0  0  0
 12 13  1  0  0  0  0
 12 32  1  0  0  0  0
 13 14  2  0  0  0  0
 13 33  1  0  0  0  0
 14 15  1  0  0  0  0
 14 34  1  0  0  0  0
 15 16  2  0  0  0  0
 15 43  1  0  0  0  0
 16 17  1  0  0  0  0
 17 21  1  0  0  0  0
 17 18  1  0  0  0  0
 18 19  1  0  0  0  0
 18 35  1  0  0  0  0
 18 36  1  0  0  0  0
 19 20  1  0  0  0  0
 19 37  1  0  0  0  0
 19 38  1  0  0  0  0
 20 21  1  0  0  0  0
 20 39  1  0  0  0  0
 20 40  1  0  0  0  0
 21 41  1  0  0  0  0
 21 42  1  0  0  0  0
M  CHG  1  15   1
M  END
> <s_m_source_file>
AV-unprocessed.smi

> <i_m_source_file_index>
2105

> <i_lp_mmshare_version>
43012

> <i_f3d_flags>
0

> <s_epik_input>
W0NIM11DKD1PKVtOSF1bQ0gyXVtDSDJdW05IXUMoPU8pW05IXWMxW2NIXVtjSF1bY0hdbmMxTjJbQ0gyXVtDSDJdW0NIMl1bQ0gyXTI=

> <s_epik_cmdline>
J2VwaWtfcHl0aG9uJywgJy1waCcsICc3LjAnLCAnLXRuJywgJzgnLCAnLW1hJywgJzIwMCcsICctbWV0YWxfYmluZGluZycsICctaW1hZScsICc8aW5maWxlLm1hZT4nLCAnLW9tYWUnLCAnPG91dGZpbGUubWFlPic=

> <r_lp_tautomer_probability>
0.999994

> <r_epik_Ionization_Penalty>
1.12691

> <r_epik_Ionization_Penalty_Charging>
1.12689

> <r_epik_Ionization_Penalty_Neutral>
1.95207e-05

> <r_epik_State_Penalty>
1.18624

> <r_epik_Charging_Adjusted_Penalty>
2.31313

> <i_epik_Tot_Q>
1

> <i_epik_Tot_abs_Q>
1

> <r_epik_Metal_State_Penalty>
1.26987

> <b_epik_Metal_Only>
0

> <s_lp_Force_Field>
OPLS_2005

> <r_lp_Energy>
38.5687

> <b_lp_Chiralities_Consistent>
1

> <s_lp_Variant>
AV-unprocessed.smi:2105-2

> <Gold.Version>
5.8.1

> <Gold.Id.Protein>
6NUR|6NUR_protein|mol2

> <Gold.PLP.Fitness>
47.0163

> <Gold.PLP.PLP>
-44.5019

> <Gold.PLP.part.hbond>
-0.8174

> <Gold.PLP.part.metal>
0.0000

> <Gold.PLP.part.buried>
-5.3155

> <Gold.PLP.part.nonpolar>
-38.6084

> <Gold.PLP.part.repulsive>
0.4909

> <Gold.PLP.ligand.clash>
0.0000

> <Gold.PLP.ligand.torsion>
0.4343

> <Gold.PLP.Chemscore.Hbond>
1.0000

> <Gold.PLP.Chemscore.CHOScore>
0.0000

> <Gold.PLP.Chemscore.Metal>
0.0000

> <Gold.Chemscore.Hbonds>
donor molecule, donor type, donor heavy atom, donor atom, acceptor molecule, acceptor atom, score
      L1  H     4    25       P1  7957  0.75

> <Gold.PLP.Chemscore.Internal.Correction>
0.3831

> <Gold.Rescore>
     Score         DG    S(hbond)    S(metal)    S(lipo)     H(rot)  DE(clash)    DE(int)     intcor
     13.24     -15.78       1.00        0.00     102.82       1.98       0.14       2.40       ----

> <Gold.Chemscore.Fitness>
13.2448

> <Gold.Chemscore.DG>
-15.7788

> <Gold.Chemscore.ZeroCoef>
-5.4800

> <Gold.Chemscore.Hbond>
0.9961

> <Gold.Chemscore.Metal>
0.0000

> <Gold.Chemscore.Lipo>
102.8237

> <Gold.Chemscore.Internal_Hbond>
0.0000

> <Gold.Chemscore.DEClash>
0.1369

> <Gold.Chemscore.DEInternal>
2.3972

> <Gold.Chemscore.Rot>
1.9760

> <Gold.Chemscore.Internal.Correction>
   9.000000E+99

> <Gold.Chemscore.Hbonds>
donor molecule, donor type, donor heavy atom, donor atom, acceptor molecule, acceptor atom, score
      L1  H     4    25       P1  7957  0.75

> <Gold.Chemscore.Hbond.Weighted>
-3.3270

> <Gold.Chemscore.Metal.Weighted>
-0.0000

> <Gold.Chemscore.Lipo.Weighted>
-12.0304

> <Gold.Chemscore.Internal_Hbond.Weighted>
0.0000

> <Gold.Chemscore.DEClash.Weighted>
0.1369

> <Gold.Chemscore.DEInternal.Weighted>
2.3972

> <Gold.Chemscore.Rot.Weighted>
5.0585

> <Gold.Chemscore.Internal.Correction.Weighted>
   9.000000E+99

> <Gold.Protein.RotatedTorsions>
[ 6907 6896 6895 6894 ] final  -16.09 input  -60.11 | X-H torsion
[ 7974 7965 7964 7962 ] final  151.39 input  175.53 | X-H torsion
[ 8008 7997 7996 7995 ] final -123.03 input   59.86 | X-H torsion
[ 10167 10162 10161 10158 ] final   13.32 input  -65.29 | X-H torsion
[ 10718 10713 10712 10709 ] final  -88.37 input   66.30 | X-H torsion
[ 10763 10752 10751 10750 ] final  -76.39 input  -60.55 | X-H torsion
[ 11005 11000 10999 10996 ] final  138.46 input  -57.11 | X-H torsion

> <Gold.Protein.ActiveResidues>
 VAL166  LYS551  ARG553  GLY616  TRP617  ASP618  TYR619  PRO620  LYS621  CYS622 
 ASP623  PHE694  ASN695  SER759  ASP760  ASP761  ALA762  ILE779  LEU786  VAL792 
 PHE793  MET794  SER795  GLU796  ALA797  LYS798  CYS799  TRP800  GLU811  SER814 

> <Gold.Protein.RotatedAtoms>
  151.3139  135.0801  159.9281 H   0  0  0  0  0  0  0  0  0  0  0  0  # atno 6907 bound_to 6896
  152.5272  133.9708  159.7771 H   0  0  0  0  0  0  0  0  0  0  0  0  # atno 6908 bound_to 6896
  151.0016  133.5998  159.2724 H   0  0  0  0  0  0  0  0  0  0  0  0  # atno 6909 bound_to 6896
  144.8295  139.6532  143.6065 H   0  0  0  0  0  0  0  0  0  0  0  0  # atno 7974 bound_to 7965
  155.1739  140.0409  157.2868 H   0  0  0  0  0  0  0  0  0  0  0  0  # atno 8008 bound_to 7997
  154.6250  140.2510  155.7475 H   0  0  0  0  0  0  0  0  0  0  0  0  # atno 8009 bound_to 7997
  156.2454  140.2887  156.0576 H   0  0  0  0  0  0  0  0  0  0  0  0  # atno 8010 bound_to 7997
  140.6010  143.8605  150.6965 H   0  0  0  0  0  0  0  0  0  0  0  0  # atno 10167 bound_to 10162
  155.9984  130.4833  150.5008 H   0  0  0  0  0  0  0  0  0  0  0  0  # atno 10718 bound_to 10713
  154.4992  135.5799  153.6518 H   0  0  0  0  0  0  0  0  0  0  0  0  # atno 10763 bound_to 10752
  152.9875  135.6131  154.3025 H   0  0  0  0  0  0  0  0  0  0  0  0  # atno 10764 bound_to 10752
  154.2931  135.2848  155.2625 H   0  0  0  0  0  0  0  0  0  0  0  0  # atno 10765 bound_to 10752
  140.0185  134.9407  157.0426 H   0  0  0  0  0  0  0  0  0  0  0  0  # atno 11005 bound_to 11000
  146.2599  139.6387  142.9369 LP  0  0  0  0  0  0  0  0  0  0  0  0  # atno 17320 bound_to 7965
  145.4926  141.0438  143.2585 LP  0  0  0  0  0  0  0  0  0  0  0  0  # atno 17321 bound_to 7965
  140.2150  143.3853  152.1688 LP  0  0  0  0  0  0  0  0  0  0  0  0  # atno 17342 bound_to 10162
  139.5291  144.7138  151.5121 LP  0  0  0  0  0  0  0  0  0  0  0  0  # atno 17343 bound_to 10162
  157.2993  131.0642  151.2079 LP  0  0  0  0  0  0  0  0  0  0  0  0  # atno 17370 bound_to 10713
  157.3064  130.6868  149.6192 LP  0  0  0  0  0  0  0  0  0  0  0  0  # atno 17371 bound_to 10713
  140.4428  134.1663  155.7175 LP  0  0  0  0  0  0  0  0  0  0  0  0  # atno 17394 bound_to 11000
  141.1759  133.8515  157.1423 LP  0  0  0  0  0  0  0  0  0  0  0  0  # atno 17395 bound_to 11000

$$$$
