AV-unprocessed.smi:1431|AV-procd|sdf|5829|dock3
  -GOLD-   22720 5483D 1   1.00000     0.00000
 Structure written by MMmdl.
 33 34  0  0  0  0  0  0  0  0  1 V2000
  144.7422  137.4761  152.2952 O   0  0  0  0  0  0  0  0  0  0  0  0
  145.9249  137.1559  152.1727 C   0  0  0  0  0  0  0  0  0  0  0  0
  146.9435  138.0009  152.3872 N   0  0  0  0  0  0  0  0  0  0  0  0
  146.8021  139.3858  152.8256 C   0  0  0  0  0  0  0  0  0  0  0  0
  147.7006  139.7041  154.0371 C   0  0  2  0  0  0  0  0  0  0  0  0
  148.2560  141.1406  154.0017 C   0  0  0  0  0  0  0  0  0  0  0  0
  149.3303  141.2749  155.0859 C   0  0  0  0  0  0  0  0  0  0  0  0
  150.1462  139.6374  155.1782 S   0  0  0  0  0  0  0  0  0  0  0  0
  151.4109  139.6749  154.4289 O   0  0  0  0  0  0  0  0  0  0  0  0
  150.1033  139.1586  156.5681 O   0  0  0  0  0  0  0  0  0  0  0  0
  148.8934  138.7440  154.1832 C   0  0  0  0  0  0  0  0  0  0  0  0
  146.3694  135.9363  151.8216 N   0  0  0  0  0  0  0  0  0  0  0  0
  145.6064  134.7693  151.5506 C   0  0  0  0  0  0  0  0  0  0  0  0
  146.3625  133.6268  151.2032 C   0  0  0  0  0  0  0  0  0  0  0  0
  145.6994  132.4175  150.9187 C   0  0  0  0  0  0  0  0  0  0  0  0
  144.2954  132.3818  150.9879 C   0  0  0  0  0  0  0  0  0  0  0  0
  143.6187  133.5639  151.3408 C   0  0  0  0  0  0  0  0  0  0  0  0
  144.2523  134.7237  151.6146 N   0  0  0  0  0  0  0  0  0  0  0  0
  147.8842  137.6576  152.2592 H   0  0  0  0  0  0  0  0  0  0  0  0
  147.0618  140.0324  151.9869 H   0  0  0  0  0  0  0  0  0  0  0  0
  145.7573  139.5938  153.0625 H   0  0  0  0  0  0  0  0  0  0  0  0
  147.1031  139.6209  154.9461 H   0  0  0  0  0  0  0  0  0  0  0  0
  148.7123  141.3259  153.0285 H   0  0  0  0  0  0  0  0  0  0  0  0
  147.4673  141.8825  154.1303 H   0  0  0  0  0  0  0  0  0  0  0  0
  150.0630  142.0526  154.8702 H   0  0  0  0  0  0  0  0  0  0  0  0
  148.8762  141.4802  156.0557 H   0  0  0  0  0  0  0  0  0  0  0  0
  148.6274  137.8057  154.6704 H   0  0  0  0  0  0  0  0  0  0  0  0
  149.3384  138.5187  153.2137 H   0  0  0  0  0  0  0  0  0  0  0  0
  147.3702  135.8239  151.7595 H   0  0  0  0  0  0  0  0  0  0  0  0
  147.4410  133.6718  151.1554 H   0  0  0  0  0  0  0  0  0  0  0  0
  146.2588  131.5327  150.6526 H   0  0  0  0  0  0  0  0  0  0  0  0
  143.7512  131.4732  150.7765 H   0  0  0  0  0  0  0  0  0  0  0  0
  142.5409  133.5794  151.4052 H   0  0  0  0  0  0  0  0  0  0  0  0
  1  2  2  0  0  0  0
  2  3  1  0  0  0  0
  2 12  1  0  0  0  0
  3  4  1  0  0  0  0
  3 19  1  0  0  0  0
  4  5  1  0  0  0  0
  4 20  1  0  0  0  0
  4 21  1  0  0  0  0
  5 11  1  0  0  0  0
  5  6  1  0  0  0  0
  5 22  1  0  0  0  0
  6  7  1  0  0  0  0
  6 23  1  0  0  0  0
  6 24  1  0  0  0  0
  7  8  1  0  0  0  0
  7 25  1  0  0  0  0
  7 26  1  0  0  0  0
  8  9  2  0  0  0  0
  8 10  2  0  0  0  0
  8 11  1  0  0  0  0
 11 27  1  0  0  0  0
 11 28  1  0  0  0  0
 12 13  1  0  0  0  0
 12 29  1  0  0  0  0
 13 18  1  0  0  0  0
 13 14  2  0  0  0  0
 14 15  1  0  0  0  0
 14 30  1  0  0  0  0
 15 16  2  0  0  0  0
 15 31  1  0  0  0  0
 16 17  1  0  0  0  0
 16 32  1  0  0  0  0
 17 18  2  0  0  0  0
 17 33  1  0  0  0  0
M  END
> <s_m_source_file>
AV-unprocessed.smi

> <i_m_source_file_index>
1431

> <i_lp_mmshare_version>
43012

> <i_f3d_flags>
0

> <s_epik_input>
bjFbY0hdW2NIXVtjSF1bY0hdYzFbTkhdQyg9TylbTkhdW0NIMl1bQ0BASF0oW0NIMl0yKVtDSDJdW0NIMl1TMig9Tyk9Tw==

> <s_epik_cmdline>
J2VwaWtfcHl0aG9uJywgJy1waCcsICc3LjAnLCAnLXRuJywgJzgnLCAnLW1hJywgJzIwMCcsICctbWV0YWxfYmluZGluZycsICctaW1hZScsICc8aW5maWxlLm1hZT4nLCAnLW9tYWUnLCAnPG91dGZpbGUubWFlPic=

> <r_lp_tautomer_probability>
1

> <r_epik_Ionization_Penalty>
4.47006e-05

> <r_epik_Ionization_Penalty_Charging>
0

> <r_epik_Ionization_Penalty_Neutral>
4.47006e-05

> <r_epik_State_Penalty>
-0

> <r_epik_Charging_Adjusted_Penalty>
0

> <i_epik_Tot_Q>
0

> <i_epik_Tot_abs_Q>
0

> <r_epik_Metal_State_Penalty>
-0

> <b_epik_Metal_Only>
0

> <s_lp_Force_Field>
OPLS_2005

> <r_lp_Energy>
3.66515

> <b_lp_Chiralities_Consistent>
1

> <s_lp_Variant>
AV-unprocessed.smi:1431-1

> <Gold.Version>
5.8.1

> <Gold.Id.Protein>
6NUR|6NUR_protein|mol2

> <Gold.PLP.Fitness>
40.3676

> <Gold.PLP.PLP>
-29.8560

> <Gold.PLP.part.hbond>
-2.9696

> <Gold.PLP.part.metal>
0.0000

> <Gold.PLP.part.buried>
-4.8800

> <Gold.PLP.part.nonpolar>
-25.1366

> <Gold.PLP.part.repulsive>
2.3787

> <Gold.PLP.ligand.clash>
0.0000

> <Gold.PLP.ligand.torsion>
0.5454

> <Gold.PLP.Chemscore.Hbond>
2.9600

> <Gold.PLP.Chemscore.CHOScore>
0.9065

> <Gold.PLP.Chemscore.Metal>
0.0000

> <Gold.Chemscore.Hbonds>
donor molecule, donor type, donor heavy atom, donor atom, acceptor molecule, acceptor atom, score
      L1  H     3    19       P1  7948  0.94
      L1  H    12    29       P1  7948  1.00
      P1  H  7989  7998       L1     9  0.99
      L1  C    17    33       P1 10186  0.88

> <Gold.PLP.Chemscore.Internal.Correction>
0.0030

> <Gold.Rescore>
     Score         DG    S(hbond)    S(metal)    S(lipo)     H(rot)  DE(clash)    DE(int)     intcor
     16.41     -18.96       2.91        0.00      61.19       1.33       0.75       1.80       ----

> <Gold.Chemscore.Fitness>
16.4131

> <Gold.Chemscore.DG>
-18.9636

> <Gold.Chemscore.ZeroCoef>
-5.4800

> <Gold.Chemscore.Hbond>
2.9112

> <Gold.Chemscore.Metal>
0.0000

> <Gold.Chemscore.Lipo>
61.1935

> <Gold.Chemscore.Internal_Hbond>
0.0000

> <Gold.Chemscore.DEClash>
0.7474

> <Gold.Chemscore.DEInternal>
1.8031

> <Gold.Chemscore.Rot>
1.3280

> <Gold.Chemscore.Internal.Correction>
   9.000000E+99

> <Gold.Chemscore.Hbonds>
donor molecule, donor type, donor heavy atom, donor atom, acceptor molecule, acceptor atom, score
      L1  H     3    19       P1  7948  0.92
      L1  H    12    29       P1  7948  0.98
      P1  H  7989  7998       L1     9  0.88

> <Gold.Chemscore.Hbond.Weighted>
-9.7236

> <Gold.Chemscore.Metal.Weighted>
-0.0000

> <Gold.Chemscore.Lipo.Weighted>
-7.1596

> <Gold.Chemscore.Internal_Hbond.Weighted>
0.0000

> <Gold.Chemscore.DEClash.Weighted>
0.7474

> <Gold.Chemscore.DEInternal.Weighted>
1.8031

> <Gold.Chemscore.Rot.Weighted>
3.3996

> <Gold.Chemscore.Internal.Correction.Weighted>
   9.000000E+99

> <Gold.Protein.RotatedTorsions>
[ 6907 6896 6895 6894 ] final  -86.76 input  -60.11 | X-H torsion
[ 7974 7965 7964 7962 ] final  171.93 input  175.53 | X-H torsion
[ 8008 7997 7996 7995 ] final -161.98 input   59.86 | X-H torsion
[ 10167 10162 10161 10158 ] final -162.55 input  -65.29 | X-H torsion
[ 10718 10713 10712 10709 ] final  123.76 input   66.30 | X-H torsion
[ 10763 10752 10751 10750 ] final -135.64 input  -60.55 | X-H torsion
[ 11005 11000 10999 10996 ] final  -23.79 input  -57.11 | X-H torsion

> <Gold.Protein.ActiveResidues>
 VAL166  LYS551  ARG553  GLY616  TRP617  ASP618  TYR619  PRO620  LYS621  CYS622 
 ASP623  PHE694  ASN695  SER759  ASP760  ASP761  ALA762  ILE779  LEU786  VAL792 
 PHE793  MET794  SER795  GLU796  ALA797  LYS798  CYS799  TRP800  GLU811  SER814 

> <Gold.Protein.RotatedAtoms>
  150.6866  134.3000  159.4702 H   0  0  0  0  0  0  0  0  0  0  0  0  # atno 6907 bound_to 6896
  152.0897  134.9413  160.0581 H   0  0  0  0  0  0  0  0  0  0  0  0  # atno 6908 bound_to 6896
  152.0734  133.4083  159.4506 H   0  0  0  0  0  0  0  0  0  0  0  0  # atno 6909 bound_to 6896
  144.7281  139.9423  143.6429 H   0  0  0  0  0  0  0  0  0  0  0  0  # atno 7974 bound_to 7965
  155.8002  140.0890  157.1961 H   0  0  0  0  0  0  0  0  0  0  0  0  # atno 8008 bound_to 7997
  154.3982  140.1474  156.3324 H   0  0  0  0  0  0  0  0  0  0  0  0  # atno 8009 bound_to 7997
  155.8471  140.3436  155.5671 H   0  0  0  0  0  0  0  0  0  0  0  0  # atno 8010 bound_to 7997
  139.6384  144.0306  152.2072 H   0  0  0  0  0  0  0  0  0  0  0  0  # atno 10167 bound_to 10162
  157.5639  131.1088  150.8490 H   0  0  0  0  0  0  0  0  0  0  0  0  # atno 10718 bound_to 10713
  154.8699  135.3697  154.4931 H   0  0  0  0  0  0  0  0  0  0  0  0  # atno 10763 bound_to 10752
  153.5576  135.7023  153.5567 H   0  0  0  0  0  0  0  0  0  0  0  0  # atno 10764 bound_to 10752
  153.3657  135.4034  155.1715 H   0  0  0  0  0  0  0  0  0  0  0  0  # atno 10765 bound_to 10752
  140.8785  133.7670  156.0273 H   0  0  0  0  0  0  0  0  0  0  0  0  # atno 11005 bound_to 11000
  146.0775  139.3763  143.0485 LP  0  0  0  0  0  0  0  0  0  0  0  0  # atno 17320 bound_to 7965
  145.7886  140.9825  143.1061 LP  0  0  0  0  0  0  0  0  0  0  0  0  # atno 17321 bound_to 7965
  139.9989  144.6307  150.7747 LP  0  0  0  0  0  0  0  0  0  0  0  0  # atno 17342 bound_to 10162
  140.7478  143.2911  151.3327 LP  0  0  0  0  0  0  0  0  0  0  0  0  # atno 17343 bound_to 10162
  156.8980  130.5236  149.5283 LP  0  0  0  0  0  0  0  0  0  0  0  0  # atno 17370 bound_to 10713
  156.0689  130.5726  150.9343 LP  0  0  0  0  0  0  0  0  0  0  0  0  # atno 17371 bound_to 10713
  140.8489  134.2977  157.5283 LP  0  0  0  0  0  0  0  0  0  0  0  0  # atno 17394 bound_to 11000
  139.8717  134.9457  156.3917 LP  0  0  0  0  0  0  0  0  0  0  0  0  # atno 17395 bound_to 11000

$$$$
