AV-unprocessed.smi:3335|AV-procd|sdf|12842|dock6
  -GOLD-   2272019223D 1   1.00000     0.00000
 Structure written by MMmdl.
 47 48  0  0  0  0  0  0  0  0  2 V2000
  151.9645  141.7054  158.5709 C   0  0  0  0  0  0  0  0  0  0  0  0
  151.2773  141.3081  157.2962 C   0  0  0  0  0  0  0  0  0  0  0  0
  150.4507  142.1119  156.4616 C   0  0  0  0  0  0  0  0  0  0  0  0
  149.9928  141.4555  155.4085 N   0  0  0  0  0  0  0  0  0  0  0  0
  150.5172  140.2151  155.5245 N   0  0  0  0  0  0  0  0  0  0  0  0
  150.2157  139.1890  154.5321 C   0  0  1  0  0  0  0  0  0  0  0  0
  151.1256  137.9685  154.7660 C   0  0  0  0  0  0  0  0  0  0  0  0
  148.7042  138.8317  154.5118 C   0  0  2  0  0  0  0  0  0  0  0  0
  148.3841  137.5912  155.3674 C   0  0  0  0  0  0  0  0  0  0  0  0
  148.2596  138.6004  153.1153 N   0  3  0  0  0  0  0  0  0  0  0  0
  146.8150  138.7908  152.8429 C   0  0  1  0  0  0  0  0  0  0  0  0
  146.5281  140.2491  152.4370 C   0  0  0  0  0  0  0  0  0  0  0  0
  146.3556  137.8368  151.7235 C   0  0  0  0  0  0  0  0  0  0  0  0
  146.7652  138.0271  150.5767 O   0  0  0  0  0  0  0  0  0  0  0  0
  145.5014  136.8300  152.0134 N   0  0  0  0  0  0  0  0  0  0  0  0
  145.0210  136.5596  153.3681 C   0  0  0  0  0  0  0  0  0  0  0  0
  144.3625  135.1819  153.3098 C   0  0  0  0  0  0  0  0  0  0  0  0
  143.9151  135.0478  151.8622 C   0  0  0  0  0  0  0  0  0  0  0  0
  144.9442  135.8571  151.0713 C   0  0  0  0  0  0  0  0  0  0  0  0
  151.2878  140.0980  156.6626 C   0  0  0  0  0  0  0  0  0  0  0  0
  151.4307  142.5042  159.0860 H   0  0  0  0  0  0  0  0  0  0  0  0
  152.9777  142.0624  158.3861 H   0  0  0  0  0  0  0  0  0  0  0  0
  152.0392  140.8700  159.2674 H   0  0  0  0  0  0  0  0  0  0  0  0
  150.1694  143.1468  156.5904 H   0  0  0  0  0  0  0  0  0  0  0  0
  150.4750  139.6094  153.5589 H   0  0  0  0  0  0  0  0  0  0  0  0
  151.0582  137.2507  153.9492 H   0  0  0  0  0  0  0  0  0  0  0  0
  150.8683  137.4500  155.6902 H   0  0  0  0  0  0  0  0  0  0  0  0
  152.1713  138.2698  154.8369 H   0  0  0  0  0  0  0  0  0  0  0  0
  148.1523  139.6772  154.9226 H   0  0  0  0  0  0  0  0  0  0  0  0
  148.6106  137.7592  156.4197 H   0  0  0  0  0  0  0  0  0  0  0  0
  148.9564  136.7238  155.0373 H   0  0  0  0  0  0  0  0  0  0  0  0
  147.3281  137.3273  155.3156 H   0  0  0  0  0  0  0  0  0  0  0  0
  148.7609  139.2368  152.5117 H   0  0  0  0  0  0  0  0  0  0  0  0
  146.2747  138.5590  153.7583 H   0  0  0  0  0  0  0  0  0  0  0  0
  145.4759  140.3983  152.1943 H   0  0  0  0  0  0  0  0  0  0  0  0
  147.1120  140.5408  151.5628 H   0  0  0  0  0  0  0  0  0  0  0  0
  146.7696  140.9466  153.2388 H   0  0  0  0  0  0  0  0  0  0  0  0
  145.8250  136.5803  154.1057 H   0  0  0  0  0  0  0  0  0  0  0  0
  144.2899  137.3217  153.6423 H   0  0  0  0  0  0  0  0  0  0  0  0
  145.1019  134.4122  153.5361 H   0  0  0  0  0  0  0  0  0  0  0  0
  143.5411  135.0750  154.0192 H   0  0  0  0  0  0  0  0  0  0  0  0
  143.8498  134.0100  151.5337 H   0  0  0  0  0  0  0  0  0  0  0  0
  142.9279  135.4972  151.7446 H   0  0  0  0  0  0  0  0  0  0  0  0
  144.4686  136.3328  150.2132 H   0  0  0  0  0  0  0  0  0  0  0  0
  145.7398  135.2062  150.7074 H   0  0  0  0  0  0  0  0  0  0  0  0
  151.7776  139.1718  156.9255 H   0  0  0  0  0  0  0  0  0  0  0  0
  148.5152  137.6576  152.8589 H   0  0  0  0  0  0  0  0  0  0  0  0
  1  2  1  0  0  0  0
  1 21  1  0  0  0  0
  1 22  1  0  0  0  0
  1 23  1  0  0  0  0
  2 20  2  0  0  0  0
  2  3  1  0  0  0  0
  3  4  2  0  0  0  0
  3 24  1  0  0  0  0
  4  5  1  0  0  0  0
  5  6  1  0  0  0  0
  5 20  1  0  0  0  0
  6  7  1  0  0  0  0
  6  8  1  0  0  0  0
  6 25  1  0  0  0  0
  7 26  1  0  0  0  0
  7 27  1  0  0  0  0
  7 28  1  0  0  0  0
  8  9  1  0  0  0  0
  8 10  1  0  0  0  0
  8 29  1  0  0  0  0
  9 30  1  0  0  0  0
  9 31  1  0  0  0  0
  9 32  1  0  0  0  0
 10 11  1  0  0  0  0
 10 33  1  0  0  0  0
 10 47  1  0  0  0  0
 11 12  1  0  0  0  0
 11 13  1  0  0  0  0
 11 34  1  0  0  0  0
 12 35  1  0  0  0  0
 12 36  1  0  0  0  0
 12 37  1  0  0  0  0
 13 14  2  0  0  0  0
 13 15  1  0  0  0  0
 15 19  1  0  0  0  0
 15 16  1  0  0  0  0
 16 17  1  0  0  0  0
 16 38  1  0  0  0  0
 16 39  1  0  0  0  0
 17 18  1  0  0  0  0
 17 40  1  0  0  0  0
 17 41  1  0  0  0  0
 18 19  1  0  0  0  0
 18 42  1  0  0  0  0
 18 43  1  0  0  0  0
 19 44  1  0  0  0  0
 19 45  1  0  0  0  0
 20 46  1  0  0  0  0
M  CHG  1  10   1
M  END
> <s_m_source_file>
AV-unprocessed.smi

> <i_m_source_file_index>
3335

> <i_lp_mmshare_version>
43012

> <i_f3d_flags>
0

> <s_epik_input>
W0NIM11jMVtjSF1ubihbY0hdMSlbQ0BIXShbQ0gzXSlbQ0BIXShbQ0gzXSlbTkhdW0NASF0oW0NIM10pQyg9TylOMltDSDJdW0NIMl1bQ0gyXVtDSDJdMg==

> <s_epik_cmdline>
J2VwaWtfcHl0aG9uJywgJy1waCcsICc3LjAnLCAnLXRuJywgJzgnLCAnLW1hJywgJzIwMCcsICctbWV0YWxfYmluZGluZycsICctaW1hZScsICc8aW5maWxlLm1hZT4nLCAnLW9tYWUnLCAnPG91dGZpbGUubWFlPic=

> <r_lp_tautomer_probability>
1

> <r_epik_Ionization_Penalty>
0.14175

> <r_epik_Ionization_Penalty_Charging>
0.141731

> <r_epik_Ionization_Penalty_Neutral>
1.91261e-05

> <r_epik_State_Penalty>
0.131043

> <r_epik_Charging_Adjusted_Penalty>
0.272773

> <i_epik_Tot_Q>
1

> <i_epik_Tot_abs_Q>
1

> <r_epik_Metal_State_Penalty>
0.131408

> <b_epik_Metal_Only>
0

> <s_lp_Force_Field>
OPLS_2005

> <r_lp_Energy>
36.2431

> <b_lp_Chiralities_Consistent>
1

> <s_lp_Variant>
AV-unprocessed.smi:3335-6

> <Gold.Version>
5.8.1

> <Gold.Id.Protein>
6NUR|6NUR_protein|mol2

> <Gold.PLP.Fitness>
46.9661

> <Gold.PLP.PLP>
-35.4330

> <Gold.PLP.part.hbond>
-3.4536

> <Gold.PLP.part.metal>
0.0000

> <Gold.PLP.part.buried>
-0.4238

> <Gold.PLP.part.nonpolar>
-34.3107

> <Gold.PLP.part.repulsive>
1.3942

> <Gold.PLP.ligand.clash>
0.0000

> <Gold.PLP.ligand.torsion>
1.7871

> <Gold.PLP.Chemscore.Hbond>
4.0000

> <Gold.PLP.Chemscore.CHOScore>
1.0000

> <Gold.PLP.Chemscore.Metal>
0.0000

> <Gold.Chemscore.Hbonds>
donor molecule, donor type, donor heavy atom, donor atom, acceptor molecule, acceptor atom, score
      L1  H    10    33       P1  7957  1.00
      L1  H    10    47       P1  7948  2.00
      P1  H  7954  7966       L1    14  1.00
      L1  C     3    24       P1  8028  1.00

> <Gold.PLP.Chemscore.Internal.Correction>
0.1073

> <Gold.Rescore>
     Score         DG    S(hbond)    S(metal)    S(lipo)     H(rot)  DE(clash)    DE(int)     intcor
     16.17     -20.12       2.98        0.00      76.80       1.68       1.44       2.51       ----

> <Gold.Chemscore.Fitness>
16.1678

> <Gold.Chemscore.DG>
-20.1215

> <Gold.Chemscore.ZeroCoef>
-5.4800

> <Gold.Chemscore.Hbond>
2.9795

> <Gold.Chemscore.Metal>
0.0000

> <Gold.Chemscore.Lipo>
76.7961

> <Gold.Chemscore.Internal_Hbond>
0.0000

> <Gold.Chemscore.DEClash>
1.4439

> <Gold.Chemscore.DEInternal>
2.5097

> <Gold.Chemscore.Rot>
1.6778

> <Gold.Chemscore.Internal.Correction>
   9.000000E+99

> <Gold.Chemscore.Hbonds>
donor molecule, donor type, donor heavy atom, donor atom, acceptor molecule, acceptor atom, score
      L1  H    10    33       P1  7957  1.00
      L1  H    10    47       P1  7948  1.00
      P1  H  7954  7966       L1    14  0.92

> <Gold.Chemscore.Hbond.Weighted>
-9.9515

> <Gold.Chemscore.Metal.Weighted>
-0.0000

> <Gold.Chemscore.Lipo.Weighted>
-8.9851

> <Gold.Chemscore.Internal_Hbond.Weighted>
0.0000

> <Gold.Chemscore.DEClash.Weighted>
1.4439

> <Gold.Chemscore.DEInternal.Weighted>
2.5097

> <Gold.Chemscore.Rot.Weighted>
4.2952

> <Gold.Chemscore.Internal.Correction.Weighted>
   9.000000E+99

> <Gold.Protein.RotatedTorsions>
[ 6907 6896 6895 6894 ] final   32.60 input  -60.11 | X-H torsion
[ 7974 7965 7964 7962 ] final   88.49 input  175.53 | X-H torsion
[ 8008 7997 7996 7995 ] final  -37.17 input   59.86 | X-H torsion
[ 10167 10162 10161 10158 ] final -132.26 input  -65.29 | X-H torsion
[ 10718 10713 10712 10709 ] final   69.81 input   66.30 | X-H torsion
[ 10763 10752 10751 10750 ] final   97.82 input  -60.55 | X-H torsion
[ 11005 11000 10999 10996 ] final  -28.06 input  -57.11 | X-H torsion

> <Gold.Protein.ActiveResidues>
 VAL166  LYS551  ARG553  GLY616  TRP617  ASP618  TYR619  PRO620  LYS621  CYS622 
 ASP623  PHE694  ASN695  SER759  ASP760  ASP761  ALA762  ILE779  LEU786  VAL792 
 PHE793  MET794  SER795  GLU796  ALA797  LYS798  CYS799  TRP800  GLU811  SER814 

> <Gold.Protein.RotatedAtoms>
  152.0767  134.9498  160.0573 H   0  0  0  0  0  0  0  0  0  0  0  0  # atno 6907 bound_to 6896
  152.0802  133.4144  159.4506 H   0  0  0  0  0  0  0  0  0  0  0  0  # atno 6908 bound_to 6896
  150.6836  134.2910  159.4710 H   0  0  0  0  0  0  0  0  0  0  0  0  # atno 6909 bound_to 6896
  145.5450  139.2291  143.2544 H   0  0  0  0  0  0  0  0  0  0  0  0  # atno 7974 bound_to 7965
  154.4058  140.1611  156.2494 H   0  0  0  0  0  0  0  0  0  0  0  0  # atno 8008 bound_to 7997
  155.9132  140.3426  155.6092 H   0  0  0  0  0  0  0  0  0  0  0  0  # atno 8009 bound_to 7997
  155.7311  140.0780  157.2279 H   0  0  0  0  0  0  0  0  0  0  0  0  # atno 8010 bound_to 7997
  139.9104  143.6501  152.2576 H   0  0  0  0  0  0  0  0  0  0  0  0  # atno 10167 bound_to 10162
  157.6366  130.9445  150.0565 H   0  0  0  0  0  0  0  0  0  0  0  0  # atno 10718 bound_to 10713
  153.2815  135.4170  155.1083 H   0  0  0  0  0  0  0  0  0  0  0  0  # atno 10763 bound_to 10752
  154.8491  135.3496  154.6105 H   0  0  0  0  0  0  0  0  0  0  0  0  # atno 10764 bound_to 10752
  153.6526  135.7052  153.5261 H   0  0  0  0  0  0  0  0  0  0  0  0  # atno 10765 bound_to 10752
  140.9175  133.7420  156.0755 H   0  0  0  0  0  0  0  0  0  0  0  0  # atno 11005 bound_to 11000
  146.1955  140.6271  142.9126 LP  0  0  0  0  0  0  0  0  0  0  0  0  # atno 17320 bound_to 7965
  144.7558  140.5303  143.6770 LP  0  0  0  0  0  0  0  0  0  0  0  0  # atno 17321 bound_to 7965
  139.6948  144.7642  151.1376 LP  0  0  0  0  0  0  0  0  0  0  0  0  # atno 17342 bound_to 10162
  140.7686  143.5539  150.9173 LP  0  0  0  0  0  0  0  0  0  0  0  0  # atno 17343 bound_to 10162
  156.1611  130.3644  149.9299 LP  0  0  0  0  0  0  0  0  0  0  0  0  # atno 17370 bound_to 10713
  156.7296  130.9038  151.3625 LP  0  0  0  0  0  0  0  0  0  0  0  0  # atno 17371 bound_to 10713
  140.8031  134.3486  157.5434 LP  0  0  0  0  0  0  0  0  0  0  0  0  # atno 17394 bound_to 11000
  139.8769  134.9209  156.3263 LP  0  0  0  0  0  0  0  0  0  0  0  0  # atno 17395 bound_to 11000

$$$$
