#       Name:                AV-unprocessed.smi:1512
#       Creating user name   scv26
#       Creation time:       Fri Mar 27 06:23:32 2020


#       File generated by GOLD software.
#

@<TRIPOS>MOLECULE
AV-unprocessed.smi:1512
    50    52     1
SMALL
NO_CHARGES


@<TRIPOS>ATOM
      1 ****        -2.3417   1.5563   1.4224 C.3            1 S1                 0.0000
      2 ****        -1.4571   1.2025   0.2147 C.3            1 S1                 0.0000
      3 ****        -0.0527   1.2303   0.6082 N.am           1 S1                 0.0000
      4 ****         0.7386   2.3153   0.6512 C.2            1 S1                 0.0000
      5 ****         0.3346   3.4470   0.3873 O.2            1 S1                 0.0000
      6 ****         2.2157   2.1179   1.0348 C.3            1 S1                 0.0000
      7 ****         2.6133   0.7140   1.2529 N.am           1 S1                 0.0000
      8 ****         3.1258   0.0236   0.1385 C.2            1 S1                 0.0000
      9 ****         3.5041  -1.2601   0.2123 C.2            1 S1                 0.0000
     10 ****         3.3683  -1.9398   1.4773 C.2            1 S1                 0.0000
     11 ****         2.8722  -1.2996   2.5613 C.2            1 S1                 0.0000
     12 ****         2.7464  -2.0461   3.7924 N.pl3          1 S1                 1.0000
     13 ****         1.7415  -1.8917   4.4796 O.2            1 S1                 0.0000
     14 ****         3.6448  -2.8236   4.1006 O.2            1 S1                -1.0000
     15 ****         2.4668   0.1193   2.4780 C.2            1 S1                 0.0000
     16 ****         2.0207   0.7451   3.4411 O.2            1 S1                 0.0000
     17 ****        -1.7963  -0.1918  -0.3624 C.3            1 S1                 0.0000
     18 ****        -3.1768  -0.2933  -1.0485 C.3            1 S1                 0.0000
     19 ****        -2.8441  -0.9542  -2.3995 C.3            1 S1                 0.0000
     20 ****        -2.1514   0.0786  -3.3074 C.3            1 S1                 0.0000
     21 ****        -0.7573   0.2092  -2.6676 C.3            1 S1                 0.0000
     22 ****        -0.8462  -0.7426  -1.4567 C.3            1 S1                 0.0000
     23 ****        -1.6874  -1.8770  -2.0329 C.3            1 S1                 0.0000
     24 ****        -3.3979   1.5584   1.1530 H              1 S1                 0.0000
     25 ****        -2.1043   2.5477   1.8097 H              1 S1                 0.0000
     26 ****        -2.2078   0.8423   2.2357 H              1 S1                 0.0000
     27 ****        -1.6244   1.9541  -0.5580 H              1 S1                 0.0000
     28 ****         0.3621   0.3407   0.8437 H              1 S1                 0.0000
     29 ****         2.8294   2.5589   0.2479 H              1 S1                 0.0000
     30 ****         2.4255   2.7209   1.9198 H              1 S1                 0.0000
     31 ****         3.1847   0.6004  -0.7734 H              1 S1                 0.0000
     32 ****         3.8927  -1.7743  -0.6543 H              1 S1                 0.0000
     33 ****         3.6569  -2.9790   1.5416 H              1 S1                 0.0000
     34 ****        -1.7770  -0.9044   0.4649 H              1 S1                 0.0000
     35 ****        -3.8496  -0.9189  -0.4607 H              1 S1                 0.0000
     36 ****        -3.6602   0.6752  -1.1827 H              1 S1                 0.0000
     37 ****        -3.6975  -1.4449  -2.8684 H              1 S1                 0.0000
     38 ****        -2.0702  -0.2927  -4.3298 H              1 S1                 0.0000
     39 ****        -2.6868   1.0283  -3.3376 H              1 S1                 0.0000
     40 ****         0.0099  -0.1329  -3.3633 H              1 S1                 0.0000
     41 ****        -0.5109   1.2350  -2.3960 H              1 S1                 0.0000
     42 ****         0.1273  -1.0538  -1.0755 H              1 S1                 0.0000
     43 ****        -1.9557  -2.6376  -1.2974 H              1 S1                 0.0000
     44 ****        -1.2299  -2.3618  -2.8974 H              1 S1                 0.0000
     45 ****        -0.6204   3.5889   0.1271 LP             1 S1                 0.0000
     46 ****         0.9613   4.2249   0.4330 LP             1 S1                 0.0000
     47 ****         1.0267  -1.2577   4.1847 LP             1 S1                 0.0000
     48 ****         1.6375  -2.3999   5.3345 LP             1 S1                 0.0000
     49 ****         1.7584   1.7043   3.3360 LP             1 S1                 0.0000
     50 ****         1.9210   0.2937   4.3279 LP             1 S1                 0.0000
@<TRIPOS>BOND
    1    1    2 1     
    2    1   24 1     
    3    1   25 1     
    4    1   26 1     
    5    2    3 1     
    6    2   17 1     
    7    2   27 1     
    8    3    4 am    
    9    3   28 1     
   10    4    5 2     
   11    4    6 1     
   12    6    7 1     
   13    6   29 1     
   14    6   30 1     
   15    7   15 am    
   16    7    8 1     
   17    8    9 2     
   18    8   31 1     
   19    9   10 1     
   20    9   32 1     
   21   10   11 2     
   22   10   33 1     
   23   11   12 1     
   24   11   15 1     
   25   12   13 2     
   26   12   14 1     
   27   15   16 2     
   28   17   22 1     
   29   17   18 1     
   30   17   34 1     
   31   18   19 1     
   32   18   35 1     
   33   18   36 1     
   34   19   23 1     
   35   19   20 1     
   36   19   37 1     
   37   20   21 1     
   38   20   38 1     
   39   20   39 1     
   40   21   22 1     
   41   21   40 1     
   42   21   41 1     
   43   22   23 1     
   44   22   42 1     
   45   23   43 1     
   46   23   44 1     
   47    5   45 1     
   48    5   46 1     
   49   13   47 1     
   50   13   48 1     
   51   16   49 1     
   52   16   50 1     
@<TRIPOS>SUBSTRUCTURE
      1 S1             1
@<TRIPOS>SET
LONE_PAIRS      STATIC     ATOMS    <user>   **** ""
7 45 46 47 48 14 49 50
DONOR_HYDROGENS      STATIC     ATOMS    <user>   **** ""
1 28
ATOM$BLUE        STATIC     ATOMS    COLORGROUP SYSTEM
7 45 46 47 48 14 49 50
ATOM$RED        STATIC     ATOMS    COLORGROUP SYSTEM
1 28
