AV-unprocessed.smi:1645|AV-procd|sdf|6611|dock9
  -GOLD-   22720 7313D 1   1.00000     0.00000
 Structure written by MMmdl.
 56 59  0  0  0  0  0  0  0  0  3 V2000
  149.8218  134.9525  156.3074 O   0  0  0  0  0  0  0  0  0  0  0  0
  149.5203  135.4030  155.2025 C   0  0  0  0  0  0  0  0  0  0  0  0
  149.8291  136.6319  154.7552 N   0  0  0  0  0  0  0  0  0  0  0  0
  150.5354  137.6585  155.4370 C   0  0  0  0  0  0  0  0  0  0  0  0
  151.5189  138.4770  154.8272 C   0  0  0  0  0  0  0  0  0  0  0  0
  152.1755  139.4606  155.5947 C   0  0  0  0  0  0  0  0  0  0  0  0
  151.8477  139.6084  156.9617 C   0  0  0  0  0  0  0  0  0  0  0  0
  152.4456  140.5593  157.7986 N   0  0  0  0  0  0  0  0  0  0  0  0
  151.5641  141.6836  158.1042 C   0  0  0  0  0  0  0  0  0  0  0  0
  152.3235  142.7826  158.8674 C   0  0  0  0  0  0  0  0  0  0  0  0
  153.0002  142.2108  160.1236 C   0  0  0  0  0  0  0  0  0  0  0  0
  153.8897  141.0140  159.7502 C   0  0  0  0  0  0  0  0  0  0  0  0
  153.0913  139.9600  158.9637 C   0  0  0  0  0  0  0  0  0  0  0  0
  150.9150  138.7980  157.5079 N   0  3  0  0  0  0  0  0  0  0  0  0
  150.2650  137.8425  156.8091 C   0  0  0  0  0  0  0  0  0  0  0  0
  148.8558  134.6974  154.2767 N   0  0  0  0  0  0  0  0  0  0  0  0
  148.3972  133.3218  154.4555 C   0  0  1  0  0  0  0  0  0  0  0  0
  147.3075  133.1766  155.5260 C   0  0  0  0  0  0  0  0  0  0  0  0
  146.4400  131.9952  155.0551 C   0  0  0  0  0  0  0  0  0  0  0  0
  147.0124  131.5515  153.7640 N   0  3  1  0  0  0  0  0  0  0  0  0
  146.0861  130.8591  152.8319 C   0  0  0  0  0  0  0  0  0  0  0  0
  145.1667  131.8331  152.0765 C   0  0  0  0  0  0  0  0  0  0  0  0
  145.9895  132.9187  151.3754 C   0  0  0  0  0  0  0  0  0  0  0  0
  146.8437  133.6630  152.4069 C   0  0  0  0  0  0  0  0  0  0  0  0
  147.7610  132.6974  153.2015 C   0  0  1  0  0  0  0  0  0  0  0  0
  149.5947  136.8296  153.7932 H   0  0  0  0  0  0  0  0  0  0  0  0
  151.7920  138.3614  153.7896 H   0  0  0  0  0  0  0  0  0  0  0  0
  152.9244  140.0895  155.1355 H   0  0  0  0  0  0  0  0  0  0  0  0
  151.1532  142.0912  157.1795 H   0  0  0  0  0  0  0  0  0  0  0  0
  150.7211  141.3353  158.7027 H   0  0  0  0  0  0  0  0  0  0  0  0
  153.0781  143.2250  158.2154 H   0  0  0  0  0  0  0  0  0  0  0  0
  151.6406  143.5871  159.1417 H   0  0  0  0  0  0  0  0  0  0  0  0
  153.5921  142.9817  160.6178 H   0  0  0  0  0  0  0  0  0  0  0  0
  152.2395  141.8938  160.8382 H   0  0  0  0  0  0  0  0  0  0  0  0
  154.7317  141.3586  159.1481 H   0  0  0  0  0  0  0  0  0  0  0  0
  154.3141  140.5665  160.6493 H   0  0  0  0  0  0  0  0  0  0  0  0
  152.3351  139.5126  159.6102 H   0  0  0  0  0  0  0  0  0  0  0  0
  153.7551  139.1555  158.6439 H   0  0  0  0  0  0  0  0  0  0  0  0
  149.5441  137.2630  157.3676 H   0  0  0  0  0  0  0  0  0  0  0  0
  148.6526  135.1375  153.3909 H   0  0  0  0  0  0  0  0  0  0  0  0
  149.2449  132.7035  154.7590 H   0  0  0  0  0  0  0  0  0  0  0  0
  147.7351  133.0050  156.5144 H   0  0  0  0  0  0  0  0  0  0  0  0
  146.6962  134.0784  155.5855 H   0  0  0  0  0  0  0  0  0  0  0  0
  146.4490  131.1713  155.7692 H   0  0  0  0  0  0  0  0  0  0  0  0
  145.4056  132.3188  154.9339 H   0  0  0  0  0  0  0  0  0  0  0  0
  146.6895  130.3060  152.1108 H   0  0  0  0  0  0  0  0  0  0  0  0
  145.5002  130.1179  153.3766 H   0  0  0  0  0  0  0  0  0  0  0  0
  144.5716  131.2867  151.3443 H   0  0  0  0  0  0  0  0  0  0  0  0
  144.4573  132.2934  152.7650 H   0  0  0  0  0  0  0  0  0  0  0  0
  146.6294  132.4703  150.6143 H   0  0  0  0  0  0  0  0  0  0  0  0
  145.3293  133.6169  150.8598 H   0  0  0  0  0  0  0  0  0  0  0  0
  147.4433  134.4201  151.9005 H   0  0  0  0  0  0  0  0  0  0  0  0
  146.1833  134.2022  153.0872 H   0  0  0  0  0  0  0  0  0  0  0  0
  148.5338  132.3171  152.5319 H   0  0  0  0  0  0  0  0  0  0  0  0
  147.7160  130.8720  154.0158 H   0  0  0  0  0  0  0  0  0  0  0  0
  150.6915  138.9133  158.4968 H   0  0  0  0  0  0  0  0  0  0  0  0
  1  2  2  0  0  0  0
  2  3  1  0  0  0  0
  2 16  1  0  0  0  0
  3  4  1  0  0  0  0
  3 26  1  0  0  0  0
  4 15  1  0  0  0  0
  4  5  2  0  0  0  0
  5  6  1  0  0  0  0
  5 27  1  0  0  0  0
  6  7  2  0  0  0  0
  6 28  1  0  0  0  0
  7  8  1  0  0  0  0
  7 14  1  0  0  0  0
  8 13  1  0  0  0  0
  8  9  1  0  0  0  0
  9 10  1  0  0  0  0
  9 29  1  0  0  0  0
  9 30  1  0  0  0  0
 10 11  1  0  0  0  0
 10 31  1  0  0  0  0
 10 32  1  0  0  0  0
 11 12  1  0  0  0  0
 11 33  1  0  0  0  0
 11 34  1  0  0  0  0
 12 13  1  0  0  0  0
 12 35  1  0  0  0  0
 12 36  1  0  0  0  0
 13 37  1  0  0  0  0
 13 38  1  0  0  0  0
 14 15  2  0  0  0  0
 14 56  1  0  0  0  0
 15 39  1  0  0  0  0
 16 17  1  0  0  0  0
 16 40  1  0  0  0  0
 17 25  1  0  0  0  0
 17 18  1  0  0  0  0
 17 41  1  0  0  0  0
 18 19  1  0  0  0  0
 18 42  1  0  0  0  0
 18 43  1  0  0  0  0
 19 20  1  0  0  0  0
 19 44  1  0  0  0  0
 19 45  1  0  0  0  0
 20 25  1  0  0  0  0
 20 21  1  0  0  0  0
 20 55  1  0  0  0  0
 21 22  1  0  0  0  0
 21 46  1  0  0  0  0
 21 47  1  0  0  0  0
 22 23  1  0  0  0  0
 22 48  1  0  0  0  0
 22 49  1  0  0  0  0
 23 24  1  0  0  0  0
 23 50  1  0  0  0  0
 23 51  1  0  0  0  0
 24 25  1  0  0  0  0
 24 52  1  0  0  0  0
 24 53  1  0  0  0  0
 25 54  1  0  0  0  0
M  CHG  1  14   1
M  CHG  1  20   1
M  END
> <s_m_source_file>
AV-unprocessed.smi

> <i_m_source_file_index>
1645

> <i_lp_mmshare_version>
43012

> <i_f3d_flags>
0

> <s_epik_input>
W0NIMl0xW0NIMl1bQ0gyXVtDSDJdW0NASF0oTjEyKVtDQEBIXShbQ0gyXVtDSDJdMilbTkhdQyg9TylbTkhdYzNbY0hdW2NIXWMobltjSF0zKU40W0NIMl1bQ0gyXVtDSDJdW0NIMl1bQ0gyXTQ=

> <s_epik_cmdline>
J2VwaWtfcHl0aG9uJywgJy1waCcsICc3LjAnLCAnLXRuJywgJzgnLCAnLW1hJywgJzIwMCcsICctbWV0YWxfYmluZGluZycsICctaW1hZScsICc8aW5maWxlLm1hZT4nLCAnLW9tYWUnLCAnPG91dGZpbGUubWFlPic=

> <r_lp_tautomer_probability>
0.999994

> <r_epik_Ionization_Penalty>
1.26838

> <r_epik_Ionization_Penalty_Charging>
1.26836

> <r_epik_Ionization_Penalty_Neutral>
1.95562e-05

> <r_epik_State_Penalty>
1.33841

> <r_epik_Charging_Adjusted_Penalty>
2.60677

> <i_epik_Tot_Q>
2

> <i_epik_Tot_abs_Q>
2

> <r_epik_Metal_State_Penalty>
1.40601

> <b_epik_Metal_Only>
0

> <s_lp_Force_Field>
OPLS_2005

> <r_lp_Energy>
62.3043

> <b_lp_Chiralities_Consistent>
1

> <s_lp_Variant>
AV-unprocessed.smi:1645-12

> <Gold.Version>
5.8.1

> <Gold.Id.Protein>
6NUR|6NUR_protein|mol2

> <Gold.PLP.Fitness>
47.4070

> <Gold.PLP.PLP>
-42.3550

> <Gold.PLP.part.hbond>
-2.6459

> <Gold.PLP.part.metal>
0.0000

> <Gold.PLP.part.buried>
-4.5478

> <Gold.PLP.part.nonpolar>
-35.3534

> <Gold.PLP.part.repulsive>
0.0964

> <Gold.PLP.ligand.clash>
0.0000

> <Gold.PLP.ligand.torsion>
0.5331

> <Gold.PLP.Chemscore.Hbond>
1.9920

> <Gold.PLP.Chemscore.CHOScore>
0.0000

> <Gold.PLP.Chemscore.Metal>
0.0000

> <Gold.Chemscore.Hbonds>
donor molecule, donor type, donor heavy atom, donor atom, acceptor molecule, acceptor atom, score
      L1  H     3    26       P1  7948  0.84
      L1  H    16    40       P1  7948  1.00

> <Gold.PLP.Chemscore.Internal.Correction>
0.1422

> <Gold.Rescore>
     Score         DG    S(hbond)    S(metal)    S(lipo)     H(rot)  DE(clash)    DE(int)     intcor
     18.62     -20.49       1.52        0.00     110.79       1.18       0.03       1.84       ----

> <Gold.Chemscore.Fitness>
18.6214

> <Gold.Chemscore.DG>
-20.4920

> <Gold.Chemscore.ZeroCoef>
-5.4800

> <Gold.Chemscore.Hbond>
1.5208

> <Gold.Chemscore.Metal>
0.0000

> <Gold.Chemscore.Lipo>
110.7854

> <Gold.Chemscore.Internal_Hbond>
0.0000

> <Gold.Chemscore.DEClash>
0.0323

> <Gold.Chemscore.DEInternal>
1.8383

> <Gold.Chemscore.Rot>
1.1833

> <Gold.Chemscore.Internal.Correction>
   9.000000E+99

> <Gold.Chemscore.Hbonds>
donor molecule, donor type, donor heavy atom, donor atom, acceptor molecule, acceptor atom, score
      L1  H     3    26       P1  7948  0.62
      L1  H    16    40       P1  7948  0.78

> <Gold.Chemscore.Hbond.Weighted>
-5.0795

> <Gold.Chemscore.Metal.Weighted>
-0.0000

> <Gold.Chemscore.Lipo.Weighted>
-12.9619

> <Gold.Chemscore.Internal_Hbond.Weighted>
0.0000

> <Gold.Chemscore.DEClash.Weighted>
0.0323

> <Gold.Chemscore.DEInternal.Weighted>
1.8383

> <Gold.Chemscore.Rot.Weighted>
3.0293

> <Gold.Chemscore.Internal.Correction.Weighted>
   9.000000E+99

> <Gold.Protein.RotatedTorsions>
[ 6907 6896 6895 6894 ] final   38.60 input  -60.11 | X-H torsion
[ 7974 7965 7964 7962 ] final  -58.74 input  175.53 | X-H torsion
[ 8008 7997 7996 7995 ] final   85.19 input   59.86 | X-H torsion
[ 10167 10162 10161 10158 ] final  -54.94 input  -65.29 | X-H torsion
[ 10718 10713 10712 10709 ] final  -73.05 input   66.30 | X-H torsion
[ 10763 10752 10751 10750 ] final   29.34 input  -60.55 | X-H torsion
[ 11005 11000 10999 10996 ] final  -27.91 input  -57.11 | X-H torsion

> <Gold.Protein.ActiveResidues>
 VAL166  LYS551  ARG553  GLY616  TRP617  ASP618  TYR619  PRO620  LYS621  CYS622 
 ASP623  PHE694  ASN695  SER759  ASP760  ASP761  ALA762  ILE779  LEU786  VAL792 
 PHE793  MET794  SER795  GLU796  ALA797  LYS798  CYS799  TRP800  GLU811  SER814 

> <Gold.Protein.RotatedAtoms>
  152.1585  134.8931  160.0543 H   0  0  0  0  0  0  0  0  0  0  0  0  # atno 6907 bound_to 6896
  151.9936  133.3795  159.4162 H   0  0  0  0  0  0  0  0  0  0  0  0  # atno 6908 bound_to 6896
  150.6884  134.3833  159.5087 H   0  0  0  0  0  0  0  0  0  0  0  0  # atno 6909 bound_to 6896
  145.8358  140.8450  143.0060 H   0  0  0  0  0  0  0  0  0  0  0  0  # atno 7974 bound_to 7965
  155.9468  140.3404  155.6374 H   0  0  0  0  0  0  0  0  0  0  0  0  # atno 8008 bound_to 7997
  155.6970  140.0755  157.2444 H   0  0  0  0  0  0  0  0  0  0  0  0  # atno 8009 bound_to 7997
  154.4113  140.1647  156.2136 H   0  0  0  0  0  0  0  0  0  0  0  0  # atno 8010 bound_to 7997
  140.6403  143.2504  151.5008 H   0  0  0  0  0  0  0  0  0  0  0  0  # atno 10167 bound_to 10162
  156.0296  130.4385  150.2684 H   0  0  0  0  0  0  0  0  0  0  0  0  # atno 10718 bound_to 10713
  153.0436  135.6491  154.0875 H   0  0  0  0  0  0  0  0  0  0  0  0  # atno 10763 bound_to 10752
  154.0577  135.2890  155.3331 H   0  0  0  0  0  0  0  0  0  0  0  0  # atno 10764 bound_to 10752
  154.6678  135.5367  153.8165 H   0  0  0  0  0  0  0  0  0  0  0  0  # atno 10765 bound_to 10752
  140.9162  133.7429  156.0738 H   0  0  0  0  0  0  0  0  0  0  0  0  # atno 11005 bound_to 11000
  144.6736  140.0738  143.7472 LP  0  0  0  0  0  0  0  0  0  0  0  0  # atno 17320 bound_to 7965
  145.9521  139.2741  143.1206 LP  0  0  0  0  0  0  0  0  0  0  0  0  # atno 17321 bound_to 7965
  139.5612  144.2152  152.1694 LP  0  0  0  0  0  0  0  0  0  0  0  0  # atno 17342 bound_to 10162
  140.1420  144.5193  150.6738 LP  0  0  0  0  0  0  0  0  0  0  0  0  # atno 17343 bound_to 10162
  157.0786  131.0137  151.3164 LP  0  0  0  0  0  0  0  0  0  0  0  0  # atno 17370 bound_to 10713
  157.4944  130.7842  149.7540 LP  0  0  0  0  0  0  0  0  0  0  0  0  # atno 17371 bound_to 10713
  140.8047  134.3468  157.5429 LP  0  0  0  0  0  0  0  0  0  0  0  0  # atno 17394 bound_to 11000
  139.8766  134.9219  156.3286 LP  0  0  0  0  0  0  0  0  0  0  0  0  # atno 17395 bound_to 11000

$$$$
