AV-unprocessed.smi:694|AV-procd|sdf|3378|dock2
  -GOLD-   22720 0353D 1   1.00000     0.00000
 Structure written by MMmdl.
 43 44  0  0  0  0  0  0  0  0  2 V2000
  151.6732  144.1832  157.3477 C   0  0  0  0  0  0  0  0  0  0  0  0
  151.5308  142.7628  157.6470 N   0  0  0  0  0  0  0  0  0  0  0  0
  152.0135  142.2245  158.9121 C   0  0  0  0  0  0  0  0  0  0  0  0
  150.9516  141.8999  156.6917 C   0  0  0  0  0  0  0  0  0  0  0  0
  151.4454  140.6009  156.4184 C   0  0  0  0  0  0  0  0  0  0  0  0
  150.8104  139.7988  155.4478 C   0  0  0  0  0  0  0  0  0  0  0  0
  149.6893  140.2937  154.7489 C   0  0  0  0  0  0  0  0  0  0  0  0
  149.0788  139.4378  153.7910 N   0  0  0  0  0  0  0  0  0  0  0  0
  147.8385  139.4957  153.2752 C   0  0  0  0  0  0  0  0  0  0  0  0
  147.0024  140.3634  153.5241 O   0  0  0  0  0  0  0  0  0  0  0  0
  147.6178  138.4825  152.4256 N   0  0  0  0  0  0  0  0  0  0  0  0
  146.3723  138.2593  151.6973 C   0  0  0  0  0  0  0  0  0  0  0  0
  145.6752  136.9481  152.1188 C   0  0  2  0  0  0  0  0  0  0  0  0
  145.3138  136.0228  150.9518 C   0  0  0  0  0  0  0  0  0  0  0  0
  144.2016  135.1035  151.4799 C   0  0  0  0  0  0  0  0  0  0  0  0
  143.7425  135.6958  152.8224 C   0  0  0  0  0  0  0  0  0  0  0  0
  144.3598  137.0957  152.9000 C   0  0  2  0  0  0  0  0  0  0  0  0
  143.4854  138.0176  152.2750 O   0  0  0  0  0  0  0  0  0  0  0  0
  149.2290  141.5949  155.0640 C   0  0  0  0  0  0  0  0  0  0  0  0
  149.8673  142.3286  156.0010 N   0  3  0  0  0  0  0  0  0  0  0  0
  150.6968  144.6377  157.1772 H   0  0  0  0  0  0  0  0  0  0  0  0
  152.2843  144.3283  156.4563 H   0  0  0  0  0  0  0  0  0  0  0  0
  152.1506  144.7168  158.1697 H   0  0  0  0  0  0  0  0  0  0  0  0
  152.7871  141.4754  158.7399 H   0  0  0  0  0  0  0  0  0  0  0  0
  151.1975  141.7630  159.4691 H   0  0  0  0  0  0  0  0  0  0  0  0
  152.4427  143.0077  159.5375 H   0  0  0  0  0  0  0  0  0  0  0  0
  152.3029  140.2028  156.9399 H   0  0  0  0  0  0  0  0  0  0  0  0
  151.1885  138.8077  155.2427 H   0  0  0  0  0  0  0  0  0  0  0  0
  149.6669  138.6966  153.4389 H   0  0  0  0  0  0  0  0  0  0  0  0
  148.3591  137.8138  152.2753 H   0  0  0  0  0  0  0  0  0  0  0  0
  145.7178  139.1133  151.8733 H   0  0  0  0  0  0  0  0  0  0  0  0
  146.5709  138.2486  150.6242 H   0  0  0  0  0  0  0  0  0  0  0  0
  146.3636  136.3913  152.7573 H   0  0  0  0  0  0  0  0  0  0  0  0
  144.9325  136.6087  150.1143 H   0  0  0  0  0  0  0  0  0  0  0  0
  146.1769  135.4624  150.5913 H   0  0  0  0  0  0  0  0  0  0  0  0
  143.3760  135.0632  150.7685 H   0  0  0  0  0  0  0  0  0  0  0  0
  144.5635  134.0838  151.6167 H   0  0  0  0  0  0  0  0  0  0  0  0
  142.6571  135.7007  152.9322 H   0  0  0  0  0  0  0  0  0  0  0  0
  144.1430  135.0855  153.6331 H   0  0  0  0  0  0  0  0  0  0  0  0
  144.5274  137.4089  153.9310 H   0  0  0  0  0  0  0  0  0  0  0  0
  143.7942  138.8928  152.4516 H   0  0  0  0  0  0  0  0  0  0  0  0
  148.3746  142.0824  154.6203 H   0  0  0  0  0  0  0  0  0  0  0  0
  149.5081  143.2621  156.2019 H   0  0  0  0  0  0  0  0  0  0  0  0
  1  2  1  0  0  0  0
  1 21  1  0  0  0  0
  1 22  1  0  0  0  0
  1 23  1  0  0  0  0
  2  3  1  0  0  0  0
  2  4  1  0  0  0  0
  3 24  1  0  0  0  0
  3 25  1  0  0  0  0
  3 26  1  0  0  0  0
  4 20  1  0  0  0  0
  4  5  2  0  0  0  0
  5  6  1  0  0  0  0
  5 27  1  0  0  0  0
  6  7  2  0  0  0  0
  6 28  1  0  0  0  0
  7  8  1  0  0  0  0
  7 19  1  0  0  0  0
  8  9  1  0  0  0  0
  8 29  1  0  0  0  0
  9 10  2  0  0  0  0
  9 11  1  0  0  0  0
 11 12  1  0  0  0  0
 11 30  1  0  0  0  0
 12 13  1  0  0  0  0
 12 31  1  0  0  0  0
 12 32  1  0  0  0  0
 13 17  1  0  0  0  0
 13 14  1  0  0  0  0
 13 33  1  0  0  0  0
 14 15  1  0  0  0  0
 14 34  1  0  0  0  0
 14 35  1  0  0  0  0
 15 16  1  0  0  0  0
 15 36  1  0  0  0  0
 15 37  1  0  0  0  0
 16 17  1  0  0  0  0
 16 38  1  0  0  0  0
 16 39  1  0  0  0  0
 17 18  1  0  0  0  0
 17 40  1  0  0  0  0
 18 41  1  0  0  0  0
 19 20  2  0  0  0  0
 19 42  1  0  0  0  0
 20 43  1  0  0  0  0
M  CHG  1  20   1
M  END
> <s_m_source_file>
AV-unprocessed.smi

> <i_m_source_file_index>
694

> <i_lp_mmshare_version>
43012

> <i_f3d_flags>
0

> <s_epik_input>
W0NIM11OKFtDSDNdKWMxW2NIXVtjSF1jKFtjSF1uMSlbTkhdQyg9TylbTkhdW0NIMl1bQ0BASF0yW0NIMl1bQ0gyXVtDSDJdW0NASF0yW09IXQ==

> <s_epik_cmdline>
J2VwaWtfcHl0aG9uJywgJy1waCcsICc3LjAnLCAnLXRuJywgJzgnLCAnLW1hJywgJzIwMCcsICctbWV0YWxfYmluZGluZycsICctaW1hZScsICc8aW5maWxlLm1hZT4nLCAnLW9tYWUnLCAnPG91dGZpbGUubWFlPic=

> <r_lp_tautomer_probability>
0.999994

> <r_epik_Ionization_Penalty>
0.266135

> <r_epik_Ionization_Penalty_Charging>
0.266113

> <r_epik_Ionization_Penalty_Neutral>
2.14137e-05

> <r_epik_State_Penalty>
0.258052

> <r_epik_Charging_Adjusted_Penalty>
0.524165

> <i_epik_Tot_Q>
1

> <i_epik_Tot_abs_Q>
1

> <r_epik_Metal_State_Penalty>
0.544313

> <b_epik_Metal_Only>
0

> <s_lp_Force_Field>
OPLS_2005

> <r_lp_Energy>
36.5329

> <b_lp_Chiralities_Consistent>
1

> <s_lp_Variant>
AV-unprocessed.smi:694-3

> <Gold.Version>
5.8.1

> <Gold.Id.Protein>
6NUR|6NUR_protein|mol2

> <Gold.PLP.Fitness>
51.1992

> <Gold.PLP.PLP>
-42.0849

> <Gold.PLP.part.hbond>
-5.9328

> <Gold.PLP.part.metal>
0.0000

> <Gold.PLP.part.buried>
-1.0301

> <Gold.PLP.part.nonpolar>
-36.1131

> <Gold.PLP.part.repulsive>
0.4715

> <Gold.PLP.ligand.clash>
0.0000

> <Gold.PLP.ligand.torsion>
1.4330

> <Gold.PLP.Chemscore.Hbond>
3.9840

> <Gold.PLP.Chemscore.CHOScore>
0.0000

> <Gold.PLP.Chemscore.Metal>
0.0000

> <Gold.Chemscore.Hbonds>
donor molecule, donor type, donor heavy atom, donor atom, acceptor molecule, acceptor atom, score
      L1  H    11    30       P1  7948  1.00
      L1  H    18    41       P1 10175  1.00
      L1  H    20    43       P1  8028  1.98

> <Gold.PLP.Chemscore.Internal.Correction>
0.0283

> <Gold.Rescore>
     Score         DG    S(hbond)    S(metal)    S(lipo)     H(rot)  DE(clash)    DE(int)     intcor
     17.00     -19.96       2.89        0.00      79.48       1.75       0.30       2.66       ----

> <Gold.Chemscore.Fitness>
16.9952

> <Gold.Chemscore.DG>
-19.9570

> <Gold.Chemscore.ZeroCoef>
-5.4800

> <Gold.Chemscore.Hbond>
2.8905

> <Gold.Chemscore.Metal>
0.0000

> <Gold.Chemscore.Lipo>
79.4763

> <Gold.Chemscore.Internal_Hbond>
0.0000

> <Gold.Chemscore.DEClash>
0.2972

> <Gold.Chemscore.DEInternal>
2.6646

> <Gold.Chemscore.Rot>
1.7485

> <Gold.Chemscore.Internal.Correction>
   9.000000E+99

> <Gold.Chemscore.Hbonds>
donor molecule, donor type, donor heavy atom, donor atom, acceptor molecule, acceptor atom, score
      L1  H    11    30       P1  7948  0.98
      L1  H    18    41       P1 10175  0.92
      L1  H    20    43       P1  8028  0.94

> <Gold.Chemscore.Hbond.Weighted>
-9.6544

> <Gold.Chemscore.Metal.Weighted>
-0.0000

> <Gold.Chemscore.Lipo.Weighted>
-9.2987

> <Gold.Chemscore.Internal_Hbond.Weighted>
0.0000

> <Gold.Chemscore.DEClash.Weighted>
0.2972

> <Gold.Chemscore.DEInternal.Weighted>
2.6646

> <Gold.Chemscore.Rot.Weighted>
4.4762

> <Gold.Chemscore.Internal.Correction.Weighted>
   9.000000E+99

> <Gold.Protein.RotatedTorsions>
[ 6907 6896 6895 6894 ] final -104.92 input  -60.11 | X-H torsion
[ 7974 7965 7964 7962 ] final  -89.07 input  175.53 | X-H torsion
[ 8008 7997 7996 7995 ] final   -9.11 input   59.86 | X-H torsion
[ 10167 10162 10161 10158 ] final   72.94 input  -65.29 | X-H torsion
[ 10718 10713 10712 10709 ] final  150.04 input   66.30 | X-H torsion
[ 10763 10752 10751 10750 ] final   39.53 input  -60.55 | X-H torsion
[ 11005 11000 10999 10996 ] final -124.27 input  -57.11 | X-H torsion

> <Gold.Protein.ActiveResidues>
 VAL166  LYS551  ARG553  GLY616  TRP617  ASP618  TYR619  PRO620  LYS621  CYS622 
 ASP623  PHE694  ASN695  SER759  ASP760  ASP761  ALA762  ILE779  LEU786  VAL792 
 PHE793  MET794  SER795  GLU796  ALA797  LYS798  CYS799  TRP800  GLU811  SER814 

> <Gold.Protein.RotatedAtoms>
  150.7311  134.0205  159.3699 H   0  0  0  0  0  0  0  0  0  0  0  0  # atno 6907 bound_to 6896
  151.8170  135.0661  160.0429 H   0  0  0  0  0  0  0  0  0  0  0  0  # atno 6908 bound_to 6896
  152.3032  133.5640  159.5668 H   0  0  0  0  0  0  0  0  0  0  0  0  # atno 6909 bound_to 6896
  145.4447  140.9560  143.2055 H   0  0  0  0  0  0  0  0  0  0  0  0  # atno 7974 bound_to 7965
  154.5677  140.2363  155.8238 H   0  0  0  0  0  0  0  0  0  0  0  0  # atno 8008 bound_to 7997
  156.2082  140.3033  155.9631 H   0  0  0  0  0  0  0  0  0  0  0  0  # atno 8009 bound_to 7997
  155.2770  140.0421  157.3002 H   0  0  0  0  0  0  0  0  0  0  0  0  # atno 8010 bound_to 7997
  140.0299  144.5474  150.7515 H   0  0  0  0  0  0  0  0  0  0  0  0  # atno 10167 bound_to 10162
  157.2885  131.0849  151.1479 H   0  0  0  0  0  0  0  0  0  0  0  0  # atno 10718 bound_to 10713
  152.9964  135.6218  154.2481 H   0  0  0  0  0  0  0  0  0  0  0  0  # atno 10763 bound_to 10752
  154.2220  135.2795  155.2923 H   0  0  0  0  0  0  0  0  0  0  0  0  # atno 10764 bound_to 10752
  154.5521  135.5730  153.6989 H   0  0  0  0  0  0  0  0  0  0  0  0  # atno 10765 bound_to 10752
  140.9854  134.0614  157.3716 H   0  0  0  0  0  0  0  0  0  0  0  0  # atno 11005 bound_to 11000
  144.8099  139.5981  143.7034 LP  0  0  0  0  0  0  0  0  0  0  0  0  # atno 17320 bound_to 7965
  146.2537  139.6255  142.9409 LP  0  0  0  0  0  0  0  0  0  0  0  0  # atno 17321 bound_to 7965
  140.7306  143.2686  151.3964 LP  0  0  0  0  0  0  0  0  0  0  0  0  # atno 17342 bound_to 10162
  139.6083  144.1151  152.2272 LP  0  0  0  0  0  0  0  0  0  0  0  0  # atno 17343 bound_to 10162
  157.2885  130.6784  149.6102 LP  0  0  0  0  0  0  0  0  0  0  0  0  # atno 17370 bound_to 10713
  155.9666  130.4428  150.5396 LP  0  0  0  0  0  0  0  0  0  0  0  0  # atno 17371 bound_to 10713
  139.8968  135.0147  156.7071 LP  0  0  0  0  0  0  0  0  0  0  0  0  # atno 17394 bound_to 11000
  140.7122  133.9213  155.8092 LP  0  0  0  0  0  0  0  0  0  0  0  0  # atno 17395 bound_to 11000

$$$$
