#       Name:                AV-unprocessed.smi:92
#       Creating user name   scv26
#       Creation time:       Thu Mar 26 17:27:58 2020


#       File generated by GOLD software.
#

@<TRIPOS>MOLECULE
AV-unprocessed.smi:92
    68    71     1
SMALL
NO_CHARGES


@<TRIPOS>ATOM
      1 ****        -2.0372  -4.3633  -0.2343 C.3            1 S1                 0.0000
      2 ****        -1.9746  -3.1914  -1.2238 C.3            1 S1                 0.0000
      3 ****        -3.3133  -2.6008  -1.4924 N.4            1 S1                 1.0000
      4 ****        -3.3885  -1.8543  -2.7711 C.3            1 S1                 0.0000
      5 ****        -2.6434  -0.5162  -2.6760 C.3            1 S1                 0.0000
      6 ****        -3.1964   0.3708  -1.5355 C.3            1 S1                 0.0000
      7 ****        -2.5083   1.6715  -1.4754 N.pl3          1 S1                 0.0000
      8 ****        -3.1658   2.8404  -0.9042 C.3            1 S1                 0.0000
      9 ****        -1.1564   1.6996  -1.4183 C.ar           1 S1                 0.0000
     10 ****        -0.4831   1.7751  -2.5936 N.ar           1 S1                 0.0000
     11 ****         0.8529   1.7993  -2.6000 C.ar           1 S1                 0.0000
     12 ****         1.6928   1.7567  -1.5640 N.ar           1 S1                 0.0000
     13 ****         1.0191   1.6917  -0.3798 C.ar           1 S1                 0.0000
     14 ****        -0.3949   1.6705  -0.2162 C.ar           1 S1                 0.0000
     15 ****        -0.7122   1.6215   1.1354 N.2            1 S1                 0.0000
     16 ****         0.4459   1.6193   1.7363 C.2            1 S1                 0.0000
     17 ****         1.5399   1.6222   0.9009 N.pl3          1 S1                 0.0000
     18 ****         2.9188   1.6485   1.2928 C.3            1 S1                 0.0000
     19 ****         3.9577   0.7831   0.5736 C.3            1 S1                 0.0000
     20 ****         4.6941   0.5320   1.9077 C.3            1 S1                 0.0000
     21 ****         5.0777  -0.9317   2.1753 C.3            1 S1                 0.0000
     22 ****         6.0281  -1.3975   1.2386 O.3            1 S1                 0.0000
     23 ****         5.9468   1.3904   2.1916 C.3            1 S1                 0.0000
     24 ****         5.7156   2.7781   2.0583 O.3            1 S1                 0.0000
     25 ****         3.3845   0.9832   2.5925 C.3            1 S1                 0.0000
     26 ****        -3.2049  -0.4215  -0.1940 C.3            1 S1                 0.0000
     27 ****        -3.9221   0.3157   0.9524 C.3            1 S1                 0.0000
     28 ****        -3.8828  -1.8030  -0.3753 C.3            1 S1                 0.0000
     29 ****        -1.0581  -4.8326  -0.1353 H              1 S1                 0.0000
     30 ****        -2.7363  -5.1285  -0.5728 H              1 S1                 0.0000
     31 ****        -2.3423  -4.0434   0.7616 H              1 S1                 0.0000
     32 ****        -1.2744  -2.4345  -0.8710 H              1 S1                 0.0000
     33 ****        -1.5632  -3.5716  -2.1597 H              1 S1                 0.0000
     34 ****        -2.9899  -2.4592  -3.5866 H              1 S1                 0.0000
     35 ****        -4.4374  -1.6736  -3.0102 H              1 S1                 0.0000
     36 ****        -1.5817  -0.7172  -2.5326 H              1 S1                 0.0000
     37 ****        -2.7289   0.0121  -3.6263 H              1 S1                 0.0000
     38 ****        -4.2347   0.5906  -1.7878 H              1 S1                 0.0000
     39 ****        -2.7804   3.0852   0.0853 H              1 S1                 0.0000
     40 ****        -4.2410   2.6819  -0.8201 H              1 S1                 0.0000
     41 ****        -3.0070   3.7051  -1.5489 H              1 S1                 0.0000
     42 ****         1.3153   1.8571  -3.5745 H              1 S1                 0.0000
     43 ****         0.5327   1.6050   2.8131 H              1 S1                 0.0000
     44 ****         3.2125   2.6986   1.2706 H              1 S1                 0.0000
     45 ****         3.5209  -0.1251   0.1546 H              1 S1                 0.0000
     46 ****         4.5419   1.3149  -0.1781 H              1 S1                 0.0000
     47 ****         5.4805  -1.0570   3.1810 H              1 S1                 0.0000
     48 ****         4.2040  -1.5811   2.1105 H              1 S1                 0.0000
     49 ****         6.2246  -2.3011   1.4331 H              1 S1                 0.0000
     50 ****         6.3167   1.2119   3.2018 H              1 S1                 0.0000
     51 ****         6.7591   1.1310   1.5122 H              1 S1                 0.0000
     52 ****         6.5249   3.2352   2.2291 H              1 S1                 0.0000
     53 ****         3.5164   1.6725   3.4271 H              1 S1                 0.0000
     54 ****         2.7472   0.1455   2.8807 H              1 S1                 0.0000
     55 ****        -2.1748  -0.5909   0.1181 H              1 S1                 0.0000
     56 ****        -4.9439   0.5793   0.6774 H              1 S1                 0.0000
     57 ****        -3.4082   1.2291   1.2426 H              1 S1                 0.0000
     58 ****        -3.9716  -0.3070   1.8461 H              1 S1                 0.0000
     59 ****        -4.9440  -1.6572  -0.5826 H              1 S1                 0.0000
     60 ****        -3.8412  -2.3731   0.5521 H              1 S1                 0.0000
     61 ****        -3.9271  -3.3945  -1.6106 H              1 S1                 0.0000
     62 ****        -0.9873   1.8127  -3.4564 LP             1 S1                 0.0000
     63 ****         2.6894   1.7707  -1.6455 LP             1 S1                 0.0000
     64 ****        -1.6207   1.5942   1.5524 LP             1 S1                 0.0000
     65 ****         6.8621  -0.8496   1.3039 LP             1 S1                 0.0000
     66 ****         5.6535  -1.3255   0.3142 LP             1 S1                 0.0000
     67 ****         5.0193   3.0686   2.7147 LP             1 S1                 0.0000
     68 ****         5.4035   2.9804   1.1300 LP             1 S1                 0.0000
@<TRIPOS>BOND
    1    1    2 1     
    2    1   29 1     
    3    1   30 1     
    4    1   31 1     
    5    2    3 1     
    6    2   32 1     
    7    2   33 1     
    8    3   28 1     
    9    3    4 1     
   10    3   61 1     
   11    4    5 1     
   12    4   34 1     
   13    4   35 1     
   14    5    6 1     
   15    5   36 1     
   16    5   37 1     
   17    6    7 1     
   18    6   26 1     
   19    6   38 1     
   20    7    8 1     
   21    7    9 1     
   22    8   39 1     
   23    8   40 1     
   24    8   41 1     
   25    9   14 ar    
   26    9   10 ar    
   27   10   11 ar    
   28   11   12 ar    
   29   11   42 1     
   30   12   13 ar    
   31   13   17 1     
   32   13   14 ar    
   33   14   15 1     
   34   15   16 2     
   35   16   17 1     
   36   16   43 1     
   37   17   18 1     
   38   18   25 1     
   39   18   19 1     
   40   18   44 1     
   41   19   20 1     
   42   19   45 1     
   43   19   46 1     
   44   20   21 1     
   45   20   23 1     
   46   20   25 1     
   47   21   22 1     
   48   21   47 1     
   49   21   48 1     
   50   22   49 1     
   51   23   24 1     
   52   23   50 1     
   53   23   51 1     
   54   24   52 1     
   55   25   53 1     
   56   25   54 1     
   57   26   27 1     
   58   26   28 1     
   59   26   55 1     
   60   27   56 1     
   61   27   57 1     
   62   27   58 1     
   63   28   59 1     
   64   28   60 1     
   65   10   62 1     
   66   12   63 1     
   67   15   64 1     
   68   22   65 1     
   69   22   66 1     
   70   24   67 1     
   71   24   68 1     
@<TRIPOS>SUBSTRUCTURE
      1 S1             1
@<TRIPOS>SET
LONE_PAIRS      STATIC     ATOMS    <user>   **** ""
7 62 63 64 65 66 67 68
DONOR_HYDROGENS      STATIC     ATOMS    <user>   **** ""
3 61 49 52
ATOM$BLUE        STATIC     ATOMS    COLORGROUP SYSTEM
7 62 63 64 65 66 67 68
ATOM$RED        STATIC     ATOMS    COLORGROUP SYSTEM
3 61 49 52
