AV-unprocessed.smi:1389|AV-procd|sdf|5654|dock9
  -GOLD-   22720 5273D 1   1.00000     0.00000
 Structure written by MMmdl.
 52 54  0  0  0  0  0  0  0  0  4 V2000
  147.7959  142.4547  152.7925 C   0  0  0  0  0  0  0  0  0  0  0  0
  147.8254  141.6105  154.0880 C   0  0  2  0  0  0  0  0  0  0  0  0
  147.1903  140.1908  153.9118 C   0  0  0  0  0  0  0  0  0  0  0  0
  147.7670  139.5020  152.7557 N   0  5  0  0  0  0  0  0  0  0  0  0
  147.3388  138.3039  152.2760 C   0  0  0  0  0  0  0  0  0  0  0  0
  147.9077  137.2090  152.3600 O   0  0  0  0  0  0  0  0  0  0  0  0
  146.1476  138.4020  151.6620 N   0  0  0  0  0  0  0  0  0  0  0  0
  145.3446  137.3586  151.1242 C   0  0  0  0  0  0  0  0  0  0  0  0
  145.5504  136.0098  151.5094 C   0  0  0  0  0  0  0  0  0  0  0  0
  144.7936  134.9854  150.9103 C   0  0  0  0  0  0  0  0  0  0  0  0
  143.8552  135.3241  149.9203 C   0  0  0  0  0  0  0  0  0  0  0  0
  143.6942  136.6156  149.5645 N   0  3  0  0  0  0  0  0  0  0  0  0
  144.3813  137.6479  150.1154 C   0  0  0  0  0  0  0  0  0  0  0  0
  144.0996  138.9526  149.6495 N   0  0  0  0  0  0  0  0  0  0  0  0
  144.3280  139.3054  148.2535 C   0  0  0  0  0  0  0  0  0  0  0  0
  143.5991  140.6320  148.0566 C   0  0  0  0  0  0  0  0  0  0  0  0
  142.3827  140.4759  148.9646 C   0  0  0  0  0  0  0  0  0  0  0  0
  142.9093  139.6427  150.1378 C   0  0  0  0  0  0  0  0  0  0  0  0
  147.3044  142.4233  155.2397 N   0  3  0  0  0  0  0  0  0  0  0  0
  145.9832  143.0927  155.0784 C   0  0  0  0  0  0  0  0  0  0  0  0
  145.7515  144.0773  156.2360 C   0  0  0  0  0  0  0  0  0  0  0  0
  145.8423  143.3882  157.4777 O   0  0  0  0  0  0  0  0  0  0  0  0
  147.1288  142.8150  157.6802 C   0  0  0  0  0  0  0  0  0  0  0  0
  147.4169  141.7833  156.5776 C   0  0  0  0  0  0  0  0  0  0  0  0
  148.3496  141.9797  151.9804 H   0  0  0  0  0  0  0  0  0  0  0  0
  148.2608  143.4271  152.9576 H   0  0  0  0  0  0  0  0  0  0  0  0
  146.7827  142.6382  152.4315 H   0  0  0  0  0  0  0  0  0  0  0  0
  148.8832  141.4635  154.3121 H   0  0  0  0  0  0  0  0  0  0  0  0
  147.3342  139.6162  154.8273 H   0  0  0  0  0  0  0  0  0  0  0  0
  146.1098  140.2959  153.8134 H   0  0  0  0  0  0  0  0  0  0  0  0
  145.7086  139.3097  151.7160 H   0  0  0  0  0  0  0  0  0  0  0  0
  146.2964  135.7458  152.2438 H   0  0  0  0  0  0  0  0  0  0  0  0
  144.9417  133.9549  151.1979 H   0  0  0  0  0  0  0  0  0  0  0  0
  143.2361  134.6068  149.4015 H   0  0  0  0  0  0  0  0  0  0  0  0
  145.3925  139.3916  148.0331 H   0  0  0  0  0  0  0  0  0  0  0  0
  143.8987  138.5495  147.5943 H   0  0  0  0  0  0  0  0  0  0  0  0
  144.2217  141.4562  148.4077 H   0  0  0  0  0  0  0  0  0  0  0  0
  143.3355  140.8231  147.0160 H   0  0  0  0  0  0  0  0  0  0  0  0
  141.9596  141.4303  149.2793 H   0  0  0  0  0  0  0  0  0  0  0  0
  141.6042  139.9201  148.4402 H   0  0  0  0  0  0  0  0  0  0  0  0
  142.1506  138.9492  150.5038 H   0  0  0  0  0  0  0  0  0  0  0  0
  143.1956  140.2976  150.9616 H   0  0  0  0  0  0  0  0  0  0  0  0
  145.9374  143.6306  154.1321 H   0  0  0  0  0  0  0  0  0  0  0  0
  145.1785  142.3562  155.0700 H   0  0  0  0  0  0  0  0  0  0  0  0
  146.4756  144.8931  156.2049 H   0  0  0  0  0  0  0  0  0  0  0  0
  144.7619  144.5271  156.1537 H   0  0  0  0  0  0  0  0  0  0  0  0
  147.8902  143.5966  157.6913 H   0  0  0  0  0  0  0  0  0  0  0  0
  147.1522  142.3347  158.6586 H   0  0  0  0  0  0  0  0  0  0  0  0
  146.7146  140.9533  156.6630 H   0  0  0  0  0  0  0  0  0  0  0  0
  148.4177  141.3725  156.7150 H   0  0  0  0  0  0  0  0  0  0  0  0
  147.9619  143.1881  155.2885 H   0  0  0  0  0  0  0  0  0  0  0  0
  143.0074  136.8296  148.8416 H   0  0  0  0  0  0  0  0  0  0  0  0
  1  2  1  0  0  0  0
  1 25  1  0  0  0  0
  1 26  1  0  0  0  0
  1 27  1  0  0  0  0
  2  3  1  0  0  0  0
  2 19  1  0  0  0  0
  2 28  1  0  0  0  0
  3  4  1  0  0  0  0
  3 29  1  0  0  0  0
  3 30  1  0  0  0  0
  4  5  1  0  0  0  0
  5  6  2  0  0  0  0
  5  7  1  0  0  0  0
  7  8  1  0  0  0  0
  7 31  1  0  0  0  0
  8 13  1  0  0  0  0
  8  9  2  0  0  0  0
  9 10  1  0  0  0  0
  9 32  1  0  0  0  0
 10 11  2  0  0  0  0
 10 33  1  0  0  0  0
 11 12  1  0  0  0  0
 11 34  1  0  0  0  0
 12 13  2  0  0  0  0
 12 52  1  0  0  0  0
 13 14  1  0  0  0  0
 14 18  1  0  0  0  0
 14 15  1  0  0  0  0
 15 16  1  0  0  0  0
 15 35  1  0  0  0  0
 15 36  1  0  0  0  0
 16 17  1  0  0  0  0
 16 37  1  0  0  0  0
 16 38  1  0  0  0  0
 17 18  1  0  0  0  0
 17 39  1  0  0  0  0
 17 40  1  0  0  0  0
 18 41  1  0  0  0  0
 18 42  1  0  0  0  0
 19 24  1  0  0  0  0
 19 20  1  0  0  0  0
 19 51  1  0  0  0  0
 20 21  1  0  0  0  0
 20 43  1  0  0  0  0
 20 44  1  0  0  0  0
 21 22  1  0  0  0  0
 21 45  1  0  0  0  0
 21 46  1  0  0  0  0
 22 23  1  0  0  0  0
 23 24  1  0  0  0  0
 23 47  1  0  0  0  0
 23 48  1  0  0  0  0
 24 49  1  0  0  0  0
 24 50  1  0  0  0  0
M  CHG  1   4  -1
M  CHG  1  12   1
M  CHG  1  19   1
M  END
> <s_m_source_file>
AV-unprocessed.smi

> <i_m_source_file_index>
1389

> <i_lp_mmshare_version>
43012

> <i_f3d_flags>
0

> <s_epik_input>
W0NIMl0xW0NIMl1PW0NIMl1bQ0gyXU4xW0NASF0oW0NIM10pW0NIMl1bTkhdQyg9TylbTkhdYzJbY0hdW2NIXVtjSF1uYzJOM1tDSDJdW0NIMl1bQ0gyXVtDSDJdMw==

> <s_epik_cmdline>
J2VwaWtfcHl0aG9uJywgJy1waCcsICc3LjAnLCAnLXRuJywgJzgnLCAnLW1hJywgJzIwMCcsICctbWV0YWxfYmluZGluZycsICctaW1hZScsICc8aW5maWxlLm1hZT4nLCAnLW9tYWUnLCAnPG91dGZpbGUubWFlPic=

> <r_lp_tautomer_probability>
0.999994

> <r_epik_Ionization_Penalty>
8.58362

> <r_epik_Ionization_Penalty_Charging>
8.58361

> <r_epik_Ionization_Penalty_Neutral>
3.55275e-06

> <r_epik_State_Penalty>
8.57766

> <r_epik_Charging_Adjusted_Penalty>
17.1613

> <i_epik_Tot_Q>
1

> <i_epik_Tot_abs_Q>
3

> <r_epik_Metal_State_Penalty>
4.57399

> <b_epik_Metal_Only>
1

> <s_lp_Force_Field>
OPLS_2005

> <r_lp_Energy>
52.6414

> <b_lp_Chiralities_Consistent>
1

> <s_lp_Variant>
AV-unprocessed.smi:1389-9

> <Gold.Version>
5.8.1

> <Gold.Id.Protein>
6NUR|6NUR_protein|mol2

> <Gold.PLP.Fitness>
45.4332

> <Gold.PLP.PLP>
-38.0076

> <Gold.PLP.part.hbond>
-3.4365

> <Gold.PLP.part.metal>
0.0000

> <Gold.PLP.part.buried>
-5.2491

> <Gold.PLP.part.nonpolar>
-32.6782

> <Gold.PLP.part.repulsive>
1.6359

> <Gold.PLP.ligand.clash>
0.0000

> <Gold.PLP.ligand.torsion>
1.1801

> <Gold.PLP.Chemscore.Hbond>
3.0000

> <Gold.PLP.Chemscore.CHOScore>
0.0000

> <Gold.PLP.Chemscore.Metal>
0.0000

> <Gold.Chemscore.Hbonds>
donor molecule, donor type, donor heavy atom, donor atom, acceptor molecule, acceptor atom, score
      L1  H    19    51       P1  8028  2.00

> <Gold.PLP.Chemscore.Internal.Correction>
0.7858

> <Gold.Rescore>
     Score         DG    S(hbond)    S(metal)    S(lipo)     H(rot)  DE(clash)    DE(int)     intcor
     12.65     -15.91       1.99        0.00      68.08       1.63       0.55       2.71       ----

> <Gold.Chemscore.Fitness>
12.6536

> <Gold.Chemscore.DG>
-15.9094

> <Gold.Chemscore.ZeroCoef>
-5.4800

> <Gold.Chemscore.Hbond>
1.9877

> <Gold.Chemscore.Metal>
0.0000

> <Gold.Chemscore.Lipo>
68.0773

> <Gold.Chemscore.Internal_Hbond>
0.0000

> <Gold.Chemscore.DEClash>
0.5455

> <Gold.Chemscore.DEInternal>
2.7103

> <Gold.Chemscore.Rot>
1.6307

> <Gold.Chemscore.Internal.Correction>
   9.000000E+99

> <Gold.Chemscore.Hbonds>
donor molecule, donor type, donor heavy atom, donor atom, acceptor molecule, acceptor atom, score
      L1  H     7    31       P1 10175  0.05
      L1  H    19    51       P1  8028  0.74

> <Gold.Chemscore.Hbond.Weighted>
-6.6389

> <Gold.Chemscore.Metal.Weighted>
-0.0000

> <Gold.Chemscore.Lipo.Weighted>
-7.9650

> <Gold.Chemscore.Internal_Hbond.Weighted>
0.0000

> <Gold.Chemscore.DEClash.Weighted>
0.5455

> <Gold.Chemscore.DEInternal.Weighted>
2.7103

> <Gold.Chemscore.Rot.Weighted>
4.1746

> <Gold.Chemscore.Internal.Correction.Weighted>
   9.000000E+99

> <Gold.Protein.RotatedTorsions>
[ 6907 6896 6895 6894 ] final -127.70 input  -60.11 | X-H torsion
[ 7974 7965 7964 7962 ] final   66.31 input  175.53 | X-H torsion
[ 8008 7997 7996 7995 ] final -170.95 input   59.86 | X-H torsion
[ 10167 10162 10161 10158 ] final  -18.34 input  -65.29 | X-H torsion
[ 10718 10713 10712 10709 ] final   -9.21 input   66.30 | X-H torsion
[ 10763 10752 10751 10750 ] final   79.66 input  -60.55 | X-H torsion
[ 11005 11000 10999 10996 ] final   67.27 input  -57.11 | X-H torsion

> <Gold.Protein.ActiveResidues>
 VAL166  LYS551  ARG553  GLY616  TRP617  ASP618  TYR619  PRO620  LYS621  CYS622 
 ASP623  PHE694  ASN695  SER759  ASP760  ASP761  ALA762  ILE779  LEU786  VAL792 
 PHE793  MET794  SER795  GLU796  ALA797  LYS798  CYS799  TRP800  GLU811  SER814 

> <Gold.Protein.RotatedAtoms>
  150.9100  133.7009  159.2856 H   0  0  0  0  0  0  0  0  0  0  0  0  # atno 6907 bound_to 6896
  151.4499  135.1027  159.9704 H   0  0  0  0  0  0  0  0  0  0  0  0  # atno 6908 bound_to 6896
  152.4925  133.8489  159.7246 H   0  0  0  0  0  0  0  0  0  0  0  0  # atno 6909 bound_to 6896
  145.8281  139.3123  143.1003 H   0  0  0  0  0  0  0  0  0  0  0  0  # atno 7974 bound_to 7965
  155.9252  140.1081  157.1176 H   0  0  0  0  0  0  0  0  0  0  0  0  # atno 8008 bound_to 7997
  154.4061  140.1248  156.4796 H   0  0  0  0  0  0  0  0  0  0  0  0  # atno 8009 bound_to 7997
  155.7148  140.3470  155.4992 H   0  0  0  0  0  0  0  0  0  0  0  0  # atno 8010 bound_to 7997
  140.7257  143.4926  150.9972 H   0  0  0  0  0  0  0  0  0  0  0  0  # atno 10167 bound_to 10162
  156.6913  130.5066  149.5943 H   0  0  0  0  0  0  0  0  0  0  0  0  # atno 10718 bound_to 10713
  153.0970  135.4831  154.8797 H   0  0  0  0  0  0  0  0  0  0  0  0  # atno 10763 bound_to 10752
  154.7336  135.3066  154.8852 H   0  0  0  0  0  0  0  0  0  0  0  0  # atno 10764 bound_to 10752
  153.9480  135.6826  153.4797 H   0  0  0  0  0  0  0  0  0  0  0  0  # atno 10765 bound_to 10752
  139.9781  134.6789  156.0315 H   0  0  0  0  0  0  0  0  0  0  0  0  # atno 11005 bound_to 11000
  145.9601  140.8842  143.0215 LP  0  0  0  0  0  0  0  0  0  0  0  0  # atno 17320 bound_to 7965
  144.6742  140.1800  143.7406 LP  0  0  0  0  0  0  0  0  0  0  0  0  # atno 17321 bound_to 7965
  139.8631  143.7289  152.3172 LP  0  0  0  0  0  0  0  0  0  0  0  0  # atno 17342 bound_to 10162
  139.7511  144.7534  151.0505 LP  0  0  0  0  0  0  0  0  0  0  0  0  # atno 17343 bound_to 10162
  156.1795  130.6490  151.0935 LP  0  0  0  0  0  0  0  0  0  0  0  0  # atno 17370 bound_to 10713
  157.7008  131.0777  150.6827 LP  0  0  0  0  0  0  0  0  0  0  0  0  # atno 17371 bound_to 10713
  141.1456  133.6556  156.3857 LP  0  0  0  0  0  0  0  0  0  0  0  0  # atno 17394 bound_to 11000
  140.5153  134.6356  157.5299 LP  0  0  0  0  0  0  0  0  0  0  0  0  # atno 17395 bound_to 11000

$$$$
