AV-unprocessed.smi:370|AV-procd|sdf|2440|dock1
  -GOLD-   2262022383D 1   1.00000     0.00000
 Structure written by MMmdl.
 42 43  0  0  0  0  0  0  0  0  3 V2000
  152.9167  142.8912  160.4971 C   0  0  0  0  0  0  0  0  0  0  0  0
  152.8905  141.5803  159.7895 C   0  0  0  0  0  0  0  0  0  0  0  0
  151.9032  140.8922  159.1425 C   0  0  0  0  0  0  0  0  0  0  0  0
  152.5665  139.7156  158.7032 C   0  0  0  0  0  0  0  0  0  0  0  0
  151.8649  138.7211  157.9720 N   0  0  0  0  0  0  0  0  0  0  0  0
  151.6428  137.4344  158.2969 C   0  0  0  0  0  0  0  0  0  0  0  0
  152.0599  136.9788  159.3681 O   0  0  0  0  0  0  0  0  0  0  0  0
  150.9388  136.7779  157.3353 N   0  5  0  0  0  0  0  0  0  0  0  0
  149.8541  137.3725  156.5474 C   0  0  0  0  0  0  0  0  0  0  0  0
  149.9796  136.9786  155.0331 C   0  0  0  0  0  0  0  0  0  0  0  0
  151.2251  137.7070  154.4371 C   0  0  0  0  0  0  0  0  0  0  0  0
  150.2735  135.4585  154.8943 C   0  0  0  0  0  0  0  0  0  0  0  0
  148.6966  137.3499  154.3153 N   0  3  0  0  0  0  0  0  0  0  0  0
  147.4440  136.6949  154.7891 C   0  0  0  0  0  0  0  0  0  0  0  0
  146.2739  137.0066  153.8391 C   0  0  0  0  0  0  0  0  0  0  0  0
  146.1031  138.4106  153.7082 O   0  0  0  0  0  0  0  0  0  0  0  0
  147.2606  139.0285  153.1648 C   0  0  0  0  0  0  0  0  0  0  0  0
  148.4414  138.8105  154.1216 C   0  0  0  0  0  0  0  0  0  0  0  0
  153.8446  139.6895  159.0506 N   0  0  0  0  0  0  0  0  0  0  0  0
  154.0587  140.8842  159.7479 O   0  0  0  0  0  0  0  0  0  0  0  0
  151.9192  143.3283  160.5446 H   0  0  0  0  0  0  0  0  0  0  0  0
  153.5700  143.5951  159.9815 H   0  0  0  0  0  0  0  0  0  0  0  0
  153.2828  142.7724  161.5168 H   0  0  0  0  0  0  0  0  0  0  0  0
  150.8726  141.1849  159.0070 H   0  0  0  0  0  0  0  0  0  0  0  0
  151.4850  139.0204  157.0866 H   0  0  0  0  0  0  0  0  0  0  0  0
  148.8729  137.0707  156.9159 H   0  0  0  0  0  0  0  0  0  0  0  0
  149.8686  138.4597  156.6298 H   0  0  0  0  0  0  0  0  0  0  0  0
  152.1435  137.4849  154.9860 H   0  0  0  0  0  0  0  0  0  0  0  0
  151.1179  138.7939  154.4226 H   0  0  0  0  0  0  0  0  0  0  0  0
  151.4212  137.3896  153.4125 H   0  0  0  0  0  0  0  0  0  0  0  0
  151.2384  135.1873  155.3278 H   0  0  0  0  0  0  0  0  0  0  0  0
  150.3137  135.1667  153.8442 H   0  0  0  0  0  0  0  0  0  0  0  0
  149.5264  134.8224  155.3731 H   0  0  0  0  0  0  0  0  0  0  0  0
  147.5415  135.6110  154.8166 H   0  0  0  0  0  0  0  0  0  0  0  0
  147.2131  137.0300  155.8011 H   0  0  0  0  0  0  0  0  0  0  0  0
  146.4433  136.5584  152.8586 H   0  0  0  0  0  0  0  0  0  0  0  0
  145.3516  136.5755  154.2285 H   0  0  0  0  0  0  0  0  0  0  0  0
  147.4790  138.6290  152.1729 H   0  0  0  0  0  0  0  0  0  0  0  0
  147.0662  140.0945  153.0445 H   0  0  0  0  0  0  0  0  0  0  0  0
  148.2153  139.2821  155.0788 H   0  0  0  0  0  0  0  0  0  0  0  0
  149.3150  139.3192  153.7150 H   0  0  0  0  0  0  0  0  0  0  0  0
  148.8441  136.9756  153.3872 H   0  0  0  0  0  0  0  0  0  0  0  0
  1  2  1  0  0  0  0
  1 21  1  0  0  0  0
  1 22  1  0  0  0  0
  1 23  1  0  0  0  0
  2 20  1  0  0  0  0
  2  3  2  0  0  0  0
  3  4  1  0  0  0  0
  3 24  1  0  0  0  0
  4  5  1  0  0  0  0
  4 19  2  0  0  0  0
  5  6  1  0  0  0  0
  5 25  1  0  0  0  0
  6  7  2  0  0  0  0
  6  8  1  0  0  0  0
  8  9  1  0  0  0  0
  9 10  1  0  0  0  0
  9 26  1  0  0  0  0
  9 27  1  0  0  0  0
 10 11  1  0  0  0  0
 10 12  1  0  0  0  0
 10 13  1  0  0  0  0
 11 28  1  0  0  0  0
 11 29  1  0  0  0  0
 11 30  1  0  0  0  0
 12 31  1  0  0  0  0
 12 32  1  0  0  0  0
 12 33  1  0  0  0  0
 13 18  1  0  0  0  0
 13 14  1  0  0  0  0
 13 42  1  0  0  0  0
 14 15  1  0  0  0  0
 14 34  1  0  0  0  0
 14 35  1  0  0  0  0
 15 16  1  0  0  0  0
 15 36  1  0  0  0  0
 15 37  1  0  0  0  0
 16 17  1  0  0  0  0
 17 18  1  0  0  0  0
 17 38  1  0  0  0  0
 17 39  1  0  0  0  0
 18 40  1  0  0  0  0
 18 41  1  0  0  0  0
 19 20  1  0  0  0  0
M  CHG  1   8  -1
M  CHG  1  13   1
M  END
> <s_m_source_file>
AV-unprocessed.smi

> <i_m_source_file_index>
370

> <i_lp_mmshare_version>
43012

> <i_f3d_flags>
0

> <s_epik_input>
W0NIM11jMVtjSF1jKG5vMSlbTkhdQyg9TylbTkhdW0NIMl1DKFtDSDNdKShbQ0gzXSlOMltDSDJdW0NIMl1PW0NIMl1bQ0gyXTI=

> <s_epik_cmdline>
J2VwaWtfcHl0aG9uJywgJy1waCcsICc3LjAnLCAnLXRuJywgJzgnLCAnLW1hJywgJzIwMCcsICctbWV0YWxfYmluZGluZycsICctaW1hZScsICc8aW5maWxlLm1hZT4nLCAnLW9tYWUnLCAnPG91dGZpbGUubWFlPic=

> <r_epik_Ionization_Penalty>
6.79272

> <r_epik_Ionization_Penalty_Charging>
6.79272

> <r_epik_Ionization_Penalty_Neutral>
5.6208e-06

> <r_epik_State_Penalty>
7.45901

> <r_epik_Charging_Adjusted_Penalty>
14.2517

> <i_epik_Tot_Q>
0

> <i_epik_Tot_abs_Q>
2

> <r_epik_Metal_State_Penalty>
3.38639

> <b_epik_Metal_Only>
1

> <s_lp_Force_Field>
OPLS_2005

> <r_lp_Energy>
23.8333

> <b_lp_Chiralities_Consistent>
1

> <s_lp_Variant>
AV-unprocessed.smi:370-5

> <Gold.Version>
5.8.1

> <Gold.Id.Protein>
6NUR|6NUR_protein|mol2

> <Gold.PLP.Fitness>
37.1722

> <Gold.PLP.PLP>
-27.1858

> <Gold.PLP.part.hbond>
-3.0000

> <Gold.PLP.part.metal>
0.0000

> <Gold.PLP.part.buried>
-4.6092

> <Gold.PLP.part.nonpolar>
-20.6427

> <Gold.PLP.part.repulsive>
0.2348

> <Gold.PLP.ligand.clash>
0.0000

> <Gold.PLP.ligand.torsion>
1.1669

> <Gold.PLP.Chemscore.Hbond>
3.9760

> <Gold.PLP.Chemscore.CHOScore>
0.0000

> <Gold.PLP.Chemscore.Metal>
0.0000

> <Gold.Chemscore.Hbonds>
donor molecule, donor type, donor heavy atom, donor atom, acceptor molecule, acceptor atom, score
      L1  H    13    42       P1  7948  2.00
      P1  H  6896  6907       L1     7  0.99
      P1  H  7997  8009       L1    19  0.80

> <Gold.PLP.Chemscore.Internal.Correction>
0.3921

> <Gold.Rescore>
     Score         DG    S(hbond)    S(metal)    S(lipo)     H(rot)  DE(clash)    DE(int)     intcor
     14.74     -15.95       2.12        0.00      63.39       1.57       0.00       1.21       ----

> <Gold.Chemscore.Fitness>
14.7364

> <Gold.Chemscore.DG>
-15.9472

> <Gold.Chemscore.ZeroCoef>
-5.4800

> <Gold.Chemscore.Hbond>
2.1167

> <Gold.Chemscore.Metal>
0.0000

> <Gold.Chemscore.Lipo>
63.3898

> <Gold.Chemscore.Internal_Hbond>
0.0000

> <Gold.Chemscore.DEClash>
0.0009

> <Gold.Chemscore.DEInternal>
1.2098

> <Gold.Chemscore.Rot>
1.5701

> <Gold.Chemscore.Internal.Correction>
   9.000000E+99

> <Gold.Chemscore.Hbonds>
donor molecule, donor type, donor heavy atom, donor atom, acceptor molecule, acceptor atom, score
      L1  H    13    42       P1  7948  1.00
      P1  H  6896  6907       L1     7  0.88
      P1  H  7997  8009       L1    19  0.09

> <Gold.Chemscore.Hbond.Weighted>
-7.0699

> <Gold.Chemscore.Metal.Weighted>
-0.0000

> <Gold.Chemscore.Lipo.Weighted>
-7.4166

> <Gold.Chemscore.Internal_Hbond.Weighted>
0.0000

> <Gold.Chemscore.DEClash.Weighted>
0.0009

> <Gold.Chemscore.DEInternal.Weighted>
1.2098

> <Gold.Chemscore.Rot.Weighted>
4.0194

> <Gold.Chemscore.Internal.Correction.Weighted>
   9.000000E+99

> <Gold.Protein.RotatedTorsions>
[ 6907 6896 6895 6894 ] final   -9.30 input  -60.11 | X-H torsion
[ 7974 7965 7964 7962 ] final   32.68 input  175.53 | X-H torsion
[ 8008 7997 7996 7995 ] final  143.29 input   59.86 | X-H torsion
[ 10167 10162 10161 10158 ] final  -78.97 input  -65.29 | X-H torsion
[ 10718 10713 10712 10709 ] final -138.88 input   66.30 | X-H torsion
[ 10763 10752 10751 10750 ] final   98.50 input  -60.55 | X-H torsion
[ 11005 11000 10999 10996 ] final -168.26 input  -57.11 | X-H torsion

> <Gold.Protein.ActiveResidues>
 VAL166  LYS551  ARG553  GLY616  TRP617  ASP618  TYR619  PRO620  LYS621  CYS622 
 ASP623  PHE694  ASN695  SER759  ASP760  ASP761  ALA762  ILE779  LEU786  VAL792 
 PHE793  MET794  SER795  GLU796  ALA797  LYS798  CYS799  TRP800  GLU811  SER814 

> <Gold.Protein.RotatedAtoms>
  151.4200  135.0996  159.9610 H   0  0  0  0  0  0  0  0  0  0  0  0  # atno 6907 bound_to 6896
  152.4992  133.8716  159.7312 H   0  0  0  0  0  0  0  0  0  0  0  0  # atno 6908 bound_to 6896
  150.9230  133.6800  159.2855 H   0  0  0  0  0  0  0  0  0  0  0  0  # atno 6909 bound_to 6896
  146.1470  139.6495  142.9124 H   0  0  0  0  0  0  0  0  0  0  0  0  # atno 7974 bound_to 7965
  156.2933  140.2266  156.4866 H   0  0  0  0  0  0  0  0  0  0  0  0  # atno 8008 bound_to 7997
  154.7807  140.0460  157.1146 H   0  0  0  0  0  0  0  0  0  0  0  0  # atno 8009 bound_to 7997
  154.9763  140.3073  155.4969 H   0  0  0  0  0  0  0  0  0  0  0  0  # atno 8010 bound_to 7997
  140.4635  143.2447  151.8313 H   0  0  0  0  0  0  0  0  0  0  0  0  # atno 10167 bound_to 10162
  156.3044  130.7447  151.1507 H   0  0  0  0  0  0  0  0  0  0  0  0  # atno 10718 bound_to 10713
  153.2898  135.4146  155.1156 H   0  0  0  0  0  0  0  0  0  0  0  0  # atno 10763 bound_to 10752
  154.8517  135.3515  154.5997 H   0  0  0  0  0  0  0  0  0  0  0  0  # atno 10764 bound_to 10752
  153.6419  135.7056  153.5296 H   0  0  0  0  0  0  0  0  0  0  0  0  # atno 10765 bound_to 10752
  140.5440  134.5494  157.5106 H   0  0  0  0  0  0  0  0  0  0  0  0  # atno 11005 bound_to 11000
  145.4913  141.0438  143.2591 LP  0  0  0  0  0  0  0  0  0  0  0  0  # atno 17320 bound_to 7965
  144.7859  139.6429  143.7134 LP  0  0  0  0  0  0  0  0  0  0  0  0  # atno 17321 bound_to 7965
  139.4809  144.4979  151.9100 LP  0  0  0  0  0  0  0  0  0  0  0  0  # atno 17342 bound_to 10162
  140.4064  144.2426  150.5890 LP  0  0  0  0  0  0  0  0  0  0  0  0  # atno 17343 bound_to 10162
  157.7376  131.0550  150.5346 LP  0  0  0  0  0  0  0  0  0  0  0  0  # atno 17370 bound_to 10713
  156.5477  130.4224  149.6122 LP  0  0  0  0  0  0  0  0  0  0  0  0  # atno 17371 bound_to 10713
  139.9489  134.7652  156.0495 LP  0  0  0  0  0  0  0  0  0  0  0  0  # atno 17394 bound_to 11000
  141.1211  133.6613  156.3216 LP  0  0  0  0  0  0  0  0  0  0  0  0  # atno 17395 bound_to 11000

$$$$
