#       Name:                AV-unprocessed.smi:2477
#       Creating user name   scv26
#       Creation time:       Fri Mar 27 13:40:27 2020


#       File generated by GOLD software.
#

@<TRIPOS>MOLECULE
AV-unprocessed.smi:2477
    57    59     1
SMALL
NO_CHARGES


@<TRIPOS>ATOM
      1 ****        -6.5532   0.4988   0.4645 C.3            1 S1                 0.0000
      2 ****        -5.2509   0.9803   0.9327 N.am           1 S1                 0.0000
      3 ****        -5.1803   2.2973   1.4171 C.2            1 S1                 0.0000
      4 ****        -4.0314   2.8200   1.8678 C.2            1 S1                 0.0000
      5 ****        -2.8477   1.9946   1.8491 C.2            1 S1                 0.0000
      6 ****        -2.8914   0.7230   1.3773 C.2            1 S1                 0.0000
      7 ****        -1.7928  -0.1529   1.3291 N.am           1 S1                 0.0000
      8 ****        -0.4801   0.1120   1.4573 C.2            1 S1                 0.0000
      9 ****         0.0173   1.2214   1.6473 O.2            1 S1                 0.0000
     10 ****         0.2460  -1.0058   1.3104 N.am           1 S1                 0.0000
     11 ****         1.7054  -1.0751   1.3032 C.3            1 S1                 0.0000
     12 ****         2.1480  -2.3715   2.0092 C.3            1 S1                 0.0000
     13 ****         3.6748  -2.5427   1.9783 C.3            1 S1                 0.0000
     14 ****         4.2101  -2.4927   0.5398 C.3            1 S1                 0.0000
     15 ****         3.7786  -1.1971  -0.1628 C.3            1 S1                 0.0000
     16 ****         2.2493  -1.0270  -0.1447 C.3            1 S1                 0.0000
     17 ****         1.9630   0.2411  -0.7243 O.3            1 S1                 0.0000
     18 ****         0.9854   0.2226  -1.7588 C.3            1 S1                 0.0000
     19 ****         1.6223  -0.1877  -3.0895 C.3            1 S1                 0.0000
     20 ****         2.3386   1.0728  -3.5816 C.3            1 S1                 0.0000
     21 ****         1.5847   2.2601  -2.9623 C.3            1 S1                 0.0000
     22 ****         0.5371   1.6621  -2.0136 C.3            1 S1                 0.0000
     23 ****        -4.1621   0.1562   0.8845 C.2            1 S1                 0.0000
     24 ****        -4.2526  -0.9949   0.4501 O.2            1 S1                 0.0000
     25 ****        -7.3452   1.2384   0.5862 H              1 S1                 0.0000
     26 ****        -6.8553  -0.3918   1.0174 H              1 S1                 0.0000
     27 ****        -6.5068   0.2423  -0.5948 H              1 S1                 0.0000
     28 ****        -6.1080   2.8503   1.3991 H              1 S1                 0.0000
     29 ****        -3.9921   3.8344   2.2362 H              1 S1                 0.0000
     30 ****        -1.9420   2.4290   2.2391 H              1 S1                 0.0000
     31 ****        -2.0344  -1.1108   1.1199 H              1 S1                 0.0000
     32 ****        -0.2473  -1.8727   1.1550 H              1 S1                 0.0000
     33 ****         2.1187  -0.2333   1.8626 H              1 S1                 0.0000
     34 ****         1.8014  -2.3701   3.0433 H              1 S1                 0.0000
     35 ****         1.6805  -3.2327   1.5289 H              1 S1                 0.0000
     36 ****         4.1424  -1.7551   2.5706 H              1 S1                 0.0000
     37 ****         3.9526  -3.4878   2.4457 H              1 S1                 0.0000
     38 ****         5.2978  -2.5687   0.5451 H              1 S1                 0.0000
     39 ****         3.8416  -3.3534  -0.0198 H              1 S1                 0.0000
     40 ****         4.2479  -0.3444   0.3300 H              1 S1                 0.0000
     41 ****         4.1406  -1.1955  -1.1913 H              1 S1                 0.0000
     42 ****         1.8089  -1.8406  -0.7253 H              1 S1                 0.0000
     43 ****         0.1373  -0.4076  -1.4869 H              1 S1                 0.0000
     44 ****         2.2901  -1.0454  -3.0062 H              1 S1                 0.0000
     45 ****         0.8358  -0.4545  -3.7966 H              1 S1                 0.0000
     46 ****         3.3694   1.0703  -3.2251 H              1 S1                 0.0000
     47 ****         2.3695   1.1237  -4.6703 H              1 S1                 0.0000
     48 ****         2.2798   2.8958  -2.4123 H              1 S1                 0.0000
     49 ****         1.1103   2.8783  -3.7251 H              1 S1                 0.0000
     50 ****        -0.4333   1.6512  -2.5115 H              1 S1                 0.0000
     51 ****         0.4228   2.2368  -1.0937 H              1 S1                 0.0000
     52 ****        -0.5705   2.0272   1.7195 LP             1 S1                 0.0000
     53 ****         1.0093   1.3171   1.7295 LP             1 S1                 0.0000
     54 ****         2.8119   0.6064  -1.1062 LP             1 S1                 0.0000
     55 ****         1.6358   0.8469   0.0009 LP             1 S1                 0.0000
     56 ****        -5.1337  -1.3391   0.1257 LP             1 S1                 0.0000
     57 ****        -3.4449  -1.5838   0.4224 LP             1 S1                 0.0000
@<TRIPOS>BOND
    1    1    2 1     
    2    1   25 1     
    3    1   26 1     
    4    1   27 1     
    5    2   23 am    
    6    2    3 1     
    7    3    4 2     
    8    3   28 1     
    9    4    5 1     
   10    4   29 1     
   11    5    6 2     
   12    5   30 1     
   13    6    7 1     
   14    6   23 1     
   15    7    8 am    
   16    7   31 1     
   17    8    9 2     
   18    8   10 am    
   19   10   11 1     
   20   10   32 1     
   21   11   16 1     
   22   11   12 1     
   23   11   33 1     
   24   12   13 1     
   25   12   34 1     
   26   12   35 1     
   27   13   14 1     
   28   13   36 1     
   29   13   37 1     
   30   14   15 1     
   31   14   38 1     
   32   14   39 1     
   33   15   16 1     
   34   15   40 1     
   35   15   41 1     
   36   16   17 1     
   37   16   42 1     
   38   17   18 1     
   39   18   22 1     
   40   18   19 1     
   41   18   43 1     
   42   19   20 1     
   43   19   44 1     
   44   19   45 1     
   45   20   21 1     
   46   20   46 1     
   47   20   47 1     
   48   21   22 1     
   49   21   48 1     
   50   21   49 1     
   51   22   50 1     
   52   22   51 1     
   53   23   24 2     
   54    9   52 1     
   55    9   53 1     
   56   17   54 1     
   57   17   55 1     
   58   24   56 1     
   59   24   57 1     
@<TRIPOS>SUBSTRUCTURE
      1 S1             1
@<TRIPOS>SET
LONE_PAIRS      STATIC     ATOMS    <user>   **** ""
6 52 53 54 55 56 57
DONOR_HYDROGENS      STATIC     ATOMS    <user>   **** ""
2 31 32
ATOM$BLUE        STATIC     ATOMS    COLORGROUP SYSTEM
6 52 53 54 55 56 57
ATOM$RED        STATIC     ATOMS    COLORGROUP SYSTEM
2 31 32
