AV-unprocessed.smi:3303|AV-procd|sdf|12681|dock10
  -GOLD-   2272019 13D 1   1.00000     0.00000
 Structure written by MMmdl.
 44 45  0  0  0  0  0  0  0  0  2 V2000
  148.2947  141.3820  153.8817 C   0  0  0  0  0  0  0  0  0  0  0  0
  148.6796  139.8929  153.9439 C   0  0  2  0  0  0  0  0  0  0  0  0
  147.4109  139.0180  153.9222 C   0  0  0  0  0  0  0  0  0  0  0  0
  147.7267  137.5663  153.9543 N   0  3  2  0  0  0  0  0  0  0  0  0
  146.5001  136.7530  153.7707 C   0  0  0  0  0  0  0  0  0  0  0  0
  148.5269  137.1991  155.1602 C   0  0  1  0  0  0  0  0  0  0  0  0
  148.8794  135.6995  155.2087 C   0  0  0  0  0  0  0  0  0  0  0  0
  149.8201  138.0362  155.2097 C   0  0  0  0  0  0  0  0  0  0  0  0
  149.5341  139.5460  155.1838 C   0  0  1  0  0  0  0  0  0  0  0  0
  150.8174  140.2333  155.1183 N   0  0  0  0  0  0  0  0  0  0  0  0
  150.8215  141.4438  155.9279 C   0  0  0  0  0  0  0  0  0  0  0  0
  151.0724  141.1153  157.4096 C   0  0  0  0  0  0  0  0  0  0  0  0
  151.4320  142.3359  158.2408 C   0  0  0  0  0  0  0  0  0  0  0  0
  151.5035  143.6123  157.6430 C   0  0  0  0  0  0  0  0  0  0  0  0
  151.8609  144.7117  158.4473 C   0  0  0  0  0  0  0  0  0  0  0  0
  152.1342  144.4938  159.8112 C   0  0  0  0  0  0  0  0  0  0  0  0
  152.0360  143.1808  160.3126 C   0  0  0  0  0  0  0  0  0  0  0  0
  151.6930  142.1201  159.5506 N   0  0  0  0  0  0  0  0  0  0  0  0
  147.7514  141.6895  154.7757 H   0  0  0  0  0  0  0  0  0  0  0  0
  147.6596  141.5871  153.0195 H   0  0  0  0  0  0  0  0  0  0  0  0
  149.1738  142.0199  153.7880 H   0  0  0  0  0  0  0  0  0  0  0  0
  149.2581  139.6634  153.0469 H   0  0  0  0  0  0  0  0  0  0  0  0
  146.7681  139.2660  154.7688 H   0  0  0  0  0  0  0  0  0  0  0  0
  146.8396  139.2400  153.0196 H   0  0  0  0  0  0  0  0  0  0  0  0
  145.8581  136.8085  154.6508 H   0  0  0  0  0  0  0  0  0  0  0  0
  146.7374  135.7070  153.5788 H   0  0  0  0  0  0  0  0  0  0  0  0
  145.9272  137.1037  152.9116 H   0  0  0  0  0  0  0  0  0  0  0  0
  147.9317  137.4333  156.0448 H   0  0  0  0  0  0  0  0  0  0  0  0
  149.5438  135.4841  156.0459 H   0  0  0  0  0  0  0  0  0  0  0  0
  149.3848  135.3782  154.2973 H   0  0  0  0  0  0  0  0  0  0  0  0
  147.9972  135.0748  155.3466 H   0  0  0  0  0  0  0  0  0  0  0  0
  150.3831  137.7893  156.1111 H   0  0  0  0  0  0  0  0  0  0  0  0
  150.4573  137.7644  154.3657 H   0  0  0  0  0  0  0  0  0  0  0  0
  148.9947  139.8139  156.0941 H   0  0  0  0  0  0  0  0  0  0  0  0
  151.5604  139.6225  155.4270 H   0  0  0  0  0  0  0  0  0  0  0  0
  151.5835  142.1384  155.5728 H   0  0  0  0  0  0  0  0  0  0  0  0
  149.8570  141.9406  155.8175 H   0  0  0  0  0  0  0  0  0  0  0  0
  150.1765  140.6603  157.8336 H   0  0  0  0  0  0  0  0  0  0  0  0
  151.8610  140.3668  157.5022 H   0  0  0  0  0  0  0  0  0  0  0  0
  151.2938  143.7471  156.5920 H   0  0  0  0  0  0  0  0  0  0  0  0
  151.9264  145.7035  158.0252 H   0  0  0  0  0  0  0  0  0  0  0  0
  152.4133  145.3127  160.4578 H   0  0  0  0  0  0  0  0  0  0  0  0
  152.2408  142.9765  161.3531 H   0  0  0  0  0  0  0  0  0  0  0  0
  148.3119  137.3845  153.1513 H   0  0  0  0  0  0  0  0  0  0  0  0
  1  2  1  0  0  0  0
  1 19  1  0  0  0  0
  1 20  1  0  0  0  0
  1 21  1  0  0  0  0
  2  9  1  0  0  0  0
  2  3  1  0  0  0  0
  2 22  1  0  0  0  0
  3  4  1  0  0  0  0
  3 23  1  0  0  0  0
  3 24  1  0  0  0  0
  4  5  1  0  0  0  0
  4  6  1  0  0  0  0
  4 44  1  0  0  0  0
  5 25  1  0  0  0  0
  5 26  1  0  0  0  0
  5 27  1  0  0  0  0
  6  7  1  0  0  0  0
  6  8  1  0  0  0  0
  6 28  1  0  0  0  0
  7 29  1  0  0  0  0
  7 30  1  0  0  0  0
  7 31  1  0  0  0  0
  8  9  1  0  0  0  0
  8 32  1  0  0  0  0
  8 33  1  0  0  0  0
  9 10  1  0  0  0  0
  9 34  1  0  0  0  0
 10 11  1  0  0  0  0
 10 35  1  0  0  0  0
 11 12  1  0  0  0  0
 11 36  1  0  0  0  0
 11 37  1  0  0  0  0
 12 13  1  0  0  0  0
 12 38  1  0  0  0  0
 12 39  1  0  0  0  0
 13 18  1  0  0  0  0
 13 14  2  0  0  0  0
 14 15  1  0  0  0  0
 14 40  1  0  0  0  0
 15 16  2  0  0  0  0
 15 41  1  0  0  0  0
 16 17  1  0  0  0  0
 16 42  1  0  0  0  0
 17 18  2  0  0  0  0
 17 43  1  0  0  0  0
M  CHG  1   4   1
M  END
> <s_m_source_file>
AV-unprocessed.smi

> <i_m_source_file_index>
3303

> <i_lp_mmshare_version>
43012

> <i_f3d_flags>
0

> <s_epik_input>
W0NIM11bQ0BASF0xW0NIMl1OKFtDSDNdKVtDQEBIXShbQ0gzXSlbQ0gyXVtDQEhdMVtOSF1bQ0gyXVtDSDJdYzJbY0hdW2NIXVtjSF1bY0hdbjI=

> <s_epik_cmdline>
J2VwaWtfcHl0aG9uJywgJy1waCcsICc3LjAnLCAnLXRuJywgJzgnLCAnLW1hJywgJzIwMCcsICctbWV0YWxfYmluZGluZycsICctaW1hZScsICc8aW5maWxlLm1hZT4nLCAnLW9tYWUnLCAnPG91dGZpbGUubWFlPic=

> <r_epik_Ionization_Penalty>
2.31085

> <r_epik_Ionization_Penalty_Charging>
0.000313057

> <r_epik_Ionization_Penalty_Neutral>
2.31054

> <r_epik_State_Penalty>
2.4087

> <r_epik_Charging_Adjusted_Penalty>
2.40902

> <i_epik_Tot_Q>
1

> <i_epik_Tot_abs_Q>
1

> <r_epik_Metal_State_Penalty>
2.30979

> <b_epik_Metal_Only>
0

> <s_lp_Force_Field>
OPLS_2005

> <r_lp_Energy>
25.5146

> <b_lp_Chiralities_Consistent>
1

> <s_lp_Variant>
AV-unprocessed.smi:3303-25

> <Gold.Version>
5.8.1

> <Gold.Id.Protein>
6NUR|6NUR_protein|mol2

> <Gold.PLP.Fitness>
42.7165

> <Gold.PLP.PLP>
-35.0946

> <Gold.PLP.part.hbond>
-2.0000

> <Gold.PLP.part.metal>
0.0000

> <Gold.PLP.part.buried>
-1.6125

> <Gold.PLP.part.nonpolar>
-30.2711

> <Gold.PLP.part.repulsive>
0.0000

> <Gold.PLP.ligand.clash>
0.0000

> <Gold.PLP.ligand.torsion>
0.6919

> <Gold.PLP.Chemscore.Hbond>
3.0000

> <Gold.PLP.Chemscore.CHOScore>
0.0000

> <Gold.PLP.Chemscore.Metal>
0.0000

> <Gold.Chemscore.Hbonds>
donor molecule, donor type, donor heavy atom, donor atom, acceptor molecule, acceptor atom, score
      L1  H     4    44       P1  7948  2.00
      P1  H  7989  7998       L1    10  0.90

> <Gold.PLP.Chemscore.Internal.Correction>
0.0058

> <Gold.Rescore>
     Score         DG    S(hbond)    S(metal)    S(lipo)     H(rot)  DE(clash)    DE(int)     intcor
     17.51     -18.40       1.06        0.00     109.20       1.33       0.09       0.80       ----

> <Gold.Chemscore.Fitness>
17.5091

> <Gold.Chemscore.DG>
-18.3964

> <Gold.Chemscore.ZeroCoef>
-5.4800

> <Gold.Chemscore.Hbond>
1.0592

> <Gold.Chemscore.Metal>
0.0000

> <Gold.Chemscore.Lipo>
109.1982

> <Gold.Chemscore.Internal_Hbond>
0.0000

> <Gold.Chemscore.DEClash>
0.0896

> <Gold.Chemscore.DEInternal>
0.7977

> <Gold.Chemscore.Rot>
1.3272

> <Gold.Chemscore.Internal.Correction>
   9.000000E+99

> <Gold.Chemscore.Hbonds>
donor molecule, donor type, donor heavy atom, donor atom, acceptor molecule, acceptor atom, score
      L1  H     4    44       P1  7948  0.95
      P1  H  7989  7998       L1    10  0.05

> <Gold.Chemscore.Hbond.Weighted>
-3.5378

> <Gold.Chemscore.Metal.Weighted>
-0.0000

> <Gold.Chemscore.Lipo.Weighted>
-12.7762

> <Gold.Chemscore.Internal_Hbond.Weighted>
0.0000

> <Gold.Chemscore.DEClash.Weighted>
0.0896

> <Gold.Chemscore.DEInternal.Weighted>
0.7977

> <Gold.Chemscore.Rot.Weighted>
3.3976

> <Gold.Chemscore.Internal.Correction.Weighted>
   9.000000E+99

> <Gold.Protein.RotatedTorsions>
[ 6907 6896 6895 6894 ] final    6.46 input  -60.11 | X-H torsion
[ 7974 7965 7964 7962 ] final  -96.87 input  175.53 | X-H torsion
[ 8008 7997 7996 7995 ] final -138.28 input   59.86 | X-H torsion
[ 10167 10162 10161 10158 ] final   94.11 input  -65.29 | X-H torsion
[ 10718 10713 10712 10709 ] final  -85.76 input   66.30 | X-H torsion
[ 10763 10752 10751 10750 ] final   65.03 input  -60.55 | X-H torsion
[ 11005 11000 10999 10996 ] final   80.62 input  -57.11 | X-H torsion

> <Gold.Protein.ActiveResidues>
 VAL166  LYS551  ARG553  GLY616  TRP617  ASP618  TYR619  PRO620  LYS621  CYS622 
 ASP623  PHE694  ASN695  SER759  ASP760  ASP761  ALA762  ILE779  LEU786  VAL792 
 PHE793  MET794  SER795  GLU796  ALA797  LYS798  CYS799  TRP800  GLU811  SER814 

> <Gold.Protein.RotatedAtoms>
  151.6741  135.0971  160.0203 H   0  0  0  0  0  0  0  0  0  0  0  0  # atno 6907 bound_to 6896
  152.3874  133.6626  159.6218 H   0  0  0  0  0  0  0  0  0  0  0  0  # atno 6908 bound_to 6896
  150.7797  133.8928  159.3359 H   0  0  0  0  0  0  0  0  0  0  0  0  # atno 6909 bound_to 6896
  145.3412  140.9460  143.2607 H   0  0  0  0  0  0  0  0  0  0  0  0  # atno 7974 bound_to 7965
  155.4257  140.0521  157.3022 H   0  0  0  0  0  0  0  0  0  0  0  0  # atno 8008 bound_to 7997
  154.4882  140.2109  155.9565 H   0  0  0  0  0  0  0  0  0  0  0  0  # atno 8009 bound_to 7997
  156.1305  140.3172  155.8347 H   0  0  0  0  0  0  0  0  0  0  0  0  # atno 8010 bound_to 7997
  139.8115  144.6771  150.9634 H   0  0  0  0  0  0  0  0  0  0  0  0  # atno 10167 bound_to 10162
  155.9994  130.4742  150.4612 H   0  0  0  0  0  0  0  0  0  0  0  0  # atno 10718 bound_to 10713
  153.0079  135.5371  154.6603 H   0  0  0  0  0  0  0  0  0  0  0  0  # atno 10763 bound_to 10752
  154.5813  135.2850  155.0732 H   0  0  0  0  0  0  0  0  0  0  0  0  # atno 10764 bound_to 10752
  154.1860  135.6508  153.5099 H   0  0  0  0  0  0  0  0  0  0  0  0  # atno 10765 bound_to 10752
  139.9127  134.7935  156.1934 H   0  0  0  0  0  0  0  0  0  0  0  0  # atno 11005 bound_to 11000
  144.8789  139.4932  143.6732 LP  0  0  0  0  0  0  0  0  0  0  0  0  # atno 17320 bound_to 7965
  146.3006  139.7416  142.9094 LP  0  0  0  0  0  0  0  0  0  0  0  0  # atno 17321 bound_to 7965
  140.7817  143.4180  151.0886 LP  0  0  0  0  0  0  0  0  0  0  0  0  # atno 17342 bound_to 10162
  139.7847  143.8305  152.3143 LP  0  0  0  0  0  0  0  0  0  0  0  0  # atno 17343 bound_to 10162
  157.2636  131.0572  151.2305 LP  0  0  0  0  0  0  0  0  0  0  0  0  # atno 17370 bound_to 10713
  157.3411  130.7033  149.6382 LP  0  0  0  0  0  0  0  0  0  0  0  0  # atno 17371 bound_to 10713
  141.0570  133.6860  156.1879 LP  0  0  0  0  0  0  0  0  0  0  0  0  # atno 17394 bound_to 11000
  140.6722  134.4856  157.5587 LP  0  0  0  0  0  0  0  0  0  0  0  0  # atno 17395 bound_to 11000

$$$$
