AV-unprocessed.smi:2610|AV-procd|sdf|10209|dock2
  -GOLD-   2272014213D 1   1.00000     0.00000
 Structure written by MMmdl.
 46 48  0  0  0  0  0  0  0  0  2 V2000
  146.6487  140.4977  154.1948 C   0  0  0  0  0  0  0  0  0  0  0  0
  148.0981  140.5773  153.7023 C   0  0  0  0  0  0  0  0  0  0  0  0
  148.9869  141.4309  154.6182 C   0  0  0  0  0  0  0  0  0  0  0  0
  149.2009  140.7835  155.9955 C   0  0  0  0  0  0  0  0  0  0  0  0
  150.0684  141.6199  156.8852 C   0  0  0  0  0  0  0  0  0  0  0  0
  150.2616  142.9637  156.7611 N   0  3  0  0  0  0  0  0  0  0  0  0
  151.1277  143.4140  157.7559 C   0  0  0  0  0  0  0  0  0  0  0  0
  151.6050  144.6911  158.0341 C   0  0  0  0  0  0  0  0  0  0  0  0
  152.4795  144.8141  159.1330 C   0  0  0  0  0  0  0  0  0  0  0  0
  152.8462  143.6945  159.9068 C   0  0  0  0  0  0  0  0  0  0  0  0
  152.3561  142.4049  159.6137 C   0  0  0  0  0  0  0  0  0  0  0  0
  151.4933  142.2889  158.5226 C   0  0  0  0  0  0  0  0  0  0  0  0
  150.8327  141.1986  157.9380 N   0  0  0  0  0  0  0  0  0  0  0  0
  151.0195  139.8473  158.5038 C   0  0  0  0  0  0  0  0  0  0  0  0
  152.0197  138.9549  157.7227 C   0  0  0  0  0  0  0  0  0  0  0  0
  153.3297  139.3967  158.0308 O   0  0  0  0  0  0  0  0  0  0  0  0
  151.9169  137.4604  158.0968 C   0  0  0  0  0  0  0  0  0  0  0  0
  152.7714  136.5717  157.1754 C   0  0  0  0  0  0  0  0  0  0  0  0
  152.4115  136.7917  155.8170 O   0  0  0  0  0  0  0  0  0  0  0  0
  152.6614  138.1253  155.3904 C   0  0  0  0  0  0  0  0  0  0  0  0
  151.8018  139.1095  156.2041 C   0  0  0  0  0  0  0  0  0  0  0  0
  146.0428  139.8901  153.5223 H   0  0  0  0  0  0  0  0  0  0  0  0
  146.1952  141.4879  154.2473 H   0  0  0  0  0  0  0  0  0  0  0  0
  146.5940  140.0497  155.1875 H   0  0  0  0  0  0  0  0  0  0  0  0
  148.5084  139.5692  153.6293 H   0  0  0  0  0  0  0  0  0  0  0  0
  148.1113  140.9891  152.6924 H   0  0  0  0  0  0  0  0  0  0  0  0
  149.9501  141.5938  154.1329 H   0  0  0  0  0  0  0  0  0  0  0  0
  148.5333  142.4148  154.7469 H   0  0  0  0  0  0  0  0  0  0  0  0
  148.2347  140.6195  156.4714 H   0  0  0  0  0  0  0  0  0  0  0  0
  149.6636  139.8025  155.8830 H   0  0  0  0  0  0  0  0  0  0  0  0
  151.3232  145.5502  157.4432 H   0  0  0  0  0  0  0  0  0  0  0  0
  152.8759  145.7863  159.3882 H   0  0  0  0  0  0  0  0  0  0  0  0
  153.5178  143.8269  160.7426 H   0  0  0  0  0  0  0  0  0  0  0  0
  152.6479  141.5583  160.2164 H   0  0  0  0  0  0  0  0  0  0  0  0
  151.3245  139.9421  159.5457 H   0  0  0  0  0  0  0  0  0  0  0  0
  150.0390  139.3711  158.5378 H   0  0  0  0  0  0  0  0  0  0  0  0
  153.3923  139.5218  158.9656 H   0  0  0  0  0  0  0  0  0  0  0  0
  152.2054  137.2975  159.1357 H   0  0  0  0  0  0  0  0  0  0  0  0
  150.8789  137.1386  158.0095 H   0  0  0  0  0  0  0  0  0  0  0  0
  153.8360  136.7631  157.3182 H   0  0  0  0  0  0  0  0  0  0  0  0
  152.6063  135.5212  157.4148 H   0  0  0  0  0  0  0  0  0  0  0  0
  153.7234  138.3571  155.4855 H   0  0  0  0  0  0  0  0  0  0  0  0
  152.4161  138.2056  154.3313 H   0  0  0  0  0  0  0  0  0  0  0  0
  150.7528  138.9243  155.9699 H   0  0  0  0  0  0  0  0  0  0  0  0
  152.0077  140.1336  155.8896 H   0  0  0  0  0  0  0  0  0  0  0  0
  149.8228  143.5311  156.0476 H   0  0  0  0  0  0  0  0  0  0  0  0
  1  2  1  0  0  0  0
  1 22  1  0  0  0  0
  1 23  1  0  0  0  0
  1 24  1  0  0  0  0
  2  3  1  0  0  0  0
  2 25  1  0  0  0  0
  2 26  1  0  0  0  0
  3  4  1  0  0  0  0
  3 27  1  0  0  0  0
  3 28  1  0  0  0  0
  4  5  1  0  0  0  0
  4 29  1  0  0  0  0
  4 30  1  0  0  0  0
  5 13  1  0  0  0  0
  5  6  2  0  0  0  0
  6  7  1  0  0  0  0
  6 46  1  0  0  0  0
  7 12  2  0  0  0  0
  7  8  1  0  0  0  0
  8  9  2  0  0  0  0
  8 31  1  0  0  0  0
  9 10  1  0  0  0  0
  9 32  1  0  0  0  0
 10 11  2  0  0  0  0
 10 33  1  0  0  0  0
 11 12  1  0  0  0  0
 11 34  1  0  0  0  0
 12 13  1  0  0  0  0
 13 14  1  0  0  0  0
 14 15  1  0  0  0  0
 14 35  1  0  0  0  0
 14 36  1  0  0  0  0
 15 21  1  0  0  0  0
 15 16  1  0  0  0  0
 15 17  1  0  0  0  0
 16 37  1  0  0  0  0
 17 18  1  0  0  0  0
 17 38  1  0  0  0  0
 17 39  1  0  0  0  0
 18 19  1  0  0  0  0
 18 40  1  0  0  0  0
 18 41  1  0  0  0  0
 19 20  1  0  0  0  0
 20 21  1  0  0  0  0
 20 42  1  0  0  0  0
 20 43  1  0  0  0  0
 21 44  1  0  0  0  0
 21 45  1  0  0  0  0
M  CHG  1   6   1
M  END
> <s_m_source_file>
AV-unprocessed.smi

> <i_m_source_file_index>
2610

> <i_lp_mmshare_version>
43012

> <i_f3d_flags>
0

> <s_epik_input>
W0NIM11bQ0gyXVtDSDJdW0NIMl1jKG4xKW4oYyhjMTIpW2NIXVtjSF1bY0hdW2NIXTIpW0NIMl1DMyhbT0hdKVtDSDJdW0NIMl1PW0NIMl1bQ0gyXTM=

> <s_epik_cmdline>
J2VwaWtfcHl0aG9uJywgJy1waCcsICc3LjAnLCAnLXRuJywgJzgnLCAnLW1hJywgJzIwMCcsICctbWV0YWxfYmluZGluZycsICctaW1hZScsICc8aW5maWxlLm1hZT4nLCAnLW9tYWUnLCAnPG91dGZpbGUubWFlPic=

> <r_epik_Ionization_Penalty>
0.68424

> <r_epik_Ionization_Penalty_Charging>
0.68424

> <r_epik_Ionization_Penalty_Neutral>
5.75126e-08

> <r_epik_State_Penalty>
0.705545

> <r_epik_Charging_Adjusted_Penalty>
1.38978

> <i_epik_Tot_Q>
1

> <i_epik_Tot_abs_Q>
1

> <r_epik_Metal_State_Penalty>
4.58386

> <b_epik_Metal_Only>
0

> <s_lp_Force_Field>
OPLS_2005

> <r_lp_Energy>
18.9075

> <b_lp_Chiralities_Consistent>
1

> <s_lp_Variant>
AV-unprocessed.smi:2610-2

> <Gold.Version>
5.8.1

> <Gold.Id.Protein>
6NUR|6NUR_protein|mol2

> <Gold.PLP.Fitness>
52.6749

> <Gold.PLP.PLP>
-41.8934

> <Gold.PLP.part.hbond>
-2.7965

> <Gold.PLP.part.metal>
0.0000

> <Gold.PLP.part.buried>
-5.5403

> <Gold.PLP.part.nonpolar>
-35.0384

> <Gold.PLP.part.repulsive>
0.0563

> <Gold.PLP.ligand.clash>
0.0000

> <Gold.PLP.ligand.torsion>
0.8165

> <Gold.PLP.Chemscore.Hbond>
3.9920

> <Gold.PLP.Chemscore.CHOScore>
0.0000

> <Gold.PLP.Chemscore.Metal>
0.0000

> <Gold.Chemscore.Hbonds>
donor molecule, donor type, donor heavy atom, donor atom, acceptor molecule, acceptor atom, score
      L1  H     6    46       P1  8028  1.98
      P1  H  7997  8009       L1    16  1.00
      P1  H 10752 10764       L1    19  0.93

> <Gold.PLP.Chemscore.Internal.Correction>
0.4384

> <Gold.Rescore>
     Score         DG    S(hbond)    S(metal)    S(lipo)     H(rot)  DE(clash)    DE(int)     intcor
     22.83     -23.69       2.74        0.00     120.64       1.97       0.01       0.84       ----

> <Gold.Chemscore.Fitness>
22.8315

> <Gold.Chemscore.DG>
-23.6908

> <Gold.Chemscore.ZeroCoef>
-5.4800

> <Gold.Chemscore.Hbond>
2.7357

> <Gold.Chemscore.Metal>
0.0000

> <Gold.Chemscore.Lipo>
120.6438

> <Gold.Chemscore.Internal_Hbond>
0.0000

> <Gold.Chemscore.DEClash>
0.0147

> <Gold.Chemscore.DEInternal>
0.8446

> <Gold.Chemscore.Rot>
1.9694

> <Gold.Chemscore.Internal.Correction>
   9.000000E+99

> <Gold.Chemscore.Hbonds>
donor molecule, donor type, donor heavy atom, donor atom, acceptor molecule, acceptor atom, score
      L1  H     6    46       P1  8028  0.91
      P1  H  7997  8009       L1    16  0.94
      P1  H 10752 10764       L1    19  0.44

> <Gold.Chemscore.Hbond.Weighted>
-9.1372

> <Gold.Chemscore.Metal.Weighted>
-0.0000

> <Gold.Chemscore.Lipo.Weighted>
-14.1153

> <Gold.Chemscore.Internal_Hbond.Weighted>
0.0000

> <Gold.Chemscore.DEClash.Weighted>
0.0147

> <Gold.Chemscore.DEInternal.Weighted>
0.8446

> <Gold.Chemscore.Rot.Weighted>
5.0417

> <Gold.Chemscore.Internal.Correction.Weighted>
   9.000000E+99

> <Gold.Protein.RotatedTorsions>
[ 6907 6896 6895 6894 ] final   91.27 input  -60.11 | X-H torsion
[ 7974 7965 7964 7962 ] final  151.22 input  175.53 | X-H torsion
[ 8008 7997 7996 7995 ] final  151.73 input   59.86 | X-H torsion
[ 10167 10162 10161 10158 ] final   51.68 input  -65.29 | X-H torsion
[ 10718 10713 10712 10709 ] final  -76.78 input   66.30 | X-H torsion
[ 10763 10752 10751 10750 ] final  -35.13 input  -60.55 | X-H torsion
[ 11005 11000 10999 10996 ] final -129.33 input  -57.11 | X-H torsion

> <Gold.Protein.ActiveResidues>
 VAL166  LYS551  ARG553  GLY616  TRP617  ASP618  TYR619  PRO620  LYS621  CYS622 
 ASP623  PHE694  ASN695  SER759  ASP760  ASP761  ALA762  ILE779  LEU786  VAL792 
 PHE793  MET794  SER795  GLU796  ALA797  LYS798  CYS799  TRP800  GLU811  SER814 

> <Gold.Protein.RotatedAtoms>
  152.5449  134.1683  159.8585 H   0  0  0  0  0  0  0  0  0  0  0  0  # atno 6907 bound_to 6896
  151.1695  133.4786  159.2601 H   0  0  0  0  0  0  0  0  0  0  0  0  # atno 6908 bound_to 6896
  151.1289  135.0131  159.8628 H   0  0  0  0  0  0  0  0  0  0  0  0  # atno 6909 bound_to 6896
  144.8308  139.6510  143.6060 H   0  0  0  0  0  0  0  0  0  0  0  0  # atno 7974 bound_to 7965
  156.2661  140.2040  156.6222 H   0  0  0  0  0  0  0  0  0  0  0  0  # atno 8008 bound_to 7997
  154.6748  140.0546  157.0228 H   0  0  0  0  0  0  0  0  0  0  0  0  # atno 8009 bound_to 7997
  155.1085  140.3213  155.4531 H   0  0  0  0  0  0  0  0  0  0  0  0  # atno 8010 bound_to 7997
  140.2593  144.3391  150.6323 H   0  0  0  0  0  0  0  0  0  0  0  0  # atno 10167 bound_to 10162
  156.0164  130.4474  150.3246 H   0  0  0  0  0  0  0  0  0  0  0  0  # atno 10718 bound_to 10713
  153.8581  135.6842  153.4785 H   0  0  0  0  0  0  0  0  0  0  0  0  # atno 10763 bound_to 10752
  153.1358  135.4678  154.9417 H   0  0  0  0  0  0  0  0  0  0  0  0  # atno 10764 bound_to 10752
  154.7771  135.3257  154.8017 H   0  0  0  0  0  0  0  0  0  0  0  0  # atno 10765 bound_to 10752
  140.9440  134.1155  157.4124 H   0  0  0  0  0  0  0  0  0  0  0  0  # atno 11005 bound_to 11000
  146.2611  139.6412  142.9361 LP  0  0  0  0  0  0  0  0  0  0  0  0  # atno 17320 bound_to 7965
  145.4900  141.0438  143.2598 LP  0  0  0  0  0  0  0  0  0  0  0  0  # atno 17321 bound_to 7965
  140.5978  143.2167  151.7130 LP  0  0  0  0  0  0  0  0  0  0  0  0  # atno 17342 bound_to 10162
  139.5021  144.3840  152.0348 LP  0  0  0  0  0  0  0  0  0  0  0  0  # atno 17343 bound_to 10162
  157.1345  131.0280  151.2955 LP  0  0  0  0  0  0  0  0  0  0  0  0  # atno 17370 bound_to 10713
  157.4523  130.7605  149.7162 LP  0  0  0  0  0  0  0  0  0  0  0  0  # atno 17371 bound_to 10713
  139.8828  135.0045  156.6257 LP  0  0  0  0  0  0  0  0  0  0  0  0  # atno 17394 bound_to 11000
  140.7694  133.8750  155.8480 LP  0  0  0  0  0  0  0  0  0  0  0  0  # atno 17395 bound_to 11000

$$$$
