AV-unprocessed.smi:697|AV-procd|sdf|3389|dock3
  -GOLD-   22720 0373D 1   1.00000     0.00000
 Structure written by MMmdl.
 44 45  0  0  0  0  0  0  0  0  1 V2000
  151.1039  137.7281  159.0535 C   0  0  0  0  0  0  0  0  0  0  0  0
  150.5644  136.4661  158.6829 O   0  0  0  0  0  0  0  0  0  0  0  0
  149.1569  136.4255  158.4417 C   0  0  1  0  0  0  0  0  0  0  0  0
  148.3926  136.6576  159.7548 C   0  0  0  0  0  0  0  0  0  0  0  0
  148.7497  137.2612  157.2142 C   0  0  0  0  0  0  0  0  0  0  0  0
  147.8479  136.0909  156.8282 C   0  0  1  0  0  0  0  0  0  0  0  0
  147.7889  135.8768  155.3863 N   0  0  0  0  0  0  0  0  0  0  0  0
  146.6556  135.7017  154.6940 C   0  0  0  0  0  0  0  0  0  0  0  0
  145.5405  135.7107  155.2148 O   0  0  0  0  0  0  0  0  0  0  0  0
  146.9146  135.5369  153.3839 N   0  0  0  0  0  0  0  0  0  0  0  0
  146.0235  135.3117  152.3208 C   0  0  0  0  0  0  0  0  0  0  0  0
  145.8192  134.1116  151.7169 C   0  0  0  0  0  0  0  0  0  0  0  0
  144.8873  133.9520  150.6128 C   0  0  0  0  0  0  0  0  0  0  0  0
  144.6094  132.5908  149.9943 C   0  0  0  0  0  0  0  0  0  0  0  0
  143.9144  132.7068  148.8620 F   0  0  0  0  0  0  0  0  0  0  0  0
  145.7589  131.9784  149.7141 F   0  0  0  0  0  0  0  0  0  0  0  0
  143.9196  131.8159  150.8313 F   0  0  0  0  0  0  0  0  0  0  0  0
  144.2234  135.0558  150.2235 C   0  0  0  0  0  0  0  0  0  0  0  0
  144.4428  136.2970  150.8248 N   0  0  0  0  0  0  0  0  0  0  0  0
  145.3031  136.5051  151.8466 C   0  0  0  0  0  0  0  0  0  0  0  0
  145.4440  137.6323  152.3197 O   0  0  0  0  0  0  0  0  0  0  0  0
  148.8260  135.1582  157.5875 C   0  0  0  0  0  0  0  0  0  0  0  0
  149.9928  134.5637  156.7726 C   0  0  0  0  0  0  0  0  0  0  0  0
  148.1857  133.9767  158.3227 C   0  0  0  0  0  0  0  0  0  0  0  0
  143.9187  137.0808  150.4634 H   0  0  0  0  0  0  0  0  0  0  0  0
  152.1885  137.6447  159.1209 H   0  0  0  0  0  0  0  0  0  0  0  0
  150.7437  138.0546  160.0286 H   0  0  0  0  0  0  0  0  0  0  0  0
  150.8784  138.5009  158.3184 H   0  0  0  0  0  0  0  0  0  0  0  0
  147.3214  136.4971  159.6348 H   0  0  0  0  0  0  0  0  0  0  0  0
  148.5092  137.6777  160.1190 H   0  0  0  0  0  0  0  0  0  0  0  0
  148.7377  135.9834  160.5389 H   0  0  0  0  0  0  0  0  0  0  0  0
  148.2173  138.1842  157.4457 H   0  0  0  0  0  0  0  0  0  0  0  0
  149.5663  137.4373  156.5113 H   0  0  0  0  0  0  0  0  0  0  0  0
  146.8673  136.1616  157.3043 H   0  0  0  0  0  0  0  0  0  0  0  0
  148.6662  135.8614  154.8870 H   0  0  0  0  0  0  0  0  0  0  0  0
  147.8818  135.6205  153.1063 H   0  0  0  0  0  0  0  0  0  0  0  0
  146.3622  133.2341  152.0271 H   0  0  0  0  0  0  0  0  0  0  0  0
  143.4829  135.0746  149.4375 H   0  0  0  0  0  0  0  0  0  0  0  0
  149.6470  133.8106  156.0638 H   0  0  0  0  0  0  0  0  0  0  0  0
  150.7264  134.0824  157.4202 H   0  0  0  0  0  0  0  0  0  0  0  0
  150.5251  135.3213  156.1976 H   0  0  0  0  0  0  0  0  0  0  0  0
  147.9131  133.1766  157.6339 H   0  0  0  0  0  0  0  0  0  0  0  0
  147.2718  134.2647  158.8416 H   0  0  0  0  0  0  0  0  0  0  0  0
  148.8635  133.5551  159.0656 H   0  0  0  0  0  0  0  0  0  0  0  0
  1  2  1  0  0  0  0
  1 26  1  0  0  0  0
  1 27  1  0  0  0  0
  1 28  1  0  0  0  0
  2  3  1  0  0  0  0
  3 22  1  0  0  0  0
  3  4  1  0  0  0  0
  3  5  1  0  0  0  0
  4 29  1  0  0  0  0
  4 30  1  0  0  0  0
  4 31  1  0  0  0  0
  5  6  1  0  0  0  0
  5 32  1  0  0  0  0
  5 33  1  0  0  0  0
  6  7  1  0  0  0  0
  6 22  1  0  0  0  0
  6 34  1  0  0  0  0
  7  8  1  0  0  0  0
  7 35  1  0  0  0  0
  8  9  2  0  0  0  0
  8 10  1  0  0  0  0
 10 11  1  0  0  0  0
 10 36  1  0  0  0  0
 11 20  1  0  0  0  0
 11 12  2  0  0  0  0
 12 13  1  0  0  0  0
 12 37  1  0  0  0  0
 13 14  1  0  0  0  0
 13 18  2  0  0  0  0
 14 15  1  0  0  0  0
 14 16  1  0  0  0  0
 14 17  1  0  0  0  0
 18 19  1  0  0  0  0
 18 38  1  0  0  0  0
 19 25  1  0  0  0  0
 19 20  1  0  0  0  0
 20 21  2  0  0  0  0
 22 23  1  0  0  0  0
 22 24  1  0  0  0  0
 23 39  1  0  0  0  0
 23 40  1  0  0  0  0
 23 41  1  0  0  0  0
 24 42  1  0  0  0  0
 24 43  1  0  0  0  0
 24 44  1  0  0  0  0
M  END
> <s_m_source_file>
AV-unprocessed.smi

> <i_m_source_file_index>
697

> <i_lp_mmshare_version>
43012

> <i_f3d_flags>
0

> <s_epik_input>
W0NIM11PW0NAQF0xKFtDSDNdKVtDSDJdW0NASF0oQzEoW0NIM10pW0NIM10pW05IXUMoPU8pW05IXWMyW2NIXWMoQyhGKShGKUYpW2NIXVtuSF1jMj1P

> <s_epik_cmdline>
J2VwaWtfcHl0aG9uJywgJy1waCcsICc3LjAnLCAnLXRuJywgJzgnLCAnLW1hJywgJzIwMCcsICctbWV0YWxfYmluZGluZycsICctaW1hZScsICc8aW5maWxlLm1hZT4nLCAnLW9tYWUnLCAnPG91dGZpbGUubWFlPic=

> <r_lp_tautomer_probability>
1

> <r_epik_Ionization_Penalty>
0.0036482

> <r_epik_Ionization_Penalty_Charging>
0.00362828

> <r_epik_Ionization_Penalty_Neutral>
1.99208e-05

> <r_epik_State_Penalty>
-0

> <r_epik_Charging_Adjusted_Penalty>
0.00362828

> <i_epik_Tot_Q>
0

> <i_epik_Tot_abs_Q>
0

> <r_epik_Metal_State_Penalty>
0.369362

> <b_epik_Metal_Only>
0

> <s_lp_Force_Field>
OPLS_2005

> <r_lp_Energy>
34.4926

> <b_lp_Chiralities_Consistent>
1

> <s_lp_Variant>
AV-unprocessed.smi:697-1

> <Gold.Version>
5.8.1

> <Gold.Id.Protein>
6NUR|6NUR_protein|mol2

> <Gold.PLP.Fitness>
44.4088

> <Gold.PLP.PLP>
-35.7070

> <Gold.PLP.part.hbond>
-3.0000

> <Gold.PLP.part.metal>
0.0000

> <Gold.PLP.part.buried>
-4.9847

> <Gold.PLP.part.nonpolar>
-28.5833

> <Gold.PLP.part.repulsive>
0.3107

> <Gold.PLP.ligand.clash>
0.6318

> <Gold.PLP.ligand.torsion>
1.3544

> <Gold.PLP.Chemscore.Hbond>
2.8800

> <Gold.PLP.Chemscore.CHOScore>
1.0000

> <Gold.PLP.Chemscore.Metal>
0.0000

> <Gold.Chemscore.Hbonds>
donor molecule, donor type, donor heavy atom, donor atom, acceptor molecule, acceptor atom, score
      L1  H    10    36       P1  7948  0.90
      L1  H    19    25       P1 10171  1.00
      P1  H  6896  6907       L1     2  1.00
      L1  C    18    38       P1 10186  0.95

> <Gold.PLP.Chemscore.Internal.Correction>
0.4025

> <Gold.Rescore>
     Score         DG    S(hbond)    S(metal)    S(lipo)     H(rot)  DE(clash)    DE(int)     intcor
     15.20     -16.85       2.50        0.00      54.52       1.31       0.01       1.64       ----

> <Gold.Chemscore.Fitness>
15.2029

> <Gold.Chemscore.DG>
-16.8490

> <Gold.Chemscore.ZeroCoef>
-5.4800

> <Gold.Chemscore.Hbond>
2.4952

> <Gold.Chemscore.Metal>
0.0000

> <Gold.Chemscore.Lipo>
54.5203

> <Gold.Chemscore.Internal_Hbond>
0.0000

> <Gold.Chemscore.DEClash>
0.0068

> <Gold.Chemscore.DEInternal>
1.6393

> <Gold.Chemscore.Rot>
1.3062

> <Gold.Chemscore.Internal.Correction>
   9.000000E+99

> <Gold.Chemscore.Hbonds>
donor molecule, donor type, donor heavy atom, donor atom, acceptor molecule, acceptor atom, score
      L1  H    10    36       P1  7948  0.87
      L1  H    19    25       P1 10171  0.95
      P1  H  6896  6907       L1     2  0.58

> <Gold.Chemscore.Hbond.Weighted>
-8.3341

> <Gold.Chemscore.Metal.Weighted>
-0.0000

> <Gold.Chemscore.Lipo.Weighted>
-6.3789

> <Gold.Chemscore.Internal_Hbond.Weighted>
0.0000

> <Gold.Chemscore.DEClash.Weighted>
0.0068

> <Gold.Chemscore.DEInternal.Weighted>
1.6393

> <Gold.Chemscore.Rot.Weighted>
3.3440

> <Gold.Chemscore.Internal.Correction.Weighted>
   9.000000E+99

> <Gold.Protein.RotatedTorsions>
[ 6907 6896 6895 6894 ] final  -37.72 input  -60.11 | X-H torsion
[ 7974 7965 7964 7962 ] final  -81.39 input  175.53 | X-H torsion
[ 8008 7997 7996 7995 ] final  168.78 input   59.86 | X-H torsion
[ 10167 10162 10161 10158 ] final  120.98 input  -65.29 | X-H torsion
[ 10718 10713 10712 10709 ] final -166.94 input   66.30 | X-H torsion
[ 10763 10752 10751 10750 ] final  131.80 input  -60.55 | X-H torsion
[ 11005 11000 10999 10996 ] final -124.49 input  -57.11 | X-H torsion

> <Gold.Protein.ActiveResidues>
 VAL166  LYS551  ARG553  GLY616  TRP617  ASP618  TYR619  PRO620  LYS621  CYS622 
 ASP623  PHE694  ASN695  SER759  ASP760  ASP761  ALA762  ILE779  LEU786  VAL792 
 PHE793  MET794  SER795  GLU796  ALA797  LYS798  CYS799  TRP800  GLU811  SER814 

> <Gold.Protein.RotatedAtoms>
  151.0112  134.9398  159.8007 H   0  0  0  0  0  0  0  0  0  0  0  0  # atno 6907 bound_to 6896
  152.5303  134.3026  159.9094 H   0  0  0  0  0  0  0  0  0  0  0  0  # atno 6908 bound_to 6896
  151.3032  133.4071  159.2675 H   0  0  0  0  0  0  0  0  0  0  0  0  # atno 6909 bound_to 6896
  145.5472  140.9501  143.1518 H   0  0  0  0  0  0  0  0  0  0  0  0  # atno 7974 bound_to 7965
  156.1516  140.1581  156.8760 H   0  0  0  0  0  0  0  0  0  0  0  0  # atno 8008 bound_to 7997
  154.5077  140.0809  156.7963 H   0  0  0  0  0  0  0  0  0  0  0  0  # atno 8009 bound_to 7997
  155.3884  140.3408  155.4252 H   0  0  0  0  0  0  0  0  0  0  0  0  # atno 8010 bound_to 7997
  139.5948  144.7038  151.3203 H   0  0  0  0  0  0  0  0  0  0  0  0  # atno 10167 bound_to 10162
  156.6752  130.9100  151.3049 H   0  0  0  0  0  0  0  0  0  0  0  0  # atno 10718 bound_to 10713
  153.7802  135.3169  155.3365 H   0  0  0  0  0  0  0  0  0  0  0  0  # atno 10763 bound_to 10752
  154.8164  135.4633  154.0658 H   0  0  0  0  0  0  0  0  0  0  0  0  # atno 10764 bound_to 10752
  153.1945  135.6913  153.8396 H   0  0  0  0  0  0  0  0  0  0  0  0  # atno 10765 bound_to 10752
  140.9837  134.0637  157.3735 H   0  0  0  0  0  0  0  0  0  0  0  0  # atno 11005 bound_to 11000
  144.7547  139.7104  143.7259 LP  0  0  0  0  0  0  0  0  0  0  0  0  # atno 17320 bound_to 7965
  146.1941  139.5197  142.9786 LP  0  0  0  0  0  0  0  0  0  0  0  0  # atno 17321 bound_to 7965
  140.7202  143.7155  150.7736 LP  0  0  0  0  0  0  0  0  0  0  0  0  # atno 17342 bound_to 10162
  140.0719  143.5053  152.2575 LP  0  0  0  0  0  0  0  0  0  0  0  0  # atno 17343 bound_to 10162
  157.7063  130.9389  150.0942 LP  0  0  0  0  0  0  0  0  0  0  0  0  # atno 17370 bound_to 10713
  156.1909  130.3654  149.8912 LP  0  0  0  0  0  0  0  0  0  0  0  0  # atno 17371 bound_to 10713
  139.8961  135.0144  156.7035 LP  0  0  0  0  0  0  0  0  0  0  0  0  # atno 17394 bound_to 11000
  140.7147  133.9192  155.8107 LP  0  0  0  0  0  0  0  0  0  0  0  0  # atno 17395 bound_to 11000

$$$$
