AV-unprocessed.smi:1748|AV-procd|sdf|7039|dock3
  -GOLD-   22720 8253D 1   1.00000     0.00000
 Structure written by MMmdl.
 40 41  0  0  0  0  0  0  0  0  2 V2000
  145.9397  137.7789  152.0122 C   0  0  0  0  0  0  0  0  0  0  0  0
  146.0594  136.3061  152.0694 N   0  3  2  0  0  0  0  0  0  0  0  0
  145.6107  135.6541  150.8136 C   0  0  0  0  0  0  0  0  0  0  0  0
  145.8618  134.1375  150.8583 C   0  0  0  0  0  0  0  0  0  0  0  0
  145.1895  133.5025  152.0835 C   0  0  0  0  0  0  0  0  0  0  0  0
  145.6513  134.2123  153.3665 C   0  0  2  0  0  0  0  0  0  0  0  0
  144.9666  133.6443  154.5242 N   0  0  0  0  0  0  0  0  0  0  0  0
  145.3266  133.8337  155.8019 C   0  0  0  0  0  0  0  0  0  0  0  0
  146.2846  134.5318  156.1339 O   0  0  0  0  0  0  0  0  0  0  0  0
  144.4957  133.1854  156.6386 N   0  0  0  0  0  0  0  0  0  0  0  0
  144.5357  133.1042  158.0408 C   0  0  0  0  0  0  0  0  0  0  0  0
  145.6390  133.3340  158.7998 C   0  0  0  0  0  0  0  0  0  0  0  0
  145.6174  133.2170  160.2480 C   0  0  0  0  0  0  0  0  0  0  0  0
  146.8415  133.5500  161.0866 C   0  0  0  0  0  0  0  0  0  0  0  0
  146.5683  134.4814  162.0013 F   0  0  0  0  0  0  0  0  0  0  0  0
  147.2670  132.4573  161.7195 F   0  0  0  0  0  0  0  0  0  0  0  0
  147.8353  133.9961  160.3179 F   0  0  0  0  0  0  0  0  0  0  0  0
  144.4407  132.8755  160.8052 C   0  0  0  0  0  0  0  0  0  0  0  0
  143.3073  132.6169  160.0307 N   0  0  0  0  0  0  0  0  0  0  0  0
  143.2721  132.7046  158.6821 C   0  0  0  0  0  0  0  0  0  0  0  0
  142.2330  132.4601  158.0699 O   0  0  0  0  0  0  0  0  0  0  0  0
  145.3931  135.7308  153.2646 C   0  0  0  0  0  0  0  0  0  0  0  0
  142.4666  132.3502  160.5225 H   0  0  0  0  0  0  0  0  0  0  0  0
  144.8972  138.0831  151.9098 H   0  0  0  0  0  0  0  0  0  0  0  0
  146.4977  138.1781  151.1646 H   0  0  0  0  0  0  0  0  0  0  0  0
  146.3419  138.2339  152.9179 H   0  0  0  0  0  0  0  0  0  0  0  0
  144.5497  135.8548  150.6562 H   0  0  0  0  0  0  0  0  0  0  0  0
  146.1444  136.0862  149.9662 H   0  0  0  0  0  0  0  0  0  0  0  0
  145.4901  133.6707  149.9457 H   0  0  0  0  0  0  0  0  0  0  0  0
  146.9351  133.9446  150.8891 H   0  0  0  0  0  0  0  0  0  0  0  0
  144.1053  133.5756  151.9843 H   0  0  0  0  0  0  0  0  0  0  0  0
  145.4288  132.4394  152.1297 H   0  0  0  0  0  0  0  0  0  0  0  0
  146.7245  134.0434  153.4781 H   0  0  0  0  0  0  0  0  0  0  0  0
  144.1637  133.0602  154.3385 H   0  0  0  0  0  0  0  0  0  0  0  0
  143.7083  132.7153  156.2160 H   0  0  0  0  0  0  0  0  0  0  0  0
  146.5825  133.5903  158.3458 H   0  0  0  0  0  0  0  0  0  0  0  0
  144.2748  132.7786  161.8681 H   0  0  0  0  0  0  0  0  0  0  0  0
  145.7699  136.2317  154.1575 H   0  0  0  0  0  0  0  0  0  0  0  0
  144.3215  135.9326  153.2166 H   0  0  0  0  0  0  0  0  0  0  0  0
  147.0443  136.1027  152.1646 H   0  0  0  0  0  0  0  0  0  0  0  0
  1  2  1  0  0  0  0
  1 24  1  0  0  0  0
  1 25  1  0  0  0  0
  1 26  1  0  0  0  0
  2 22  1  0  0  0  0
  2  3  1  0  0  0  0
  2 40  1  0  0  0  0
  3  4  1  0  0  0  0
  3 27  1  0  0  0  0
  3 28  1  0  0  0  0
  4  5  1  0  0  0  0
  4 29  1  0  0  0  0
  4 30  1  0  0  0  0
  5  6  1  0  0  0  0
  5 31  1  0  0  0  0
  5 32  1  0  0  0  0
  6  7  1  0  0  0  0
  6 22  1  0  0  0  0
  6 33  1  0  0  0  0
  7  8  1  0  0  0  0
  7 34  1  0  0  0  0
  8  9  2  0  0  0  0
  8 10  1  0  0  0  0
 10 11  1  0  0  0  0
 10 35  1  0  0  0  0
 11 20  1  0  0  0  0
 11 12  2  0  0  0  0
 12 13  1  0  0  0  0
 12 36  1  0  0  0  0
 13 14  1  0  0  0  0
 13 18  2  0  0  0  0
 14 15  1  0  0  0  0
 14 16  1  0  0  0  0
 14 17  1  0  0  0  0
 18 19  1  0  0  0  0
 18 37  1  0  0  0  0
 19 23  1  0  0  0  0
 19 20  1  0  0  0  0
 20 21  2  0  0  0  0
 22 38  1  0  0  0  0
 22 39  1  0  0  0  0
M  CHG  1   2   1
M  END
> <s_m_source_file>
AV-unprocessed.smi

> <i_m_source_file_index>
1748

> <i_lp_mmshare_version>
43012

> <i_f3d_flags>
0

> <s_epik_input>
W0NIM11OMVtDSDJdW0NIMl1bQ0gyXVtDQEhdKFtDSDJdMSlbTkhdQyg9TylbTkhdYzJbY0hdYyhDKEYpKEYpRilbY0hdW25IXWMyPU8=

> <s_epik_cmdline>
J2VwaWtfcHl0aG9uJywgJy1waCcsICc3LjAnLCAnLXRuJywgJzgnLCAnLW1hJywgJzIwMCcsICctbWV0YWxfYmluZGluZycsICctaW1hZScsICc8aW5maWxlLm1hZT4nLCAnLW9tYWUnLCAnPG91dGZpbGUubWFlPic=

> <r_lp_tautomer_probability>
1

> <r_epik_Ionization_Penalty>
0.00746315

> <r_epik_Ionization_Penalty_Charging>
0.00744398

> <r_epik_Ionization_Penalty_Neutral>
1.91704e-05

> <r_epik_State_Penalty>
-0

> <r_epik_Charging_Adjusted_Penalty>
0.00744398

> <i_epik_Tot_Q>
1

> <i_epik_Tot_abs_Q>
1

> <r_epik_Metal_State_Penalty>
0.379332

> <b_epik_Metal_Only>
0

> <s_lp_Force_Field>
OPLS_2005

> <r_lp_Energy>
25.4307

> <b_lp_Chiralities_Consistent>
1

> <s_lp_Variant>
AV-unprocessed.smi:1748-4

> <Gold.Version>
5.8.1

> <Gold.Id.Protein>
6NUR|6NUR_protein|mol2

> <Gold.PLP.Fitness>
39.6722

> <Gold.PLP.PLP>
-25.3111

> <Gold.PLP.part.hbond>
-4.0000

> <Gold.PLP.part.metal>
0.0000

> <Gold.PLP.part.buried>
-2.8278

> <Gold.PLP.part.nonpolar>
-19.4073

> <Gold.PLP.part.repulsive>
0.2008

> <Gold.PLP.ligand.clash>
0.0000

> <Gold.PLP.ligand.torsion>
0.3343

> <Gold.PLP.Chemscore.Hbond>
5.0000

> <Gold.PLP.Chemscore.CHOScore>
0.0000

> <Gold.PLP.Chemscore.Metal>
0.0000

> <Gold.Chemscore.Hbonds>
donor molecule, donor type, donor heavy atom, donor atom, acceptor molecule, acceptor atom, score
      L1  H     2    40       P1  7948  2.00
      L1  H     7    34       P1 10957  1.00
      L1  H    10    35       P1 10957  1.00
      P1  H 11000 11005       L1    21  1.00

> <Gold.PLP.Chemscore.Internal.Correction>
0.0298

> <Gold.Rescore>
     Score         DG    S(hbond)    S(metal)    S(lipo)     H(rot)  DE(clash)    DE(int)     intcor
     19.67     -21.07       3.89        0.00      43.99       1.00       0.02       1.38       ----

> <Gold.Chemscore.Fitness>
19.6672

> <Gold.Chemscore.DG>
-21.0734

> <Gold.Chemscore.ZeroCoef>
-5.4800

> <Gold.Chemscore.Hbond>
3.8940

> <Gold.Chemscore.Metal>
0.0000

> <Gold.Chemscore.Lipo>
43.9938

> <Gold.Chemscore.Internal_Hbond>
0.0000

> <Gold.Chemscore.DEClash>
0.0215

> <Gold.Chemscore.DEInternal>
1.3847

> <Gold.Chemscore.Rot>
1.0000

> <Gold.Chemscore.Internal.Correction>
   9.000000E+99

> <Gold.Chemscore.Hbonds>
donor molecule, donor type, donor heavy atom, donor atom, acceptor molecule, acceptor atom, score
      L1  H     2    40       P1  7948  0.99
      L1  H     7    34       P1 10957  0.92
      L1  H    10    35       P1 10957  0.97
      P1  H 11000 11005       L1    21  0.93

> <Gold.Chemscore.Hbond.Weighted>
-13.0061

> <Gold.Chemscore.Metal.Weighted>
-0.0000

> <Gold.Chemscore.Lipo.Weighted>
-5.1473

> <Gold.Chemscore.Internal_Hbond.Weighted>
0.0000

> <Gold.Chemscore.DEClash.Weighted>
0.0215

> <Gold.Chemscore.DEInternal.Weighted>
1.3847

> <Gold.Chemscore.Rot.Weighted>
2.5600

> <Gold.Chemscore.Internal.Correction.Weighted>
   9.000000E+99

> <Gold.Protein.RotatedTorsions>
[ 6907 6896 6895 6894 ] final   46.55 input  -60.11 | X-H torsion
[ 7974 7965 7964 7962 ] final   62.64 input  175.53 | X-H torsion
[ 8008 7997 7996 7995 ] final  -94.81 input   59.86 | X-H torsion
[ 10167 10162 10161 10158 ] final   31.48 input  -65.29 | X-H torsion
[ 10718 10713 10712 10709 ] final   92.80 input   66.30 | X-H torsion
[ 10763 10752 10751 10750 ] final   28.41 input  -60.55 | X-H torsion
[ 11005 11000 10999 10996 ] final -101.04 input  -57.11 | X-H torsion

> <Gold.Protein.ActiveResidues>
 VAL166  LYS551  ARG553  GLY616  TRP617  ASP618  TYR619  PRO620  LYS621  CYS622 
 ASP623  PHE694  ASN695  SER759  ASP760  ASP761  ALA762  ILE779  LEU786  VAL792 
 PHE793  MET794  SER795  GLU796  ALA797  LYS798  CYS799  TRP800  GLU811  SER814 

> <Gold.Protein.RotatedAtoms>
  152.2578  134.8066  160.0435 H   0  0  0  0  0  0  0  0  0  0  0  0  # atno 6907 bound_to 6896
  151.8723  133.3473  159.3747 H   0  0  0  0  0  0  0  0  0  0  0  0  # atno 6908 bound_to 6896
  150.7106  134.5027  159.5613 H   0  0  0  0  0  0  0  0  0  0  0  0  # atno 6909 bound_to 6896
  145.8710  139.3378  143.0763 H   0  0  0  0  0  0  0  0  0  0  0  0  # atno 7974 bound_to 7965
  154.7532  140.0486  157.0911 H   0  0  0  0  0  0  0  0  0  0  0  0  # atno 8008 bound_to 7997
  155.0031  140.3127  155.4840 H   0  0  0  0  0  0  0  0  0  0  0  0  # atno 8009 bound_to 7997
  156.2889  140.2198  156.5142 H   0  0  0  0  0  0  0  0  0  0  0  0  # atno 8010 bound_to 7997
  140.4585  144.0942  150.6207 H   0  0  0  0  0  0  0  0  0  0  0  0  # atno 10167 bound_to 10162
  157.6957  131.0456  150.3937 H   0  0  0  0  0  0  0  0  0  0  0  0  # atno 10718 bound_to 10713
  153.0494  135.6514  154.0733 H   0  0  0  0  0  0  0  0  0  0  0  0  # atno 10763 bound_to 10752
  154.0425  135.2902  155.3354 H   0  0  0  0  0  0  0  0  0  0  0  0  # atno 10764 bound_to 10752
  154.6772  135.5333  153.8282 H   0  0  0  0  0  0  0  0  0  0  0  0  # atno 10765 bound_to 10752
  141.1247  133.8447  157.1181 H   0  0  0  0  0  0  0  0  0  0  0  0  # atno 11005 bound_to 11000
  145.9137  140.9163  143.0441 LP  0  0  0  0  0  0  0  0  0  0  0  0  # atno 17320 bound_to 7965
  144.6726  140.1195  143.7450 LP  0  0  0  0  0  0  0  0  0  0  0  0  # atno 17321 bound_to 7965
  140.4122  143.2651  151.9818 LP  0  0  0  0  0  0  0  0  0  0  0  0  # atno 17342 bound_to 10162
  139.4803  144.5905  151.7780 LP  0  0  0  0  0  0  0  0  0  0  0  0  # atno 17343 bound_to 10162
  156.4338  130.3977  149.6742 LP  0  0  0  0  0  0  0  0  0  0  0  0  # atno 17370 bound_to 10713
  156.3950  130.7646  151.2650 LP  0  0  0  0  0  0  0  0  0  0  0  0  # atno 17371 bound_to 10713
  140.0234  134.9935  157.0637 LP  0  0  0  0  0  0  0  0  0  0  0  0  # atno 17394 bound_to 11000
  140.4402  134.1689  155.7173 LP  0  0  0  0  0  0  0  0  0  0  0  0  # atno 17395 bound_to 11000

$$$$
