AV-unprocessed.smi:169|AV-procd|sdf|1399|dock3
  -GOLD-   2262019143D 1   1.00000     0.00000
 Structure written by MMmdl.
 56 60  0  0  0  0  0  0  0  0  2 V2000
  145.9679  143.0418  154.1963 C   0  0  0  0  0  0  0  0  0  0  0  0
  145.9307  141.8289  155.1436 C   0  0  0  0  0  0  0  0  0  0  0  0
  147.2728  141.3306  155.5456 N   0  3  1  0  0  0  0  0  0  0  0  0
  148.3214  141.5425  154.5163 C   0  0  0  0  0  0  0  0  0  0  0  0
  149.2749  140.3360  154.4307 C   0  0  0  0  0  0  0  0  0  0  0  0
  150.1179  140.0476  155.6910 C   0  0  1  0  0  0  0  0  0  0  0  0
  151.0312  141.2117  156.0917 C   0  0  0  0  0  0  0  0  0  0  0  0
  150.2325  141.9868  157.1459 C   0  0  0  0  0  0  0  0  0  0  0  0
  148.9872  141.1259  157.4424 C   0  0  1  0  0  0  0  0  0  0  0  0
  147.6665  141.7460  156.9202 C   0  0  0  0  0  0  0  0  0  0  0  0
  149.2728  139.8155  156.8609 N   0  0  0  0  0  0  0  0  0  0  0  0
  149.5827  138.8423  157.7575 C   0  0  0  0  0  0  0  0  0  0  0  0
  150.8409  138.7373  158.2611 N   0  0  0  0  0  0  0  0  0  0  0  0
  151.1329  137.7908  159.1578 C   0  0  0  0  0  0  0  0  0  0  0  0
  150.3312  136.8605  159.6788 N   0  0  0  0  0  0  0  0  0  0  0  0
  149.0692  136.9523  159.1716 C   0  0  0  0  0  0  0  0  0  0  0  0
  148.6147  137.9061  158.2177 C   0  0  0  0  0  0  0  0  0  0  0  0
  147.2695  137.6959  157.9395 N   0  0  0  0  0  0  0  0  0  0  0  0
  146.9445  136.6823  158.6947 C   0  0  0  0  0  0  0  0  0  0  0  0
  147.9667  136.1662  159.4603 N   0  0  0  0  0  0  0  0  0  0  0  0
  147.8766  135.0453  160.3849 C   0  0  0  0  0  0  0  0  0  0  0  0
  146.8405  135.2283  161.5117 C   0  0  0  0  0  0  0  0  0  0  0  0
  146.8606  136.6981  161.9806 C   0  0  0  0  0  0  0  0  0  0  0  0
  148.0373  137.0240  162.6935 O   0  0  0  0  0  0  0  0  0  0  0  0
  145.4509  134.6232  161.2638 C   0  0  0  0  0  0  0  0  0  0  0  0
  145.4920  133.8774  162.5004 O   0  0  0  0  0  0  0  0  0  0  0  0
  146.9028  134.1633  162.6170 C   0  0  0  0  0  0  0  0  0  0  0  0
  144.9566  143.3239  153.9023 H   0  0  0  0  0  0  0  0  0  0  0  0
  146.5225  142.8285  153.2826 H   0  0  0  0  0  0  0  0  0  0  0  0
  146.4184  143.9145  154.6681 H   0  0  0  0  0  0  0  0  0  0  0  0
  145.3609  142.0812  156.0388 H   0  0  0  0  0  0  0  0  0  0  0  0
  145.3863  141.0135  154.6658 H   0  0  0  0  0  0  0  0  0  0  0  0
  147.8524  141.6492  153.5372 H   0  0  0  0  0  0  0  0  0  0  0  0
  148.8561  142.4763  154.6917 H   0  0  0  0  0  0  0  0  0  0  0  0
  148.6965  139.4451  154.1825 H   0  0  0  0  0  0  0  0  0  0  0  0
  149.9516  140.4877  153.5891 H   0  0  0  0  0  0  0  0  0  0  0  0
  150.7308  139.1762  155.4583 H   0  0  0  0  0  0  0  0  0  0  0  0
  151.9438  140.8218  156.5446 H   0  0  0  0  0  0  0  0  0  0  0  0
  151.3277  141.8314  155.2450 H   0  0  0  0  0  0  0  0  0  0  0  0
  150.8346  142.1115  158.0469 H   0  0  0  0  0  0  0  0  0  0  0  0
  149.9738  142.9865  156.7960 H   0  0  0  0  0  0  0  0  0  0  0  0
  148.9038  141.0609  158.5285 H   0  0  0  0  0  0  0  0  0  0  0  0
  147.7012  142.8317  157.0075 H   0  0  0  0  0  0  0  0  0  0  0  0
  146.8660  141.4210  157.5861 H   0  0  0  0  0  0  0  0  0  0  0  0
  152.1542  137.7786  159.5094 H   0  0  0  0  0  0  0  0  0  0  0  0
  145.9440  136.2747  158.7094 H   0  0  0  0  0  0  0  0  0  0  0  0
  147.6552  134.1505  159.8015 H   0  0  0  0  0  0  0  0  0  0  0  0
  148.8671  134.8784  160.8098 H   0  0  0  0  0  0  0  0  0  0  0  0
  146.7794  137.3778  161.1319 H   0  0  0  0  0  0  0  0  0  0  0  0
  146.0197  136.9111  162.6409 H   0  0  0  0  0  0  0  0  0  0  0  0
  147.8433  137.0131  163.6184 H   0  0  0  0  0  0  0  0  0  0  0  0
  144.6424  135.3543  161.2389 H   0  0  0  0  0  0  0  0  0  0  0  0
  145.3991  133.9574  160.4018 H   0  0  0  0  0  0  0  0  0  0  0  0
  147.5111  133.2945  162.3608 H   0  0  0  0  0  0  0  0  0  0  0  0
  147.1757  134.5463  163.6008 H   0  0  0  0  0  0  0  0  0  0  0  0
  147.1629  140.3276  155.5955 H   0  0  0  0  0  0  0  0  0  0  0  0
  1  2  1  0  0  0  0
  1 28  1  0  0  0  0
  1 29  1  0  0  0  0
  1 30  1  0  0  0  0
  2  3  1  0  0  0  0
  2 31  1  0  0  0  0
  2 32  1  0  0  0  0
  3 10  1  0  0  0  0
  3  4  1  0  0  0  0
  3 56  1  0  0  0  0
  4  5  1  0  0  0  0
  4 33  1  0  0  0  0
  4 34  1  0  0  0  0
  5  6  1  0  0  0  0
  5 35  1  0  0  0  0
  5 36  1  0  0  0  0
  6 11  1  0  0  0  0
  6  7  1  0  0  0  0
  6 37  1  0  0  0  0
  7  8  1  0  0  0  0
  7 38  1  0  0  0  0
  7 39  1  0  0  0  0
  8  9  1  0  0  0  0
  8 40  1  0  0  0  0
  8 41  1  0  0  0  0
  9 10  1  0  0  0  0
  9 11  1  0  0  0  0
  9 42  1  0  0  0  0
 10 43  1  0  0  0  0
 10 44  1  0  0  0  0
 11 12  1  0  0  0  0
 12 17  1  0  0  0  0
 12 13  2  0  0  0  0
 13 14  1  0  0  0  0
 14 15  2  0  0  0  0
 14 45  1  0  0  0  0
 15 16  1  0  0  0  0
 16 20  1  0  0  0  0
 16 17  2  0  0  0  0
 17 18  1  0  0  0  0
 18 19  2  0  0  0  0
 19 20  1  0  0  0  0
 19 46  1  0  0  0  0
 20 21  1  0  0  0  0
 21 22  1  0  0  0  0
 21 47  1  0  0  0  0
 21 48  1  0  0  0  0
 22 27  1  0  0  0  0
 22 23  1  0  0  0  0
 22 25  1  0  0  0  0
 23 24  1  0  0  0  0
 23 49  1  0  0  0  0
 23 50  1  0  0  0  0
 24 51  1  0  0  0  0
 25 26  1  0  0  0  0
 25 52  1  0  0  0  0
 25 53  1  0  0  0  0
 26 27  1  0  0  0  0
 27 54  1  0  0  0  0
 27 55  1  0  0  0  0
M  CHG  1   3   1
M  END
> <s_m_source_file>
AV-unprocessed.smi

> <i_m_source_file_index>
169

> <i_lp_mmshare_version>
43012

> <i_f3d_flags>
0

> <s_epik_input>
W0NASF0xMltDSDJdW0NIMl1OKFtDSDJdW0NIM10pW0NIMl1bQ0BIXShbQ0gyXVtDSDJdMSlOMmMobltjSF1uMyljKGMzNCluW2NIXW40W0NIMl1DNShbQ0gyXVtPSF0pW0NIMl1PW0NIMl01

> <s_epik_cmdline>
J2VwaWtfcHl0aG9uJywgJy1waCcsICc3LjAnLCAnLXRuJywgJzgnLCAnLW1hJywgJzIwMCcsICctbWV0YWxfYmluZGluZycsICctaW1hZScsICc8aW5maWxlLm1hZT4nLCAnLW9tYWUnLCAnPG91dGZpbGUubWFlPic=

> <r_lp_tautomer_probability>
1

> <r_epik_Ionization_Penalty>
0.00274162

> <r_epik_Ionization_Penalty_Charging>
0.00243722

> <r_epik_Ionization_Penalty_Neutral>
0.000304399

> <r_epik_State_Penalty>
-0

> <r_epik_Charging_Adjusted_Penalty>
0.00243722

> <i_epik_Tot_Q>
1

> <i_epik_Tot_abs_Q>
1

> <r_epik_Metal_State_Penalty>
-0

> <b_epik_Metal_Only>
0

> <s_lp_Force_Field>
OPLS_2005

> <r_lp_Energy>
78.3459

> <b_lp_Chiralities_Consistent>
1

> <s_lp_Variant>
AV-unprocessed.smi:169-2

> <Gold.Version>
5.8.1

> <Gold.Id.Protein>
6NUR|6NUR_protein|mol2

> <Gold.PLP.Fitness>
47.4502

> <Gold.PLP.PLP>
-44.4241

> <Gold.PLP.part.hbond>
-1.8866

> <Gold.PLP.part.metal>
0.0000

> <Gold.PLP.part.buried>
-6.1081

> <Gold.PLP.part.nonpolar>
-35.4506

> <Gold.PLP.part.repulsive>
0.0413

> <Gold.PLP.ligand.clash>
0.0000

> <Gold.PLP.ligand.torsion>
1.4473

> <Gold.PLP.Chemscore.Hbond>
1.8000

> <Gold.PLP.Chemscore.CHOScore>
0.0000

> <Gold.PLP.Chemscore.Metal>
0.0000

> <Gold.Chemscore.Hbonds>
donor molecule, donor type, donor heavy atom, donor atom, acceptor molecule, acceptor atom, score
      P1  H  6896  6907       L1    15  1.00
      P1  H  6931  6943       L1    24  0.91

> <Gold.PLP.Chemscore.Internal.Correction>
0.5208

> <Gold.Rescore>
     Score         DG    S(hbond)    S(metal)    S(lipo)     H(rot)  DE(clash)    DE(int)     intcor
     13.90     -15.18       1.92        0.00      85.37       2.62       0.06       1.22       ----

> <Gold.Chemscore.Fitness>
13.8967

> <Gold.Chemscore.DG>
-15.1784

> <Gold.Chemscore.ZeroCoef>
-5.4800

> <Gold.Chemscore.Hbond>
1.9221

> <Gold.Chemscore.Metal>
0.0000

> <Gold.Chemscore.Lipo>
85.3745

> <Gold.Chemscore.Internal_Hbond>
0.0000

> <Gold.Chemscore.DEClash>
0.0575

> <Gold.Chemscore.DEInternal>
1.2242

> <Gold.Chemscore.Rot>
2.6212

> <Gold.Chemscore.Internal.Correction>
   9.000000E+99

> <Gold.Chemscore.Hbonds>
donor molecule, donor type, donor heavy atom, donor atom, acceptor molecule, acceptor atom, score
      P1  H  6896  6907       L1    15  0.83
      P1  H  6931  6943       L1    24  0.79

> <Gold.Chemscore.Hbond.Weighted>
-6.4198

> <Gold.Chemscore.Metal.Weighted>
-0.0000

> <Gold.Chemscore.Lipo.Weighted>
-9.9888

> <Gold.Chemscore.Internal_Hbond.Weighted>
0.0000

> <Gold.Chemscore.DEClash.Weighted>
0.0575

> <Gold.Chemscore.DEInternal.Weighted>
1.2242

> <Gold.Chemscore.Rot.Weighted>
6.7102

> <Gold.Chemscore.Internal.Correction.Weighted>
   9.000000E+99

> <Gold.Protein.RotatedTorsions>
[ 6907 6896 6895 6894 ] final  -19.20 input  -60.11 | X-H torsion
[ 7974 7965 7964 7962 ] final  -89.93 input  175.53 | X-H torsion
[ 8008 7997 7996 7995 ] final -151.45 input   59.86 | X-H torsion
[ 10167 10162 10161 10158 ] final -128.27 input  -65.29 | X-H torsion
[ 10718 10713 10712 10709 ] final -103.85 input   66.30 | X-H torsion
[ 10763 10752 10751 10750 ] final  -32.75 input  -60.55 | X-H torsion
[ 11005 11000 10999 10996 ] final -127.95 input  -57.11 | X-H torsion

> <Gold.Protein.ActiveResidues>
 VAL166  LYS551  ARG553  GLY616  TRP617  ASP618  TYR619  PRO620  LYS621  CYS622 
 ASP623  PHE694  ASN695  SER759  ASP760  ASP761  ALA762  ILE779  LEU786  VAL792 
 PHE793  MET794  SER795  GLU796  ALA797  LYS798  CYS799  TRP800  GLU811  SER814 

> <Gold.Protein.RotatedAtoms>
  151.2667  135.0671  159.9118 H   0  0  0  0  0  0  0  0  0  0  0  0  # atno 6907 bound_to 6896
  152.5357  134.0173  159.7976 H   0  0  0  0  0  0  0  0  0  0  0  0  # atno 6908 bound_to 6896
  151.0405  133.5660  159.2682 H   0  0  0  0  0  0  0  0  0  0  0  0  # atno 6909 bound_to 6896
  145.4332  140.9556  143.2116 H   0  0  0  0  0  0  0  0  0  0  0  0  # atno 7974 bound_to 7965
  155.6395  140.0700  157.2623 H   0  0  0  0  0  0  0  0  0  0  0  0  # atno 8008 bound_to 7997
  154.4187  140.1753  156.1608 H   0  0  0  0  0  0  0  0  0  0  0  0  # atno 8009 bound_to 7997
  155.9867  140.3349  155.6717 H   0  0  0  0  0  0  0  0  0  0  0  0  # atno 8010 bound_to 7997
  139.9521  143.6044  152.2472 H   0  0  0  0  0  0  0  0  0  0  0  0  # atno 10167 bound_to 10162
  156.0281  130.5487  150.7312 H   0  0  0  0  0  0  0  0  0  0  0  0  # atno 10718 bound_to 10713
  153.8188  135.6876  153.4830 H   0  0  0  0  0  0  0  0  0  0  0  0  # atno 10763 bound_to 10752
  153.1582  135.4590  154.9732 H   0  0  0  0  0  0  0  0  0  0  0  0  # atno 10764 bound_to 10752
  154.7936  135.3311  154.7662 H   0  0  0  0  0  0  0  0  0  0  0  0  # atno 10765 bound_to 10752
  140.9556  134.1006  157.4019 H   0  0  0  0  0  0  0  0  0  0  0  0  # atno 11005 bound_to 11000
  144.8169  139.5861  143.7004 LP  0  0  0  0  0  0  0  0  0  0  0  0  # atno 17320 bound_to 7965
  146.2596  139.6379  142.9371 LP  0  0  0  0  0  0  0  0  0  0  0  0  # atno 17321 bound_to 7965
  139.6620  144.7662  151.1944 LP  0  0  0  0  0  0  0  0  0  0  0  0  # atno 17342 bound_to 10162
  140.7580  143.5995  150.8714 LP  0  0  0  0  0  0  0  0  0  0  0  0  # atno 17343 bound_to 10162
  157.4904  131.0910  151.0433 LP  0  0  0  0  0  0  0  0  0  0  0  0  # atno 17370 bound_to 10713
  157.0841  130.5915  149.5426 LP  0  0  0  0  0  0  0  0  0  0  0  0  # atno 17371 bound_to 10713
  139.8861  135.0078  156.6478 LP  0  0  0  0  0  0  0  0  0  0  0  0  # atno 17394 bound_to 11000
  140.7540  133.8873  155.8368 LP  0  0  0  0  0  0  0  0  0  0  0  0  # atno 17395 bound_to 11000

$$$$
