#       Name:                AV-unprocessed.smi:609
#       Creating user name   scv26
#       Creation time:       Thu Mar 26 23:56:37 2020


#       File generated by GOLD software.
#

@<TRIPOS>MOLECULE
AV-unprocessed.smi:609
    46    48     1
SMALL
NO_CHARGES


@<TRIPOS>ATOM
      1 ****        -4.0608   2.9182  -0.6590 C.3            1 S1                 0.0000
      2 ****        -3.3193   1.7942   0.0429 C.ar           1 S1                 0.0000
      3 ****        -3.0372   1.9139   1.4224 C.ar           1 S1                 0.0000
      4 ****        -2.3515   0.8909   2.1131 C.ar           1 S1                 0.0000
      5 ****        -1.9711   0.8011   3.4411 N.2            1 S1                 0.0000
      6 ****        -1.3657  -0.3828   3.4679 C.2            1 S1                 0.0000
      7 ****        -1.3052  -1.0699   2.3112 N.pl3          1 S1                 0.0000
      8 ****        -0.6890  -2.3671   2.0980 C.3            1 S1                 0.0000
      9 ****         0.8257  -2.2708   1.8264 C.3            1 S1                 0.0000
     10 ****         1.3097  -3.5808   1.6116 O.3            1 S1                 0.0000
     11 ****         1.1818  -1.3912   0.6126 C.3            1 S1                 0.0000
     12 ****         2.9723  -1.2506   0.3532 S.3            1 S1                 0.0000
     13 ****         3.1588  -0.1554  -1.0208 C.2            1 S1                 0.0000
     14 ****         2.1650   0.4461  -1.6822 N.pl3          1 S1                 1.0000
     15 ****         2.6785   1.2236  -2.6854 C.2            1 S1                 0.0000
     16 ****         4.0430   1.0854  -2.6276 C.2            1 S1                 0.0000
     17 ****         4.3099   0.2286  -1.5898 N.pl3          1 S1                 0.0000
     18 ****         5.6251  -0.2249  -1.1351 C.3            1 S1                 0.0000
     19 ****        -1.9532  -0.2647   1.3801 C.ar           1 S1                 0.0000
     20 ****        -2.2284  -0.3959   0.0072 C.ar           1 S1                 0.0000
     21 ****        -2.9133   0.6361  -0.6677 C.ar           1 S1                 0.0000
     22 ****        -3.2065   0.4851  -2.1497 C.3            1 S1                 0.0000
     23 ****        -4.3223   3.7172   0.0353 H              1 S1                 0.0000
     24 ****        -4.9848   2.5478  -1.1037 H              1 S1                 0.0000
     25 ****        -3.4441   3.3487  -1.4482 H              1 S1                 0.0000
     26 ****        -3.3463   2.7959   1.9639 H              1 S1                 0.0000
     27 ****        -0.9366  -0.7717   4.3799 H              1 S1                 0.0000
     28 ****        -0.8764  -2.9835   2.9785 H              1 S1                 0.0000
     29 ****        -1.1950  -2.8560   1.2644 H              1 S1                 0.0000
     30 ****         1.3200  -1.8723   2.7134 H              1 S1                 0.0000
     31 ****         2.2487  -3.5415   1.5106 H              1 S1                 0.0000
     32 ****         0.7209  -1.7866  -0.2934 H              1 S1                 0.0000
     33 ****         0.7980  -0.3809   0.7524 H              1 S1                 0.0000
     34 ****         2.0514   1.8019  -3.3482 H              1 S1                 0.0000
     35 ****         4.8231   1.5234  -3.2334 H              1 S1                 0.0000
     36 ****         6.4022   0.2366  -1.7449 H              1 S1                 0.0000
     37 ****         5.6860  -1.3093  -1.2310 H              1 S1                 0.0000
     38 ****         5.7651   0.0629  -0.0928 H              1 S1                 0.0000
     39 ****        -1.9143  -1.2836  -0.5215 H              1 S1                 0.0000
     40 ****        -2.8174  -0.4563  -2.5389 H              1 S1                 0.0000
     41 ****        -2.7480   1.2963  -2.7153 H              1 S1                 0.0000
     42 ****        -4.2817   0.5016  -2.3294 H              1 S1                 0.0000
     43 ****         1.1811   0.3410  -1.4700 H              1 S1                 0.0000
     44 ****        -2.1139   1.4544   4.1846 LP             1 S1                 0.0000
     45 ****         0.8972  -3.9612   0.7839 LP             1 S1                 0.0000
     46 ****         1.0787  -4.1582   2.3947 LP             1 S1                 0.0000
@<TRIPOS>BOND
    1    1    2 1     
    2    1   23 1     
    3    1   24 1     
    4    1   25 1     
    5    2   21 ar    
    6    2    3 ar    
    7    3    4 ar    
    8    3   26 1     
    9    4   19 ar    
   10    4    5 1     
   11    5    6 2     
   12    6    7 1     
   13    6   27 1     
   14    7    8 1     
   15    7   19 1     
   16    8    9 1     
   17    8   28 1     
   18    8   29 1     
   19    9   10 1     
   20    9   11 1     
   21    9   30 1     
   22   10   31 1     
   23   11   12 1     
   24   11   32 1     
   25   11   33 1     
   26   12   13 1     
   27   13   17 1     
   28   13   14 2     
   29   14   15 1     
   30   14   43 1     
   31   15   16 2     
   32   15   34 1     
   33   16   17 1     
   34   16   35 1     
   35   17   18 1     
   36   18   36 1     
   37   18   37 1     
   38   18   38 1     
   39   19   20 ar    
   40   20   21 ar    
   41   20   39 1     
   42   21   22 1     
   43   22   40 1     
   44   22   41 1     
   45   22   42 1     
   46    5   44 1     
   47   10   45 1     
   48   10   46 1     
@<TRIPOS>SUBSTRUCTURE
      1 S1             1
@<TRIPOS>SET
LONE_PAIRS      STATIC     ATOMS    <user>   **** ""
3 44 45 46
DONOR_HYDROGENS      STATIC     ATOMS    <user>   **** ""
2 31 43
ATOM$BLUE        STATIC     ATOMS    COLORGROUP SYSTEM
3 44 45 46
ATOM$RED        STATIC     ATOMS    COLORGROUP SYSTEM
2 31 43
