AV-unprocessed.smi:910|AV-procd|sdf|4126|dock9
  -GOLD-   22720 2 33D 1   1.00000     0.00000
 Structure written by MMmdl.
 46 47  0  0  0  0  0  0  0  0  1 V2000
  144.6708  134.9063  152.3881 C   0  0  0  0  0  0  0  0  0  0  0  0
  145.9375  134.1013  152.5768 C   0  0  0  0  0  0  0  0  0  0  0  0
  146.8246  134.3714  153.5810 N   0  0  0  0  0  0  0  0  0  0  0  0
  147.8809  133.4684  153.4831 C   0  0  0  0  0  0  0  0  0  0  0  0
  148.9672  133.3149  154.1757 N   0  0  0  0  0  0  0  0  0  0  0  0
  149.1654  134.1849  155.2317 C   0  0  0  0  0  0  0  0  0  0  0  0
  149.1931  133.8857  156.4291 O   0  0  0  0  0  0  0  0  0  0  0  0
  149.2475  135.4553  154.8050 N   0  0  0  0  0  0  0  0  0  0  0  0
  149.3602  136.6276  155.6674 C   0  0  0  0  0  0  0  0  0  0  0  0
  150.1897  137.7350  155.0026 C   0  0  0  0  0  0  0  0  0  0  0  0
  149.6422  138.9989  155.3420 O   0  0  0  0  0  0  0  0  0  0  0  0
  150.3898  140.1135  154.8734 C   0  0  2  0  0  0  0  0  0  0  0  0
  151.7186  140.1863  155.6512 C   0  0  0  0  0  0  0  0  0  0  0  0
  151.4851  140.4591  157.1474 C   0  0  0  0  0  0  0  0  0  0  0  0
  150.6401  141.7246  157.3616 C   0  0  0  0  0  0  0  0  0  0  0  0
  149.3134  141.6510  156.5885 C   0  0  0  0  0  0  0  0  0  0  0  0
  149.5525  141.3932  155.0876 C   0  0  2  0  0  0  0  0  0  0  0  0
  148.2418  141.3617  154.2865 C   0  0  0  0  0  0  0  0  0  0  0  0
  147.5960  132.6583  152.4133 O   0  0  0  0  0  0  0  0  0  0  0  0
  146.4101  133.0693  151.8824 C   0  0  0  0  0  0  0  0  0  0  0  0
  145.8602  132.3393  150.6780 C   0  0  0  0  0  0  0  0  0  0  0  0
  143.7984  134.2557  152.4521 H   0  0  0  0  0  0  0  0  0  0  0  0
  144.6721  135.3882  151.4102 H   0  0  0  0  0  0  0  0  0  0  0  0
  144.5807  135.6787  153.1520 H   0  0  0  0  0  0  0  0  0  0  0  0
  146.7017  135.1177  154.2503 H   0  0  0  0  0  0  0  0  0  0  0  0
  149.1976  135.6234  153.8107 H   0  0  0  0  0  0  0  0  0  0  0  0
  148.3754  137.0063  155.9460 H   0  0  0  0  0  0  0  0  0  0  0  0
  149.8423  136.3190  156.5951 H   0  0  0  0  0  0  0  0  0  0  0  0
  151.2245  137.6664  155.3404 H   0  0  0  0  0  0  0  0  0  0  0  0
  150.1901  137.6116  153.9185 H   0  0  0  0  0  0  0  0  0  0  0  0
  150.5963  140.0119  153.8061 H   0  0  0  0  0  0  0  0  0  0  0  0
  152.2844  139.2627  155.5267 H   0  0  0  0  0  0  0  0  0  0  0  0
  152.3379  140.9806  155.2328 H   0  0  0  0  0  0  0  0  0  0  0  0
  150.9822  139.6043  157.6015 H   0  0  0  0  0  0  0  0  0  0  0  0
  152.4419  140.5606  157.6601 H   0  0  0  0  0  0  0  0  0  0  0  0
  150.4430  141.8643  158.4249 H   0  0  0  0  0  0  0  0  0  0  0  0
  151.2040  142.5990  157.0345 H   0  0  0  0  0  0  0  0  0  0  0  0
  148.6892  140.8613  157.0086 H   0  0  0  0  0  0  0  0  0  0  0  0
  148.7636  142.5827  156.7233 H   0  0  0  0  0  0  0  0  0  0  0  0
  150.1344  142.2327  154.7040 H   0  0  0  0  0  0  0  0  0  0  0  0
  147.6167  140.5172  154.5741 H   0  0  0  0  0  0  0  0  0  0  0  0
  148.4398  141.2739  153.2181 H   0  0  0  0  0  0  0  0  0  0  0  0
  147.6633  142.2728  154.4410 H   0  0  0  0  0  0  0  0  0  0  0  0
  145.0690  131.6540  150.9821 H   0  0  0  0  0  0  0  0  0  0  0  0
  146.6464  131.7651  150.1875 H   0  0  0  0  0  0  0  0  0  0  0  0
  145.4490  133.0469  149.9581 H   0  0  0  0  0  0  0  0  0  0  0  0
  1 22  1  0  0  0  0
  1 23  1  0  0  0  0
  1 24  1  0  0  0  0
  1  2  1  0  0  0  0
  2  3  1  0  0  0  0
  2 20  2  0  0  0  0
  3 25  1  0  0  0  0
  3  4  1  0  0  0  0
  4 19  1  0  0  0  0
  4  5  2  0  0  0  0
  5  6  1  0  0  0  0
  6  8  1  0  0  0  0
  6  7  2  0  0  0  0
  8  9  1  0  0  0  0
  8 26  1  0  0  0  0
  9 10  1  0  0  0  0
  9 27  1  0  0  0  0
  9 28  1  0  0  0  0
 10 11  1  0  0  0  0
 10 29  1  0  0  0  0
 10 30  1  0  0  0  0
 11 12  1  0  0  0  0
 12 17  1  0  0  0  0
 12 13  1  0  0  0  0
 12 31  1  0  0  0  0
 13 14  1  0  0  0  0
 13 32  1  0  0  0  0
 13 33  1  0  0  0  0
 14 15  1  0  0  0  0
 14 34  1  0  0  0  0
 14 35  1  0  0  0  0
 15 16  1  0  0  0  0
 15 36  1  0  0  0  0
 15 37  1  0  0  0  0
 16 17  1  0  0  0  0
 16 38  1  0  0  0  0
 16 39  1  0  0  0  0
 17 18  1  0  0  0  0
 17 40  1  0  0  0  0
 18 41  1  0  0  0  0
 18 42  1  0  0  0  0
 18 43  1  0  0  0  0
 19 20  1  0  0  0  0
 20 21  1  0  0  0  0
 21 44  1  0  0  0  0
 21 45  1  0  0  0  0
 21 46  1  0  0  0  0
M  END
> <s_m_source_file>
AV-unprocessed.smi

> <i_m_source_file_index>
910

> <i_lp_mmshare_version>
43012

> <i_f3d_flags>
0

> <s_epik_input>
W0NIM11jMW5jKG9jMVtDSDNdKVtOSF1DKD1PKVtOSF1bQ0gyXVtDSDJdT1tDQEBIXTJbQ0gyXVtDSDJdW0NIMl1bQ0gyXVtDQEhdMltDSDNd

> <s_epik_cmdline>
J2VwaWtfcHl0aG9uJywgJy1waCcsICc3LjAnLCAnLXRuJywgJzgnLCAnLW1hJywgJzIwMCcsICctbWV0YWxfYmluZGluZycsICctaW1hZScsICc8aW5maWxlLm1hZT4nLCAnLW9tYWUnLCAnPG91dGZpbGUubWFlPic=

> <r_lp_tautomer_probability>
0.107061

> <r_epik_Ionization_Penalty>
0.727192

> <r_epik_Ionization_Penalty_Charging>
0.726719

> <r_epik_Ionization_Penalty_Neutral>
0.000473387

> <r_epik_State_Penalty>
2.53712

> <r_epik_Charging_Adjusted_Penalty>
3.26383

> <i_epik_Tot_Q>
0

> <i_epik_Tot_abs_Q>
0

> <r_epik_Metal_State_Penalty>
3.71015

> <b_epik_Metal_Only>
0

> <s_lp_Force_Field>
OPLS_2005

> <r_lp_Energy>
29.7751

> <b_lp_Chiralities_Consistent>
1

> <s_lp_Variant>
AV-unprocessed.smi:910-11

> <Gold.Version>
5.8.1

> <Gold.Id.Protein>
6NUR|6NUR_protein|mol2

> <Gold.PLP.Fitness>
33.9401

> <Gold.PLP.PLP>
-33.0870

> <Gold.PLP.part.hbond>
-2.0000

> <Gold.PLP.part.metal>
0.0000

> <Gold.PLP.part.buried>
-2.8779

> <Gold.PLP.part.nonpolar>
-29.6831

> <Gold.PLP.part.repulsive>
1.9327

> <Gold.PLP.ligand.clash>
0.0000

> <Gold.PLP.ligand.torsion>
1.0908

> <Gold.PLP.Chemscore.Hbond>
1.0000

> <Gold.PLP.Chemscore.CHOScore>
0.0000

> <Gold.PLP.Chemscore.Metal>
0.0000

> <Gold.Chemscore.Hbonds>
donor molecule, donor type, donor heavy atom, donor atom, acceptor molecule, acceptor atom, score
      L1  H     8    26       P1  7948  1.00

> <Gold.PLP.Chemscore.Internal.Correction>
0.0348

> <Gold.Rescore>
     Score         DG    S(hbond)    S(metal)    S(lipo)     H(rot)  DE(clash)    DE(int)     intcor
     12.09     -13.21       0.96        0.00      74.93       1.66       0.04       1.09       ----

> <Gold.Chemscore.Fitness>
12.0860

> <Gold.Chemscore.DG>
-13.2129

> <Gold.Chemscore.ZeroCoef>
-5.4800

> <Gold.Chemscore.Hbond>
0.9611

> <Gold.Chemscore.Metal>
0.0000

> <Gold.Chemscore.Lipo>
74.9258

> <Gold.Chemscore.Internal_Hbond>
0.0000

> <Gold.Chemscore.DEClash>
0.0362

> <Gold.Chemscore.DEInternal>
1.0907

> <Gold.Chemscore.Rot>
1.6576

> <Gold.Chemscore.Internal.Correction>
   9.000000E+99

> <Gold.Chemscore.Hbonds>
donor molecule, donor type, donor heavy atom, donor atom, acceptor molecule, acceptor atom, score
      L1  H     8    26       P1  7948  0.65

> <Gold.Chemscore.Hbond.Weighted>
-3.2101

> <Gold.Chemscore.Metal.Weighted>
-0.0000

> <Gold.Chemscore.Lipo.Weighted>
-8.7663

> <Gold.Chemscore.Internal_Hbond.Weighted>
0.0000

> <Gold.Chemscore.DEClash.Weighted>
0.0362

> <Gold.Chemscore.DEInternal.Weighted>
1.0907

> <Gold.Chemscore.Rot.Weighted>
4.2436

> <Gold.Chemscore.Internal.Correction.Weighted>
   9.000000E+99

> <Gold.Protein.RotatedTorsions>
[ 6907 6896 6895 6894 ] final  102.28 input  -60.11 | X-H torsion
[ 7974 7965 7964 7962 ] final  -74.41 input  175.53 | X-H torsion
[ 8008 7997 7996 7995 ] final  -54.09 input   59.86 | X-H torsion
[ 10167 10162 10161 10158 ] final  103.91 input  -65.29 | X-H torsion
[ 10718 10713 10712 10709 ] final  127.21 input   66.30 | X-H torsion
[ 10763 10752 10751 10750 ] final  -34.11 input  -60.55 | X-H torsion
[ 11005 11000 10999 10996 ] final  -47.48 input  -57.11 | X-H torsion

> <Gold.Protein.ActiveResidues>
 VAL166  LYS551  ARG553  GLY616  TRP617  ASP618  TYR619  PRO620  LYS621  CYS622 
 ASP623  PHE694  ASN695  SER759  ASP760  ASP761  ALA762  ILE779  LEU786  VAL792 
 PHE793  MET794  SER795  GLU796  ALA797  LYS798  CYS799  TRP800  GLU811  SER814 

> <Gold.Protein.RotatedAtoms>
  152.5328  133.9999  159.7889 H   0  0  0  0  0  0  0  0  0  0  0  0  # atno 6907 bound_to 6896
  151.0219  133.5861  159.2677 H   0  0  0  0  0  0  0  0  0  0  0  0  # atno 6908 bound_to 6896
  151.2897  135.0745  159.9253 H   0  0  0  0  0  0  0  0  0  0  0  0  # atno 6909 bound_to 6896
  145.6394  140.9315  143.1044 H   0  0  0  0  0  0  0  0  0  0  0  0  # atno 7974 bound_to 7965
  154.4152  140.1184  156.5259 H   0  0  0  0  0  0  0  0  0  0  0  0  # atno 8008 bound_to 7997
  155.6655  140.3496  155.4779 H   0  0  0  0  0  0  0  0  0  0  0  0  # atno 8009 bound_to 7997
  155.9677  140.1135  157.0830 H   0  0  0  0  0  0  0  0  0  0  0  0  # atno 8010 bound_to 7997
  139.7222  144.7055  151.0854 H   0  0  0  0  0  0  0  0  0  0  0  0  # atno 10167 bound_to 10162
  157.5353  131.1098  150.8946 H   0  0  0  0  0  0  0  0  0  0  0  0  # atno 10718 bound_to 10713
  153.8414  135.6857  153.4802 H   0  0  0  0  0  0  0  0  0  0  0  0  # atno 10763 bound_to 10752
  153.1451  135.4641  154.9553 H   0  0  0  0  0  0  0  0  0  0  0  0  # atno 10764 bound_to 10752
  154.7843  135.3279  154.7867 H   0  0  0  0  0  0  0  0  0  0  0  0  # atno 10765 bound_to 10752
  141.0643  133.6699  156.3303 H   0  0  0  0  0  0  0  0  0  0  0  0  # atno 11005 bound_to 11000
  144.7163  139.8185  143.7397 LP  0  0  0  0  0  0  0  0  0  0  0  0  # atno 17320 bound_to 7965
  146.1293  139.4325  143.0179 LP  0  0  0  0  0  0  0  0  0  0  0  0  # atno 17321 bound_to 7965
  140.7756  143.5151  150.9605 LP  0  0  0  0  0  0  0  0  0  0  0  0  # atno 17342 bound_to 10162
  139.8838  143.7038  152.3154 LP  0  0  0  0  0  0  0  0  0  0  0  0  # atno 17343 bound_to 10162
  156.9515  130.5421  149.5282 LP  0  0  0  0  0  0  0  0  0  0  0  0  # atno 17370 bound_to 10713
  156.0453  130.5531  150.8867 LP  0  0  0  0  0  0  0  0  0  0  0  0  # atno 17371 bound_to 10713
  140.5805  134.5750  157.5478 LP  0  0  0  0  0  0  0  0  0  0  0  0  # atno 17394 bound_to 11000
  139.9461  134.7699  156.0558 LP  0  0  0  0  0  0  0  0  0  0  0  0  # atno 17395 bound_to 11000

$$$$
