AV-unprocessed.smi:2083|AV-procd|sdf|8507|dock3
  -GOLD-   2272011223D 1   1.00000     0.00000
 Structure written by MMmdl.
 44 45  0  0  0  0  0  0  0  0  3 V2000
  153.3942  142.2422  161.0428 C   0  0  0  0  0  0  0  0  0  0  0  0
  153.1029  141.4285  159.8288 C   0  0  0  0  0  0  0  0  0  0  0  0
  152.1874  141.5550  158.8226 C   0  0  0  0  0  0  0  0  0  0  0  0
  152.4622  140.4341  157.9949 C   0  0  0  0  0  0  0  0  0  0  0  0
  151.7061  140.2035  156.8154 N   0  0  0  0  0  0  0  0  0  0  0  0
  152.1036  139.6566  155.6520 C   0  0  0  0  0  0  0  0  0  0  0  0
  153.2705  139.2727  155.5081 O   0  0  0  0  0  0  0  0  0  0  0  0
  151.0948  139.6023  154.7398 N   0  5  0  0  0  0  0  0  0  0  0  0
  150.6409  138.3801  154.0783 C   0  0  0  0  0  0  0  0  0  0  0  0
  149.2964  137.8884  154.7049 C   0  0  1  0  0  0  0  0  0  0  0  0
  148.0756  138.7424  154.2862 C   0  0  0  0  0  0  0  0  0  0  0  0
  148.9883  136.4284  154.5197 N   0  3  1  0  0  0  0  0  0  0  0  0
  149.9711  135.4450  155.0653 C   0  0  0  0  0  0  0  0  0  0  0  0
  149.7029  134.0429  154.4971 C   0  0  0  0  0  0  0  0  0  0  0  0
  148.2613  133.6006  154.7821 C   0  0  0  0  0  0  0  0  0  0  0  0
  147.2632  134.6390  154.2405 C   0  0  1  0  0  0  0  0  0  0  0  0
  145.8130  134.2271  154.5307 C   0  0  0  0  0  0  0  0  0  0  0  0
  147.5800  136.0351  154.8136 C   0  0  0  0  0  0  0  0  0  0  0  0
  153.4567  139.6900  158.4562 N   0  0  0  0  0  0  0  0  0  0  0  0
  153.8720  140.3233  159.6336 O   0  0  0  0  0  0  0  0  0  0  0  0
  152.9164  143.2199  160.9798 H   0  0  0  0  0  0  0  0  0  0  0  0
  154.4671  142.3976  161.1575 H   0  0  0  0  0  0  0  0  0  0  0  0
  153.0261  141.7424  161.9388 H   0  0  0  0  0  0  0  0  0  0  0  0
  151.4414  142.3262  158.6998 H   0  0  0  0  0  0  0  0  0  0  0  0
  150.7405  140.4935  156.8542 H   0  0  0  0  0  0  0  0  0  0  0  0
  150.5012  138.5194  153.0054 H   0  0  0  0  0  0  0  0  0  0  0  0
  151.3851  137.5894  154.1767 H   0  0  0  0  0  0  0  0  0  0  0  0
  149.3840  138.0245  155.7842 H   0  0  0  0  0  0  0  0  0  0  0  0
  148.1723  139.7811  154.6078 H   0  0  0  0  0  0  0  0  0  0  0  0
  147.1642  138.3607  154.7469 H   0  0  0  0  0  0  0  0  0  0  0  0
  147.9133  138.7516  153.2072 H   0  0  0  0  0  0  0  0  0  0  0  0
  150.9892  135.7391  154.8125 H   0  0  0  0  0  0  0  0  0  0  0  0
  149.9112  135.4109  156.1542 H   0  0  0  0  0  0  0  0  0  0  0  0
  149.8815  134.0432  153.4211 H   0  0  0  0  0  0  0  0  0  0  0  0
  150.4041  133.3271  154.9270 H   0  0  0  0  0  0  0  0  0  0  0  0
  148.0771  132.6259  154.3290 H   0  0  0  0  0  0  0  0  0  0  0  0
  148.1223  133.4760  155.8571 H   0  0  0  0  0  0  0  0  0  0  0  0
  147.3801  134.6854  153.1565 H   0  0  0  0  0  0  0  0  0  0  0  0
  145.6249  134.1664  155.6032 H   0  0  0  0  0  0  0  0  0  0  0  0
  145.5876  133.2518  154.0980 H   0  0  0  0  0  0  0  0  0  0  0  0
  145.1084  134.9443  154.1088 H   0  0  0  0  0  0  0  0  0  0  0  0
  147.4059  136.0423  155.8905 H   0  0  0  0  0  0  0  0  0  0  0  0
  146.8959  136.7643  154.3775 H   0  0  0  0  0  0  0  0  0  0  0  0
  149.0590  136.3137  153.5193 H   0  0  0  0  0  0  0  0  0  0  0  0
  1  2  1  0  0  0  0
  1 21  1  0  0  0  0
  1 22  1  0  0  0  0
  1 23  1  0  0  0  0
  2 20  1  0  0  0  0
  2  3  2  0  0  0  0
  3  4  1  0  0  0  0
  3 24  1  0  0  0  0
  4  5  1  0  0  0  0
  4 19  2  0  0  0  0
  5  6  1  0  0  0  0
  5 25  1  0  0  0  0
  6  7  2  0  0  0  0
  6  8  1  0  0  0  0
  8  9  1  0  0  0  0
  9 10  1  0  0  0  0
  9 26  1  0  0  0  0
  9 27  1  0  0  0  0
 10 11  1  0  0  0  0
 10 12  1  0  0  0  0
 10 28  1  0  0  0  0
 11 29  1  0  0  0  0
 11 30  1  0  0  0  0
 11 31  1  0  0  0  0
 12 18  1  0  0  0  0
 12 13  1  0  0  0  0
 12 44  1  0  0  0  0
 13 14  1  0  0  0  0
 13 32  1  0  0  0  0
 13 33  1  0  0  0  0
 14 15  1  0  0  0  0
 14 34  1  0  0  0  0
 14 35  1  0  0  0  0
 15 16  1  0  0  0  0
 15 36  1  0  0  0  0
 15 37  1  0  0  0  0
 16 17  1  0  0  0  0
 16 18  1  0  0  0  0
 16 38  1  0  0  0  0
 17 39  1  0  0  0  0
 17 40  1  0  0  0  0
 17 41  1  0  0  0  0
 18 42  1  0  0  0  0
 18 43  1  0  0  0  0
 19 20  1  0  0  0  0
M  CHG  1   8  -1
M  CHG  1  12   1
M  END
> <s_m_source_file>
AV-unprocessed.smi

> <i_m_source_file_index>
2083

> <i_lp_mmshare_version>
43012

> <i_f3d_flags>
0

> <s_epik_input>
W0NIM11jMVtjSF1jKG5vMSlbTkhdQyg9TylbTkhdW0NIMl1bQ0BIXShbQ0gzXSlOMltDSDJdW0NIMl1bQ0gyXVtDQEBIXShbQ0gzXSlbQ0gyXTI=

> <s_epik_cmdline>
J2VwaWtfcHl0aG9uJywgJy1waCcsICc3LjAnLCAnLXRuJywgJzgnLCAnLW1hJywgJzIwMCcsICctbWV0YWxfYmluZGluZycsICctaW1hZScsICc8aW5maWxlLm1hZT4nLCAnLW9tYWUnLCAnPG91dGZpbGUubWFlPic=

> <r_epik_Ionization_Penalty>
6.76934

> <r_epik_Ionization_Penalty_Charging>
6.76934

> <r_epik_Ionization_Penalty_Neutral>
5.77849e-06

> <r_epik_State_Penalty>
6.79457

> <r_epik_Charging_Adjusted_Penalty>
13.5639

> <i_epik_Tot_Q>
0

> <i_epik_Tot_abs_Q>
2

> <r_epik_Metal_State_Penalty>
2.72837

> <b_epik_Metal_Only>
1

> <s_lp_Force_Field>
OPLS_2005

> <r_lp_Energy>
21.1768

> <b_lp_Chiralities_Consistent>
1

> <s_lp_Variant>
AV-unprocessed.smi:2083-18

> <Gold.Version>
5.8.1

> <Gold.Id.Protein>
6NUR|6NUR_protein|mol2

> <Gold.PLP.Fitness>
43.2320

> <Gold.PLP.PLP>
-31.7724

> <Gold.PLP.part.hbond>
-3.8208

> <Gold.PLP.part.metal>
0.0000

> <Gold.PLP.part.buried>
-4.2334

> <Gold.PLP.part.nonpolar>
-23.0382

> <Gold.PLP.part.repulsive>
0.1841

> <Gold.PLP.ligand.clash>
0.0000

> <Gold.PLP.ligand.torsion>
1.2158

> <Gold.PLP.Chemscore.Hbond>
4.5520

> <Gold.PLP.Chemscore.CHOScore>
0.0000

> <Gold.PLP.Chemscore.Metal>
0.0000

> <Gold.Chemscore.Hbonds>
donor molecule, donor type, donor heavy atom, donor atom, acceptor molecule, acceptor atom, score
      L1  H    12    44       P1  7948  2.00
      P1  H  7989  7998       L1     8  1.00
      P1  H  7997  8009       L1    19  0.68
      P1  H  7997  8010       L1     7  0.83

> <Gold.PLP.Chemscore.Internal.Correction>
0.2352

> <Gold.Rescore>
     Score         DG    S(hbond)    S(metal)    S(lipo)     H(rot)  DE(clash)    DE(int)     intcor
     15.17     -17.45       2.33        0.00      69.18       1.52       0.02       2.26       ----

> <Gold.Chemscore.Fitness>
15.1664

> <Gold.Chemscore.DG>
-17.4510

> <Gold.Chemscore.ZeroCoef>
-5.4800

> <Gold.Chemscore.Hbond>
2.3251

> <Gold.Chemscore.Metal>
0.0000

> <Gold.Chemscore.Lipo>
69.1773

> <Gold.Chemscore.Internal_Hbond>
0.0000

> <Gold.Chemscore.DEClash>
0.0202

> <Gold.Chemscore.DEInternal>
2.2643

> <Gold.Chemscore.Rot>
1.5190

> <Gold.Chemscore.Internal.Correction>
   9.000000E+99

> <Gold.Chemscore.Hbonds>
donor molecule, donor type, donor heavy atom, donor atom, acceptor molecule, acceptor atom, score
      L1  H    12    44       P1  7948  0.98
      P1  H  7989  7998       L1     8  0.27
      P1  H  7997  8009       L1    19  0.10
      P1  H  7997  8010       L1     7  0.81

> <Gold.Chemscore.Hbond.Weighted>
-7.7659

> <Gold.Chemscore.Metal.Weighted>
-0.0000

> <Gold.Chemscore.Lipo.Weighted>
-8.0937

> <Gold.Chemscore.Internal_Hbond.Weighted>
0.0000

> <Gold.Chemscore.DEClash.Weighted>
0.0202

> <Gold.Chemscore.DEInternal.Weighted>
2.2643

> <Gold.Chemscore.Rot.Weighted>
3.8886

> <Gold.Chemscore.Internal.Correction.Weighted>
   9.000000E+99

> <Gold.Protein.RotatedTorsions>
[ 6907 6896 6895 6894 ] final   -8.72 input  -60.11 | X-H torsion
[ 7974 7965 7964 7962 ] final   53.33 input  175.53 | X-H torsion
[ 8008 7997 7996 7995 ] final  119.41 input   59.86 | X-H torsion
[ 10167 10162 10161 10158 ] final -160.09 input  -65.29 | X-H torsion
[ 10718 10713 10712 10709 ] final   92.30 input   66.30 | X-H torsion
[ 10763 10752 10751 10750 ] final   75.18 input  -60.55 | X-H torsion
[ 11005 11000 10999 10996 ] final   78.21 input  -57.11 | X-H torsion

> <Gold.Protein.ActiveResidues>
 VAL166  LYS551  ARG553  GLY616  TRP617  ASP618  TYR619  PRO620  LYS621  CYS622 
 ASP623  PHE694  ASN695  SER759  ASP760  ASP761  ALA762  ILE779  LEU786  VAL792 
 PHE793  MET794  SER795  GLU796  ALA797  LYS798  CYS799  TRP800  GLU811  SER814 

> <Gold.Protein.RotatedAtoms>
  151.4292  135.1007  159.9636 H   0  0  0  0  0  0  0  0  0  0  0  0  # atno 6907 bound_to 6896
  152.4962  133.8633  159.7272 H   0  0  0  0  0  0  0  0  0  0  0  0  # atno 6908 bound_to 6896
  150.9167  133.6872  159.2869 H   0  0  0  0  0  0  0  0  0  0  0  0  # atno 6909 bound_to 6896
  145.9722  139.4160  143.0183 H   0  0  0  0  0  0  0  0  0  0  0  0  # atno 7974 bound_to 7965
  156.2594  140.2853  156.0987 H   0  0  0  0  0  0  0  0  0  0  0  0  # atno 8008 bound_to 7997
  155.1384  140.0395  157.2810 H   0  0  0  0  0  0  0  0  0  0  0  0  # atno 8009 bound_to 7997
  154.6548  140.2553  155.7180 H   0  0  0  0  0  0  0  0  0  0  0  0  # atno 8010 bound_to 7997
  139.6566  143.9988  152.2197 H   0  0  0  0  0  0  0  0  0  0  0  0  # atno 10167 bound_to 10162
  157.6959  131.0438  150.3860 H   0  0  0  0  0  0  0  0  0  0  0  0  # atno 10718 bound_to 10713
  153.0637  135.4998  154.8152 H   0  0  0  0  0  0  0  0  0  0  0  0  # atno 10763 bound_to 10752
  154.6921  135.2986  154.9466 H   0  0  0  0  0  0  0  0  0  0  0  0  # atno 10764 bound_to 10752
  154.0217  135.6741  153.4826 H   0  0  0  0  0  0  0  0  0  0  0  0  # atno 10765 bound_to 10752
  139.9222  134.7745  156.1621 H   0  0  0  0  0  0  0  0  0  0  0  0  # atno 11005 bound_to 11000
  145.7889  140.9823  143.1059 LP  0  0  0  0  0  0  0  0  0  0  0  0  # atno 17320 bound_to 7965
  144.6840  139.9658  143.7481 LP  0  0  0  0  0  0  0  0  0  0  0  0  # atno 17321 bound_to 7965
  139.9716  144.6489  150.7983 LP  0  0  0  0  0  0  0  0  0  0  0  0  # atno 17342 bound_to 10162
  140.7561  143.3060  151.2960 LP  0  0  0  0  0  0  0  0  0  0  0  0  # atno 17343 bound_to 10162
  156.4269  130.3964  149.6787 LP  0  0  0  0  0  0  0  0  0  0  0  0  # atno 17370 bound_to 10713
  156.4018  130.7678  151.2686 LP  0  0  0  0  0  0  0  0  0  0  0  0  # atno 17371 bound_to 10713
  141.0752  133.6779  156.2221 LP  0  0  0  0  0  0  0  0  0  0  0  0  # atno 17394 bound_to 11000
  140.6441  134.5135  157.5572 LP  0  0  0  0  0  0  0  0  0  0  0  0  # atno 17395 bound_to 11000

$$$$
