AV-unprocessed.smi:3348|AV-procd|sdf|12919|dock8
  -GOLD-   2272019343D 1   1.00000     0.00000
 Structure written by MMmdl.
 47 48  0  0  0  0  0  0  0  0  2 V2000
  144.1207  136.3607  152.0178 C   0  0  0  0  0  0  0  0  0  0  0  0
  145.5712  136.0260  151.6293 C   0  0  2  0  0  0  0  0  0  0  0  0
  145.9139  134.5306  151.8236 C   0  0  0  0  0  0  0  0  0  0  0  0
  145.2444  133.6680  150.8659 N   0  0  0  0  0  0  0  0  0  0  0  0
  145.8051  132.7514  150.0015 C   0  0  0  0  0  0  0  0  0  0  0  0
  144.7847  132.1811  149.2959 C   0  0  0  0  0  0  0  0  0  0  0  0
  143.6209  132.8190  149.8090 C   0  0  0  0  0  0  0  0  0  0  0  0
  143.8993  133.7078  150.7493 N   0  0  0  0  0  0  0  0  0  0  0  0
  146.4904  136.8909  152.4022 N   0  3  0  0  0  0  0  0  0  0  0  0
  146.2293  138.3437  152.3132 C   0  0  0  0  0  0  0  0  0  0  0  0
  147.3760  139.1407  152.9424 C   0  0  0  0  0  0  0  0  0  0  0  0
  146.8413  140.3321  153.4977 O   0  0  0  0  0  0  0  0  0  0  0  0
  147.7792  141.3932  153.6443 C   0  0  2  0  0  0  0  0  0  0  0  0
  149.0740  140.8811  154.3102 C   0  0  0  0  0  0  0  0  0  0  0  0
  148.8259  140.4125  155.7534 C   0  0  0  0  0  0  0  0  0  0  0  0
  148.1749  141.5213  156.5940 C   0  0  0  0  0  0  0  0  0  0  0  0
  146.8803  142.0305  155.9405 C   0  0  0  0  0  0  0  0  0  0  0  0
  147.1256  142.5056  154.4943 C   0  0  2  0  0  0  0  0  0  0  0  0
  145.8419  143.0472  153.8452 C   0  0  0  0  0  0  0  0  0  0  0  0
  143.4027  135.8295  151.3923 H   0  0  0  0  0  0  0  0  0  0  0  0
  143.9185  137.4260  151.9015 H   0  0  0  0  0  0  0  0  0  0  0  0
  143.9173  136.0951  153.0561 H   0  0  0  0  0  0  0  0  0  0  0  0
  145.6875  136.2770  150.5739 H   0  0  0  0  0  0  0  0  0  0  0  0
  146.9859  134.3622  151.7206 H   0  0  0  0  0  0  0  0  0  0  0  0
  145.6459  134.2104  152.8322 H   0  0  0  0  0  0  0  0  0  0  0  0
  146.8714  132.5846  149.9592 H   0  0  0  0  0  0  0  0  0  0  0  0
  144.8573  131.4224  148.5308 H   0  0  0  0  0  0  0  0  0  0  0  0
  142.5896  132.6632  149.5279 H   0  0  0  0  0  0  0  0  0  0  0  0
  146.4068  136.6302  153.3743 H   0  0  0  0  0  0  0  0  0  0  0  0
  146.0974  138.6461  151.2744 H   0  0  0  0  0  0  0  0  0  0  0  0
  145.3005  138.5715  152.8376 H   0  0  0  0  0  0  0  0  0  0  0  0
  147.8545  138.5436  153.7185 H   0  0  0  0  0  0  0  0  0  0  0  0
  148.1329  139.3699  152.1906 H   0  0  0  0  0  0  0  0  0  0  0  0
  148.0189  141.8122  152.6651 H   0  0  0  0  0  0  0  0  0  0  0  0
  149.5187  140.0741  153.7287 H   0  0  0  0  0  0  0  0  0  0  0  0
  149.8123  141.6838  154.3193 H   0  0  0  0  0  0  0  0  0  0  0  0
  148.1834  139.5311  155.7486 H   0  0  0  0  0  0  0  0  0  0  0  0
  149.7670  140.1051  156.2101 H   0  0  0  0  0  0  0  0  0  0  0  0
  147.9637  141.1518  157.5980 H   0  0  0  0  0  0  0  0  0  0  0  0
  148.8752  142.3492  156.7113 H   0  0  0  0  0  0  0  0  0  0  0  0
  146.1311  141.2377  155.9495 H   0  0  0  0  0  0  0  0  0  0  0  0
  146.4694  142.8469  156.5356 H   0  0  0  0  0  0  0  0  0  0  0  0
  147.8313  143.3366  154.5404 H   0  0  0  0  0  0  0  0  0  0  0  0
  145.0687  142.2807  153.7862 H   0  0  0  0  0  0  0  0  0  0  0  0
  146.0340  143.4052  152.8334 H   0  0  0  0  0  0  0  0  0  0  0  0
  145.4363  143.8816  154.4178 H   0  0  0  0  0  0  0  0  0  0  0  0
  147.4390  136.7091  152.1057 H   0  0  0  0  0  0  0  0  0  0  0  0
  1  2  1  0  0  0  0
  1 20  1  0  0  0  0
  1 21  1  0  0  0  0
  1 22  1  0  0  0  0
  2  3  1  0  0  0  0
  2  9  1  0  0  0  0
  2 23  1  0  0  0  0
  3  4  1  0  0  0  0
  3 24  1  0  0  0  0
  3 25  1  0  0  0  0
  4  8  1  0  0  0  0
  4  5  1  0  0  0  0
  5  6  2  0  0  0  0
  5 26  1  0  0  0  0
  6  7  1  0  0  0  0
  6 27  1  0  0  0  0
  7  8  2  0  0  0  0
  7 28  1  0  0  0  0
  9 10  1  0  0  0  0
  9 29  1  0  0  0  0
  9 47  1  0  0  0  0
 10 11  1  0  0  0  0
 10 30  1  0  0  0  0
 10 31  1  0  0  0  0
 11 12  1  0  0  0  0
 11 32  1  0  0  0  0
 11 33  1  0  0  0  0
 12 13  1  0  0  0  0
 13 18  1  0  0  0  0
 13 14  1  0  0  0  0
 13 34  1  0  0  0  0
 14 15  1  0  0  0  0
 14 35  1  0  0  0  0
 14 36  1  0  0  0  0
 15 16  1  0  0  0  0
 15 37  1  0  0  0  0
 15 38  1  0  0  0  0
 16 17  1  0  0  0  0
 16 39  1  0  0  0  0
 16 40  1  0  0  0  0
 17 18  1  0  0  0  0
 17 41  1  0  0  0  0
 17 42  1  0  0  0  0
 18 19  1  0  0  0  0
 18 43  1  0  0  0  0
 19 44  1  0  0  0  0
 19 45  1  0  0  0  0
 19 46  1  0  0  0  0
M  CHG  1   9   1
M  END
> <s_m_source_file>
AV-unprocessed.smi

> <i_m_source_file_index>
3348

> <i_lp_mmshare_version>
43012

> <i_f3d_flags>
0

> <s_epik_input>
bjFbY0hdW2NIXVtjSF1uMVtDSDJdW0NAQEhdKFtDSDNdKVtOSF1bQ0gyXVtDSDJdT1tDQEBIXTJbQ0gyXVtDSDJdW0NIMl1bQ0gyXVtDQEhdMltDSDNd

> <s_epik_cmdline>
J2VwaWtfcHl0aG9uJywgJy1waCcsICc3LjAnLCAnLXRuJywgJzgnLCAnLW1hJywgJzIwMCcsICctbWV0YWxfYmluZGluZycsICctaW1hZScsICc8aW5maWxlLm1hZT4nLCAnLW9tYWUnLCAnPG91dGZpbGUubWFlPic=

> <r_lp_tautomer_probability>
1

> <r_epik_Ionization_Penalty>
0.00925088

> <r_epik_Ionization_Penalty_Charging>
0.00924645

> <r_epik_Ionization_Penalty_Neutral>
4.42413e-06

> <r_epik_State_Penalty>
0.0070118

> <r_epik_Charging_Adjusted_Penalty>
0.0162583

> <i_epik_Tot_Q>
1

> <i_epik_Tot_abs_Q>
1

> <r_epik_Metal_State_Penalty>
0.00701222

> <b_epik_Metal_Only>
0

> <s_lp_Force_Field>
OPLS_2005

> <r_lp_Energy>
17.0128

> <b_lp_Chiralities_Consistent>
1

> <s_lp_Variant>
AV-unprocessed.smi:3348-5

> <Gold.Version>
5.8.1

> <Gold.Id.Protein>
6NUR|6NUR_protein|mol2

> <Gold.PLP.Fitness>
48.6703

> <Gold.PLP.PLP>
-38.0156

> <Gold.PLP.part.hbond>
-1.0000

> <Gold.PLP.part.metal>
0.0000

> <Gold.PLP.part.buried>
-3.6371

> <Gold.PLP.part.nonpolar>
-35.0586

> <Gold.PLP.part.repulsive>
0.3763

> <Gold.PLP.ligand.clash>
0.0000

> <Gold.PLP.ligand.torsion>
0.5164

> <Gold.PLP.Chemscore.Hbond>
2.0000

> <Gold.PLP.Chemscore.CHOScore>
1.8643

> <Gold.PLP.Chemscore.Metal>
0.0000

> <Gold.Chemscore.Hbonds>
donor molecule, donor type, donor heavy atom, donor atom, acceptor molecule, acceptor atom, score
      L1  H     9    47       P1  7948  2.00
      L1  C     5    26       P1 10747  0.51
      L1  C     7    28       P1 10186  0.85
      L1  C     7    28       P1 10952  0.07

> <Gold.PLP.Chemscore.Internal.Correction>
0.0947

> <Gold.Rescore>
     Score         DG    S(hbond)    S(metal)    S(lipo)     H(rot)  DE(clash)    DE(int)     intcor
     13.96     -16.00       0.98        0.00     101.73       1.82       0.18       1.86       ----

> <Gold.Chemscore.Fitness>
13.9571

> <Gold.Chemscore.DG>
-15.9972

> <Gold.Chemscore.ZeroCoef>
-5.4800

> <Gold.Chemscore.Hbond>
0.9775

> <Gold.Chemscore.Metal>
0.0000

> <Gold.Chemscore.Lipo>
101.7261

> <Gold.Chemscore.Internal_Hbond>
0.0000

> <Gold.Chemscore.DEClash>
0.1805

> <Gold.Chemscore.DEInternal>
1.8596

> <Gold.Chemscore.Rot>
1.8163

> <Gold.Chemscore.Internal.Correction>
   9.000000E+99

> <Gold.Chemscore.Hbonds>
donor molecule, donor type, donor heavy atom, donor atom, acceptor molecule, acceptor atom, score
      L1  H     9    47       P1  7948  0.98

> <Gold.Chemscore.Hbond.Weighted>
-3.2650

> <Gold.Chemscore.Metal.Weighted>
-0.0000

> <Gold.Chemscore.Lipo.Weighted>
-11.9019

> <Gold.Chemscore.Internal_Hbond.Weighted>
0.0000

> <Gold.Chemscore.DEClash.Weighted>
0.1805

> <Gold.Chemscore.DEInternal.Weighted>
1.8596

> <Gold.Chemscore.Rot.Weighted>
4.6497

> <Gold.Chemscore.Internal.Correction.Weighted>
   9.000000E+99

> <Gold.Protein.RotatedTorsions>
[ 6907 6896 6895 6894 ] final  161.42 input  -60.11 | X-H torsion
[ 7974 7965 7964 7962 ] final   94.87 input  175.53 | X-H torsion
[ 8008 7997 7996 7995 ] final  153.96 input   59.86 | X-H torsion
[ 10167 10162 10161 10158 ] final  172.50 input  -65.29 | X-H torsion
[ 10718 10713 10712 10709 ] final   -9.31 input   66.30 | X-H torsion
[ 10763 10752 10751 10750 ] final  154.27 input  -60.55 | X-H torsion
[ 11005 11000 10999 10996 ] final   65.09 input  -57.11 | X-H torsion

> <Gold.Protein.ActiveResidues>
 VAL166  LYS551  ARG553  GLY616  TRP617  ASP618  TYR619  PRO620  LYS621  CYS622 
 ASP623  PHE694  ASN695  SER759  ASP760  ASP761  ALA762  ILE779  LEU786  VAL792 
 PHE793  MET794  SER795  GLU796  ALA797  LYS798  CYS799  TRP800  GLU811  SER814 

> <Gold.Protein.RotatedAtoms>
  151.9558  133.3680  159.4016 H   0  0  0  0  0  0  0  0  0  0  0  0  # atno 6907 bound_to 6896
  150.6973  134.4292  159.5250 H   0  0  0  0  0  0  0  0  0  0  0  0  # atno 6908 bound_to 6896
  152.1973  134.8619  160.0562 H   0  0  0  0  0  0  0  0  0  0  0  0  # atno 6909 bound_to 6896
  145.4598  139.2287  143.2993 H   0  0  0  0  0  0  0  0  0  0  0  0  # atno 7974 bound_to 7965
  156.2555  140.1979  156.6572 H   0  0  0  0  0  0  0  0  0  0  0  0  # atno 8008 bound_to 7997
  154.6491  140.0574  156.9960 H   0  0  0  0  0  0  0  0  0  0  0  0  # atno 8009 bound_to 7997
  155.1445  140.3245  155.4447 H   0  0  0  0  0  0  0  0  0  0  0  0  # atno 8010 bound_to 7997
  139.5078  144.3366  152.0059 H   0  0  0  0  0  0  0  0  0  0  0  0  # atno 10167 bound_to 10162
  156.6898  130.5061  149.5947 H   0  0  0  0  0  0  0  0  0  0  0  0  # atno 10718 bound_to 10713
  154.1496  135.2816  155.3139 H   0  0  0  0  0  0  0  0  0  0  0  0  # atno 10763 bound_to 10752
  154.6227  135.5462  153.7596 H   0  0  0  0  0  0  0  0  0  0  0  0  # atno 10764 bound_to 10752
  153.0225  135.6443  154.1641 H   0  0  0  0  0  0  0  0  0  0  0  0  # atno 10765 bound_to 10752
  139.9917  134.6581  156.0080 H   0  0  0  0  0  0  0  0  0  0  0  0  # atno 11005 bound_to 11000
  146.2457  140.5366  142.8915 LP  0  0  0  0  0  0  0  0  0  0  0  0  # atno 17320 bound_to 7965
  144.8009  140.6212  143.6478 LP  0  0  0  0  0  0  0  0  0  0  0  0  # atno 17321 bound_to 7965
  140.2805  144.3865  150.6120 LP  0  0  0  0  0  0  0  0  0  0  0  0  # atno 17342 bound_to 10162
  140.6021  143.2167  151.7051 LP  0  0  0  0  0  0  0  0  0  0  0  0  # atno 17343 bound_to 10162
  156.1806  130.6496  151.0946 LP  0  0  0  0  0  0  0  0  0  0  0  0  # atno 17370 bound_to 10713
  157.7013  131.0775  150.6811 LP  0  0  0  0  0  0  0  0  0  0  0  0  # atno 17371 bound_to 10713
  141.1571  133.6542  156.4197 LP  0  0  0  0  0  0  0  0  0  0  0  0  # atno 17394 bound_to 11000
  140.4896  134.6588  157.5205 LP  0  0  0  0  0  0  0  0  0  0  0  0  # atno 17395 bound_to 11000

$$$$
