AV-unprocessed.smi:837|AV-procd|sdf|3897|dock7
  -GOLD-   22720 1353D 1   1.00000     0.00000
 Structure written by MMmdl.
 50 52  0  0  0  0  0  0  0  0  2 V2000
  149.4012  141.2463  155.8540 C   0  0  0  0  0  0  0  0  0  0  0  0
  150.3769  140.2220  155.2373 C   0  0  1  0  0  0  0  0  0  0  0  0
  151.3527  139.6846  156.3065 C   0  0  0  0  0  0  0  0  0  0  0  0
  152.3965  138.7360  155.6971 C   0  0  0  0  0  0  0  0  0  0  0  0
  151.7303  137.5718  154.9506 C   0  0  0  0  0  0  0  0  0  0  0  0
  150.7527  138.0850  153.8783 C   0  0  0  0  0  0  0  0  0  0  0  0
  149.6926  139.0658  154.4410 C   0  0  2  0  0  0  0  0  0  0  0  0
  148.8843  139.5852  153.3513 N   0  0  0  0  0  0  0  0  0  0  0  0
  147.5957  139.2340  153.4352 C   0  0  0  0  0  0  0  0  0  0  0  0
  146.7234  139.5374  152.6222 O   0  0  0  0  0  0  0  0  0  0  0  0
  147.4296  138.4995  154.5490 N   0  0  0  0  0  0  0  0  0  0  0  0
  146.1490  137.9126  154.9635 C   0  0  0  0  0  0  0  0  0  0  0  0
  145.6852  136.7824  154.0349 C   0  0  0  0  0  0  0  0  0  0  0  0
  146.2356  135.6809  154.0573 O   0  0  0  0  0  0  0  0  0  0  0  0
  144.6624  137.0750  153.2179 N   0  0  0  0  0  0  0  0  0  0  0  0
  144.0808  136.1645  152.2355 C   0  0  0  0  0  0  0  0  0  0  0  0
  145.0228  135.8633  151.0511 C   0  0  0  0  0  0  0  0  0  0  0  0
  145.0365  134.4015  150.6366 C   0  0  0  0  0  0  0  0  0  0  0  0
  143.9002  133.8125  150.0379 C   0  0  0  0  0  0  0  0  0  0  0  0
  143.9378  132.4510  149.6727 C   0  0  0  0  0  0  0  0  0  0  0  0
  145.1127  131.7093  149.9096 C   0  0  0  0  0  0  0  0  0  0  0  0
  146.1812  132.3070  150.4812 N   0  3  0  0  0  0  0  0  0  0  0  0
  146.1844  133.6076  150.8477 C   0  0  0  0  0  0  0  0  0  0  0  0
  148.5861  138.3365  155.2065 C   0  0  0  0  0  0  0  0  0  0  0  0
  148.7552  137.7071  156.2510 O   0  0  0  0  0  0  0  0  0  0  0  0
  148.7749  140.7966  156.6248 H   0  0  0  0  0  0  0  0  0  0  0  0
  148.7448  141.6819  155.1008 H   0  0  0  0  0  0  0  0  0  0  0  0
  149.9460  142.0684  156.3187 H   0  0  0  0  0  0  0  0  0  0  0  0
  150.9799  140.7799  154.5189 H   0  0  0  0  0  0  0  0  0  0  0  0
  151.8666  140.5170  156.7885 H   0  0  0  0  0  0  0  0  0  0  0  0
  150.8063  139.1707  157.0976 H   0  0  0  0  0  0  0  0  0  0  0  0
  153.0354  139.2914  155.0093 H   0  0  0  0  0  0  0  0  0  0  0  0
  153.0491  138.3498  156.4804 H   0  0  0  0  0  0  0  0  0  0  0  0
  152.4940  136.9493  154.4838 H   0  0  0  0  0  0  0  0  0  0  0  0
  151.2101  136.9287  155.6604 H   0  0  0  0  0  0  0  0  0  0  0  0
  151.3229  138.5842  153.0935 H   0  0  0  0  0  0  0  0  0  0  0  0
  150.2683  137.2338  153.3969 H   0  0  0  0  0  0  0  0  0  0  0  0
  149.2734  140.1423  152.6046 H   0  0  0  0  0  0  0  0  0  0  0  0
  146.2176  137.5194  155.9791 H   0  0  0  0  0  0  0  0  0  0  0  0
  145.3866  138.6932  154.9989 H   0  0  0  0  0  0  0  0  0  0  0  0
  144.2615  138.0002  153.2756 H   0  0  0  0  0  0  0  0  0  0  0  0
  143.7708  135.2377  152.7210 H   0  0  0  0  0  0  0  0  0  0  0  0
  143.1709  136.6345  151.8615 H   0  0  0  0  0  0  0  0  0  0  0  0
  144.7392  136.4706  150.1906 H   0  0  0  0  0  0  0  0  0  0  0  0
  146.0386  136.1674  151.3056 H   0  0  0  0  0  0  0  0  0  0  0  0
  143.0052  134.3935  149.8676 H   0  0  0  0  0  0  0  0  0  0  0  0
  143.0754  131.9835  149.2200 H   0  0  0  0  0  0  0  0  0  0  0  0
  145.2288  130.6641  149.6620 H   0  0  0  0  0  0  0  0  0  0  0  0
  147.0975  133.9699  151.2973 H   0  0  0  0  0  0  0  0  0  0  0  0
  147.0221  131.7521  150.6432 H   0  0  0  0  0  0  0  0  0  0  0  0
  1  2  1  0  0  0  0
  1 26  1  0  0  0  0
  1 27  1  0  0  0  0
  1 28  1  0  0  0  0
  2  7  1  0  0  0  0
  2  3  1  0  0  0  0
  2 29  1  0  0  0  0
  3  4  1  0  0  0  0
  3 30  1  0  0  0  0
  3 31  1  0  0  0  0
  4  5  1  0  0  0  0
  4 32  1  0  0  0  0
  4 33  1  0  0  0  0
  5  6  1  0  0  0  0
  5 34  1  0  0  0  0
  5 35  1  0  0  0  0
  6  7  1  0  0  0  0
  6 36  1  0  0  0  0
  6 37  1  0  0  0  0
  7 24  1  0  0  0  0
  7  8  1  0  0  0  0
  8  9  1  0  0  0  0
  8 38  1  0  0  0  0
  9 10  2  0  0  0  0
  9 11  1  0  0  0  0
 11 12  1  0  0  0  0
 11 24  1  0  0  0  0
 12 13  1  0  0  0  0
 12 39  1  0  0  0  0
 12 40  1  0  0  0  0
 13 14  2  0  0  0  0
 13 15  1  0  0  0  0
 15 16  1  0  0  0  0
 15 41  1  0  0  0  0
 16 17  1  0  0  0  0
 16 42  1  0  0  0  0
 16 43  1  0  0  0  0
 17 18  1  0  0  0  0
 17 44  1  0  0  0  0
 17 45  1  0  0  0  0
 18 23  1  0  0  0  0
 18 19  2  0  0  0  0
 19 20  1  0  0  0  0
 19 46  1  0  0  0  0
 20 21  2  0  0  0  0
 20 47  1  0  0  0  0
 21 22  1  0  0  0  0
 21 48  1  0  0  0  0
 22 23  2  0  0  0  0
 22 50  1  0  0  0  0
 23 49  1  0  0  0  0
 24 25  2  0  0  0  0
M  CHG  1  22   1
M  END
> <s_m_source_file>
AV-unprocessed.smi

> <i_m_source_file_index>
837

> <i_lp_mmshare_version>
43012

> <i_f3d_flags>
0

> <s_epik_input>
W0NIMl0xW0NIMl1bQ0gyXVtDSDJdW0NAQEhdKFtDSDNdKVtDQEBdMTJbTkhdQyg9TylOKEMyPU8pW0NIMl1DKD1PKVtOSF1bQ0gyXVtDSDJdYzNbY0hdW2NIXVtjSF1uW2NIXTM=

> <s_epik_cmdline>
J2VwaWtfcHl0aG9uJywgJy1waCcsICc3LjAnLCAnLXRuJywgJzgnLCAnLW1hJywgJzIwMCcsICctbWV0YWxfYmluZGluZycsICctaW1hZScsICc8aW5maWxlLm1hZT4nLCAnLW9tYWUnLCAnPG91dGZpbGUubWFlPic=

> <r_lp_tautomer_probability>
1

> <r_epik_Ionization_Penalty>
2.28139

> <r_epik_Ionization_Penalty_Charging>
2.28135

> <r_epik_Ionization_Penalty_Neutral>
4.65525e-05

> <r_epik_State_Penalty>
2.43066

> <r_epik_Charging_Adjusted_Penalty>
4.71201

> <i_epik_Tot_Q>
1

> <i_epik_Tot_abs_Q>
1

> <r_epik_Metal_State_Penalty>
2.4646

> <b_epik_Metal_Only>
0

> <s_lp_Force_Field>
OPLS_2005

> <r_lp_Energy>
25.3405

> <b_lp_Chiralities_Consistent>
1

> <s_lp_Variant>
AV-unprocessed.smi:837-6

> <Gold.Version>
5.8.1

> <Gold.Id.Protein>
6NUR|6NUR_protein|mol2

> <Gold.PLP.Fitness>
44.8149

> <Gold.PLP.PLP>
-40.8349

> <Gold.PLP.part.hbond>
-1.4956

> <Gold.PLP.part.metal>
0.0000

> <Gold.PLP.part.buried>
-6.5760

> <Gold.PLP.part.nonpolar>
-33.9625

> <Gold.PLP.part.repulsive>
0.5771

> <Gold.PLP.ligand.clash>
0.0000

> <Gold.PLP.ligand.torsion>
0.6555

> <Gold.PLP.Chemscore.Hbond>
1.7520

> <Gold.PLP.Chemscore.CHOScore>
0.0000

> <Gold.PLP.Chemscore.Metal>
0.0000

> <Gold.Chemscore.Hbonds>
donor molecule, donor type, donor heavy atom, donor atom, acceptor molecule, acceptor atom, score
      L1  H     8    38       P1  7957  0.72
      L1  H    22    50       P1 10747  0.63

> <Gold.PLP.Chemscore.Internal.Correction>
0.0350

> <Gold.Rescore>
     Score         DG    S(hbond)    S(metal)    S(lipo)     H(rot)  DE(clash)    DE(int)     intcor
     17.68     -18.22       1.70        0.00     103.41       1.96       0.04       0.50       ----

> <Gold.Chemscore.Fitness>
17.6770

> <Gold.Chemscore.DG>
-18.2182

> <Gold.Chemscore.ZeroCoef>
-5.4800

> <Gold.Chemscore.Hbond>
1.6965

> <Gold.Chemscore.Metal>
0.0000

> <Gold.Chemscore.Lipo>
103.4136

> <Gold.Chemscore.Internal_Hbond>
0.0000

> <Gold.Chemscore.DEClash>
0.0420

> <Gold.Chemscore.DEInternal>
0.4992

> <Gold.Chemscore.Rot>
1.9638

> <Gold.Chemscore.Internal.Correction>
   9.000000E+99

> <Gold.Chemscore.Hbonds>
donor molecule, donor type, donor heavy atom, donor atom, acceptor molecule, acceptor atom, score
      L1  H     8    38       P1  7957  0.68
      L1  H    22    50       P1 10747  0.62

> <Gold.Chemscore.Hbond.Weighted>
-5.6662

> <Gold.Chemscore.Metal.Weighted>
-0.0000

> <Gold.Chemscore.Lipo.Weighted>
-12.0994

> <Gold.Chemscore.Internal_Hbond.Weighted>
0.0000

> <Gold.Chemscore.DEClash.Weighted>
0.0420

> <Gold.Chemscore.DEInternal.Weighted>
0.4992

> <Gold.Chemscore.Rot.Weighted>
5.0274

> <Gold.Chemscore.Internal.Correction.Weighted>
   9.000000E+99

> <Gold.Protein.RotatedTorsions>
[ 6907 6896 6895 6894 ] final   89.47 input  -60.11 | X-H torsion
[ 7974 7965 7964 7962 ] final  -13.95 input  175.53 | X-H torsion
[ 8008 7997 7996 7995 ] final   82.19 input   59.86 | X-H torsion
[ 10167 10162 10161 10158 ] final  -22.30 input  -65.29 | X-H torsion
[ 10718 10713 10712 10709 ] final -103.94 input   66.30 | X-H torsion
[ 10763 10752 10751 10750 ] final   73.64 input  -60.55 | X-H torsion
[ 11005 11000 10999 10996 ] final   90.77 input  -57.11 | X-H torsion

> <Gold.Protein.ActiveResidues>
 VAL166  LYS551  ARG553  GLY616  TRP617  ASP618  TYR619  PRO620  LYS621  CYS622 
 ASP623  PHE694  ASN695  SER759  ASP760  ASP761  ALA762  ILE779  LEU786  VAL792 
 PHE793  MET794  SER795  GLU796  ALA797  LYS798  CYS799  TRP800  GLU811  SER814 

> <Gold.Protein.RotatedAtoms>
  152.5436  134.1961  159.8693 H   0  0  0  0  0  0  0  0  0  0  0  0  # atno 6907 bound_to 6896
  151.1953  133.4636  159.2603 H   0  0  0  0  0  0  0  0  0  0  0  0  # atno 6908 bound_to 6896
  151.1043  135.0002  159.8519 H   0  0  0  0  0  0  0  0  0  0  0  0  # atno 6909 bound_to 6896
  146.2094  140.3278  142.8396 H   0  0  0  0  0  0  0  0  0  0  0  0  # atno 7974 bound_to 7965
  155.9073  140.3429  155.6071 H   0  0  0  0  0  0  0  0  0  0  0  0  # atno 8008 bound_to 7997
  155.7429  140.0810  157.2256 H   0  0  0  0  0  0  0  0  0  0  0  0  # atno 8009 bound_to 7997
  154.4051  140.1567  156.2624 H   0  0  0  0  0  0  0  0  0  0  0  0  # atno 8010 bound_to 7997
  140.7285  143.4547  151.0465 H   0  0  0  0  0  0  0  0  0  0  0  0  # atno 10167 bound_to 10162
  156.0285  130.5491  150.7325 H   0  0  0  0  0  0  0  0  0  0  0  0  # atno 10718 bound_to 10713
  153.0535  135.5055  154.7924 H   0  0  0  0  0  0  0  0  0  0  0  0  # atno 10763 bound_to 10752
  154.6768  135.2962  154.9670 H   0  0  0  0  0  0  0  0  0  0  0  0  # atno 10764 bound_to 10752
  154.0470  135.6709  153.4849 H   0  0  0  0  0  0  0  0  0  0  0  0  # atno 10765 bound_to 10752
  139.8850  134.8633  156.3331 H   0  0  0  0  0  0  0  0  0  0  0  0  # atno 11005 bound_to 11000
  144.8874  140.7479  143.5948 LP  0  0  0  0  0  0  0  0  0  0  0  0  # atno 17320 bound_to 7965
  145.3200  139.1791  143.4593 LP  0  0  0  0  0  0  0  0  0  0  0  0  # atno 17321 bound_to 7965
  139.8227  143.7798  152.3177 LP  0  0  0  0  0  0  0  0  0  0  0  0  # atno 17342 bound_to 10162
  139.7886  144.7418  150.9986 LP  0  0  0  0  0  0  0  0  0  0  0  0  # atno 17343 bound_to 10162
  157.4914  131.0911  151.0423 LP  0  0  0  0  0  0  0  0  0  0  0  0  # atno 17370 bound_to 10713
  157.0828  130.5910  149.5424 LP  0  0  0  0  0  0  0  0  0  0  0  0  # atno 17371 bound_to 10713
  140.9709  133.7328  156.0533 LP  0  0  0  0  0  0  0  0  0  0  0  0  # atno 17394 bound_to 11000
  140.7872  134.3659  157.5473 LP  0  0  0  0  0  0  0  0  0  0  0  0  # atno 17395 bound_to 11000

$$$$
