AV-unprocessed.smi:1659|AV-procd|sdf|6651|dock5
  -GOLD-   22720 7353D 1   1.00000     0.00000
 Structure written by MMmdl.
 42 43  0  0  0  0  0  0  0  0  2 V2000
  143.8746  132.6724  148.7853 C   0  0  0  0  0  0  0  0  0  0  0  0
  144.5395  133.1851  150.0166 C   0  0  0  0  0  0  0  0  0  0  0  0
  144.8053  134.4456  150.4711 C   0  0  0  0  0  0  0  0  0  0  0  0
  145.4512  134.2126  151.7162 C   0  0  0  0  0  0  0  0  0  0  0  0
  145.9219  135.1532  152.5497 N   0  5  0  0  0  0  0  0  0  0  0  0
  145.5658  136.4484  152.3868 C   0  0  0  0  0  0  0  0  0  0  0  0
  144.4246  136.9091  152.4688 O   0  0  0  0  0  0  0  0  0  0  0  0
  146.5942  137.2621  152.1115 N   0  0  0  0  0  0  0  0  0  0  0  0
  146.4922  138.7005  151.8950 C   0  0  0  0  0  0  0  0  0  0  0  0
  146.9198  139.4889  153.1423 C   0  0  0  0  0  0  0  0  0  0  0  0
  148.2219  140.2886  152.9455 C   0  0  0  0  0  0  0  0  0  0  0  0
  148.5714  141.0545  154.1480 N   0  0  0  0  0  0  0  0  0  0  0  0
  147.5947  142.0705  154.5708 C   0  0  0  0  0  0  0  0  0  0  0  0
  146.8367  141.7028  155.8672 C   0  0  0  0  0  0  0  0  0  0  0  0
  147.6118  140.8466  156.8884 C   0  0  0  0  0  0  0  0  0  0  0  0
  149.0081  141.3836  157.2672 C   0  0  0  0  0  0  0  0  0  0  0  0
  149.9866  141.6567  156.0992 C   0  0  0  0  0  0  0  0  0  0  0  0
  149.7187  140.8258  154.8332 C   0  0  0  0  0  0  0  0  0  0  0  0
  150.5515  139.9874  154.4882 O   0  0  0  0  0  0  0  0  0  0  0  0
  145.5825  132.9241  151.9842 N   0  0  0  0  0  0  0  0  0  0  0  0
  144.9938  132.2583  150.9024 O   0  0  0  0  0  0  0  0  0  0  0  0
  144.2447  133.1925  147.9020 H   0  0  0  0  0  0  0  0  0  0  0  0
  142.7965  132.8226  148.8400 H   0  0  0  0  0  0  0  0  0  0  0  0
  144.0618  131.6067  148.6519 H   0  0  0  0  0  0  0  0  0  0  0  0
  144.5707  135.3854  149.9941 H   0  0  0  0  0  0  0  0  0  0  0  0
  147.5142  136.8506  152.0510 H   0  0  0  0  0  0  0  0  0  0  0  0
  147.1257  138.9759  151.0508 H   0  0  0  0  0  0  0  0  0  0  0  0
  145.4678  138.9611  151.6240 H   0  0  0  0  0  0  0  0  0  0  0  0
  146.1116  140.1580  153.4402 H   0  0  0  0  0  0  0  0  0  0  0  0
  147.0531  138.7887  153.9677 H   0  0  0  0  0  0  0  0  0  0  0  0
  149.0349  139.6112  152.6811 H   0  0  0  0  0  0  0  0  0  0  0  0
  148.1272  140.9637  152.0931 H   0  0  0  0  0  0  0  0  0  0  0  0
  148.1053  143.0244  154.7015 H   0  0  0  0  0  0  0  0  0  0  0  0
  146.8725  142.2690  153.7777 H   0  0  0  0  0  0  0  0  0  0  0  0
  146.4922  142.6204  156.3452 H   0  0  0  0  0  0  0  0  0  0  0  0
  145.9327  141.1562  155.5960 H   0  0  0  0  0  0  0  0  0  0  0  0
  147.0125  140.7544  157.7949 H   0  0  0  0  0  0  0  0  0  0  0  0
  147.7056  139.8280  156.5088 H   0  0  0  0  0  0  0  0  0  0  0  0
  148.8890  142.3031  157.8412 H   0  0  0  0  0  0  0  0  0  0  0  0
  149.4712  140.6718  157.9515 H   0  0  0  0  0  0  0  0  0  0  0  0
  149.9699  142.7143  155.8361 H   0  0  0  0  0  0  0  0  0  0  0  0
  151.0070  141.4717  156.4376 H   0  0  0  0  0  0  0  0  0  0  0  0
  1  2  1  0  0  0  0
  1 22  1  0  0  0  0
  1 23  1  0  0  0  0
  1 24  1  0  0  0  0
  2 21  1  0  0  0  0
  2  3  2  0  0  0  0
  3  4  1  0  0  0  0
  3 25  1  0  0  0  0
  4  5  1  0  0  0  0
  4 20  2  0  0  0  0
  5  6  1  0  0  0  0
  6  7  2  0  0  0  0
  6  8  1  0  0  0  0
  8  9  1  0  0  0  0
  8 26  1  0  0  0  0
  9 10  1  0  0  0  0
  9 27  1  0  0  0  0
  9 28  1  0  0  0  0
 10 11  1  0  0  0  0
 10 29  1  0  0  0  0
 10 30  1  0  0  0  0
 11 12  1  0  0  0  0
 11 31  1  0  0  0  0
 11 32  1  0  0  0  0
 12 18  1  0  0  0  0
 12 13  1  0  0  0  0
 13 14  1  0  0  0  0
 13 33  1  0  0  0  0
 13 34  1  0  0  0  0
 14 15  1  0  0  0  0
 14 35  1  0  0  0  0
 14 36  1  0  0  0  0
 15 16  1  0  0  0  0
 15 37  1  0  0  0  0
 15 38  1  0  0  0  0
 16 17  1  0  0  0  0
 16 39  1  0  0  0  0
 16 40  1  0  0  0  0
 17 18  1  0  0  0  0
 17 41  1  0  0  0  0
 17 42  1  0  0  0  0
 18 19  2  0  0  0  0
 20 21  1  0  0  0  0
M  CHG  1   5  -1
M  END
> <s_m_source_file>
AV-unprocessed.smi

> <i_m_source_file_index>
1659

> <i_lp_mmshare_version>
43012

> <i_f3d_flags>
0

> <s_epik_input>
W0NIM11jMVtjSF1jKG5vMSlbTkhdQyg9TylbTkhdW0NIMl1bQ0gyXVtDSDJdTjJbQ0gyXVtDSDJdW0NIMl1bQ0gyXVtDSDJdQzI9Tw==

> <s_epik_cmdline>
J2VwaWtfcHl0aG9uJywgJy1waCcsICc3LjAnLCAnLXRuJywgJzgnLCAnLW1hJywgJzIwMCcsICctbWV0YWxfYmluZGluZycsICctaW1hZScsICc8aW5maWxlLm1hZT4nLCAnLW9tYWUnLCAnPG91dGZpbGUubWFlPic=

> <r_lp_tautomer_probability>
1

> <r_epik_Ionization_Penalty>
6.59786

> <r_epik_Ionization_Penalty_Charging>
6.59773

> <r_epik_Ionization_Penalty_Neutral>
0.00012688

> <r_epik_State_Penalty>
6.59772

> <r_epik_Charging_Adjusted_Penalty>
13.1954

> <i_epik_Tot_Q>
-1

> <i_epik_Tot_abs_Q>
1

> <r_epik_Metal_State_Penalty>
2.522

> <b_epik_Metal_Only>
1

> <s_lp_Force_Field>
OPLS_2005

> <r_lp_Energy>
19.1909

> <b_lp_Chiralities_Consistent>
1

> <s_lp_Variant>
AV-unprocessed.smi:1659-2

> <Gold.Version>
5.8.1

> <Gold.Id.Protein>
6NUR|6NUR_protein|mol2

> <Gold.PLP.Fitness>
39.2424

> <Gold.PLP.PLP>
-35.4251

> <Gold.PLP.part.hbond>
-2.0000

> <Gold.PLP.part.metal>
0.0000

> <Gold.PLP.part.buried>
1.4952

> <Gold.PLP.part.nonpolar>
-35.5944

> <Gold.PLP.part.repulsive>
0.6700

> <Gold.PLP.ligand.clash>
0.0000

> <Gold.PLP.ligand.torsion>
1.1249

> <Gold.PLP.Chemscore.Hbond>
2.0000

> <Gold.PLP.Chemscore.CHOScore>
0.0000

> <Gold.PLP.Chemscore.Metal>
0.0000

> <Gold.Chemscore.Hbonds>
donor molecule, donor type, donor heavy atom, donor atom, acceptor molecule, acceptor atom, score
      L1  H     8    26       P1  7948  1.00
      P1  H  7989  7998       L1    19  1.00

> <Gold.PLP.Chemscore.Internal.Correction>
0.0671

> <Gold.Rescore>
     Score         DG    S(hbond)    S(metal)    S(lipo)     H(rot)  DE(clash)    DE(int)     intcor
     12.78     -15.83       1.93        0.00      73.50       1.84       1.89       1.15       ----

> <Gold.Chemscore.Fitness>
12.7833

> <Gold.Chemscore.DG>
-15.8278

> <Gold.Chemscore.ZeroCoef>
-5.4800

> <Gold.Chemscore.Hbond>
1.9330

> <Gold.Chemscore.Metal>
0.0000

> <Gold.Chemscore.Lipo>
73.5037

> <Gold.Chemscore.Internal_Hbond>
0.0000

> <Gold.Chemscore.DEClash>
1.8926

> <Gold.Chemscore.DEInternal>
1.1519

> <Gold.Chemscore.Rot>
1.8391

> <Gold.Chemscore.Internal.Correction>
   9.000000E+99

> <Gold.Chemscore.Hbonds>
donor molecule, donor type, donor heavy atom, donor atom, acceptor molecule, acceptor atom, score
      L1  H     8    26       P1  7948  0.96
      P1  H  7989  7998       L1    19  0.45

> <Gold.Chemscore.Hbond.Weighted>
-6.4561

> <Gold.Chemscore.Metal.Weighted>
-0.0000

> <Gold.Chemscore.Lipo.Weighted>
-8.5999

> <Gold.Chemscore.Internal_Hbond.Weighted>
0.0000

> <Gold.Chemscore.DEClash.Weighted>
1.8926

> <Gold.Chemscore.DEInternal.Weighted>
1.1519

> <Gold.Chemscore.Rot.Weighted>
4.7082

> <Gold.Chemscore.Internal.Correction.Weighted>
   9.000000E+99

> <Gold.Protein.RotatedTorsions>
[ 6907 6896 6895 6894 ] final  -33.32 input  -60.11 | X-H torsion
[ 7974 7965 7964 7962 ] final  -40.49 input  175.53 | X-H torsion
[ 8008 7997 7996 7995 ] final  108.31 input   59.86 | X-H torsion
[ 10167 10162 10161 10158 ] final -113.55 input  -65.29 | X-H torsion
[ 10718 10713 10712 10709 ] final  120.05 input   66.30 | X-H torsion
[ 10763 10752 10751 10750 ] final  -30.64 input  -60.55 | X-H torsion
[ 11005 11000 10999 10996 ] final -108.56 input  -57.11 | X-H torsion

> <Gold.Protein.ActiveResidues>
 VAL166  LYS551  ARG553  GLY616  TRP617  ASP618  TYR619  PRO620  LYS621  CYS622 
 ASP623  PHE694  ASN695  SER759  ASP760  ASP761  ALA762  ILE779  LEU786  VAL792 
 PHE793  MET794  SER795  GLU796  ALA797  LYS798  CYS799  TRP800  GLU811  SER814 

> <Gold.Protein.RotatedAtoms>
  151.0671  134.9775  159.8289 H   0  0  0  0  0  0  0  0  0  0  0  0  # atno 6907 bound_to 6896
  152.5403  134.2345  159.8848 H   0  0  0  0  0  0  0  0  0  0  0  0  # atno 6908 bound_to 6896
  151.2367  133.4378  159.2639 H   0  0  0  0  0  0  0  0  0  0  0  0  # atno 6909 bound_to 6896
  146.0300  140.6743  142.9137 H   0  0  0  0  0  0  0  0  0  0  0  0  # atno 7974 bound_to 7965
  156.1893  140.3079  155.9300 H   0  0  0  0  0  0  0  0  0  0  0  0  # atno 8008 bound_to 7997
  155.3210  140.0456  157.3056 H   0  0  0  0  0  0  0  0  0  0  0  0  # atno 8009 bound_to 7997
  154.5433  140.2268  155.8615 H   0  0  0  0  0  0  0  0  0  0  0  0  # atno 8010 bound_to 7997
  140.1106  143.4531  152.1755 H   0  0  0  0  0  0  0  0  0  0  0  0  # atno 10167 bound_to 10162
  157.5918  131.1063  150.7982 H   0  0  0  0  0  0  0  0  0  0  0  0  # atno 10718 bound_to 10713
  153.7843  135.6903  153.4883 H   0  0  0  0  0  0  0  0  0  0  0  0  # atno 10763 bound_to 10752
  153.1791  135.4513  155.0003 H   0  0  0  0  0  0  0  0  0  0  0  0  # atno 10764 bound_to 10752
  154.8069  135.3361  154.7344 H   0  0  0  0  0  0  0  0  0  0  0  0  # atno 10765 bound_to 10752
  141.0895  133.9080  157.2108 H   0  0  0  0  0  0  0  0  0  0  0  0  # atno 11005 bound_to 11000
  144.7026  140.3718  143.7144 LP  0  0  0  0  0  0  0  0  0  0  0  0  # atno 17320 bound_to 7965
  145.7056  139.1672  143.2568 LP  0  0  0  0  0  0  0  0  0  0  0  0  # atno 17321 bound_to 7965
  139.5621  144.7412  151.4125 LP  0  0  0  0  0  0  0  0  0  0  0  0  # atno 17342 bound_to 10162
  140.6927  143.7822  150.7280 LP  0  0  0  0  0  0  0  0  0  0  0  0  # atno 17343 bound_to 10162
  156.8402  130.5045  149.5322 LP  0  0  0  0  0  0  0  0  0  0  0  0  # atno 17370 bound_to 10713
  156.0974  130.5943  150.9837 LP  0  0  0  0  0  0  0  0  0  0  0  0  # atno 17371 bound_to 10713
  139.9718  135.0126  156.9532 LP  0  0  0  0  0  0  0  0  0  0  0  0  # atno 17394 bound_to 11000
  140.5285  134.0837  155.7309 LP  0  0  0  0  0  0  0  0  0  0  0  0  # atno 17395 bound_to 11000

$$$$
