AV-unprocessed.smi:36|AV-procd|sdf|287|dock1
  -GOLD-   2262016 73D 1   1.00000     0.00000
 Structure written by MMmdl.
 64 67  0  0  0  0  0  0  0  0  1 V2000
  145.4526  133.3873  156.7151 C   0  0  0  0  0  0  0  0  0  0  0  0
  146.8751  133.9711  156.7266 C   0  0  0  0  0  0  0  0  0  0  0  0
  146.9956  135.0173  157.8482 C   0  0  0  0  0  0  0  0  0  0  0  0
  147.9012  132.8471  156.9452 C   0  0  0  0  0  0  0  0  0  0  0  0
  147.2129  134.8238  155.0515 Si  0  0  0  0  0  0  0  0  0  0  0  0
  148.9178  135.6680  155.0531 C   0  0  0  0  0  0  0  0  0  0  0  0
  147.1207  133.5841  153.6157 C   0  0  0  0  0  0  0  0  0  0  0  0
  145.9994  135.9823  154.8184 O   0  0  0  0  0  0  0  0  0  0  0  0
  145.8044  136.7146  153.6258 C   0  0  0  0  0  0  0  0  0  0  0  0
  146.6552  137.9903  153.6764 C   0  0  2  0  0  0  0  0  0  0  0  0
  146.0730  138.9214  154.5813 O   0  0  0  0  0  0  0  0  0  0  0  0
  146.4654  140.2184  154.2431 C   0  0  1  0  0  0  0  0  0  0  0  0
  147.4580  140.6977  155.2552 N   0  0  0  0  0  0  0  0  0  0  0  0
  147.3766  141.7843  156.0488 C   0  0  0  0  0  0  0  0  0  0  0  0
  148.4094  141.9709  156.8670 N   0  0  0  0  0  0  0  0  0  0  0  0
  149.2348  140.8927  156.5656 C   0  0  0  0  0  0  0  0  0  0  0  0
  150.5512  140.5098  157.1209 C   0  0  0  0  0  0  0  0  0  0  0  0
  151.0586  141.2662  158.0466 N   0  0  0  0  0  0  0  0  0  0  0  0
  152.3010  140.9658  158.5908 C   0  0  0  0  0  0  0  0  0  0  0  0
  153.1488  140.1662  158.1840 O   0  0  0  0  0  0  0  0  0  0  0  0
  152.5706  141.6761  159.8785 C   0  0  0  0  0  0  0  0  0  0  0  0
  151.9216  142.8957  160.1676 C   0  0  0  0  0  0  0  0  0  0  0  0
  152.1748  143.5602  161.3836 C   0  0  0  0  0  0  0  0  0  0  0  0
  153.0774  143.0092  162.3135 C   0  0  0  0  0  0  0  0  0  0  0  0
  153.7265  141.7926  162.0284 C   0  0  0  0  0  0  0  0  0  0  0  0
  153.4734  141.1262  160.8136 C   0  0  0  0  0  0  0  0  0  0  0  0
  151.0070  139.3397  156.4994 N   0  0  0  0  0  0  0  0  0  0  0  0
  150.3299  138.6191  155.5032 C   0  0  0  0  0  0  0  0  0  0  0  0
  149.1662  138.9438  155.0064 N   0  0  0  0  0  0  0  0  0  0  0  0
  148.6719  140.1041  155.5855 C   0  0  0  0  0  0  0  0  0  0  0  0
  147.1180  140.1517  152.8565 C   0  0  0  0  0  0  0  0  0  0  0  0
  146.6890  138.7804  152.3696 C   0  0  1  0  0  0  0  0  0  0  0  0
  147.6230  138.2560  151.4484 O   0  0  0  0  0  0  0  0  0  0  0  0
  145.2130  132.9074  157.6646 H   0  0  0  0  0  0  0  0  0  0  0  0
  145.3353  132.6390  155.9310 H   0  0  0  0  0  0  0  0  0  0  0  0
  144.7076  134.1645  156.5421 H   0  0  0  0  0  0  0  0  0  0  0  0
  146.2958  135.8402  157.6987 H   0  0  0  0  0  0  0  0  0  0  0  0
  147.9979  135.4440  157.8902 H   0  0  0  0  0  0  0  0  0  0  0  0
  146.7855  134.5790  158.8241 H   0  0  0  0  0  0  0  0  0  0  0  0
  147.7383  132.3424  157.8980 H   0  0  0  0  0  0  0  0  0  0  0  0
  148.9204  133.2344  156.9494 H   0  0  0  0  0  0  0  0  0  0  0  0
  147.8380  132.0939  156.1596 H   0  0  0  0  0  0  0  0  0  0  0  0
  149.7219  134.9394  155.1511 H   0  0  0  0  0  0  0  0  0  0  0  0
  149.0206  136.3719  155.8782 H   0  0  0  0  0  0  0  0  0  0  0  0
  149.0941  136.2200  154.1304 H   0  0  0  0  0  0  0  0  0  0  0  0
  147.8574  132.7889  153.7251 H   0  0  0  0  0  0  0  0  0  0  0  0
  147.3065  134.0695  152.6579 H   0  0  0  0  0  0  0  0  0  0  0  0
  146.1397  133.1135  153.5552 H   0  0  0  0  0  0  0  0  0  0  0  0
  146.0867  136.0986  152.7716 H   0  0  0  0  0  0  0  0  0  0  0  0
  144.7470  136.9553  153.5137 H   0  0  0  0  0  0  0  0  0  0  0  0
  147.6728  137.7705  153.9996 H   0  0  0  0  0  0  0  0  0  0  0  0
  145.6212  140.9052  154.3113 H   0  0  0  0  0  0  0  0  0  0  0  0
  146.5379  142.4640  156.0290 H   0  0  0  0  0  0  0  0  0  0  0  0
  151.2261  143.3245  159.4606 H   0  0  0  0  0  0  0  0  0  0  0  0
  151.6760  144.4926  161.6030 H   0  0  0  0  0  0  0  0  0  0  0  0
  153.2712  143.5191  163.2456 H   0  0  0  0  0  0  0  0  0  0  0  0
  154.4189  141.3703  162.7416 H   0  0  0  0  0  0  0  0  0  0  0  0
  153.9751  140.1927  160.6031 H   0  0  0  0  0  0  0  0  0  0  0  0
  150.8632  137.7323  155.1576 H   0  0  0  0  0  0  0  0  0  0  0  0
  146.7746  140.9676  152.2199 H   0  0  0  0  0  0  0  0  0  0  0  0
  148.2041  140.2118  152.9534 H   0  0  0  0  0  0  0  0  0  0  0  0
  145.6961  138.8304  151.9205 H   0  0  0  0  0  0  0  0  0  0  0  0
  148.1047  137.5613  151.8706 H   0  0  0  0  0  0  0  0  0  0  0  0
  151.9025  138.9818  156.7988 H   0  0  0  0  0  0  0  0  0  0  0  0
  1  2  1  0  0  0  0
  1 34  1  0  0  0  0
  1 35  1  0  0  0  0
  1 36  1  0  0  0  0
  2  3  1  0  0  0  0
  2  4  1  0  0  0  0
  2  5  1  0  0  0  0
  3 37  1  0  0  0  0
  3 38  1  0  0  0  0
  3 39  1  0  0  0  0
  4 40  1  0  0  0  0
  4 41  1  0  0  0  0
  4 42  1  0  0  0  0
  5  6  1  0  0  0  0
  5  7  1  0  0  0  0
  5  8  1  0  0  0  0
  6 43  1  0  0  0  0
  6 44  1  0  0  0  0
  6 45  1  0  0  0  0
  7 46  1  0  0  0  0
  7 47  1  0  0  0  0
  7 48  1  0  0  0  0
  8  9  1  0  0  0  0
  9 10  1  0  0  0  0
  9 49  1  0  0  0  0
  9 50  1  0  0  0  0
 10 32  1  0  0  0  0
 10 11  1  0  0  0  0
 10 51  1  0  0  0  0
 11 12  1  0  0  0  0
 12 13  1  0  0  0  0
 12 31  1  0  0  0  0
 12 52  1  0  0  0  0
 13 30  1  0  0  0  0
 13 14  1  0  0  0  0
 14 15  2  0  0  0  0
 14 53  1  0  0  0  0
 15 16  1  0  0  0  0
 16 30  2  0  0  0  0
 16 17  1  0  0  0  0
 17 18  2  0  0  0  0
 17 27  1  0  0  0  0
 18 19  1  0  0  0  0
 19 20  2  0  0  0  0
 19 21  1  0  0  0  0
 21 26  1  0  0  0  0
 21 22  2  0  0  0  0
 22 23  1  0  0  0  0
 22 54  1  0  0  0  0
 23 24  2  0  0  0  0
 23 55  1  0  0  0  0
 24 25  1  0  0  0  0
 24 56  1  0  0  0  0
 25 26  2  0  0  0  0
 25 57  1  0  0  0  0
 26 58  1  0  0  0  0
 27 28  1  0  0  0  0
 27 64  1  0  0  0  0
 28 29  2  0  0  0  0
 28 59  1  0  0  0  0
 29 30  1  0  0  0  0
 31 32  1  0  0  0  0
 31 60  1  0  0  0  0
 31 61  1  0  0  0  0
 32 33  1  0  0  0  0
 32 62  1  0  0  0  0
 33 63  1  0  0  0  0
M  END
> <s_m_source_file>
AV-unprocessed.smi

> <i_m_source_file_index>
36

> <i_lp_mmshare_version>
43012

> <i_f3d_flags>
0

> <s_epik_input>
W0NIM11DKFtDSDNdKShbQ0gzXSlbU2ldKFtDSDNdKShbQ0gzXSlPW0NIMl1bQ0BASF0xT1tDQEhdKFtDSDJdW0NASF0xW09IXSluKFtjSF1uMiljKGMyMyluW2NIXW5jM1tOSF1DKD1PKWM0W2NIXVtjSF1bY0hdW2NIXVtjSF00

> <s_epik_cmdline>
J2VwaWtfcHl0aG9uJywgJy1waCcsICc3LjAnLCAnLXRuJywgJzgnLCAnLW1hJywgJzIwMCcsICctbWV0YWxfYmluZGluZycsICctaW1hZScsICc8aW5maWxlLm1hZT4nLCAnLW9tYWUnLCAnPG91dGZpbGUubWFlPic=

> <r_epik_Ionization_Penalty>
0.0850405

> <r_epik_Ionization_Penalty_Charging>
0.0850403

> <r_epik_Ionization_Penalty_Neutral>
1.47497e-07

> <r_epik_State_Penalty>
2.6133

> <r_epik_Charging_Adjusted_Penalty>
2.69834

> <i_epik_Tot_Q>
0

> <i_epik_Tot_abs_Q>
0

> <r_epik_Metal_State_Penalty>
2.92945

> <b_epik_Metal_Only>
0

> <s_epik_Chemistry_Notes>
This compound contains an acetal/aminal-like group ( X-CH(R)-Y where X, Y are N, S, or O) that may be acid/base labile, releasing an aldehyde.

> <s_lp_Force_Field>
OPLS_2005

> <r_lp_Energy>
46.6166

> <b_lp_Chiralities_Consistent>
1

> <s_lp_Variant>
AV-unprocessed.smi:36-9

> <Gold.Version>
5.8.1

> <Gold.Id.Protein>
6NUR|6NUR_protein|mol2

> <Gold.PLP.Fitness>
48.9047

> <Gold.PLP.PLP>
-41.2346

> <Gold.PLP.part.hbond>
-3.5611

> <Gold.PLP.part.metal>
0.0000

> <Gold.PLP.part.buried>
-3.4175

> <Gold.PLP.part.nonpolar>
-35.0363

> <Gold.PLP.part.repulsive>
1.2962

> <Gold.PLP.ligand.clash>
0.0000

> <Gold.PLP.ligand.torsion>
0.5975

> <Gold.PLP.Chemscore.Hbond>
2.7760

> <Gold.PLP.Chemscore.CHOScore>
0.0000

> <Gold.PLP.Chemscore.Metal>
0.0000

> <Gold.Chemscore.Hbonds>
donor molecule, donor type, donor heavy atom, donor atom, acceptor molecule, acceptor atom, score
      L1  H    33    63       P1  7948  1.00
      P1  H  7954  7966       L1    33  0.70
      P1  H  7997  8009       L1    20  0.96

> <Gold.PLP.Chemscore.Internal.Correction>
0.5370

> <Gold.Rescore>
     Score         DG    S(hbond)    S(metal)    S(lipo)     H(rot)  DE(clash)    DE(int)     intcor
     14.82     -16.60       1.95        0.00      98.46       2.70       0.18       1.59       ----

> <Gold.Chemscore.Fitness>
14.8235

> <Gold.Chemscore.DG>
-16.5955

> <Gold.Chemscore.ZeroCoef>
-5.4800

> <Gold.Chemscore.Hbond>
1.9514

> <Gold.Chemscore.Metal>
0.0000

> <Gold.Chemscore.Lipo>
98.4636

> <Gold.Chemscore.Internal_Hbond>
0.0000

> <Gold.Chemscore.DEClash>
0.1836

> <Gold.Chemscore.DEInternal>
1.5884

> <Gold.Chemscore.Rot>
2.7041

> <Gold.Chemscore.Internal.Correction>
   9.000000E+99

> <Gold.Chemscore.Hbonds>
donor molecule, donor type, donor heavy atom, donor atom, acceptor molecule, acceptor atom, score
      L1  H    33    63       P1  7948  0.90
      P1  H  7954  7966       L1    33  0.07
      P1  H  7997  8009       L1    20  0.92

> <Gold.Chemscore.Hbond.Weighted>
-6.5178

> <Gold.Chemscore.Metal.Weighted>
-0.0000

> <Gold.Chemscore.Lipo.Weighted>
-11.5202

> <Gold.Chemscore.Internal_Hbond.Weighted>
0.0000

> <Gold.Chemscore.DEClash.Weighted>
0.1836

> <Gold.Chemscore.DEInternal.Weighted>
1.5884

> <Gold.Chemscore.Rot.Weighted>
6.9225

> <Gold.Chemscore.Internal.Correction.Weighted>
   9.000000E+99

> <Gold.Protein.RotatedTorsions>
[ 6907 6896 6895 6894 ] final -122.46 input  -60.11 | X-H torsion
[ 7974 7965 7964 7962 ] final   -4.82 input  175.53 | X-H torsion
[ 8008 7997 7996 7995 ] final  151.12 input   59.86 | X-H torsion
[ 10167 10162 10161 10158 ] final  174.31 input  -65.29 | X-H torsion
[ 10718 10713 10712 10709 ] final  -21.69 input   66.30 | X-H torsion
[ 10763 10752 10751 10750 ] final  -89.53 input  -60.55 | X-H torsion
[ 11005 11000 10999 10996 ] final   85.78 input  -57.11 | X-H torsion

> <Gold.Protein.ActiveResidues>
 VAL166  LYS551  ARG553  GLY616  TRP617  ASP618  TYR619  PRO620  LYS621  CYS622 
 ASP623  PHE694  ASN695  SER759  ASP760  ASP761  ALA762  ILE779  LEU786  VAL792 
 PHE793  MET794  SER795  GLU796  ALA797  LYS798  CYS799  TRP800  GLU811  SER814 

> <Gold.Protein.RotatedAtoms>
  150.8578  133.7689  159.3002 H   0  0  0  0  0  0  0  0  0  0  0  0  # atno 6907 bound_to 6896
  151.5341  135.1067  159.9919 H   0  0  0  0  0  0  0  0  0  0  0  0  # atno 6908 bound_to 6896
  152.4603  133.7765  159.6883 H   0  0  0  0  0  0  0  0  0  0  0  0  # atno 6909 bound_to 6896
  146.2365  140.1929  142.8333 H   0  0  0  0  0  0  0  0  0  0  0  0  # atno 7974 bound_to 7965
  156.2687  140.2056  156.6125 H   0  0  0  0  0  0  0  0  0  0  0  0  # atno 8008 bound_to 7997
  154.6820  140.0539  157.0300 H   0  0  0  0  0  0  0  0  0  0  0  0  # atno 8009 bound_to 7997
  155.0987  140.3204  155.4556 H   0  0  0  0  0  0  0  0  0  0  0  0  # atno 8010 bound_to 7997
  139.5137  144.3161  152.0246 H   0  0  0  0  0  0  0  0  0  0  0  0  # atno 10167 bound_to 10162
  156.5147  130.4618  149.6629 H   0  0  0  0  0  0  0  0  0  0  0  0  # atno 10718 bound_to 10713
  154.6562  135.5337  153.7962 H   0  0  0  0  0  0  0  0  0  0  0  0  # atno 10763 bound_to 10752
  153.0415  135.6494  154.0941 H   0  0  0  0  0  0  0  0  0  0  0  0  # atno 10764 bound_to 10752
  154.0854  135.2944  155.3262 H   0  0  0  0  0  0  0  0  0  0  0  0  # atno 10765 bound_to 10752
  139.8962  134.8310  156.2629 H   0  0  0  0  0  0  0  0  0  0  0  0  # atno 11005 bound_to 11000
  144.9843  140.8489  143.5378 LP  0  0  0  0  0  0  0  0  0  0  0  0  # atno 17320 bound_to 7965
  145.1926  139.2293  143.5234 LP  0  0  0  0  0  0  0  0  0  0  0  0  # atno 17321 bound_to 7965
  140.2604  144.4073  150.6188 LP  0  0  0  0  0  0  0  0  0  0  0  0  # atno 17342 bound_to 10162
  140.6161  143.2172  151.6788 LP  0  0  0  0  0  0  0  0  0  0  0  0  # atno 17343 bound_to 10162
  156.3207  130.7279  151.2190 LP  0  0  0  0  0  0  0  0  0  0  0  0  # atno 17370 bound_to 10713
  157.7445  131.0456  150.4853 LP  0  0  0  0  0  0  0  0  0  0  0  0  # atno 17371 bound_to 10713
  141.0151  133.7073  156.1175 LP  0  0  0  0  0  0  0  0  0  0  0  0  # atno 17394 bound_to 11000
  140.7313  134.4251  157.5565 LP  0  0  0  0  0  0  0  0  0  0  0  0  # atno 17395 bound_to 11000

$$$$
