AV-unprocessed.smi:1554|AV-procd|sdf|6256|dock4
  -GOLD-   22720 6443D 1   1.00000     0.00000
 Structure written by MMmdl.
 49 51  0  0  0  0  0  0  0  0  3 V2000
  152.7095  143.5164  161.5839 C   0  0  0  0  0  0  0  0  0  0  0  0
  152.1691  142.9806  160.2688 C   0  0  0  0  0  0  0  0  0  0  0  0
  152.3399  141.6082  159.9784 C   0  0  0  0  0  0  0  0  0  0  0  0
  151.8388  141.1490  158.7661 C   0  0  0  0  0  0  0  0  0  0  0  0
  151.8504  139.8744  158.1962 N   0  3  0  0  0  0  0  0  0  0  0  0
  151.2352  139.9133  156.9820 C   0  0  0  0  0  0  0  0  0  0  0  0
  150.8328  141.1954  156.7660 N   0  0  0  0  0  0  0  0  0  0  0  0
  150.1217  141.7742  155.6162 C   0  0  0  0  0  0  0  0  0  0  0  0
  149.3407  140.7240  154.8011 C   0  0  2  0  0  0  0  0  0  0  0  0
  150.2423  139.9541  154.0297 O   0  0  0  0  0  0  0  0  0  0  0  0
  148.3209  141.3852  153.8522 C   0  0  0  0  0  0  0  0  0  0  0  0
  147.4124  142.3317  154.5489 N   0  3  1  0  0  0  0  0  0  0  0  0
  146.1971  142.6777  153.7708 C   0  0  0  0  0  0  0  0  0  0  0  0
  145.3357  143.6893  154.5447 C   0  0  0  0  0  0  0  0  0  0  0  0
  145.0040  143.1572  155.8211 O   0  0  0  0  0  0  0  0  0  0  0  0
  146.1567  142.9060  156.6170 C   0  0  1  0  0  0  0  0  0  0  0  0
  145.6918  142.4255  157.9962 C   0  0  0  0  0  0  0  0  0  0  0  0
  147.0403  141.8632  155.9053 C   0  0  0  0  0  0  0  0  0  0  0  0
  151.1845  142.0018  157.8558 C   0  0  0  0  0  0  0  0  0  0  0  0
  151.0060  143.3564  158.1281 C   0  0  0  0  0  0  0  0  0  0  0  0
  151.5106  143.8435  159.3550 C   0  0  0  0  0  0  0  0  0  0  0  0
  151.3325  145.3176  159.6765 C   0  0  0  0  0  0  0  0  0  0  0  0
  153.1618  142.7247  162.1817 H   0  0  0  0  0  0  0  0  0  0  0  0
  151.9094  143.9633  162.1743 H   0  0  0  0  0  0  0  0  0  0  0  0
  153.4723  144.2742  161.4032 H   0  0  0  0  0  0  0  0  0  0  0  0
  152.8409  140.9456  160.6691 H   0  0  0  0  0  0  0  0  0  0  0  0
  151.0918  139.0770  156.3129 H   0  0  0  0  0  0  0  0  0  0  0  0
  149.4319  142.5206  156.0123 H   0  0  0  0  0  0  0  0  0  0  0  0
  150.8302  142.3184  154.9911 H   0  0  0  0  0  0  0  0  0  0  0  0
  148.8355  140.0563  155.4984 H   0  0  0  0  0  0  0  0  0  0  0  0
  149.8432  139.7751  153.1916 H   0  0  0  0  0  0  0  0  0  0  0  0
  148.8331  141.9087  153.0434 H   0  0  0  0  0  0  0  0  0  0  0  0
  147.7313  140.5982  153.3783 H   0  0  0  0  0  0  0  0  0  0  0  0
  146.4666  143.1034  152.8053 H   0  0  0  0  0  0  0  0  0  0  0  0
  145.6192  141.7738  153.5715 H   0  0  0  0  0  0  0  0  0  0  0  0
  145.8572  144.6412  154.6571 H   0  0  0  0  0  0  0  0  0  0  0  0
  144.4153  143.8939  153.9980 H   0  0  0  0  0  0  0  0  0  0  0  0
  146.7149  143.8354  156.7440 H   0  0  0  0  0  0  0  0  0  0  0  0
  146.5414  142.2308  158.6511 H   0  0  0  0  0  0  0  0  0  0  0  0
  145.1104  141.5062  157.9200 H   0  0  0  0  0  0  0  0  0  0  0  0
  145.0658  143.1758  158.4797 H   0  0  0  0  0  0  0  0  0  0  0  0
  146.5148  140.9098  155.8287 H   0  0  0  0  0  0  0  0  0  0  0  0
  147.9423  141.6864  156.4927 H   0  0  0  0  0  0  0  0  0  0  0  0
  150.5082  144.0163  157.4332 H   0  0  0  0  0  0  0  0  0  0  0  0
  150.8424  145.8484  158.8598 H   0  0  0  0  0  0  0  0  0  0  0  0
  152.2985  145.7930  159.8481 H   0  0  0  0  0  0  0  0  0  0  0  0
  150.7203  145.4422  160.5700 H   0  0  0  0  0  0  0  0  0  0  0  0
  147.9367  143.1856  154.6793 H   0  0  0  0  0  0  0  0  0  0  0  0
  152.2464  139.0373  158.6048 H   0  0  0  0  0  0  0  0  0  0  0  0
  1  2  1  0  0  0  0
  1 23  1  0  0  0  0
  1 24  1  0  0  0  0
  1 25  1  0  0  0  0
  2 21  1  0  0  0  0
  2  3  2  0  0  0  0
  3  4  1  0  0  0  0
  3 26  1  0  0  0  0
  4 19  2  0  0  0  0
  4  5  1  0  0  0  0
  5  6  2  0  0  0  0
  5 49  1  0  0  0  0
  6  7  1  0  0  0  0
  6 27  1  0  0  0  0
  7  8  1  0  0  0  0
  7 19  1  0  0  0  0
  8  9  1  0  0  0  0
  8 28  1  0  0  0  0
  8 29  1  0  0  0  0
  9 10  1  0  0  0  0
  9 11  1  0  0  0  0
  9 30  1  0  0  0  0
 10 31  1  0  0  0  0
 11 12  1  0  0  0  0
 11 32  1  0  0  0  0
 11 33  1  0  0  0  0
 12 18  1  0  0  0  0
 12 13  1  0  0  0  0
 12 48  1  0  0  0  0
 13 14  1  0  0  0  0
 13 34  1  0  0  0  0
 13 35  1  0  0  0  0
 14 15  1  0  0  0  0
 14 36  1  0  0  0  0
 14 37  1  0  0  0  0
 15 16  1  0  0  0  0
 16 17  1  0  0  0  0
 16 18  1  0  0  0  0
 16 38  1  0  0  0  0
 17 39  1  0  0  0  0
 17 40  1  0  0  0  0
 17 41  1  0  0  0  0
 18 42  1  0  0  0  0
 18 43  1  0  0  0  0
 19 20  1  0  0  0  0
 20 21  2  0  0  0  0
 20 44  1  0  0  0  0
 21 22  1  0  0  0  0
 22 45  1  0  0  0  0
 22 46  1  0  0  0  0
 22 47  1  0  0  0  0
M  CHG  1   5   1
M  CHG  1  12   1
M  END
> <s_m_source_file>
AV-unprocessed.smi

> <i_m_source_file_index>
1554

> <i_lp_mmshare_version>
43012

> <i_f3d_flags>
0

> <s_epik_input>
W0NIM11jKFtjSF0xKWMoW0NIM10pW2NIXWMoYzEyKW4oW2NIXW4yKVtDSDJdW0NASF0oW09IXSlbQ0gyXU4zW0NIMl1bQ0gyXU9bQ0BASF0oW0NIM10pW0NIMl0z

> <s_epik_cmdline>
J2VwaWtfcHl0aG9uJywgJy1waCcsICc3LjAnLCAnLXRuJywgJzgnLCAnLW1hJywgJzIwMCcsICctbWV0YWxfYmluZGluZycsICctaW1hZScsICc8aW5maWxlLm1hZT4nLCAnLW9tYWUnLCAnPG91dGZpbGUubWFlPic=

> <r_epik_Ionization_Penalty>
1.8848

> <r_epik_Ionization_Penalty_Charging>
1.88479

> <r_epik_Ionization_Penalty_Neutral>
1.42224e-05

> <r_epik_State_Penalty>
1.94551

> <r_epik_Charging_Adjusted_Penalty>
3.8303

> <i_epik_Tot_Q>
2

> <i_epik_Tot_abs_Q>
2

> <r_epik_Metal_State_Penalty>
5.95849

> <b_epik_Metal_Only>
0

> <s_lp_Force_Field>
OPLS_2005

> <r_lp_Energy>
29.8274

> <b_lp_Chiralities_Consistent>
1

> <s_lp_Variant>
AV-unprocessed.smi:1554-17

> <Gold.Version>
5.8.1

> <Gold.Id.Protein>
6NUR|6NUR_protein|mol2

> <Gold.PLP.Fitness>
59.4835

> <Gold.PLP.PLP>
-48.7143

> <Gold.PLP.part.hbond>
-3.0000

> <Gold.PLP.part.metal>
0.0000

> <Gold.PLP.part.buried>
-6.7990

> <Gold.PLP.part.nonpolar>
-38.1206

> <Gold.PLP.part.repulsive>
0.3596

> <Gold.PLP.ligand.clash>
0.0000

> <Gold.PLP.ligand.torsion>
0.6380

> <Gold.PLP.Chemscore.Hbond>
4.0000

> <Gold.PLP.Chemscore.CHOScore>
0.0000

> <Gold.PLP.Chemscore.Metal>
0.0000

> <Gold.Chemscore.Hbonds>
donor molecule, donor type, donor heavy atom, donor atom, acceptor molecule, acceptor atom, score
      L1  H    10    31       P1  7957  0.93
      L1  H    12    48       P1  8028  2.00
      P1  H  7989  7998       L1    10  0.90

> <Gold.PLP.Chemscore.Internal.Correction>
0.0452

> <Gold.Rescore>
     Score         DG    S(hbond)    S(metal)    S(lipo)     H(rot)  DE(clash)    DE(int)     intcor
     20.66     -21.48       2.12        0.00     122.34       2.11       0.18       0.64       ----

> <Gold.Chemscore.Fitness>
20.6599

> <Gold.Chemscore.DG>
-21.4798

> <Gold.Chemscore.ZeroCoef>
-5.4800

> <Gold.Chemscore.Hbond>
2.1237

> <Gold.Chemscore.Metal>
0.0000

> <Gold.Chemscore.Lipo>
122.3397

> <Gold.Chemscore.Internal_Hbond>
0.0000

> <Gold.Chemscore.DEClash>
0.1825

> <Gold.Chemscore.DEInternal>
0.6373

> <Gold.Chemscore.Rot>
2.1122

> <Gold.Chemscore.Internal.Correction>
   9.000000E+99

> <Gold.Chemscore.Hbonds>
donor molecule, donor type, donor heavy atom, donor atom, acceptor molecule, acceptor atom, score
      L1  H    10    31       P1  7957  0.86
      L1  H    12    48       P1  8028  0.81
      P1  H  7989  7998       L1    10  0.15

> <Gold.Chemscore.Hbond.Weighted>
-7.0933

> <Gold.Chemscore.Metal.Weighted>
-0.0000

> <Gold.Chemscore.Lipo.Weighted>
-14.3137

> <Gold.Chemscore.Internal_Hbond.Weighted>
0.0000

> <Gold.Chemscore.DEClash.Weighted>
0.1825

> <Gold.Chemscore.DEInternal.Weighted>
0.6373

> <Gold.Chemscore.Rot.Weighted>
5.4073

> <Gold.Chemscore.Internal.Correction.Weighted>
   9.000000E+99

> <Gold.Protein.RotatedTorsions>
[ 6907 6896 6895 6894 ] final  111.18 input  -60.11 | X-H torsion
[ 7974 7965 7964 7962 ] final  125.46 input  175.53 | X-H torsion
[ 8008 7997 7996 7995 ] final  -36.49 input   59.86 | X-H torsion
[ 10167 10162 10161 10158 ] final  118.88 input  -65.29 | X-H torsion
[ 10718 10713 10712 10709 ] final  -36.81 input   66.30 | X-H torsion
[ 10763 10752 10751 10750 ] final -132.62 input  -60.55 | X-H torsion
[ 11005 11000 10999 10996 ] final   86.30 input  -57.11 | X-H torsion

> <Gold.Protein.ActiveResidues>
 VAL166  LYS551  ARG553  GLY616  TRP617  ASP618  TYR619  PRO620  LYS621  CYS622 
 ASP623  PHE694  ASN695  SER759  ASP760  ASP761  ALA762  ILE779  LEU786  VAL792 
 PHE793  MET794  SER795  GLU796  ALA797  LYS798  CYS799  TRP800  GLU811  SER814 

> <Gold.Protein.RotatedAtoms>
  152.4983  133.8695  159.7290 H   0  0  0  0  0  0  0  0  0  0  0  0  # atno 6907 bound_to 6896
  150.9185  133.6900  159.2844 H   0  0  0  0  0  0  0  0  0  0  0  0  # atno 6908 bound_to 6896
  151.4285  135.1011  159.9688 H   0  0  0  0  0  0  0  0  0  0  0  0  # atno 6909 bound_to 6896
  145.0728  139.3717  143.4949 H   0  0  0  0  0  0  0  0  0  0  0  0  # atno 7974 bound_to 7965
  154.4072  140.1629  156.2382 H   0  0  0  0  0  0  0  0  0  0  0  0  # atno 8008 bound_to 7997
  155.9224  140.3420  155.6160 H   0  0  0  0  0  0  0  0  0  0  0  0  # atno 8009 bound_to 7997
  155.7206  140.0768  157.2323 H   0  0  0  0  0  0  0  0  0  0  0  0  # atno 8010 bound_to 7997
  139.6082  144.7075  151.2903 H   0  0  0  0  0  0  0  0  0  0  0  0  # atno 10167 bound_to 10162
  156.3225  130.4267  149.7947 H   0  0  0  0  0  0  0  0  0  0  0  0  # atno 10718 bound_to 10713
  154.8741  135.3792  154.4440 H   0  0  0  0  0  0  0  0  0  0  0  0  # atno 10763 bound_to 10752
  153.5122  135.7029  153.5780 H   0  0  0  0  0  0  0  0  0  0  0  0  # atno 10764 bound_to 10752
  153.4064  135.3935  155.1988 H   0  0  0  0  0  0  0  0  0  0  0  0  # atno 10765 bound_to 10752
  139.8948  134.8346  156.2701 H   0  0  0  0  0  0  0  0  0  0  0  0  # atno 11005 bound_to 11000
  146.3529  140.0480  142.8638 LP  0  0  0  0  0  0  0  0  0  0  0  0  # atno 17320 bound_to 7965
  145.1272  140.9497  143.4565 LP  0  0  0  0  0  0  0  0  0  0  0  0  # atno 17321 bound_to 7965
  140.7300  143.6891  150.7937 LP  0  0  0  0  0  0  0  0  0  0  0  0  # atno 17342 bound_to 10162
  140.0480  143.5278  152.2687 LP  0  0  0  0  0  0  0  0  0  0  0  0  # atno 17343 bound_to 10162
  156.5249  130.8232  151.3217 LP  0  0  0  0  0  0  0  0  0  0  0  0  # atno 17370 bound_to 10713
  157.7415  130.9870  150.2447 LP  0  0  0  0  0  0  0  0  0  0  0  0  # atno 17371 bound_to 10713
  141.0106  133.7098  156.1106 LP  0  0  0  0  0  0  0  0  0  0  0  0  # atno 17394 bound_to 11000
  140.7372  134.4189  157.5559 LP  0  0  0  0  0  0  0  0  0  0  0  0  # atno 17395 bound_to 11000

$$$$
