AV-unprocessed.smi:196|AV-procd|sdf|1543|dock2
  -GOLD-   2262019403D 1   1.00000     0.00000
 Structure written by MMmdl.
 47 50  0  0  0  0  0  0  0  0  1 V2000
  150.9738  140.4351  157.3337 C   0  0  0  0  0  0  0  0  0  0  0  0
  151.3382  140.2795  155.8489 C   0  0  1  0  0  0  0  0  0  0  0  0
  152.4380  139.3755  155.7712 O   0  0  0  0  0  0  0  0  0  0  0  0
  152.3572  138.6556  154.5541 C   0  0  0  0  0  0  0  0  0  0  0  0
  150.8655  138.3860  154.4323 C   0  0  0  0  0  0  0  0  0  0  0  0
  150.2409  139.6914  154.9166 C   0  0  2  0  0  0  0  0  0  0  0  0
  150.1196  140.5516  153.7958 O   0  0  0  0  0  0  0  0  0  0  0  0
  148.8286  139.5176  155.5346 C   0  0  0  0  0  0  0  0  0  0  0  0
  147.9148  138.7686  154.6852 N   0  0  0  0  0  0  0  0  0  0  0  0
  147.5301  139.0889  153.4018 C   0  0  0  0  0  0  0  0  0  0  0  0
  146.7005  138.2507  152.8424 N   0  0  0  0  0  0  0  0  0  0  0  0
  146.4872  137.2886  153.8204 C   0  0  0  0  0  0  0  0  0  0  0  0
  145.7000  136.1107  153.8886 C   0  0  0  0  0  0  0  0  0  0  0  0
  144.9427  135.6994  152.8477 N   0  0  0  0  0  0  0  0  0  0  0  0
  145.6790  135.3600  151.6343 C   0  0  0  0  0  0  0  0  0  0  0  0
  145.0381  134.0814  151.0875 C   0  0  1  0  0  0  0  0  0  0  0  0
  145.7360  133.0238  151.5046 F   0  0  0  0  0  0  0  0  0  0  0  0
  143.6585  134.0684  151.7386 C   0  0  0  0  0  0  0  0  0  0  0  0
  143.9232  134.6840  153.1183 C   0  0  2  0  0  0  0  0  0  0  0  0
  142.6527  135.2878  153.7343 C   0  0  0  0  0  0  0  0  0  0  0  0
  141.8083  134.4375  154.3224 N   0  0  0  0  0  0  0  0  0  0  0  0
  142.4273  136.4956  153.6729 O   0  0  0  0  0  0  0  0  0  0  0  0
  145.7317  135.3865  155.0380 N   0  0  0  0  0  0  0  0  0  0  0  0
  146.4844  135.7981  156.0629 C   0  0  0  0  0  0  0  0  0  0  0  0
  147.2659  136.8776  156.1445 N   0  0  0  0  0  0  0  0  0  0  0  0
  147.2379  137.5999  154.9874 C   0  0  0  0  0  0  0  0  0  0  0  0
  145.0051  134.0449  149.9984 H   0  0  0  0  0  0  0  0  0  0  0  0
  144.3215  133.9133  153.7812 H   0  0  0  0  0  0  0  0  0  0  0  0
  150.1400  141.1241  157.4694 H   0  0  0  0  0  0  0  0  0  0  0  0
  151.8194  140.8315  157.8961 H   0  0  0  0  0  0  0  0  0  0  0  0
  150.7047  139.4785  157.7824 H   0  0  0  0  0  0  0  0  0  0  0  0
  151.6775  141.2472  155.4745 H   0  0  0  0  0  0  0  0  0  0  0  0
  152.7148  139.2768  153.7315 H   0  0  0  0  0  0  0  0  0  0  0  0
  152.9516  137.7424  154.5848 H   0  0  0  0  0  0  0  0  0  0  0  0
  150.5605  138.0952  153.4259 H   0  0  0  0  0  0  0  0  0  0  0  0
  150.6037  137.5709  155.1076 H   0  0  0  0  0  0  0  0  0  0  0  0
  149.8486  140.0355  153.0521 H   0  0  0  0  0  0  0  0  0  0  0  0
  148.8899  138.9980  156.4909 H   0  0  0  0  0  0  0  0  0  0  0  0
  148.3802  140.4904  155.7405 H   0  0  0  0  0  0  0  0  0  0  0  0
  147.8923  139.9672  152.8871 H   0  0  0  0  0  0  0  0  0  0  0  0
  145.5444  136.1788  150.9268 H   0  0  0  0  0  0  0  0  0  0  0  0
  146.7527  135.2390  151.7927 H   0  0  0  0  0  0  0  0  0  0  0  0
  142.9755  134.6916  151.1583 H   0  0  0  0  0  0  0  0  0  0  0  0
  143.2307  133.0669  151.7967 H   0  0  0  0  0  0  0  0  0  0  0  0
  140.9567  134.7813  154.7418 H   0  0  0  0  0  0  0  0  0  0  0  0
  142.0249  133.4515  154.3433 H   0  0  0  0  0  0  0  0  0  0  0  0
  146.4570  135.1732  156.9433 H   0  0  0  0  0  0  0  0  0  0  0  0
  1  2  1  0  0  0  0
  1 29  1  0  0  0  0
  1 30  1  0  0  0  0
  1 31  1  0  0  0  0
  2  6  1  0  0  0  0
  2  3  1  0  0  0  0
  2 32  1  0  0  0  0
  3  4  1  0  0  0  0
  4  5  1  0  0  0  0
  4 33  1  0  0  0  0
  4 34  1  0  0  0  0
  5  6  1  0  0  0  0
  5 35  1  0  0  0  0
  5 36  1  0  0  0  0
  6  7  1  0  0  0  0
  6  8  1  0  0  0  0
  7 37  1  0  0  0  0
  8  9  1  0  0  0  0
  8 38  1  0  0  0  0
  8 39  1  0  0  0  0
  9 26  1  0  0  0  0
  9 10  1  0  0  0  0
 10 11  2  0  0  0  0
 10 40  1  0  0  0  0
 11 12  1  0  0  0  0
 12 26  2  0  0  0  0
 12 13  1  0  0  0  0
 13 14  1  0  0  0  0
 13 23  2  0  0  0  0
 14 19  1  0  0  0  0
 14 15  1  0  0  0  0
 15 16  1  0  0  0  0
 15 41  1  0  0  0  0
 15 42  1  0  0  0  0
 16 27  1  0  0  0  0
 16 17  1  0  0  0  0
 16 18  1  0  0  0  0
 18 19  1  0  0  0  0
 18 43  1  0  0  0  0
 18 44  1  0  0  0  0
 19 28  1  0  0  0  0
 19 20  1  0  0  0  0
 20 21  1  0  0  0  0
 20 22  2  0  0  0  0
 21 45  1  0  0  0  0
 21 46  1  0  0  0  0
 23 24  1  0  0  0  0
 24 25  2  0  0  0  0
 24 47  1  0  0  0  0
 25 26  1  0  0  0  0
M  END
> <s_m_source_file>
AV-unprocessed.smi

> <i_m_source_file_index>
196

> <i_lp_mmshare_version>
43012

> <i_f3d_flags>
0

> <s_epik_input>
W0NIMl0xW0NIMl1PW0NAQEhdKFtDSDNdKVtDQEBdMShbT0hdKVtDSDJdbihbY0hdbjIpYyhjMjMpbltjSF1uYzNONFtDSDJdW0NASF0oRilbQ0gyXVtDQEhdNEMoPU8pW05IMl0=

> <s_epik_cmdline>
J2VwaWtfcHl0aG9uJywgJy1waCcsICc3LjAnLCAnLXRuJywgJzgnLCAnLW1hJywgJzIwMCcsICctbWV0YWxfYmluZGluZycsICctaW1hZScsICc8aW5maWxlLm1hZT4nLCAnLW9tYWUnLCAnPG91dGZpbGUubWFlPic=

> <r_lp_tautomer_probability>
1

> <r_epik_Ionization_Penalty>
0.000857933

> <r_epik_Ionization_Penalty_Charging>
0

> <r_epik_Ionization_Penalty_Neutral>
0.000857933

> <r_epik_State_Penalty>
0.000462053

> <r_epik_Charging_Adjusted_Penalty>
0.000462053

> <i_epik_Tot_Q>
0

> <i_epik_Tot_abs_Q>
0

> <r_epik_Metal_State_Penalty>
-0

> <b_epik_Metal_Only>
0

> <s_lp_Force_Field>
OPLS_2005

> <r_lp_Energy>
44.4191

> <b_lp_Chiralities_Consistent>
1

> <s_lp_Variant>
AV-unprocessed.smi:196-16

> <Gold.Version>
5.8.1

> <Gold.Id.Protein>
6NUR|6NUR_protein|mol2

> <Gold.PLP.Fitness>
48.8451

> <Gold.PLP.PLP>
-34.7032

> <Gold.PLP.part.hbond>
-4.4511

> <Gold.PLP.part.metal>
0.0000

> <Gold.PLP.part.buried>
-5.3985

> <Gold.PLP.part.nonpolar>
-24.4570

> <Gold.PLP.part.repulsive>
0.5401

> <Gold.PLP.ligand.clash>
0.0000

> <Gold.PLP.ligand.torsion>
0.7732

> <Gold.PLP.Chemscore.Hbond>
4.2960

> <Gold.PLP.Chemscore.CHOScore>
0.8699

> <Gold.PLP.Chemscore.Metal>
0.0000

> <Gold.Chemscore.Hbonds>
donor molecule, donor type, donor heavy atom, donor atom, acceptor molecule, acceptor atom, score
      L1  H     7    37       P1  7957  0.90
      L1  H    21    45       P1 11000  0.25
      L1  H    21    46       P1 10957  1.00
      P1  H  7989  7998       L1     7  0.64
      P1  H  7997  8008       L1     3  0.83
      P1  H  8011  8017       L1     7  0.03
      L1  C    10    40       P1  7957  0.94

> <Gold.PLP.Chemscore.Internal.Correction>
0.1906

> <Gold.Rescore>
     Score         DG    S(hbond)    S(metal)    S(lipo)     H(rot)  DE(clash)    DE(int)     intcor
     13.36     -15.23       3.16        0.00      59.56       3.04       0.10       1.77       ----

> <Gold.Chemscore.Fitness>
13.3566

> <Gold.Chemscore.DG>
-15.2268

> <Gold.Chemscore.ZeroCoef>
-5.4800

> <Gold.Chemscore.Hbond>
3.1627

> <Gold.Chemscore.Metal>
0.0000

> <Gold.Chemscore.Lipo>
59.5634

> <Gold.Chemscore.Internal_Hbond>
0.0000

> <Gold.Chemscore.DEClash>
0.0994

> <Gold.Chemscore.DEInternal>
1.7708

> <Gold.Chemscore.Rot>
3.0413

> <Gold.Chemscore.Internal.Correction>
   9.000000E+99

> <Gold.Chemscore.Hbonds>
donor molecule, donor type, donor heavy atom, donor atom, acceptor molecule, acceptor atom, score
      L1  H     7    37       P1  7957  0.86
      L1  H    21    45       P1 11000  0.02
      L1  H    21    46       P1 10957  1.00
      P1  H  7989  7998       L1     7  0.10
      P1  H  7997  8008       L1     3  0.67

> <Gold.Chemscore.Hbond.Weighted>
-10.5635

> <Gold.Chemscore.Metal.Weighted>
-0.0000

> <Gold.Chemscore.Lipo.Weighted>
-6.9689

> <Gold.Chemscore.Internal_Hbond.Weighted>
0.0000

> <Gold.Chemscore.DEClash.Weighted>
0.0994

> <Gold.Chemscore.DEInternal.Weighted>
1.7708

> <Gold.Chemscore.Rot.Weighted>
7.7856

> <Gold.Chemscore.Internal.Correction.Weighted>
   9.000000E+99

> <Gold.Protein.RotatedTorsions>
[ 6907 6896 6895 6894 ] final  120.49 input  -60.11 | X-H torsion
[ 7974 7965 7964 7962 ] final  -37.66 input  175.53 | X-H torsion
[ 8008 7997 7996 7995 ] final  -33.76 input   59.86 | X-H torsion
[ 10167 10162 10161 10158 ] final   41.74 input  -65.29 | X-H torsion
[ 10718 10713 10712 10709 ] final  106.72 input   66.30 | X-H torsion
[ 10763 10752 10751 10750 ] final  109.82 input  -60.55 | X-H torsion
[ 11005 11000 10999 10996 ] final  133.01 input  -57.11 | X-H torsion

> <Gold.Protein.ActiveResidues>
 VAL166  LYS551  ARG553  GLY616  TRP617  ASP618  TYR619  PRO620  LYS621  CYS622 
 ASP623  PHE694  ASN695  SER759  ASP760  ASP761  ALA762  ILE779  LEU786  VAL792 
 PHE793  MET794  SER795  GLU796  ALA797  LYS798  CYS799  TRP800  GLU811  SER814 

> <Gold.Protein.RotatedAtoms>
  152.4394  133.7420  159.6645 H   0  0  0  0  0  0  0  0  0  0  0  0  # atno 6907 bound_to 6896
  150.8282  133.8125  159.3115 H   0  0  0  0  0  0  0  0  0  0  0  0  # atno 6908 bound_to 6896
  151.5786  135.1062  160.0064 H   0  0  0  0  0  0  0  0  0  0  0  0  # atno 6909 bound_to 6896
  146.0556  140.6421  142.9021 H   0  0  0  0  0  0  0  0  0  0  0  0  # atno 7974 bound_to 7965
  154.4140  140.1702  156.1940 H   0  0  0  0  0  0  0  0  0  0  0  0  # atno 8008 bound_to 7997
  155.9580  140.3396  155.6442 H   0  0  0  0  0  0  0  0  0  0  0  0  # atno 8009 bound_to 7997
  155.6785  140.0720  157.2484 H   0  0  0  0  0  0  0  0  0  0  0  0  # atno 8010 bound_to 7997
  140.3613  144.2225  150.6138 H   0  0  0  0  0  0  0  0  0  0  0  0  # atno 10167 bound_to 10162
  157.6657  131.0857  150.6049 H   0  0  0  0  0  0  0  0  0  0  0  0  # atno 10718 bound_to 10713
  153.4401  135.3768  155.2223 H   0  0  0  0  0  0  0  0  0  0  0  0  # atno 10763 bound_to 10752
  154.8753  135.3861  154.4163 H   0  0  0  0  0  0  0  0  0  0  0  0  # atno 10764 bound_to 10752
  153.4707  135.7087  153.6058 H   0  0  0  0  0  0  0  0  0  0  0  0  # atno 10765 bound_to 10752
  139.9825  134.9543  156.9663 H   0  0  0  0  0  0  0  0  0  0  0  0  # atno 11005 bound_to 11000
  144.7146  140.4163  143.7054 LP  0  0  0  0  0  0  0  0  0  0  0  0  # atno 17320 bound_to 7965
  145.6650  139.1588  143.2787 LP  0  0  0  0  0  0  0  0  0  0  0  0  # atno 17321 bound_to 7965
  140.5124  143.2287  151.8515 LP  0  0  0  0  0  0  0  0  0  0  0  0  # atno 17342 bound_to 10162
  139.4814  144.4934  151.9156 LP  0  0  0  0  0  0  0  0  0  0  0  0  # atno 17343 bound_to 10162
  156.6350  130.4442  149.5773 LP  0  0  0  0  0  0  0  0  0  0  0  0  # atno 17370 bound_to 10713
  156.2253  130.6762  151.1409 LP  0  0  0  0  0  0  0  0  0  0  0  0  # atno 17371 bound_to 10713
  140.5068  134.1042  155.7262 LP  0  0  0  0  0  0  0  0  0  0  0  0  # atno 17394 bound_to 11000
  141.1495  133.8995  157.2133 LP  0  0  0  0  0  0  0  0  0  0  0  0  # atno 17395 bound_to 11000

$$$$
