AV-unprocessed.smi:1031|AV-procd|sdf|4481|dock10
  -GOLD-   22720 2463D 1   1.00000     0.00000
 Structure written by MMmdl.
 35 36  0  0  0  0  0  0  0  0  1 V2000
  149.5920  141.0254  157.3441 C   0  0  0  0  0  0  0  0  0  0  0  0
  151.0898  140.8545  157.6318 C   0  0  1  0  0  0  0  0  0  0  0  0
  151.8820  140.5740  156.3368 C   0  0  0  0  0  0  0  0  0  0  0  0
  151.3135  139.4929  155.5515 N   0  0  0  0  0  0  0  0  0  0  0  0
  151.2626  138.1482  155.8542 C   0  0  0  0  0  0  0  0  0  0  0  0
  150.6194  137.5241  154.8243 C   0  0  0  0  0  0  0  0  0  0  0  0
  150.3145  138.5840  153.9250 C   0  0  0  0  0  0  0  0  0  0  0  0
  150.7350  139.7605  154.3609 N   0  0  0  0  0  0  0  0  0  0  0  0
  151.5841  142.0614  158.2937 N   0  0  0  0  0  0  0  0  0  0  0  0
  152.3692  142.0947  159.3827 C   0  0  0  0  0  0  0  0  0  0  0  0
  152.7600  141.0832  159.9666 O   0  0  0  0  0  0  0  0  0  0  0  0
  152.7849  143.4884  159.8800 C   0  0  0  0  0  0  0  0  0  0  0  0
  151.8770  143.9841  161.0304 C   0  0  0  0  0  0  0  0  0  0  0  0
  151.2090  145.2780  160.5469 C   0  0  0  0  0  0  0  0  0  0  0  0
  151.3167  145.2441  159.0253 C   0  0  0  0  0  0  0  0  0  0  0  0
  152.6535  144.5499  158.7709 C   0  0  0  0  0  0  0  0  0  0  0  0
  149.1775  140.1308  156.8789 H   0  0  0  0  0  0  0  0  0  0  0  0
  149.4088  141.8649  156.6725 H   0  0  0  0  0  0  0  0  0  0  0  0
  149.0336  141.2056  158.2634 H   0  0  0  0  0  0  0  0  0  0  0  0
  151.1917  139.9966  158.2989 H   0  0  0  0  0  0  0  0  0  0  0  0
  151.9055  141.4676  155.7112 H   0  0  0  0  0  0  0  0  0  0  0  0
  152.9202  140.3304  156.5670 H   0  0  0  0  0  0  0  0  0  0  0  0
  151.6765  137.7536  156.7706 H   0  0  0  0  0  0  0  0  0  0  0  0
  150.3983  136.4716  154.7287 H   0  0  0  0  0  0  0  0  0  0  0  0
  149.8042  138.5335  152.9744 H   0  0  0  0  0  0  0  0  0  0  0  0
  151.3138  142.9438  157.8839 H   0  0  0  0  0  0  0  0  0  0  0  0
  153.8226  143.4487  160.2164 H   0  0  0  0  0  0  0  0  0  0  0  0
  151.1113  143.2506  161.2895 H   0  0  0  0  0  0  0  0  0  0  0  0
  152.4526  144.1644  161.9389 H   0  0  0  0  0  0  0  0  0  0  0  0
  150.1776  145.3698  160.8890 H   0  0  0  0  0  0  0  0  0  0  0  0
  151.7612  146.1372  160.9299 H   0  0  0  0  0  0  0  0  0  0  0  0
  150.5028  144.6486  158.6093 H   0  0  0  0  0  0  0  0  0  0  0  0
  151.2668  146.2372  158.5781 H   0  0  0  0  0  0  0  0  0  0  0  0
  153.4644  145.2734  158.8637 H   0  0  0  0  0  0  0  0  0  0  0  0
  152.7100  144.1367  157.7624 H   0  0  0  0  0  0  0  0  0  0  0  0
  1  2  1  0  0  0  0
  1 17  1  0  0  0  0
  1 18  1  0  0  0  0
  1 19  1  0  0  0  0
  2  3  1  0  0  0  0
  2  9  1  0  0  0  0
  2 20  1  0  0  0  0
  3  4  1  0  0  0  0
  3 21  1  0  0  0  0
  3 22  1  0  0  0  0
  4  8  1  0  0  0  0
  4  5  1  0  0  0  0
  5  6  2  0  0  0  0
  5 23  1  0  0  0  0
  6  7  1  0  0  0  0
  6 24  1  0  0  0  0
  7  8  2  0  0  0  0
  7 25  1  0  0  0  0
  9 10  1  0  0  0  0
  9 26  1  0  0  0  0
 10 11  2  0  0  0  0
 10 12  1  0  0  0  0
 12 16  1  0  0  0  0
 12 13  1  0  0  0  0
 12 27  1  0  0  0  0
 13 14  1  0  0  0  0
 13 28  1  0  0  0  0
 13 29  1  0  0  0  0
 14 15  1  0  0  0  0
 14 30  1  0  0  0  0
 14 31  1  0  0  0  0
 15 16  1  0  0  0  0
 15 32  1  0  0  0  0
 15 33  1  0  0  0  0
 16 34  1  0  0  0  0
 16 35  1  0  0  0  0
M  END
> <s_m_source_file>
AV-unprocessed.smi

> <i_m_source_file_index>
1031

> <i_lp_mmshare_version>
43012

> <i_f3d_flags>
0

> <s_epik_input>
bjFbY0hdW2NIXVtjSF1uMVtDSDJdW0NAQEhdKFtDSDNdKVtOSF1DKD1PKVtDSF0yW0NIMl1bQ0gyXVtDSDJdW0NIMl0y

> <s_epik_cmdline>
J2VwaWtfcHl0aG9uJywgJy1waCcsICc3LjAnLCAnLXRuJywgJzgnLCAnLW1hJywgJzIwMCcsICctbWV0YWxfYmluZGluZycsICctaW1hZScsICc8aW5maWxlLm1hZT4nLCAnLW9tYWUnLCAnPG91dGZpbGUubWFlPic=

> <r_lp_tautomer_probability>
1

> <r_epik_Ionization_Penalty>
0.000326659

> <r_epik_Ionization_Penalty_Charging>
0

> <r_epik_Ionization_Penalty_Neutral>
0.000326659

> <r_epik_State_Penalty>
-0

> <r_epik_Charging_Adjusted_Penalty>
0

> <i_epik_Tot_Q>
0

> <i_epik_Tot_abs_Q>
0

> <r_epik_Metal_State_Penalty>
-0

> <b_epik_Metal_Only>
0

> <s_lp_Force_Field>
OPLS_2005

> <r_lp_Energy>
19.4397

> <b_lp_Chiralities_Consistent>
1

> <s_lp_Variant>
AV-unprocessed.smi:1031-2

> <Gold.Version>
5.8.1

> <Gold.Id.Protein>
6NUR|6NUR_protein|mol2

> <Gold.PLP.Fitness>
44.0213

> <Gold.PLP.PLP>
-36.9184

> <Gold.PLP.part.hbond>
-1.0000

> <Gold.PLP.part.metal>
0.0000

> <Gold.PLP.part.buried>
-4.9476

> <Gold.PLP.part.nonpolar>
-31.1901

> <Gold.PLP.part.repulsive>
0.2027

> <Gold.PLP.ligand.clash>
0.0000

> <Gold.PLP.ligand.torsion>
0.9236

> <Gold.PLP.Chemscore.Hbond>
1.0000

> <Gold.PLP.Chemscore.CHOScore>
1.9770

> <Gold.PLP.Chemscore.Metal>
0.0000

> <Gold.Chemscore.Hbonds>
donor molecule, donor type, donor heavy atom, donor atom, acceptor molecule, acceptor atom, score
      P1  H  7989  7998       L1     8  1.00
      L1  C     7    25       P1  7948  0.62
      L1  C     7    25       P1  7957  1.00

> <Gold.PLP.Chemscore.Internal.Correction>
0.0191

> <Gold.Rescore>
     Score         DG    S(hbond)    S(metal)    S(lipo)     H(rot)  DE(clash)    DE(int)     intcor
     15.96     -16.67       0.99        0.00     100.54       1.51       0.19       0.52       ----

> <Gold.Chemscore.Fitness>
15.9580

> <Gold.Chemscore.DG>
-16.6691

> <Gold.Chemscore.ZeroCoef>
-5.4800

> <Gold.Chemscore.Hbond>
0.9889

> <Gold.Chemscore.Metal>
0.0000

> <Gold.Chemscore.Lipo>
100.5438

> <Gold.Chemscore.Internal_Hbond>
0.0000

> <Gold.Chemscore.DEClash>
0.1877

> <Gold.Chemscore.DEInternal>
0.5233

> <Gold.Chemscore.Rot>
1.5146

> <Gold.Chemscore.Internal.Correction>
   9.000000E+99

> <Gold.Chemscore.Hbonds>
donor molecule, donor type, donor heavy atom, donor atom, acceptor molecule, acceptor atom, score
      P1  H  7989  7998       L1     8  0.78

> <Gold.Chemscore.Hbond.Weighted>
-3.3028

> <Gold.Chemscore.Metal.Weighted>
-0.0000

> <Gold.Chemscore.Lipo.Weighted>
-11.7636

> <Gold.Chemscore.Internal_Hbond.Weighted>
0.0000

> <Gold.Chemscore.DEClash.Weighted>
0.1877

> <Gold.Chemscore.DEInternal.Weighted>
0.5233

> <Gold.Chemscore.Rot.Weighted>
3.8773

> <Gold.Chemscore.Internal.Correction.Weighted>
   9.000000E+99

> <Gold.Protein.RotatedTorsions>
[ 6907 6896 6895 6894 ] final  111.74 input  -60.11 | X-H torsion
[ 7974 7965 7964 7962 ] final   58.76 input  175.53 | X-H torsion
[ 8008 7997 7996 7995 ] final  151.05 input   59.86 | X-H torsion
[ 10167 10162 10161 10158 ] final   73.85 input  -65.29 | X-H torsion
[ 10718 10713 10712 10709 ] final  134.99 input   66.30 | X-H torsion
[ 10763 10752 10751 10750 ] final  158.59 input  -60.55 | X-H torsion
[ 11005 11000 10999 10996 ] final   32.96 input  -57.11 | X-H torsion

> <Gold.Protein.ActiveResidues>
 VAL166  LYS551  ARG553  GLY616  TRP617  ASP618  TYR619  PRO620  LYS621  CYS622 
 ASP623  PHE694  ASN695  SER759  ASP760  ASP761  ALA762  ILE779  LEU786  VAL792 
 PHE793  MET794  SER795  GLU796  ALA797  LYS798  CYS799  TRP800  GLU811  SER814 

> <Gold.Protein.RotatedAtoms>
  152.4953  133.8615  159.7252 H   0  0  0  0  0  0  0  0  0  0  0  0  # atno 6907 bound_to 6896
  150.9125  133.6970  159.2858 H   0  0  0  0  0  0  0  0  0  0  0  0  # atno 6908 bound_to 6896
  151.4375  135.1021  159.9713 H   0  0  0  0  0  0  0  0  0  0  0  0  # atno 6909 bound_to 6896
  145.9146  139.3681  143.0515 H   0  0  0  0  0  0  0  0  0  0  0  0  # atno 7974 bound_to 7965
  156.2690  140.2058  156.6114 H   0  0  0  0  0  0  0  0  0  0  0  0  # atno 8008 bound_to 7997
  154.6828  140.0538  157.0308 H   0  0  0  0  0  0  0  0  0  0  0  0  # atno 8009 bound_to 7997
  155.0976  140.3203  155.4559 H   0  0  0  0  0  0  0  0  0  0  0  0  # atno 8010 bound_to 7997
  140.0200  144.5548  150.7589 H   0  0  0  0  0  0  0  0  0  0  0  0  # atno 10167 bound_to 10162
  157.4616  131.1074  150.9912 H   0  0  0  0  0  0  0  0  0  0  0  0  # atno 10718 bound_to 10713
  154.2185  135.2783  155.2933 H   0  0  0  0  0  0  0  0  0  0  0  0  # atno 10763 bound_to 10752
  154.5721  135.5615  153.7108 H   0  0  0  0  0  0  0  0  0  0  0  0  # atno 10764 bound_to 10752
  153.0047  135.6324  154.2325 H   0  0  0  0  0  0  0  0  0  0  0  0  # atno 10765 bound_to 10752
  140.2680  134.3115  155.7836 H   0  0  0  0  0  0  0  0  0  0  0  0  # atno 11005 bound_to 11000
  145.8627  140.9466  143.0691 LP  0  0  0  0  0  0  0  0  0  0  0  0  # atno 17320 bound_to 7965
  144.6746  140.0552  143.7477 LP  0  0  0  0  0  0  0  0  0  0  0  0  # atno 17321 bound_to 7965
  140.7346  143.2731  151.3826 LP  0  0  0  0  0  0  0  0  0  0  0  0  # atno 17342 bound_to 10162
  139.6146  144.1029  152.2333 LP  0  0  0  0  0  0  0  0  0  0  0  0  # atno 17343 bound_to 10162
  157.0708  130.5863  149.5402 LP  0  0  0  0  0  0  0  0  0  0  0  0  # atno 17370 bound_to 10713
  156.0031  130.5114  150.7735 LP  0  0  0  0  0  0  0  0  0  0  0  0  # atno 17371 bound_to 10713
  141.2181  133.7449  156.9290 LP  0  0  0  0  0  0  0  0  0  0  0  0  # atno 17394 bound_to 11000
  140.1400  134.9300  157.2454 LP  0  0  0  0  0  0  0  0  0  0  0  0  # atno 17395 bound_to 11000

$$$$
