AV-unprocessed.smi:1274|AV-procd|sdf|5340|dock2
  -GOLD-   22720 4473D 1   1.00000     0.00000
 Structure written by MMmdl.
 37 38  0  0  0  0  0  0  0  0  1 V2000
  151.0328  139.7219  158.8417 O   0  0  0  0  0  0  0  0  0  0  0  0
  152.3050  140.3274  158.4202 S   0  0  0  0  0  0  0  0  0  0  0  0
  153.5852  139.6466  158.6680 O   0  0  0  0  0  0  0  0  0  0  0  0
  152.2243  140.7064  156.7386 N   0  0  0  0  0  0  0  0  0  0  0  0
  150.9268  140.9466  156.1036 C   0  0  0  0  0  0  0  0  0  0  0  0
  150.4894  139.7554  155.2323 C   0  0  0  0  0  0  0  0  0  0  0  0
  149.1804  140.0061  154.5044 C   0  0  0  0  0  0  0  0  0  0  0  0
  148.5888  141.2858  154.4992 C   0  0  0  0  0  0  0  0  0  0  0  0
  147.3645  141.4642  153.8267 C   0  0  0  0  0  0  0  0  0  0  0  0
  146.7827  140.3516  153.1865 C   0  0  0  0  0  0  0  0  0  0  0  0
  147.3406  139.1219  153.1832 N   0  0  0  0  0  0  0  0  0  0  0  0
  148.5157  138.9602  153.8284 C   0  0  0  0  0  0  0  0  0  0  0  0
  152.3842  141.9334  159.0650 N   0  0  0  0  0  0  0  0  0  0  0  0
  151.5432  142.9624  158.4147 C   0  0  0  0  0  0  0  0  0  0  0  0
  151.9575  144.3818  158.8352 C   0  0  0  0  0  0  0  0  0  0  0  0
  151.9487  144.5319  160.3585 C   0  0  0  0  0  0  0  0  0  0  0  0
  152.8612  143.4679  160.9741 C   0  0  0  0  0  0  0  0  0  0  0  0
  152.4470  142.0529  160.5356 C   0  0  0  0  0  0  0  0  0  0  0  0
  152.8317  140.1056  156.1818 H   0  0  0  0  0  0  0  0  0  0  0  0
  150.1882  141.1192  156.8869 H   0  0  0  0  0  0  0  0  0  0  0  0
  150.9773  141.8604  155.5110 H   0  0  0  0  0  0  0  0  0  0  0  0
  151.2627  139.5459  154.4924 H   0  0  0  0  0  0  0  0  0  0  0  0
  150.4042  138.8503  155.8333 H   0  0  0  0  0  0  0  0  0  0  0  0
  149.0613  142.1149  155.0053 H   0  0  0  0  0  0  0  0  0  0  0  0
  146.8812  142.4297  153.8035 H   0  0  0  0  0  0  0  0  0  0  0  0
  145.8434  140.4521  152.6632 H   0  0  0  0  0  0  0  0  0  0  0  0
  148.9312  137.9635  153.8118 H   0  0  0  0  0  0  0  0  0  0  0  0
  151.6146  142.8754  157.3312 H   0  0  0  0  0  0  0  0  0  0  0  0
  150.4993  142.7812  158.6742 H   0  0  0  0  0  0  0  0  0  0  0  0
  152.9540  144.6013  158.4495 H   0  0  0  0  0  0  0  0  0  0  0  0
  151.2848  145.1122  158.3853 H   0  0  0  0  0  0  0  0  0  0  0  0
  152.2845  145.5296  160.6427 H   0  0  0  0  0  0  0  0  0  0  0  0
  150.9328  144.4189  160.7392 H   0  0  0  0  0  0  0  0  0  0  0  0
  153.8938  143.6546  160.6764 H   0  0  0  0  0  0  0  0  0  0  0  0
  152.8353  143.5407  162.0617 H   0  0  0  0  0  0  0  0  0  0  0  0
  151.4726  141.7952  160.9529 H   0  0  0  0  0  0  0  0  0  0  0  0
  153.1608  141.3304  160.9317 H   0  0  0  0  0  0  0  0  0  0  0  0
  1  2  2  0  0  0  0
  2  3  2  0  0  0  0
  2  4  1  0  0  0  0
  2 13  1  0  0  0  0
  4  5  1  0  0  0  0
  4 19  1  0  0  0  0
  5  6  1  0  0  0  0
  5 20  1  0  0  0  0
  5 21  1  0  0  0  0
  6  7  1  0  0  0  0
  6 22  1  0  0  0  0
  6 23  1  0  0  0  0
  7 12  1  0  0  0  0
  7  8  2  0  0  0  0
  8  9  1  0  0  0  0
  8 24  1  0  0  0  0
  9 10  2  0  0  0  0
  9 25  1  0  0  0  0
 10 11  1  0  0  0  0
 10 26  1  0  0  0  0
 11 12  2  0  0  0  0
 12 27  1  0  0  0  0
 13 18  1  0  0  0  0
 13 14  1  0  0  0  0
 14 15  1  0  0  0  0
 14 28  1  0  0  0  0
 14 29  1  0  0  0  0
 15 16  1  0  0  0  0
 15 30  1  0  0  0  0
 15 31  1  0  0  0  0
 16 17  1  0  0  0  0
 16 32  1  0  0  0  0
 16 33  1  0  0  0  0
 17 18  1  0  0  0  0
 17 34  1  0  0  0  0
 17 35  1  0  0  0  0
 18 36  1  0  0  0  0
 18 37  1  0  0  0  0
M  END
> <s_m_source_file>
AV-unprocessed.smi

> <i_m_source_file_index>
1274

> <i_lp_mmshare_version>
43012

> <i_f3d_flags>
0

> <s_epik_input>
W0NIMl0xW0NIMl1bQ0gyXVtDSDJdW0NIMl1OMVMoPU8pKD1PKVtOSF1bQ0gyXVtDSDJdYzJbY0hdW2NIXVtjSF1uW2NIXTI=

> <s_epik_cmdline>
J2VwaWtfcHl0aG9uJywgJy1waCcsICc3LjAnLCAnLXRuJywgJzgnLCAnLW1hJywgJzIwMCcsICctbWV0YWxfYmluZGluZycsICctaW1hZScsICc8aW5maWxlLm1hZT4nLCAnLW9tYWUnLCAnPG91dGZpbGUubWFlPic=

> <r_epik_Ionization_Penalty>
0.0259724

> <r_epik_Ionization_Penalty_Charging>
0

> <r_epik_Ionization_Penalty_Neutral>
0.0259724

> <r_epik_State_Penalty>
0.0167858

> <r_epik_Charging_Adjusted_Penalty>
0.0167858

> <i_epik_Tot_Q>
0

> <i_epik_Tot_abs_Q>
0

> <r_epik_Metal_State_Penalty>
0.268382

> <b_epik_Metal_Only>
0

> <s_lp_Force_Field>
OPLS_2005

> <r_lp_Energy>
7.33886

> <b_lp_Chiralities_Consistent>
1

> <s_lp_Variant>
AV-unprocessed.smi:1274-1

> <Gold.Version>
5.8.1

> <Gold.Id.Protein>
6NUR|6NUR_protein|mol2

> <Gold.PLP.Fitness>
42.8219

> <Gold.PLP.PLP>
-35.8594

> <Gold.PLP.part.hbond>
-1.8387

> <Gold.PLP.part.metal>
0.0000

> <Gold.PLP.part.buried>
-0.0180

> <Gold.PLP.part.nonpolar>
-34.4433

> <Gold.PLP.part.repulsive>
0.6463

> <Gold.PLP.ligand.clash>
0.0000

> <Gold.PLP.ligand.torsion>
1.3979

> <Gold.PLP.Chemscore.Hbond>
1.0000

> <Gold.PLP.Chemscore.CHOScore>
1.9996

> <Gold.PLP.Chemscore.Metal>
0.0000

> <Gold.Chemscore.Hbonds>
donor molecule, donor type, donor heavy atom, donor atom, acceptor molecule, acceptor atom, score
      P1  H  7997  8009       L1     3  1.00
      L1  C    10    26       P1 10175  1.00
      L1  C    12    27       P1  7948  0.83

> <Gold.PLP.Chemscore.Internal.Correction>
0.7595

> <Gold.Rescore>
     Score         DG    S(hbond)    S(metal)    S(lipo)     H(rot)  DE(clash)    DE(int)     intcor
     14.13     -16.59       0.91        0.00     105.91       1.69       1.15       1.31       ----

> <Gold.Chemscore.Fitness>
14.1287

> <Gold.Chemscore.DG>
-16.5925

> <Gold.Chemscore.ZeroCoef>
-5.4800

> <Gold.Chemscore.Hbond>
0.9116

> <Gold.Chemscore.Metal>
0.0000

> <Gold.Chemscore.Lipo>
105.9143

> <Gold.Chemscore.Internal_Hbond>
0.0000

> <Gold.Chemscore.DEClash>
1.1547

> <Gold.Chemscore.DEInternal>
1.3092

> <Gold.Chemscore.Rot>
1.6891

> <Gold.Chemscore.Internal.Correction>
   9.000000E+99

> <Gold.Chemscore.Hbonds>
donor molecule, donor type, donor heavy atom, donor atom, acceptor molecule, acceptor atom, score
      P1  H  7997  8009       L1     3  0.55

> <Gold.Chemscore.Hbond.Weighted>
-3.0447

> <Gold.Chemscore.Metal.Weighted>
-0.0000

> <Gold.Chemscore.Lipo.Weighted>
-12.3920

> <Gold.Chemscore.Internal_Hbond.Weighted>
0.0000

> <Gold.Chemscore.DEClash.Weighted>
1.1547

> <Gold.Chemscore.DEInternal.Weighted>
1.3092

> <Gold.Chemscore.Rot.Weighted>
4.3241

> <Gold.Chemscore.Internal.Correction.Weighted>
   9.000000E+99

> <Gold.Protein.RotatedTorsions>
[ 6907 6896 6895 6894 ] final  159.61 input  -60.11 | X-H torsion
[ 7974 7965 7964 7962 ] final  142.62 input  175.53 | X-H torsion
[ 8008 7997 7996 7995 ] final  147.28 input   59.86 | X-H torsion
[ 10167 10162 10161 10158 ] final   72.74 input  -65.29 | X-H torsion
[ 10718 10713 10712 10709 ] final   60.52 input   66.30 | X-H torsion
[ 10763 10752 10751 10750 ] final -151.22 input  -60.55 | X-H torsion
[ 11005 11000 10999 10996 ] final  162.51 input  -57.11 | X-H torsion

> <Gold.Protein.ActiveResidues>
 VAL166  LYS551  ARG553  GLY616  TRP617  ASP618  TYR619  PRO620  LYS621  CYS622 
 ASP623  PHE694  ASN695  SER759  ASP760  ASP761  ALA762  ILE779  LEU786  VAL792 
 PHE793  MET794  SER795  GLU796  ALA797  LYS798  CYS799  TRP800  GLU811  SER814 

> <Gold.Protein.RotatedAtoms>
  151.9829  133.3764  159.4114 H   0  0  0  0  0  0  0  0  0  0  0  0  # atno 6907 bound_to 6896
  150.6932  134.4019  159.5132 H   0  0  0  0  0  0  0  0  0  0  0  0  # atno 6908 bound_to 6896
  152.1740  134.8810  160.0582 H   0  0  0  0  0  0  0  0  0  0  0  0  # atno 6909 bound_to 6896
  144.8992  139.5448  143.5762 H   0  0  0  0  0  0  0  0  0  0  0  0  # atno 7974 bound_to 7965
  156.2830  140.2160  156.5512 H   0  0  0  0  0  0  0  0  0  0  0  0  # atno 8008 bound_to 7997
  154.7290  140.0497  157.0731 H   0  0  0  0  0  0  0  0  0  0  0  0  # atno 8009 bound_to 7997
  155.0379  140.3142  155.4738 H   0  0  0  0  0  0  0  0  0  0  0  0  # atno 8010 bound_to 7997
  140.0320  144.5458  150.7499 H   0  0  0  0  0  0  0  0  0  0  0  0  # atno 10167 bound_to 10162
  157.5759  130.8943  149.9346 H   0  0  0  0  0  0  0  0  0  0  0  0  # atno 10718 bound_to 10713
  154.8071  135.3265  154.7402 H   0  0  0  0  0  0  0  0  0  0  0  0  # atno 10763 bound_to 10752
  153.8058  135.6899  153.4853 H   0  0  0  0  0  0  0  0  0  0  0  0  # atno 10764 bound_to 10752
  153.1824  135.4581  154.9990 H   0  0  0  0  0  0  0  0  0  0  0  0  # atno 10765 bound_to 10752
  140.2265  134.8157  157.3273 H   0  0  0  0  0  0  0  0  0  0  0  0  # atno 11005 bound_to 11000
  146.3098  139.7707  142.9028 LP  0  0  0  0  0  0  0  0  0  0  0  0  # atno 17320 bound_to 7965
  145.3647  141.0332  143.3265 LP  0  0  0  0  0  0  0  0  0  0  0  0  # atno 17321 bound_to 7965
  140.7298  143.2676  151.3993 LP  0  0  0  0  0  0  0  0  0  0  0  0  # atno 17342 bound_to 10162
  139.6070  144.1177  152.2259 LP  0  0  0  0  0  0  0  0  0  0  0  0  # atno 17343 bound_to 10162
  156.0803  130.3674  150.0593 LP  0  0  0  0  0  0  0  0  0  0  0  0  # atno 17370 bound_to 10713
  156.8739  130.9534  151.3606 LP  0  0  0  0  0  0  0  0  0  0  0  0  # atno 17371 bound_to 10713
  140.1795  134.4507  155.7781 LP  0  0  0  0  0  0  0  0  0  0  0  0  # atno 17394 bound_to 11000
  141.2220  133.6977  156.7845 LP  0  0  0  0  0  0  0  0  0  0  0  0  # atno 17395 bound_to 11000

$$$$
