AV-unprocessed.smi:62|AV-procd|sdf|602|dock7
  -GOLD-   2262016493D 1   1.00000     0.00000
 Structure written by MMmdl.
 31 32  0  0  0  0  0  0  0  0  3 V2000
  151.5544  145.5903  159.9930 C   0  0  0  0  0  0  0  0  0  0  0  0
  151.6787  144.2989  159.3520 N   0  0  0  0  0  0  0  0  0  0  0  0
  151.0170  143.8190  158.2466 C   0  0  0  0  0  0  0  0  0  0  0  0
  151.4596  142.5479  158.0015 C   0  0  0  0  0  0  0  0  0  0  0  0
  150.9889  141.6749  156.8586 C   0  0  0  0  0  0  0  0  0  0  0  0
  149.6625  142.1091  156.3601 N   0  3  2  0  0  0  0  0  0  0  0  0
  148.5428  141.8139  157.2768 C   0  0  0  0  0  0  0  0  0  0  0  0
  147.3006  141.8271  156.3925 C   0  0  0  0  0  0  0  0  0  0  0  0
  147.8087  141.1851  155.1045 C   0  0  1  0  0  0  0  0  0  0  0  0
  147.0545  141.5914  153.9822 O   0  0  0  0  0  0  0  0  0  0  0  0
  149.2791  141.6201  155.0127 C   0  0  0  0  0  0  0  0  0  0  0  0
  152.4112  142.3306  159.0593 C   0  0  0  0  0  0  0  0  0  0  0  0
  153.1751  141.0441  159.2351 C   0  0  0  0  0  0  0  0  0  0  0  0
  153.8786  140.8611  160.2516 O   0  0  0  0  0  0  0  0  0  0  0  0
  153.0776  140.1814  158.3351 O   0  5  0  0  0  0  0  0  0  0  0  0
  152.5345  143.3890  159.8496 N   0  0  0  0  0  0  0  0  0  0  0  0
  151.0272  146.2836  159.3367 H   0  0  0  0  0  0  0  0  0  0  0  0
  152.5431  145.9949  160.2125 H   0  0  0  0  0  0  0  0  0  0  0  0
  150.9952  145.4856  160.9232 H   0  0  0  0  0  0  0  0  0  0  0  0
  150.2901  144.4206  157.7208 H   0  0  0  0  0  0  0  0  0  0  0  0
  151.6930  141.6100  156.0323 H   0  0  0  0  0  0  0  0  0  0  0  0
  150.8838  140.6478  157.2103 H   0  0  0  0  0  0  0  0  0  0  0  0
  148.6727  140.8216  157.7125 H   0  0  0  0  0  0  0  0  0  0  0  0
  148.4865  142.5376  158.0906 H   0  0  0  0  0  0  0  0  0  0  0  0
  146.4576  141.2925  156.8315 H   0  0  0  0  0  0  0  0  0  0  0  0
  146.9915  142.8580  156.2113 H   0  0  0  0  0  0  0  0  0  0  0  0
  147.7564  140.0993  155.1983 H   0  0  0  0  0  0  0  0  0  0  0  0
  146.1706  141.7750  154.2630 H   0  0  0  0  0  0  0  0  0  0  0  0
  149.4193  142.4365  154.3030 H   0  0  0  0  0  0  0  0  0  0  0  0
  149.8925  140.7862  154.6773 H   0  0  0  0  0  0  0  0  0  0  0  0
  149.6952  143.1153  156.2835 H   0  0  0  0  0  0  0  0  0  0  0  0
  1  2  1  0  0  0  0
  1 17  1  0  0  0  0
  1 18  1  0  0  0  0
  1 19  1  0  0  0  0
  2 16  1  0  0  0  0
  2  3  1  0  0  0  0
  3  4  2  0  0  0  0
  3 20  1  0  0  0  0
  4  5  1  0  0  0  0
  4 12  1  0  0  0  0
  5  6  1  0  0  0  0
  5 21  1  0  0  0  0
  5 22  1  0  0  0  0
  6 11  1  0  0  0  0
  6  7  1  0  0  0  0
  6 31  1  0  0  0  0
  7  8  1  0  0  0  0
  7 23  1  0  0  0  0
  7 24  1  0  0  0  0
  8  9  1  0  0  0  0
  8 25  1  0  0  0  0
  8 26  1  0  0  0  0
  9 10  1  0  0  0  0
  9 11  1  0  0  0  0
  9 27  1  0  0  0  0
 10 28  1  0  0  0  0
 11 29  1  0  0  0  0
 11 30  1  0  0  0  0
 12 13  1  0  0  0  0
 12 16  2  0  0  0  0
 13 14  2  0  0  0  0
 13 15  1  0  0  0  0
M  CHG  1   6   1
M  CHG  1  15  -1
M  END
> <s_m_source_file>
AV-unprocessed.smi

> <i_m_source_file_index>
62

> <i_lp_mmshare_version>
43012

> <i_f3d_flags>
0

> <s_epik_input>
W0NIM11uMVtjSF1jKGMobjEpQyg9TylbT0hdKVtDSDJdTjJbQ0gyXVtDSDJdW0NAQEhdKFtPSF0pW0NIMl0y

> <s_epik_cmdline>
J2VwaWtfcHl0aG9uJywgJy1waCcsICc3LjAnLCAnLXRuJywgJzgnLCAnLW1hJywgJzIwMCcsICctbWV0YWxfYmluZGluZycsICctaW1hZScsICc8aW5maWxlLm1hZT4nLCAnLW9tYWUnLCAnPG91dGZpbGUubWFlPic=

> <r_epik_Ionization_Penalty>
0.0522993

> <r_epik_Ionization_Penalty_Charging>
0.0522915

> <r_epik_Ionization_Penalty_Neutral>
7.84975e-06

> <r_epik_State_Penalty>
0.0448084

> <r_epik_Charging_Adjusted_Penalty>
0.0970998

> <i_epik_Tot_Q>
0

> <i_epik_Tot_abs_Q>
2

> <r_epik_Metal_State_Penalty>
0.0448097

> <b_epik_Metal_Only>
0

> <s_lp_Force_Field>
OPLS_2005

> <r_lp_Energy>
19.3892

> <b_lp_Chiralities_Consistent>
1

> <s_lp_Variant>
AV-unprocessed.smi:62-2

> <Gold.Version>
5.8.1

> <Gold.Id.Protein>
6NUR|6NUR_protein|mol2

> <Gold.PLP.Fitness>
45.4170

> <Gold.PLP.PLP>
-31.4755

> <Gold.PLP.part.hbond>
-2.0000

> <Gold.PLP.part.metal>
0.0000

> <Gold.PLP.part.buried>
-5.5372

> <Gold.PLP.part.nonpolar>
-24.9116

> <Gold.PLP.part.repulsive>
0.0650

> <Gold.PLP.ligand.clash>
0.0000

> <Gold.PLP.ligand.torsion>
0.4513

> <Gold.PLP.Chemscore.Hbond>
3.9040

> <Gold.PLP.Chemscore.CHOScore>
1.0407

> <Gold.PLP.Chemscore.Metal>
0.0000

> <Gold.Chemscore.Hbonds>
donor molecule, donor type, donor heavy atom, donor atom, acceptor molecule, acceptor atom, score
      L1  H     6    31       P1  8028  1.95
      P1  H  7997  8008       L1    15  1.95
      L1  C     3    20       P1  8028  1.00
      L1  C     3    20       P1  8029  0.04

> <Gold.PLP.Chemscore.Internal.Correction>
0.0099

> <Gold.Rescore>
     Score         DG    S(hbond)    S(metal)    S(lipo)     H(rot)  DE(clash)    DE(int)     intcor
     13.33     -14.96       1.83        0.00      68.29       1.81       0.02       1.60       ----

> <Gold.Chemscore.Fitness>
13.3310

> <Gold.Chemscore.DG>
-14.9559

> <Gold.Chemscore.ZeroCoef>
-5.4800

> <Gold.Chemscore.Hbond>
1.8314

> <Gold.Chemscore.Metal>
0.0000

> <Gold.Chemscore.Lipo>
68.2940

> <Gold.Chemscore.Internal_Hbond>
0.0000

> <Gold.Chemscore.DEClash>
0.0243

> <Gold.Chemscore.DEInternal>
1.6006

> <Gold.Chemscore.Rot>
1.8091

> <Gold.Chemscore.Internal.Correction>
   9.000000E+99

> <Gold.Chemscore.Hbonds>
donor molecule, donor type, donor heavy atom, donor atom, acceptor molecule, acceptor atom, score
      L1  H     6    31       P1  8028  0.93
      P1  H  7997  8008       L1    15  0.83

> <Gold.Chemscore.Hbond.Weighted>
-6.1169

> <Gold.Chemscore.Metal.Weighted>
-0.0000

> <Gold.Chemscore.Lipo.Weighted>
-7.9904

> <Gold.Chemscore.Internal_Hbond.Weighted>
0.0000

> <Gold.Chemscore.DEClash.Weighted>
0.0243

> <Gold.Chemscore.DEInternal.Weighted>
1.6006

> <Gold.Chemscore.Rot.Weighted>
4.6314

> <Gold.Chemscore.Internal.Correction.Weighted>
   9.000000E+99

> <Gold.Protein.RotatedTorsions>
[ 6907 6896 6895 6894 ] final  -15.34 input  -60.11 | X-H torsion
[ 7974 7965 7964 7962 ] final   60.01 input  175.53 | X-H torsion
[ 8008 7997 7996 7995 ] final  -87.83 input   59.86 | X-H torsion
[ 10167 10162 10161 10158 ] final   81.11 input  -65.29 | X-H torsion
[ 10718 10713 10712 10709 ] final  127.81 input   66.30 | X-H torsion
[ 10763 10752 10751 10750 ] final   25.81 input  -60.55 | X-H torsion
[ 11005 11000 10999 10996 ] final -157.12 input  -57.11 | X-H torsion

> <Gold.Protein.ActiveResidues>
 VAL166  LYS551  ARG553  GLY616  TRP617  ASP618  TYR619  PRO620  LYS621  CYS622 
 ASP623  PHE694  ASN695  SER759  ASP760  ASP761  ALA762  ILE779  LEU786  VAL792 
 PHE793  MET794  SER795  GLU796  ALA797  LYS798  CYS799  TRP800  GLU811  SER814 

> <Gold.Protein.RotatedAtoms>
  151.3254  135.0829  159.9319 H   0  0  0  0  0  0  0  0  0  0  0  0  # atno 6907 bound_to 6896
  152.5247  133.9597  159.7721 H   0  0  0  0  0  0  0  0  0  0  0  0  # atno 6908 bound_to 6896
  150.9925  133.6082  159.2736 H   0  0  0  0  0  0  0  0  0  0  0  0  # atno 6909 bound_to 6896
  145.9008  139.3580  143.0594 H   0  0  0  0  0  0  0  0  0  0  0  0  # atno 7974 bound_to 7965
  154.6678  140.0561  157.0133 H   0  0  0  0  0  0  0  0  0  0  0  0  # atno 8008 bound_to 7997
  155.1133  140.3240  155.4497 H   0  0  0  0  0  0  0  0  0  0  0  0  # atno 8009 bound_to 7997
  156.2645  140.2010  156.6257 H   0  0  0  0  0  0  0  0  0  0  0  0  # atno 8010 bound_to 7997
  139.9426  144.6079  150.8237 H   0  0  0  0  0  0  0  0  0  0  0  0  # atno 10167 bound_to 10162
  157.5300  131.1098  150.9024 H   0  0  0  0  0  0  0  0  0  0  0  0  # atno 10718 bound_to 10713
  153.0666  135.6574  154.0341 H   0  0  0  0  0  0  0  0  0  0  0  0  # atno 10763 bound_to 10752
  153.9996  135.2938  155.3405 H   0  0  0  0  0  0  0  0  0  0  0  0  # atno 10764 bound_to 10752
  154.7026  135.5238  153.8617 H   0  0  0  0  0  0  0  0  0  0  0  0  # atno 10765 bound_to 10752
  140.6681  134.4277  157.5232 H   0  0  0  0  0  0  0  0  0  0  0  0  # atno 11005 bound_to 11000
  145.8793  140.9372  143.0609 LP  0  0  0  0  0  0  0  0  0  0  0  0  # atno 17320 bound_to 7965
  144.6736  140.0759  143.7471 LP  0  0  0  0  0  0  0  0  0  0  0  0  # atno 17321 bound_to 7965
  140.7606  143.3156  151.2742 LP  0  0  0  0  0  0  0  0  0  0  0  0  # atno 17342 bound_to 10162
  139.6692  144.0051  152.2742 LP  0  0  0  0  0  0  0  0  0  0  0  0  # atno 17343 bound_to 10162
  156.9608  130.5454  149.5286 LP  0  0  0  0  0  0  0  0  0  0  0  0  # atno 17370 bound_to 10713
  156.0415  130.5497  150.8782 LP  0  0  0  0  0  0  0  0  0  0  0  0  # atno 17371 bound_to 10713
  139.8991  134.8599  156.1976 LP  0  0  0  0  0  0  0  0  0  0  0  0  # atno 17394 bound_to 11000
  141.0414  133.6936  156.1604 LP  0  0  0  0  0  0  0  0  0  0  0  0  # atno 17395 bound_to 11000

$$$$
