AV-unprocessed.smi:2477|AV-procd|sdf|9762|dock10
  -GOLD-   2272013403D 1   1.00000     0.00000
 Structure written by MMmdl.
 51 53  0  0  0  0  0  0  0  0  1 V2000
  150.3564  140.8234  155.5214 C   0  0  0  0  0  0  0  0  0  0  0  0
  149.1541  140.6175  154.7095 N   0  0  0  0  0  0  0  0  0  0  0  0
  148.3024  141.7184  154.5180 C   0  0  0  0  0  0  0  0  0  0  0  0
  147.1825  141.6223  153.7880 C   0  0  0  0  0  0  0  0  0  0  0  0
  146.8600  140.3490  153.1900 C   0  0  0  0  0  0  0  0  0  0  0  0
  147.6638  139.2705  153.3694 C   0  0  0  0  0  0  0  0  0  0  0  0
  147.4327  137.9975  152.8196 N   0  0  0  0  0  0  0  0  0  0  0  0
  146.2734  137.3377  152.6447 C   0  0  0  0  0  0  0  0  0  0  0  0
  145.1551  137.7498  152.9508 O   0  0  0  0  0  0  0  0  0  0  0  0
  146.4928  136.1249  152.1164 N   0  0  0  0  0  0  0  0  0  0  0  0
  145.4724  135.1080  151.8727 C   0  0  1  0  0  0  0  0  0  0  0  0
  144.8338  135.3610  150.4931 C   0  0  0  0  0  0  0  0  0  0  0  0
  143.7950  134.2845  150.1417 C   0  0  0  0  0  0  0  0  0  0  0  0
  144.4075  132.8780  150.2117 C   0  0  0  0  0  0  0  0  0  0  0  0
  145.0359  132.6198  151.5890 C   0  0  0  0  0  0  0  0  0  0  0  0
  146.0855  133.6889  151.9404 C   0  0  2  0  0  0  0  0  0  0  0  0
  146.5292  133.4192  153.2657 O   0  0  0  0  0  0  0  0  0  0  0  0
  147.5219  132.4047  153.3728 C   0  0  0  0  0  0  0  0  0  0  0  0
  147.7734  132.0553  154.8423 C   0  0  0  0  0  0  0  0  0  0  0  0
  148.6599  133.1892  155.3643 C   0  0  0  0  0  0  0  0  0  0  0  0
  149.4204  133.7312  154.1440 C   0  0  0  0  0  0  0  0  0  0  0  0
  148.8566  132.9973  152.9198 C   0  0  0  0  0  0  0  0  0  0  0  0
  148.8958  139.3873  154.1741 C   0  0  0  0  0  0  0  0  0  0  0  0
  149.6597  138.4370  154.3622 O   0  0  0  0  0  0  0  0  0  0  0  0
  150.4645  141.8538  155.8617 H   0  0  0  0  0  0  0  0  0  0  0  0
  151.2527  140.5761  154.9508 H   0  0  0  0  0  0  0  0  0  0  0  0
  150.3314  140.1884  156.4081 H   0  0  0  0  0  0  0  0  0  0  0  0
  148.6124  142.6357  154.9968 H   0  0  0  0  0  0  0  0  0  0  0  0
  146.5368  142.4769  153.6504 H   0  0  0  0  0  0  0  0  0  0  0  0
  145.9676  140.3032  152.5878 H   0  0  0  0  0  0  0  0  0  0  0  0
  148.2719  137.4961  152.5663 H   0  0  0  0  0  0  0  0  0  0  0  0
  147.4448  135.8695  151.8987 H   0  0  0  0  0  0  0  0  0  0  0  0
  144.6841  135.1871  152.6242 H   0  0  0  0  0  0  0  0  0  0  0  0
  144.3617  136.3439  150.4751 H   0  0  0  0  0  0  0  0  0  0  0  0
  145.6081  135.3771  149.7242 H   0  0  0  0  0  0  0  0  0  0  0  0
  142.9523  134.3517  150.8310 H   0  0  0  0  0  0  0  0  0  0  0  0
  143.3941  134.4661  149.1441 H   0  0  0  0  0  0  0  0  0  0  0  0
  143.6426  132.1288  150.0053 H   0  0  0  0  0  0  0  0  0  0  0  0
  145.1665  132.7684  149.4361 H   0  0  0  0  0  0  0  0  0  0  0  0
  144.2528  132.6117  152.3485 H   0  0  0  0  0  0  0  0  0  0  0  0
  145.4929  131.6300  151.6077 H   0  0  0  0  0  0  0  0  0  0  0  0
  146.9041  133.6123  151.2213 H   0  0  0  0  0  0  0  0  0  0  0  0
  147.2588  131.5324  152.7726 H   0  0  0  0  0  0  0  0  0  0  0  0
  146.8590  131.9348  155.4236 H   0  0  0  0  0  0  0  0  0  0  0  0
  148.3218  131.1141  154.8986 H   0  0  0  0  0  0  0  0  0  0  0  0
  148.0347  133.9786  155.7836 H   0  0  0  0  0  0  0  0  0  0  0  0
  149.3309  132.8498  156.1538 H   0  0  0  0  0  0  0  0  0  0  0  0
  149.2593  134.8062  154.0528 H   0  0  0  0  0  0  0  0  0  0  0  0
  150.4949  133.5684  154.2339 H   0  0  0  0  0  0  0  0  0  0  0  0
  149.5325  132.1866  152.6447 H   0  0  0  0  0  0  0  0  0  0  0  0
  148.7558  133.6449  152.0480 H   0  0  0  0  0  0  0  0  0  0  0  0
  1  2  1  0  0  0  0
  1 25  1  0  0  0  0
  1 26  1  0  0  0  0
  1 27  1  0  0  0  0
  2 23  1  0  0  0  0
  2  3  1  0  0  0  0
  3  4  2  0  0  0  0
  3 28  1  0  0  0  0
  4  5  1  0  0  0  0
  4 29  1  0  0  0  0
  5  6  2  0  0  0  0
  5 30  1  0  0  0  0
  6  7  1  0  0  0  0
  6 23  1  0  0  0  0
  7  8  1  0  0  0  0
  7 31  1  0  0  0  0
  8  9  2  0  0  0  0
  8 10  1  0  0  0  0
 10 11  1  0  0  0  0
 10 32  1  0  0  0  0
 11 16  1  0  0  0  0
 11 12  1  0  0  0  0
 11 33  1  0  0  0  0
 12 13  1  0  0  0  0
 12 34  1  0  0  0  0
 12 35  1  0  0  0  0
 13 14  1  0  0  0  0
 13 36  1  0  0  0  0
 13 37  1  0  0  0  0
 14 15  1  0  0  0  0
 14 38  1  0  0  0  0
 14 39  1  0  0  0  0
 15 16  1  0  0  0  0
 15 40  1  0  0  0  0
 15 41  1  0  0  0  0
 16 17  1  0  0  0  0
 16 42  1  0  0  0  0
 17 18  1  0  0  0  0
 18 22  1  0  0  0  0
 18 19  1  0  0  0  0
 18 43  1  0  0  0  0
 19 20  1  0  0  0  0
 19 44  1  0  0  0  0
 19 45  1  0  0  0  0
 20 21  1  0  0  0  0
 20 46  1  0  0  0  0
 20 47  1  0  0  0  0
 21 22  1  0  0  0  0
 21 48  1  0  0  0  0
 21 49  1  0  0  0  0
 22 50  1  0  0  0  0
 22 51  1  0  0  0  0
 23 24  2  0  0  0  0
M  END
> <s_m_source_file>
AV-unprocessed.smi

> <i_m_source_file_index>
2477

> <i_lp_mmshare_version>
43012

> <i_f3d_flags>
0

> <s_epik_input>
W0NIM11uMVtjSF1bY0hdW2NIXWMoYzE9TylbTkhdQyg9TylbTkhdW0NAQEhdMltDSDJdW0NIMl1bQ0gyXVtDSDJdW0NASF0yT1tDSF0zW0NIMl1bQ0gyXVtDSDJdW0NIMl0z

> <s_epik_cmdline>
J2VwaWtfcHl0aG9uJywgJy1waCcsICc3LjAnLCAnLXRuJywgJzgnLCAnLW1hJywgJzIwMCcsICctbWV0YWxfYmluZGluZycsICctaW1hZScsICc8aW5maWxlLm1hZT4nLCAnLW9tYWUnLCAnPG91dGZpbGUubWFlPic=

> <r_lp_tautomer_probability>
1

> <r_epik_Ionization_Penalty>
2.40753e-05

> <r_epik_Ionization_Penalty_Charging>
4.84018e-06

> <r_epik_Ionization_Penalty_Neutral>
1.92352e-05

> <r_epik_State_Penalty>
-0

> <r_epik_Charging_Adjusted_Penalty>
4.84018e-06

> <i_epik_Tot_Q>
0

> <i_epik_Tot_abs_Q>
0

> <r_epik_Metal_State_Penalty>
-0

> <b_epik_Metal_Only>
0

> <s_lp_Force_Field>
OPLS_2005

> <r_lp_Energy>
41.4138

> <b_lp_Chiralities_Consistent>
1

> <s_lp_Variant>
AV-unprocessed.smi:2477-4

> <Gold.Version>
5.8.1

> <Gold.Id.Protein>
6NUR|6NUR_protein|mol2

> <Gold.PLP.Fitness>
46.2146

> <Gold.PLP.PLP>
-39.1539

> <Gold.PLP.part.hbond>
-1.6439

> <Gold.PLP.part.metal>
0.0000

> <Gold.PLP.part.buried>
0.5286

> <Gold.PLP.part.nonpolar>
-38.8432

> <Gold.PLP.part.repulsive>
0.6410

> <Gold.PLP.ligand.clash>
0.0000

> <Gold.PLP.ligand.torsion>
0.9376

> <Gold.PLP.Chemscore.Hbond>
1.9670

> <Gold.PLP.Chemscore.CHOScore>
1.0000

> <Gold.PLP.Chemscore.Metal>
0.0000

> <Gold.Chemscore.Hbonds>
donor molecule, donor type, donor heavy atom, donor atom, acceptor molecule, acceptor atom, score
      L1  H     7    31       P1  7948  0.99
      L1  H    10    32       P1  7948  0.98
      L1  C     3    28       P1  8028  1.00

> <Gold.PLP.Chemscore.Internal.Correction>
0.0349

> <Gold.Rescore>
     Score         DG    S(hbond)    S(metal)    S(lipo)     H(rot)  DE(clash)    DE(int)     intcor
     17.56     -19.87       1.90        0.00      98.52       1.36       1.41       0.90       ----

> <Gold.Chemscore.Fitness>
17.5604

> <Gold.Chemscore.DG>
-19.8685

> <Gold.Chemscore.ZeroCoef>
-5.4800

> <Gold.Chemscore.Hbond>
1.8964

> <Gold.Chemscore.Metal>
0.0000

> <Gold.Chemscore.Lipo>
98.5214

> <Gold.Chemscore.Internal_Hbond>
0.0000

> <Gold.Chemscore.DEClash>
1.4103

> <Gold.Chemscore.DEInternal>
0.8978

> <Gold.Chemscore.Rot>
1.3564

> <Gold.Chemscore.Internal.Correction>
   9.000000E+99

> <Gold.Chemscore.Hbonds>
donor molecule, donor type, donor heavy atom, donor atom, acceptor molecule, acceptor atom, score
      L1  H     7    31       P1  7948  0.92
      L1  H    10    32       P1  7948  0.88

> <Gold.Chemscore.Hbond.Weighted>
-6.3339

> <Gold.Chemscore.Metal.Weighted>
-0.0000

> <Gold.Chemscore.Lipo.Weighted>
-11.5270

> <Gold.Chemscore.Internal_Hbond.Weighted>
0.0000

> <Gold.Chemscore.DEClash.Weighted>
1.4103

> <Gold.Chemscore.DEInternal.Weighted>
0.8978

> <Gold.Chemscore.Rot.Weighted>
3.4724

> <Gold.Chemscore.Internal.Correction.Weighted>
   9.000000E+99

> <Gold.Protein.RotatedTorsions>
[ 6907 6896 6895 6894 ] final   11.96 input  -60.11 | X-H torsion
[ 7974 7965 7964 7962 ] final  148.62 input  175.53 | X-H torsion
[ 8008 7997 7996 7995 ] final  143.49 input   59.86 | X-H torsion
[ 10167 10162 10161 10158 ] final  -88.39 input  -65.29 | X-H torsion
[ 10718 10713 10712 10709 ] final  -67.03 input   66.30 | X-H torsion
[ 10763 10752 10751 10750 ] final   15.58 input  -60.55 | X-H torsion
[ 11005 11000 10999 10996 ] final   48.66 input  -57.11 | X-H torsion

> <Gold.Protein.ActiveResidues>
 VAL166  LYS551  ARG553  GLY616  TRP617  ASP618  TYR619  PRO620  LYS621  CYS622 
 ASP623  PHE694  ASN695  SER759  ASP760  ASP761  ALA762  ILE779  LEU786  VAL792 
 PHE793  MET794  SER795  GLU796  ALA797  LYS798  CYS799  TRP800  GLU811  SER814 

> <Gold.Protein.RotatedAtoms>
  151.7626  135.0806  160.0347 H   0  0  0  0  0  0  0  0  0  0  0  0  # atno 6907 bound_to 6896
  152.3343  133.5989  159.5840 H   0  0  0  0  0  0  0  0  0  0  0  0  # atno 6908 bound_to 6896
  150.7441  133.9737  159.3595 H   0  0  0  0  0  0  0  0  0  0  0  0  # atno 6909 bound_to 6896
  144.8500  139.6176  143.5978 H   0  0  0  0  0  0  0  0  0  0  0  0  # atno 7974 bound_to 7965
  156.2929  140.2261  156.4899 H   0  0  0  0  0  0  0  0  0  0  0  0  # atno 8008 bound_to 7997
  154.7780  140.0462  157.1126 H   0  0  0  0  0  0  0  0  0  0  0  0  # atno 8009 bound_to 7997
  154.9793  140.3076  155.4957 H   0  0  0  0  0  0  0  0  0  0  0  0  # atno 8010 bound_to 7997
  140.3751  143.2775  151.9453 H   0  0  0  0  0  0  0  0  0  0  0  0  # atno 10167 bound_to 10162
  156.0580  130.4271  150.1794 H   0  0  0  0  0  0  0  0  0  0  0  0  # atno 10718 bound_to 10713
  153.1512  135.6779  153.8880 H   0  0  0  0  0  0  0  0  0  0  0  0  # atno 10763 bound_to 10752
  153.8305  135.3118  155.3419 H   0  0  0  0  0  0  0  0  0  0  0  0  # atno 10764 bound_to 10752
  154.7863  135.4860  154.0040 H   0  0  0  0  0  0  0  0  0  0  0  0  # atno 10765 bound_to 10752
  140.1171  134.4878  155.8628 H   0  0  0  0  0  0  0  0  0  0  0  0  # atno 11005 bound_to 11000
  146.2777  139.6795  142.9251 LP  0  0  0  0  0  0  0  0  0  0  0  0  # atno 17320 bound_to 7965
  145.4519  141.0428  143.2800 LP  0  0  0  0  0  0  0  0  0  0  0  0  # atno 17321 bound_to 7965
  139.4800  144.5871  151.7835 LP  0  0  0  0  0  0  0  0  0  0  0  0  # atno 17342 bound_to 10162
  140.4994  144.1191  150.5967 LP  0  0  0  0  0  0  0  0  0  0  0  0  # atno 17343 bound_to 10162
  156.9867  130.9881  151.3424 LP  0  0  0  0  0  0  0  0  0  0  0  0  # atno 17370 bound_to 10713
  157.5566  130.8217  149.8212 LP  0  0  0  0  0  0  0  0  0  0  0  0  # atno 17371 bound_to 10713
  141.2143  133.6747  156.6817 LP  0  0  0  0  0  0  0  0  0  0  0  0  # atno 17394 bound_to 11000
  140.3014  134.8160  157.4101 LP  0  0  0  0  0  0  0  0  0  0  0  0  # atno 17395 bound_to 11000

$$$$
