AV-unprocessed.smi:3294|AV-procd|sdf|12633|dock3
  -GOLD-   2272018573D 1   1.00000     0.00000
 Structure written by MMmdl.
 37 39  0  0  0  0  0  0  0  0  1 V2000
  153.6083  141.9353  160.8574 C   0  0  0  0  0  0  0  0  0  0  0  0
  152.5923  142.8781  160.2465 C   0  0  0  0  0  0  0  0  0  0  0  0
  151.7910  142.4716  159.1584 C   0  0  0  0  0  0  0  0  0  0  0  0
  150.8570  143.3915  158.6238 C   0  0  0  0  0  0  0  0  0  0  0  0
  149.9804  143.0985  157.5439 N   0  0  0  0  0  0  0  0  0  0  0  0
  149.6593  141.8994  157.0277 C   0  0  0  0  0  0  0  0  0  0  0  0
  150.1205  140.8202  157.3988 O   0  0  0  0  0  0  0  0  0  0  0  0
  148.7743  142.0262  156.0261 N   0  0  0  0  0  0  0  0  0  0  0  0
  148.2018  140.9466  155.2233 C   0  0  0  0  0  0  0  0  0  0  0  0
  149.1805  140.3301  154.2338 C   0  0  0  0  0  0  0  0  0  0  0  0
  149.3266  138.8326  154.1041 C   0  0  0  0  0  0  0  0  0  0  0  0
  150.4448  139.6541  154.7056 C   0  0  0  0  0  0  0  0  0  0  0  0
  146.8963  141.3191  154.5362 C   0  0  0  0  0  0  0  0  0  0  0  0
  146.7124  142.6710  153.8892 C   0  0  0  0  0  0  0  0  0  0  0  0
  145.9481  142.3237  155.1469 C   0  0  0  0  0  0  0  0  0  0  0  0
  150.7568  144.6624  159.2266 C   0  0  0  0  0  0  0  0  0  0  0  0
  151.6047  144.9689  160.3095 C   0  0  0  0  0  0  0  0  0  0  0  0
  152.5077  144.1015  160.8127 N   0  0  0  0  0  0  0  0  0  0  0  0
  153.6748  141.0049  160.2926 H   0  0  0  0  0  0  0  0  0  0  0  0
  153.3302  141.6922  161.8831 H   0  0  0  0  0  0  0  0  0  0  0  0
  154.5965  142.3960  160.8687 H   0  0  0  0  0  0  0  0  0  0  0  0
  151.8949  141.4717  158.7659 H   0  0  0  0  0  0  0  0  0  0  0  0
  149.5908  143.9023  157.0740 H   0  0  0  0  0  0  0  0  0  0  0  0
  148.4642  142.9591  155.7967 H   0  0  0  0  0  0  0  0  0  0  0  0
  147.9619  140.1687  155.9496 H   0  0  0  0  0  0  0  0  0  0  0  0
  149.2639  140.8829  153.3001 H   0  0  0  0  0  0  0  0  0  0  0  0
  148.7521  138.2024  154.7797 H   0  0  0  0  0  0  0  0  0  0  0  0
  149.4782  138.4290  153.1052 H   0  0  0  0  0  0  0  0  0  0  0  0
  151.3425  139.7986  154.1081 H   0  0  0  0  0  0  0  0  0  0  0  0
  150.6062  139.5723  155.7786 H   0  0  0  0  0  0  0  0  0  0  0  0
  146.4170  140.4846  154.0277 H   0  0  0  0  0  0  0  0  0  0  0  0
  147.5221  143.3925  153.9791 H   0  0  0  0  0  0  0  0  0  0  0  0
  146.1559  142.7081  152.9548 H   0  0  0  0  0  0  0  0  0  0  0  0
  144.8817  142.1289  155.0515 H   0  0  0  0  0  0  0  0  0  0  0  0
  146.2509  142.8183  156.0677 H   0  0  0  0  0  0  0  0  0  0  0  0
  150.0497  145.3948  158.8655 H   0  0  0  0  0  0  0  0  0  0  0  0
  151.5541  145.9370  160.7853 H   0  0  0  0  0  0  0  0  0  0  0  0
  1  2  1  0  0  0  0
  1 19  1  0  0  0  0
  1 20  1  0  0  0  0
  1 21  1  0  0  0  0
  2 18  1  0  0  0  0
  2  3  2  0  0  0  0
  3  4  1  0  0  0  0
  3 22  1  0  0  0  0
  4  5  1  0  0  0  0
  4 16  2  0  0  0  0
  5  6  1  0  0  0  0
  5 23  1  0  0  0  0
  6  7  2  0  0  0  0
  6  8  1  0  0  0  0
  8  9  1  0  0  0  0
  8 24  1  0  0  0  0
  9 10  1  0  0  0  0
  9 13  1  0  0  0  0
  9 25  1  0  0  0  0
 10 12  1  0  0  0  0
 10 11  1  0  0  0  0
 10 26  1  0  0  0  0
 11 12  1  0  0  0  0
 11 27  1  0  0  0  0
 11 28  1  0  0  0  0
 12 29  1  0  0  0  0
 12 30  1  0  0  0  0
 13 15  1  0  0  0  0
 13 14  1  0  0  0  0
 13 31  1  0  0  0  0
 14 15  1  0  0  0  0
 14 32  1  0  0  0  0
 14 33  1  0  0  0  0
 15 34  1  0  0  0  0
 15 35  1  0  0  0  0
 16 17  1  0  0  0  0
 16 36  1  0  0  0  0
 17 18  2  0  0  0  0
 17 37  1  0  0  0  0
M  END
> <s_m_source_file>
AV-unprocessed.smi

> <i_m_source_file_index>
3294

> <i_lp_mmshare_version>
43012

> <i_f3d_flags>
0

> <s_epik_input>
W0NIM11jMVtjSF1jKFtjSF1bY0hdbjEpW05IXUMoPU8pW05IXVtDSF0oW0NIXTJbQ0gyXVtDSDJdMilbQ0hdM1tDSDJdW0NIMl0z

> <s_epik_cmdline>
J2VwaWtfcHl0aG9uJywgJy1waCcsICc3LjAnLCAnLXRuJywgJzgnLCAnLW1hJywgJzIwMCcsICctbWV0YWxfYmluZGluZycsICctaW1hZScsICc8aW5maWxlLm1hZT4nLCAnLW9tYWUnLCAnPG91dGZpbGUubWFlPic=

> <r_epik_Ionization_Penalty>
0.389791

> <r_epik_Ionization_Penalty_Charging>
0

> <r_epik_Ionization_Penalty_Neutral>
0.389791

> <r_epik_State_Penalty>
0.388374

> <r_epik_Charging_Adjusted_Penalty>
0.388374

> <i_epik_Tot_Q>
0

> <i_epik_Tot_abs_Q>
0

> <r_epik_Metal_State_Penalty>
0.232337

> <b_epik_Metal_Only>
0

> <s_lp_Force_Field>
OPLS_2005

> <r_lp_Energy>
28.7122

> <b_lp_Chiralities_Consistent>
1

> <s_lp_Variant>
AV-unprocessed.smi:3294-1

> <Gold.Version>
5.8.1

> <Gold.Id.Protein>
6NUR|6NUR_protein|mol2

> <Gold.PLP.Fitness>
44.6300

> <Gold.PLP.PLP>
-39.3335

> <Gold.PLP.part.hbond>
-2.0000

> <Gold.PLP.part.metal>
0.0000

> <Gold.PLP.part.buried>
-2.9768

> <Gold.PLP.part.nonpolar>
-33.6891

> <Gold.PLP.part.repulsive>
0.2104

> <Gold.PLP.ligand.clash>
0.0000

> <Gold.PLP.ligand.torsion>
1.4359

> <Gold.PLP.Chemscore.Hbond>
2.0000

> <Gold.PLP.Chemscore.CHOScore>
0.0000

> <Gold.PLP.Chemscore.Metal>
0.0000

> <Gold.Chemscore.Hbonds>
donor molecule, donor type, donor heavy atom, donor atom, acceptor molecule, acceptor atom, score
      L1  H     5    23       P1  8028  1.00
      L1  H     8    24       P1  8028  0.98

> <Gold.PLP.Chemscore.Internal.Correction>
2.1684

> <Gold.Rescore>
     Score         DG    S(hbond)    S(metal)    S(lipo)     H(rot)  DE(clash)    DE(int)     intcor
     17.93     -20.72       1.87        0.00     104.94       1.28       0.17       2.62       ----

> <Gold.Chemscore.Fitness>
17.9285

> <Gold.Chemscore.DG>
-20.7229

> <Gold.Chemscore.ZeroCoef>
-5.4800

> <Gold.Chemscore.Hbond>
1.8716

> <Gold.Chemscore.Metal>
0.0000

> <Gold.Chemscore.Lipo>
104.9401

> <Gold.Chemscore.Internal_Hbond>
0.0000

> <Gold.Chemscore.DEClash>
0.1707

> <Gold.Chemscore.DEInternal>
2.6238

> <Gold.Chemscore.Rot>
1.2837

> <Gold.Chemscore.Internal.Correction>
   9.000000E+99

> <Gold.Chemscore.Hbonds>
donor molecule, donor type, donor heavy atom, donor atom, acceptor molecule, acceptor atom, score
      L1  H     5    23       P1  8028  0.77
      L1  H     8    24       P1  8028  0.92

> <Gold.Chemscore.Hbond.Weighted>
-6.2513

> <Gold.Chemscore.Metal.Weighted>
-0.0000

> <Gold.Chemscore.Lipo.Weighted>
-12.2780

> <Gold.Chemscore.Internal_Hbond.Weighted>
0.0000

> <Gold.Chemscore.DEClash.Weighted>
0.1707

> <Gold.Chemscore.DEInternal.Weighted>
2.6238

> <Gold.Chemscore.Rot.Weighted>
3.2863

> <Gold.Chemscore.Internal.Correction.Weighted>
   9.000000E+99

> <Gold.Protein.RotatedTorsions>
[ 6907 6896 6895 6894 ] final -148.57 input  -60.11 | X-H torsion
[ 7974 7965 7964 7962 ] final -102.83 input  175.53 | X-H torsion
[ 8008 7997 7996 7995 ] final   24.07 input   59.86 | X-H torsion
[ 10167 10162 10161 10158 ] final -107.88 input  -65.29 | X-H torsion
[ 10718 10713 10712 10709 ] final -145.37 input   66.30 | X-H torsion
[ 10763 10752 10751 10750 ] final   14.18 input  -60.55 | X-H torsion
[ 11005 11000 10999 10996 ] final   91.94 input  -57.11 | X-H torsion

> <Gold.Protein.ActiveResidues>
 VAL166  LYS551  ARG553  GLY616  TRP617  ASP618  TYR619  PRO620  LYS621  CYS622 
 ASP623  PHE694  ASN695  SER759  ASP760  ASP761  ALA762  ILE779  LEU786  VAL792 
 PHE793  MET794  SER795  GLU796  ALA797  LYS798  CYS799  TRP800  GLU811  SER814 

> <Gold.Protein.RotatedAtoms>
  151.1717  133.4780  159.2593 H   0  0  0  0  0  0  0  0  0  0  0  0  # atno 6907 bound_to 6896
  151.1349  135.0149  159.8609 H   0  0  0  0  0  0  0  0  0  0  0  0  # atno 6908 bound_to 6896
  152.5461  134.1616  159.8613 H   0  0  0  0  0  0  0  0  0  0  0  0  # atno 6909 bound_to 6896
  145.2637  140.9277  143.3026 H   0  0  0  0  0  0  0  0  0  0  0  0  # atno 7974 bound_to 7965
  154.9907  140.3113  155.4907 H   0  0  0  0  0  0  0  0  0  0  0  0  # atno 8008 bound_to 7997
  156.2940  140.2250  156.4952 H   0  0  0  0  0  0  0  0  0  0  0  0  # atno 8009 bound_to 7997
  154.7706  140.0452  157.1036 H   0  0  0  0  0  0  0  0  0  0  0  0  # atno 8010 bound_to 7997
  140.1722  143.4034  152.1346 H   0  0  0  0  0  0  0  0  0  0  0  0  # atno 10167 bound_to 10162
  156.3817  130.7840  151.2033 H   0  0  0  0  0  0  0  0  0  0  0  0  # atno 10718 bound_to 10713
  153.1647  135.6802  153.8692 H   0  0  0  0  0  0  0  0  0  0  0  0  # atno 10763 bound_to 10752
  153.8076  135.3147  155.3398 H   0  0  0  0  0  0  0  0  0  0  0  0  # atno 10764 bound_to 10752
  154.7957  135.4808  154.0246 H   0  0  0  0  0  0  0  0  0  0  0  0  # atno 10765 bound_to 10752
  139.8831  134.8704  156.3500 H   0  0  0  0  0  0  0  0  0  0  0  0  # atno 11005 bound_to 11000
  144.9396  139.4204  143.6455 LP  0  0  0  0  0  0  0  0  0  0  0  0  # atno 17320 bound_to 7965
  146.3267  139.8349  142.8901 LP  0  0  0  0  0  0  0  0  0  0  0  0  # atno 17321 bound_to 7965
  139.5333  144.7183  151.4980 LP  0  0  0  0  0  0  0  0  0  0  0  0  # atno 17342 bound_to 10162
  140.6575  143.8569  150.6851 LP  0  0  0  0  0  0  0  0  0  0  0  0  # atno 17343 bound_to 10162
  157.7493  131.0342  150.4307 LP  0  0  0  0  0  0  0  0  0  0  0  0  # atno 17370 bound_to 10713
  156.4552  130.4020  149.6611 LP  0  0  0  0  0  0  0  0  0  0  0  0  # atno 17371 bound_to 10713
  140.9600  133.7394  156.0389 LP  0  0  0  0  0  0  0  0  0  0  0  0  # atno 17394 bound_to 11000
  140.8001  134.3519  157.5442 LP  0  0  0  0  0  0  0  0  0  0  0  0  # atno 17395 bound_to 11000

$$$$
