#       Name:                AV-unprocessed.smi:754
#       Creating user name   scv26
#       Creation time:       Fri Mar 27 01:00:23 2020


#       File generated by GOLD software.
#

@<TRIPOS>MOLECULE
AV-unprocessed.smi:754
    44    45     1
SMALL
NO_CHARGES


@<TRIPOS>ATOM
      1 ****        -4.6820   2.1992  -1.6511 C.3            1 S1                 0.0000
      2 ****        -3.1615   2.3678  -1.6234 C.3            1 S1                 0.0000
      3 ****        -2.5657   1.0967  -1.4279 O.3            1 S1                 0.0000
      4 ****        -1.1483   1.1486  -1.3959 C.3            1 S1                 0.0000
      5 ****        -0.5573   1.6591  -0.0781 C.3            1 S1                 0.0000
      6 ****         0.5219   0.5936  -0.2761 C.3            1 S1                 0.0000
      7 ****         0.9331  -0.0276   0.9786 N.am           1 S1                 0.0000
      8 ****         1.8807  -0.9707   1.0843 C.2            1 S1                 0.0000
      9 ****         2.5004  -1.4159   0.1178 O.2            1 S1                 0.0000
     10 ****         2.1655  -1.4964   2.4935 C.3            1 S1                 0.0000
     11 ****         3.5891  -1.5226   2.7739 N.pl3          1 S1                 0.0000
     12 ****         4.5051  -2.4726   2.5756 C.2            1 S1                 0.0000
     13 ****         5.7077  -2.0822   2.9693 N.2            1 S1                 0.0000
     14 ****         5.4840  -0.7975   3.4364 N.2            1 S1                 0.0000
     15 ****         4.2286  -0.4598   3.3226 N.2            1 S1                 0.0000
     16 ****        -0.4965  -0.2276  -1.1133 C.3            1 S1                 0.0000
     17 ****        -1.3717  -1.2452  -0.3604 C.3            1 S1                 0.0000
     18 ****         0.0738  -0.9500  -2.3337 C.3            1 S1                 0.0000
     19 ****        -5.1780   3.1579  -1.8034 H              1 S1                 0.0000
     20 ****        -5.0452   1.7791  -0.7129 H              1 S1                 0.0000
     21 ****        -4.9865   1.5322  -2.4579 H              1 S1                 0.0000
     22 ****        -2.8179   2.8037  -2.5627 H              1 S1                 0.0000
     23 ****        -2.8777   3.0483  -0.8195 H              1 S1                 0.0000
     24 ****        -0.7157   1.6404  -2.2707 H              1 S1                 0.0000
     25 ****        -0.1960   2.6873  -0.1095 H              1 S1                 0.0000
     26 ****        -1.2052   1.4824   0.7824 H              1 S1                 0.0000
     27 ****         1.3534   0.9728  -0.8752 H              1 S1                 0.0000
     28 ****         0.4681   0.2825   1.8196 H              1 S1                 0.0000
     29 ****         1.6662  -0.8843   3.2466 H              1 S1                 0.0000
     30 ****         1.7709  -2.5087   2.5865 H              1 S1                 0.0000
     31 ****         4.2927  -3.4396   2.1438 H              1 S1                 0.0000
     32 ****        -0.7955  -2.1153  -0.0444 H              1 S1                 0.0000
     33 ****        -2.1873  -1.6082  -0.9865 H              1 S1                 0.0000
     34 ****        -1.8246  -0.8164   0.5337 H              1 S1                 0.0000
     35 ****         0.6736  -1.8133  -2.0444 H              1 S1                 0.0000
     36 ****         0.7169  -0.2952  -2.9223 H              1 S1                 0.0000
     37 ****        -0.7177  -1.3039  -2.9948 H              1 S1                 0.0000
     38 ****        -2.8459   0.4949  -2.1758 LP             1 S1                 0.0000
     39 ****        -2.8907   0.7225  -0.5594 LP             1 S1                 0.0000
     40 ****         2.3060  -1.0737  -0.8015 LP             1 S1                 0.0000
     41 ****         3.1980  -2.1196   0.2522 LP             1 S1                 0.0000
     42 ****         6.5679  -2.5910   2.9372 LP             1 S1                 0.0000
     43 ****         6.1948  -0.2036   3.8133 LP             1 S1                 0.0000
     44 ****         3.8181   0.4126   3.5882 LP             1 S1                 0.0000
@<TRIPOS>BOND
    1    1    2 1     
    2    1   19 1     
    3    1   20 1     
    4    1   21 1     
    5    2    3 1     
    6    2   22 1     
    7    2   23 1     
    8    3    4 1     
    9    4   16 1     
   10    4    5 1     
   11    4   24 1     
   12    5    6 1     
   13    5   25 1     
   14    5   26 1     
   15    6    7 1     
   16    6   16 1     
   17    6   27 1     
   18    7    8 am    
   19    7   28 1     
   20    8    9 2     
   21    8   10 1     
   22   10   11 1     
   23   10   29 1     
   24   10   30 1     
   25   11   15 1     
   26   11   12 1     
   27   12   13 2     
   28   12   31 1     
   29   13   14 1     
   30   14   15 2     
   31   16   17 1     
   32   16   18 1     
   33   17   32 1     
   34   17   33 1     
   35   17   34 1     
   36   18   35 1     
   37   18   36 1     
   38   18   37 1     
   39    3   38 1     
   40    3   39 1     
   41    9   40 1     
   42    9   41 1     
   43   13   42 1     
   44   14   43 1     
   45   15   44 1     
@<TRIPOS>SUBSTRUCTURE
      1 S1             1
@<TRIPOS>SET
LONE_PAIRS      STATIC     ATOMS    <user>   **** ""
7 38 39 40 41 42 43 44
DONOR_HYDROGENS      STATIC     ATOMS    <user>   **** ""
1 28
ATOM$BLUE        STATIC     ATOMS    COLORGROUP SYSTEM
7 38 39 40 41 42 43 44
ATOM$RED        STATIC     ATOMS    COLORGROUP SYSTEM
1 28
