AV-unprocessed.smi:1485|AV-procd|sdf|6004|dock1
  -GOLD-   22720 6103D 1   1.00000     0.00000
 Structure written by MMmdl.
 44 45  0  0  0  0  0  0  0  0  1 V2000
  152.0919  143.8884  159.4370 C   0  0  0  0  0  0  0  0  0  0  0  0
  151.7740  142.5816  158.9921 O   0  0  0  0  0  0  0  0  0  0  0  0
  150.7807  142.5793  157.9793 C   0  0  0  0  0  0  0  0  0  0  0  0
  150.6857  141.1738  157.3507 C   0  0  0  0  0  0  0  0  0  0  0  0
  149.6359  141.0485  156.3232 N   0  0  0  0  0  0  0  0  0  0  0  0
  148.3689  141.4214  156.7428 N   0  0  0  0  0  0  0  0  0  0  0  0
  147.3706  141.3983  155.9215 C   0  0  0  0  0  0  0  0  0  0  0  0
  146.0151  141.8556  156.3312 C   0  0  0  0  0  0  0  0  0  0  0  0
  145.0735  141.9026  155.5380 O   0  0  0  0  0  0  0  0  0  0  0  0
  145.9116  142.2339  157.6175 N   0  0  0  0  0  0  0  0  0  0  0  0
  144.7392  142.8333  158.2488 C   0  0  1  0  0  0  0  0  0  0  0  0
  143.6494  141.7662  158.4661 C   0  0  0  0  0  0  0  0  0  0  0  0
  144.0470  140.7420  159.5435 C   0  0  0  0  0  0  0  0  0  0  0  0
  144.4209  141.4341  160.8636 C   0  0  0  0  0  0  0  0  0  0  0  0
  145.5378  142.4756  160.6610 C   0  0  2  0  0  0  0  0  0  0  0  0
  145.9107  143.1631  161.9818 C   0  0  0  0  0  0  0  0  0  0  0  0
  145.1275  143.5033  159.5841 C   0  0  0  0  0  0  0  0  0  0  0  0
  147.5437  140.9397  154.5550 C   0  0  0  0  0  0  0  0  0  0  0  0
  148.7756  140.5452  154.1653 C   0  0  0  0  0  0  0  0  0  0  0  0
  149.9253  140.5746  155.0723 C   0  0  0  0  0  0  0  0  0  0  0  0
  151.0487  140.2009  154.7366 O   0  0  0  0  0  0  0  0  0  0  0  0
  152.8515  143.8356  160.2167 H   0  0  0  0  0  0  0  0  0  0  0  0
  151.2162  144.3884  159.8525 H   0  0  0  0  0  0  0  0  0  0  0  0
  152.4891  144.4955  158.6224 H   0  0  0  0  0  0  0  0  0  0  0  0
  149.8177  142.8478  158.4162 H   0  0  0  0  0  0  0  0  0  0  0  0
  151.0008  143.3337  157.2216 H   0  0  0  0  0  0  0  0  0  0  0  0
  151.6699  140.9262  156.9503 H   0  0  0  0  0  0  0  0  0  0  0  0
  150.4850  140.4401  158.1321 H   0  0  0  0  0  0  0  0  0  0  0  0
  146.7381  142.1531  158.1921 H   0  0  0  0  0  0  0  0  0  0  0  0
  144.3322  143.5941  157.5806 H   0  0  0  0  0  0  0  0  0  0  0  0
  142.7241  142.2587  158.7682 H   0  0  0  0  0  0  0  0  0  0  0  0
  143.4283  141.2558  157.5279 H   0  0  0  0  0  0  0  0  0  0  0  0
  143.2250  140.0454  159.7110 H   0  0  0  0  0  0  0  0  0  0  0  0
  144.8889  140.1433  159.1935 H   0  0  0  0  0  0  0  0  0  0  0  0
  143.5375  141.9177  161.2823 H   0  0  0  0  0  0  0  0  0  0  0  0
  144.7360  140.6850  161.5906 H   0  0  0  0  0  0  0  0  0  0  0  0
  146.4267  141.9493  160.3103 H   0  0  0  0  0  0  0  0  0  0  0  0
  145.0696  143.7256  162.3882 H   0  0  0  0  0  0  0  0  0  0  0  0
  146.7398  143.8570  161.8417 H   0  0  0  0  0  0  0  0  0  0  0  0
  146.2167  142.4326  162.7315 H   0  0  0  0  0  0  0  0  0  0  0  0
  145.9351  144.2181  159.4210 H   0  0  0  0  0  0  0  0  0  0  0  0
  144.2795  144.0857  159.9468 H   0  0  0  0  0  0  0  0  0  0  0  0
  146.7132  140.9079  153.8645 H   0  0  0  0  0  0  0  0  0  0  0  0
  148.9197  140.1989  153.1523 H   0  0  0  0  0  0  0  0  0  0  0  0
  1  2  1  0  0  0  0
  1 22  1  0  0  0  0
  1 23  1  0  0  0  0
  1 24  1  0  0  0  0
  2  3  1  0  0  0  0
  3  4  1  0  0  0  0
  3 25  1  0  0  0  0
  3 26  1  0  0  0  0
  4  5  1  0  0  0  0
  4 27  1  0  0  0  0
  4 28  1  0  0  0  0
  5 20  1  0  0  0  0
  5  6  1  0  0  0  0
  6  7  2  0  0  0  0
  7  8  1  0  0  0  0
  7 18  1  0  0  0  0
  8  9  2  0  0  0  0
  8 10  1  0  0  0  0
 10 11  1  0  0  0  0
 10 29  1  0  0  0  0
 11 17  1  0  0  0  0
 11 12  1  0  0  0  0
 11 30  1  0  0  0  0
 12 13  1  0  0  0  0
 12 31  1  0  0  0  0
 12 32  1  0  0  0  0
 13 14  1  0  0  0  0
 13 33  1  0  0  0  0
 13 34  1  0  0  0  0
 14 15  1  0  0  0  0
 14 35  1  0  0  0  0
 14 36  1  0  0  0  0
 15 16  1  0  0  0  0
 15 17  1  0  0  0  0
 15 37  1  0  0  0  0
 16 38  1  0  0  0  0
 16 39  1  0  0  0  0
 16 40  1  0  0  0  0
 17 41  1  0  0  0  0
 17 42  1  0  0  0  0
 18 19  2  0  0  0  0
 18 43  1  0  0  0  0
 19 20  1  0  0  0  0
 19 44  1  0  0  0  0
 20 21  2  0  0  0  0
M  END
> <s_m_source_file>
AV-unprocessed.smi

> <i_m_source_file_index>
1485

> <i_lp_mmshare_version>
43012

> <i_f3d_flags>
0

> <s_epik_input>
W0NIM11PW0NIMl1bQ0gyXW4xbmMoW2NIXVtjSF1jMT1PKUMoPU8pW05IXVtDQEBIXTJbQ0gyXVtDSDJdW0NIMl1bQ0BASF0oW0NIM10pW0NIMl0y

> <s_epik_cmdline>
J2VwaWtfcHl0aG9uJywgJy1waCcsICc3LjAnLCAnLXRuJywgJzgnLCAnLW1hJywgJzIwMCcsICctbWV0YWxfYmluZGluZycsICctaW1hZScsICc8aW5maWxlLm1hZT4nLCAnLW9tYWUnLCAnPG91dGZpbGUubWFlPic=

> <r_lp_tautomer_probability>
1

> <r_epik_Ionization_Penalty>
6.4688e-07

> <r_epik_Ionization_Penalty_Charging>
6.63567e-09

> <r_epik_Ionization_Penalty_Neutral>
6.40245e-07

> <r_epik_State_Penalty>
-0

> <r_epik_Charging_Adjusted_Penalty>
6.63567e-09

> <i_epik_Tot_Q>
0

> <i_epik_Tot_abs_Q>
0

> <r_epik_Metal_State_Penalty>
-0

> <b_epik_Metal_Only>
0

> <s_lp_Force_Field>
OPLS_2005

> <r_lp_Energy>
30.8996

> <b_lp_Chiralities_Consistent>
1

> <s_lp_Variant>
AV-unprocessed.smi:1485-4

> <Gold.Version>
5.8.1

> <Gold.Id.Protein>
6NUR|6NUR_protein|mol2

> <Gold.PLP.Fitness>
34.8524

> <Gold.PLP.PLP>
-32.3325

> <Gold.PLP.part.hbond>
-1.0000

> <Gold.PLP.part.metal>
0.0000

> <Gold.PLP.part.buried>
-5.1563

> <Gold.PLP.part.nonpolar>
-27.2647

> <Gold.PLP.part.repulsive>
0.3819

> <Gold.PLP.ligand.clash>
0.0000

> <Gold.PLP.ligand.torsion>
0.2671

> <Gold.PLP.Chemscore.Hbond>
1.0000

> <Gold.PLP.Chemscore.CHOScore>
0.0000

> <Gold.PLP.Chemscore.Metal>
0.0000

> <Gold.Chemscore.Hbonds>
donor molecule, donor type, donor heavy atom, donor atom, acceptor molecule, acceptor atom, score
      P1  H  7989  7998       L1    21  0.98

> <Gold.PLP.Chemscore.Internal.Correction>
0.0541

> <Gold.Rescore>
     Score         DG    S(hbond)    S(metal)    S(lipo)     H(rot)  DE(clash)    DE(int)     intcor
     12.19     -12.51       0.98        0.00      65.97       1.55       0.00       0.32       ----

> <Gold.Chemscore.Fitness>
12.1918

> <Gold.Chemscore.DG>
-12.5144

> <Gold.Chemscore.ZeroCoef>
-5.4800

> <Gold.Chemscore.Hbond>
0.9817

> <Gold.Chemscore.Metal>
0.0000

> <Gold.Chemscore.Lipo>
65.9652

> <Gold.Chemscore.Internal_Hbond>
0.0000

> <Gold.Chemscore.DEClash>
0.0021

> <Gold.Chemscore.DEInternal>
0.3204

> <Gold.Chemscore.Rot>
1.5478

> <Gold.Chemscore.Internal.Correction>
   9.000000E+99

> <Gold.Chemscore.Hbonds>
donor molecule, donor type, donor heavy atom, donor atom, acceptor molecule, acceptor atom, score
      P1  H  7989  7998       L1    21  0.86

> <Gold.Chemscore.Hbond.Weighted>
-3.2787

> <Gold.Chemscore.Metal.Weighted>
-0.0000

> <Gold.Chemscore.Lipo.Weighted>
-7.7179

> <Gold.Chemscore.Internal_Hbond.Weighted>
0.0000

> <Gold.Chemscore.DEClash.Weighted>
0.0021

> <Gold.Chemscore.DEInternal.Weighted>
0.3204

> <Gold.Chemscore.Rot.Weighted>
3.9623

> <Gold.Chemscore.Internal.Correction.Weighted>
   9.000000E+99

> <Gold.Protein.RotatedTorsions>
[ 6907 6896 6895 6894 ] final -138.79 input  -60.11 | X-H torsion
[ 7974 7965 7964 7962 ] final -152.00 input  175.53 | X-H torsion
[ 8008 7997 7996 7995 ] final   89.04 input   59.86 | X-H torsion
[ 10167 10162 10161 10158 ] final  161.57 input  -65.29 | X-H torsion
[ 10718 10713 10712 10709 ] final   93.43 input   66.30 | X-H torsion
[ 10763 10752 10751 10750 ] final -100.68 input  -60.55 | X-H torsion
[ 11005 11000 10999 10996 ] final -146.80 input  -57.11 | X-H torsion

> <Gold.Protein.ActiveResidues>
 VAL166  LYS551  ARG553  GLY616  TRP617  ASP618  TYR619  PRO620  LYS621  CYS622 
 ASP623  PHE694  ASN695  SER759  ASP760  ASP761  ALA762  ILE779  LEU786  VAL792 
 PHE793  MET794  SER795  GLU796  ALA797  LYS798  CYS799  TRP800  GLU811  SER814 

> <Gold.Protein.RotatedAtoms>
  151.0395  133.5718  159.2652 H   0  0  0  0  0  0  0  0  0  0  0  0  # atno 6907 bound_to 6896
  151.2770  135.0701  159.9165 H   0  0  0  0  0  0  0  0  0  0  0  0  # atno 6908 bound_to 6896
  152.5361  134.0116  159.7995 H   0  0  0  0  0  0  0  0  0  0  0  0  # atno 6909 bound_to 6896
  144.7818  140.4721  143.5834 H   0  0  0  0  0  0  0  0  0  0  0  0  # atno 7974 bound_to 7965
  155.9951  140.3365  155.6790 H   0  0  0  0  0  0  0  0  0  0  0  0  # atno 8008 bound_to 7997
  155.6368  140.0691  157.2649 H   0  0  0  0  0  0  0  0  0  0  0  0  # atno 8009 bound_to 7997
  154.4231  140.1750  156.1518 H   0  0  0  0  0  0  0  0  0  0  0  0  # atno 8010 bound_to 7997
  139.4851  144.4523  151.8813 H   0  0  0  0  0  0  0  0  0  0  0  0  # atno 10167 bound_to 10162
  157.6954  131.0478  150.4033 H   0  0  0  0  0  0  0  0  0  0  0  0  # atno 10718 bound_to 10713
  154.7598  135.4926  153.9443 H   0  0  0  0  0  0  0  0  0  0  0  0  # atno 10763 bound_to 10752
  153.1238  135.6738  153.9299 H   0  0  0  0  0  0  0  0  0  0  0  0  # atno 10764 bound_to 10752
  153.9023  135.3108  155.3427 H   0  0  0  0  0  0  0  0  0  0  0  0  # atno 10765 bound_to 10752
  140.7782  134.3110  157.5054 H   0  0  0  0  0  0  0  0  0  0  0  0  # atno 11005 bound_to 11000
  145.6029  139.1505  143.3119 LP  0  0  0  0  0  0  0  0  0  0  0  0  # atno 17320 bound_to 7965
  146.2030  140.6150  142.9094 LP  0  0  0  0  0  0  0  0  0  0  0  0  # atno 17321 bound_to 7965
  140.3981  144.2529  150.5895 LP  0  0  0  0  0  0  0  0  0  0  0  0  # atno 17342 bound_to 10162
  140.5083  143.2298  151.8574 LP  0  0  0  0  0  0  0  0  0  0  0  0  # atno 17343 bound_to 10162
  156.4424  130.3994  149.6689 LP  0  0  0  0  0  0  0  0  0  0  0  0  # atno 17370 bound_to 10713
  156.3867  130.7606  151.2604 LP  0  0  0  0  0  0  0  0  0  0  0  0  # atno 17371 bound_to 10713
  139.8746  134.9302  156.3496 LP  0  0  0  0  0  0  0  0  0  0  0  0  # atno 17394 bound_to 11000
  140.9508  133.7452  156.0270 LP  0  0  0  0  0  0  0  0  0  0  0  0  # atno 17395 bound_to 11000

$$$$
