AV-unprocessed.smi:2583|AV-procd|sdf|10135|dock2
  -GOLD-   2272014143D 1   1.00000     0.00000
 Structure written by MMmdl.
 55 57  0  0  0  0  0  0  0  0  3 V2000
  153.3666  141.5403  160.2394 C   0  0  0  0  0  0  0  0  0  0  0  0
  152.6730  142.4231  159.2231 C   0  0  0  0  0  0  0  0  0  0  0  0
  152.9942  143.7914  159.1088 C   0  0  0  0  0  0  0  0  0  0  0  0
  152.3932  144.6217  158.2310 N   0  0  0  0  0  0  0  0  0  0  0  0
  151.4422  144.1066  157.4230 C   0  0  0  0  0  0  0  0  0  0  0  0
  151.0516  142.7510  157.4392 C   0  0  0  0  0  0  0  0  0  0  0  0
  150.0206  142.3413  156.5517 N   0  0  0  0  0  0  0  0  0  0  0  0
  149.7247  141.0982  156.1359 C   0  0  0  0  0  0  0  0  0  0  0  0
  150.3724  140.0858  156.4022 O   0  0  0  0  0  0  0  0  0  0  0  0
  148.6303  141.0934  155.3612 N   0  0  0  0  0  0  0  0  0  0  0  0
  148.0360  139.9064  154.7535 C   0  0  2  0  0  0  0  0  0  0  0  0
  147.7881  140.1278  153.2541 C   0  0  0  0  0  0  0  0  0  0  0  0
  147.0851  138.9120  152.6297 C   0  0  0  0  0  0  0  0  0  0  0  0
  145.7953  138.6031  153.3123 N   0  3  1  0  0  0  0  0  0  0  0  0
  145.0236  137.5367  152.5932 C   0  0  2  0  0  0  0  0  0  0  0  0
  143.8972  136.9827  153.4962 C   0  0  0  0  0  0  0  0  0  0  0  0
  143.0725  135.8928  152.7898 C   0  0  0  0  0  0  0  0  0  0  0  0
  143.9381  134.7805  152.3304 N   0  3  1  0  0  0  0  0  0  0  0  0
  143.1617  133.6670  151.7435 C   0  0  0  0  0  0  0  0  0  0  0  0
  145.0108  135.2596  151.4268 C   0  0  0  0  0  0  0  0  0  0  0  0
  145.8739  136.3350  152.1095 C   0  0  0  0  0  0  0  0  0  0  0  0
  146.0126  138.3742  154.7708 C   0  0  0  0  0  0  0  0  0  0  0  0
  146.7039  139.5758  155.4383 C   0  0  0  0  0  0  0  0  0  0  0  0
  151.6808  141.8937  158.3737 C   0  0  0  0  0  0  0  0  0  0  0  0
  154.1920  142.0644  160.7224 H   0  0  0  0  0  0  0  0  0  0  0  0
  153.7655  140.6476  159.7570 H   0  0  0  0  0  0  0  0  0  0  0  0
  152.6617  141.2286  161.0105 H   0  0  0  0  0  0  0  0  0  0  0  0
  153.7476  144.2360  159.7425 H   0  0  0  0  0  0  0  0  0  0  0  0
  150.9797  144.8015  156.7374 H   0  0  0  0  0  0  0  0  0  0  0  0
  149.4613  143.0877  156.1654 H   0  0  0  0  0  0  0  0  0  0  0  0
  148.1703  141.9751  155.1872 H   0  0  0  0  0  0  0  0  0  0  0  0
  148.7060  139.0539  154.8833 H   0  0  0  0  0  0  0  0  0  0  0  0
  147.1787  141.0202  153.1022 H   0  0  0  0  0  0  0  0  0  0  0  0
  148.7337  140.3081  152.7407 H   0  0  0  0  0  0  0  0  0  0  0  0
  146.9244  139.1144  151.5721 H   0  0  0  0  0  0  0  0  0  0  0  0
  147.7406  138.0413  152.6821 H   0  0  0  0  0  0  0  0  0  0  0  0
  144.5764  137.9890  151.7059 H   0  0  0  0  0  0  0  0  0  0  0  0
  144.3292  136.5724  154.4104 H   0  0  0  0  0  0  0  0  0  0  0  0
  143.2187  137.7744  153.8111 H   0  0  0  0  0  0  0  0  0  0  0  0
  142.3178  135.5064  153.4761 H   0  0  0  0  0  0  0  0  0  0  0  0
  142.5387  136.3184  151.9383 H   0  0  0  0  0  0  0  0  0  0  0  0
  142.6295  133.9893  150.8476 H   0  0  0  0  0  0  0  0  0  0  0  0
  142.4304  133.2886  152.4587 H   0  0  0  0  0  0  0  0  0  0  0  0
  143.8186  132.8400  151.4723 H   0  0  0  0  0  0  0  0  0  0  0  0
  145.6422  134.4196  151.1341 H   0  0  0  0  0  0  0  0  0  0  0  0
  144.5685  135.6568  150.5116 H   0  0  0  0  0  0  0  0  0  0  0  0
  146.6276  136.6584  151.3912 H   0  0  0  0  0  0  0  0  0  0  0  0
  146.4059  135.8882  152.9510 H   0  0  0  0  0  0  0  0  0  0  0  0
  145.0640  138.2318  155.2869 H   0  0  0  0  0  0  0  0  0  0  0  0
  146.6022  137.4677  154.9174 H   0  0  0  0  0  0  0  0  0  0  0  0
  146.8706  139.3622  156.4950 H   0  0  0  0  0  0  0  0  0  0  0  0
  146.0407  140.4416  155.3995 H   0  0  0  0  0  0  0  0  0  0  0  0
  151.4099  140.8532  158.4659 H   0  0  0  0  0  0  0  0  0  0  0  0
  145.2306  139.4389  153.2558 H   0  0  0  0  0  0  0  0  0  0  0  0
  144.3940  134.4069  153.1511 H   0  0  0  0  0  0  0  0  0  0  0  0
  1  2  1  0  0  0  0
  1 25  1  0  0  0  0
  1 26  1  0  0  0  0
  1 27  1  0  0  0  0
  2 24  1  0  0  0  0
  2  3  2  0  0  0  0
  3  4  1  0  0  0  0
  3 28  1  0  0  0  0
  4  5  2  0  0  0  0
  5  6  1  0  0  0  0
  5 29  1  0  0  0  0
  6  7  1  0  0  0  0
  6 24  2  0  0  0  0
  7  8  1  0  0  0  0
  7 30  1  0  0  0  0
  8  9  2  0  0  0  0
  8 10  1  0  0  0  0
 10 11  1  0  0  0  0
 10 31  1  0  0  0  0
 11 23  1  0  0  0  0
 11 12  1  0  0  0  0
 11 32  1  0  0  0  0
 12 13  1  0  0  0  0
 12 33  1  0  0  0  0
 12 34  1  0  0  0  0
 13 14  1  0  0  0  0
 13 35  1  0  0  0  0
 13 36  1  0  0  0  0
 14 15  1  0  0  0  0
 14 22  1  0  0  0  0
 14 54  1  0  0  0  0
 15 21  1  0  0  0  0
 15 16  1  0  0  0  0
 15 37  1  0  0  0  0
 16 17  1  0  0  0  0
 16 38  1  0  0  0  0
 16 39  1  0  0  0  0
 17 18  1  0  0  0  0
 17 40  1  0  0  0  0
 17 41  1  0  0  0  0
 18 19  1  0  0  0  0
 18 20  1  0  0  0  0
 18 55  1  0  0  0  0
 19 42  1  0  0  0  0
 19 43  1  0  0  0  0
 19 44  1  0  0  0  0
 20 21  1  0  0  0  0
 20 45  1  0  0  0  0
 20 46  1  0  0  0  0
 21 47  1  0  0  0  0
 21 48  1  0  0  0  0
 22 23  1  0  0  0  0
 22 49  1  0  0  0  0
 22 50  1  0  0  0  0
 23 51  1  0  0  0  0
 23 52  1  0  0  0  0
 24 53  1  0  0  0  0
M  CHG  1  14   1
M  CHG  1  18   1
M  END
> <s_m_source_file>
AV-unprocessed.smi

> <i_m_source_file_index>
2583

> <i_lp_mmshare_version>
43012

> <i_f3d_flags>
0

> <s_epik_input>
W0NIM11jMVtjSF1uW2NIXWMoW2NIXTEpW05IXUMoPU8pW05IXVtDSF0yW0NIMl1bQ0gyXU4oW0NIMl1bQ0gyXTIpW0NIXTNbQ0gyXVtDSDJdTihbQ0gzXSlbQ0gyXVtDSDJdMw==

> <s_epik_cmdline>
J2VwaWtfcHl0aG9uJywgJy1waCcsICc3LjAnLCAnLXRuJywgJzgnLCAnLW1hJywgJzIwMCcsICctbWV0YWxfYmluZGluZycsICctaW1hZScsICc8aW5maWxlLm1hZT4nLCAnLW9tYWUnLCAnPG91dGZpbGUubWFlPic=

> <r_epik_Ionization_Penalty>
0.188357

> <r_epik_Ionization_Penalty_Charging>
0.180787

> <r_epik_Ionization_Penalty_Neutral>
0.00756971

> <r_epik_State_Penalty>
0.157948

> <r_epik_Charging_Adjusted_Penalty>
0.338735

> <i_epik_Tot_Q>
2

> <i_epik_Tot_abs_Q>
2

> <r_epik_Metal_State_Penalty>
0.153874

> <b_epik_Metal_Only>
0

> <s_lp_Force_Field>
OPLS_2005

> <r_lp_Energy>
43.8925

> <b_lp_Chiralities_Consistent>
1

> <s_lp_Variant>
AV-unprocessed.smi:2583-1

> <Gold.Version>
5.8.1

> <Gold.Id.Protein>
6NUR|6NUR_protein|mol2

> <Gold.PLP.Fitness>
49.3336

> <Gold.PLP.PLP>
-38.4206

> <Gold.PLP.part.hbond>
-2.0000

> <Gold.PLP.part.metal>
0.0000

> <Gold.PLP.part.buried>
0.8358

> <Gold.PLP.part.nonpolar>
-37.1243

> <Gold.PLP.part.repulsive>
0.1855

> <Gold.PLP.ligand.clash>
0.0000

> <Gold.PLP.ligand.torsion>
0.5626

> <Gold.PLP.Chemscore.Hbond>
3.0000

> <Gold.PLP.Chemscore.CHOScore>
1.0000

> <Gold.PLP.Chemscore.Metal>
0.0000

> <Gold.Chemscore.Hbonds>
donor molecule, donor type, donor heavy atom, donor atom, acceptor molecule, acceptor atom, score
      L1  H     7    30       P1  8028  1.00
      L1  H    14    54       P1 10175  2.00
      L1  C     5    29       P1  8028  1.00

> <Gold.PLP.Chemscore.Internal.Correction>
0.0381

> <Gold.Rescore>
     Score         DG    S(hbond)    S(metal)    S(lipo)     H(rot)  DE(clash)    DE(int)     intcor
     19.44     -22.32       1.91        0.00     115.75       1.21       1.35       1.53       ----

> <Gold.Chemscore.Fitness>
19.4402

> <Gold.Chemscore.DG>
-22.3221

> <Gold.Chemscore.ZeroCoef>
-5.4800

> <Gold.Chemscore.Hbond>
1.9147

> <Gold.Chemscore.Metal>
0.0000

> <Gold.Chemscore.Lipo>
115.7488

> <Gold.Chemscore.Internal_Hbond>
0.0000

> <Gold.Chemscore.DEClash>
1.3503

> <Gold.Chemscore.DEInternal>
1.5316

> <Gold.Chemscore.Rot>
1.2092

> <Gold.Chemscore.Internal.Correction>
   9.000000E+99

> <Gold.Chemscore.Hbonds>
donor molecule, donor type, donor heavy atom, donor atom, acceptor molecule, acceptor atom, score
      L1  H     7    30       P1  8028  1.00
      L1  H    14    54       P1 10175  0.90

> <Gold.Chemscore.Hbond.Weighted>
-6.3950

> <Gold.Chemscore.Metal.Weighted>
-0.0000

> <Gold.Chemscore.Lipo.Weighted>
-13.5426

> <Gold.Chemscore.Internal_Hbond.Weighted>
0.0000

> <Gold.Chemscore.DEClash.Weighted>
1.3503

> <Gold.Chemscore.DEInternal.Weighted>
1.5316

> <Gold.Chemscore.Rot.Weighted>
3.0955

> <Gold.Chemscore.Internal.Correction.Weighted>
   9.000000E+99

> <Gold.Protein.RotatedTorsions>
[ 6907 6896 6895 6894 ] final   44.25 input  -60.11 | X-H torsion
[ 7974 7965 7964 7962 ] final  124.98 input  175.53 | X-H torsion
[ 8008 7997 7996 7995 ] final -161.34 input   59.86 | X-H torsion
[ 10167 10162 10161 10158 ] final  -91.35 input  -65.29 | X-H torsion
[ 10718 10713 10712 10709 ] final  -89.64 input   66.30 | X-H torsion
[ 10763 10752 10751 10750 ] final  -14.05 input  -60.55 | X-H torsion
[ 11005 11000 10999 10996 ] final   85.59 input  -57.11 | X-H torsion

> <Gold.Protein.ActiveResidues>
 VAL166  LYS551  ARG553  GLY616  TRP617  ASP618  TYR619  PRO620  LYS621  CYS622 
 ASP623  PHE694  ASN695  SER759  ASP760  ASP761  ALA762  ILE779  LEU786  VAL792 
 PHE793  MET794  SER795  GLU796  ALA797  LYS798  CYS799  TRP800  GLU811  SER814 

> <Gold.Protein.RotatedAtoms>
  152.2302  134.8329  160.0474 H   0  0  0  0  0  0  0  0  0  0  0  0  # atno 6907 bound_to 6896
  151.9081  133.3549  159.3862 H   0  0  0  0  0  0  0  0  0  0  0  0  # atno 6908 bound_to 6896
  150.7023  134.4685  159.5458 H   0  0  0  0  0  0  0  0  0  0  0  0  # atno 6909 bound_to 6896
  145.0782  139.3677  143.4923 H   0  0  0  0  0  0  0  0  0  0  0  0  # atno 7974 bound_to 7965
  155.7908  140.0878  157.2010 H   0  0  0  0  0  0  0  0  0  0  0  0  # atno 8008 bound_to 7997
  154.3985  140.1490  156.3219 H   0  0  0  0  0  0  0  0  0  0  0  0  # atno 8009 bound_to 7997
  155.8560  140.3432  155.5727 H   0  0  0  0  0  0  0  0  0  0  0  0  # atno 8010 bound_to 7997
  140.3457  143.2918  151.9784 H   0  0  0  0  0  0  0  0  0  0  0  0  # atno 10167 bound_to 10162
  155.9985  130.4880  150.5201 H   0  0  0  0  0  0  0  0  0  0  0  0  # atno 10718 bound_to 10713
  153.5224  135.7015  153.5724 H   0  0  0  0  0  0  0  0  0  0  0  0  # atno 10763 bound_to 10752
  153.3768  135.3930  155.1828 H   0  0  0  0  0  0  0  0  0  0  0  0  # atno 10764 bound_to 10752
  154.8693  135.3825  154.4714 H   0  0  0  0  0  0  0  0  0  0  0  0  # atno 10765 bound_to 10752
  139.8967  134.8297  156.2603 H   0  0  0  0  0  0  0  0  0  0  0  0  # atno 11005 bound_to 11000
  146.3530  140.0560  142.8632 LP  0  0  0  0  0  0  0  0  0  0  0  0  # atno 17320 bound_to 7965
  145.1210  140.9462  143.4600 LP  0  0  0  0  0  0  0  0  0  0  0  0  # atno 17321 bound_to 7965
  139.4833  144.6119  151.7418 LP  0  0  0  0  0  0  0  0  0  0  0  0  # atno 17342 bound_to 10162
  140.5267  144.0795  150.6040 LP  0  0  0  0  0  0  0  0  0  0  0  0  # atno 17343 bound_to 10162
  157.3164  131.0673  151.1964 LP  0  0  0  0  0  0  0  0  0  0  0  0  # atno 17370 bound_to 10713
  157.2892  130.6788  149.6105 LP  0  0  0  0  0  0  0  0  0  0  0  0  # atno 17371 bound_to 10713
  141.0166  133.7065  156.1199 LP  0  0  0  0  0  0  0  0  0  0  0  0  # atno 17394 bound_to 11000
  140.7292  134.4273  157.5567 LP  0  0  0  0  0  0  0  0  0  0  0  0  # atno 17395 bound_to 11000

$$$$
