AV-unprocessed.smi:2032|AV-procd|sdf|8249|dock4
  -GOLD-   2272010523D 1   1.00000     0.00000
 Structure written by MMmdl.
 41 42  0  0  0  0  0  0  0  0  2 V2000
  153.5860  142.3496  159.7986 C   0  0  0  0  0  0  0  0  0  0  0  0
  152.9198  140.9722  159.7138 C   0  0  1  0  0  0  0  0  0  0  0  0
  151.8680  140.9064  158.5917 C   0  0  0  0  0  0  0  0  0  0  0  0
  151.2787  139.5730  158.4406 N   0  0  0  0  0  0  0  0  0  0  0  0
  150.2489  139.5227  157.3756 C   0  0  2  0  0  0  0  0  0  0  0  0
  149.3082  140.7549  157.3941 C   0  0  0  0  0  0  0  0  0  0  0  0
  149.3850  138.2273  157.4175 C   0  0  0  0  0  0  0  0  0  0  0  0
  148.5827  138.0933  158.6315 N   0  0  0  0  0  0  0  0  0  0  0  0
  148.5399  137.0194  159.4327 C   0  0  0  0  0  0  0  0  0  0  0  0
  149.2298  136.0304  159.1741 O   0  0  0  0  0  0  0  0  0  0  0  0
  147.6959  137.1571  160.4806 N   0  5  0  0  0  0  0  0  0  0  0  0
  147.2552  136.0716  161.1371 C   0  0  0  0  0  0  0  0  0  0  0  0
  146.9696  134.9157  160.5269 N   0  0  0  0  0  0  0  0  0  0  0  0
  146.5385  133.9175  161.4024 C   0  0  0  0  0  0  0  0  0  0  0  0
  146.5040  134.3198  162.7113 C   0  0  0  0  0  0  0  0  0  0  0  0
  147.0133  135.9752  162.8840 S   0  0  0  0  0  0  0  0  0  0  0  0
  152.3729  138.6210  158.2177 C   0  0  0  0  0  0  0  0  0  0  0  0
  153.4653  138.6722  159.3043 C   0  0  2  0  0  0  0  0  0  0  0  0
  153.0251  138.0473  160.6397 C   0  0  0  0  0  0  0  0  0  0  0  0
  153.9376  140.0069  159.4716 O   0  0  0  0  0  0  0  0  0  0  0  0
  152.8511  143.1304  159.9966 H   0  0  0  0  0  0  0  0  0  0  0  0
  154.0973  142.5988  158.8683 H   0  0  0  0  0  0  0  0  0  0  0  0
  154.3232  142.3768  160.6012 H   0  0  0  0  0  0  0  0  0  0  0  0
  152.4422  140.7653  160.6716 H   0  0  0  0  0  0  0  0  0  0  0  0
  151.1017  141.6396  158.8350 H   0  0  0  0  0  0  0  0  0  0  0  0
  152.3172  141.2194  157.6477 H   0  0  0  0  0  0  0  0  0  0  0  0
  150.7647  139.5342  156.4144 H   0  0  0  0  0  0  0  0  0  0  0  0
  148.5174  140.6883  156.6477 H   0  0  0  0  0  0  0  0  0  0  0  0
  149.8334  141.6801  157.1618 H   0  0  0  0  0  0  0  0  0  0  0  0
  148.8300  140.8709  158.3671 H   0  0  0  0  0  0  0  0  0  0  0  0
  148.6898  138.1719  156.5811 H   0  0  0  0  0  0  0  0  0  0  0  0
  150.0287  137.3507  157.3420 H   0  0  0  0  0  0  0  0  0  0  0  0
  148.0044  138.8812  158.8836 H   0  0  0  0  0  0  0  0  0  0  0  0
  146.2784  132.9469  161.0066 H   0  0  0  0  0  0  0  0  0  0  0  0
  146.2139  133.7474  163.5795 H   0  0  0  0  0  0  0  0  0  0  0  0
  152.0026  137.5987  158.1868 H   0  0  0  0  0  0  0  0  0  0  0  0
  152.8294  138.8169  157.2461 H   0  0  0  0  0  0  0  0  0  0  0  0
  154.3165  138.0910  158.9491 H   0  0  0  0  0  0  0  0  0  0  0  0
  152.7840  136.9918  160.5119 H   0  0  0  0  0  0  0  0  0  0  0  0
  152.1400  138.5337  161.0494 H   0  0  0  0  0  0  0  0  0  0  0  0
  153.8196  138.1173  161.3829 H   0  0  0  0  0  0  0  0  0  0  0  0
  1  2  1  0  0  0  0
  1 21  1  0  0  0  0
  1 22  1  0  0  0  0
  1 23  1  0  0  0  0
  2 20  1  0  0  0  0
  2  3  1  0  0  0  0
  2 24  1  0  0  0  0
  3  4  1  0  0  0  0
  3 25  1  0  0  0  0
  3 26  1  0  0  0  0
  4  5  1  0  0  0  0
  4 17  1  0  0  0  0
  5  6  1  0  0  0  0
  5  7  1  0  0  0  0
  5 27  1  0  0  0  0
  6 28  1  0  0  0  0
  6 29  1  0  0  0  0
  6 30  1  0  0  0  0
  7  8  1  0  0  0  0
  7 31  1  0  0  0  0
  7 32  1  0  0  0  0
  8  9  1  0  0  0  0
  8 33  1  0  0  0  0
  9 10  2  0  0  0  0
  9 11  1  0  0  0  0
 11 12  1  0  0  0  0
 12 16  1  0  0  0  0
 12 13  2  0  0  0  0
 13 14  1  0  0  0  0
 14 15  2  0  0  0  0
 14 34  1  0  0  0  0
 15 16  1  0  0  0  0
 15 35  1  0  0  0  0
 17 18  1  0  0  0  0
 17 36  1  0  0  0  0
 17 37  1  0  0  0  0
 18 19  1  0  0  0  0
 18 20  1  0  0  0  0
 18 38  1  0  0  0  0
 19 39  1  0  0  0  0
 19 40  1  0  0  0  0
 19 41  1  0  0  0  0
M  CHG  1  11  -1
M  END
> <s_m_source_file>
AV-unprocessed.smi

> <i_m_source_file_index>
2032

> <i_lp_mmshare_version>
43012

> <i_f3d_flags>
0

> <s_epik_input>
W0NIM11bQ0BASF0xW0NIMl1OKFtDSDJdW0NASF0oTzEpW0NIM10pW0NASF0oW0NIM10pW0NIMl1bTkhdQyg9TylbTkhdYzJuW2NIXVtjSF1zMg==

> <s_epik_cmdline>
J2VwaWtfcHl0aG9uJywgJy1waCcsICc3LjAnLCAnLXRuJywgJzgnLCAnLW1hJywgJzIwMCcsICctbWV0YWxfYmluZGluZycsICctaW1hZScsICc8aW5maWxlLm1hZT4nLCAnLW9tYWUnLCAnPG91dGZpbGUubWFlPic=

> <r_lp_tautomer_probability>
0.999

> <r_epik_Ionization_Penalty>
7.22375

> <r_epik_Ionization_Penalty_Charging>
5.82415

> <r_epik_Ionization_Penalty_Neutral>
1.39959

> <r_epik_State_Penalty>
6.03347

> <r_epik_Charging_Adjusted_Penalty>
11.8576

> <i_epik_Tot_Q>
-1

> <i_epik_Tot_abs_Q>
1

> <r_epik_Metal_State_Penalty>
2.01024

> <b_epik_Metal_Only>
1

> <s_lp_Force_Field>
OPLS_2005

> <r_lp_Energy>
25.9518

> <b_lp_Chiralities_Consistent>
1

> <s_lp_Variant>
AV-unprocessed.smi:2032-19

> <Gold.Version>
5.8.1

> <Gold.Id.Protein>
6NUR|6NUR_protein|mol2

> <Gold.PLP.Fitness>
45.7399

> <Gold.PLP.PLP>
-31.7659

> <Gold.PLP.part.hbond>
-4.0000

> <Gold.PLP.part.metal>
0.0000

> <Gold.PLP.part.buried>
-4.4146

> <Gold.PLP.part.nonpolar>
-25.5008

> <Gold.PLP.part.repulsive>
0.1951

> <Gold.PLP.ligand.clash>
0.0000

> <Gold.PLP.ligand.torsion>
0.6049

> <Gold.PLP.Chemscore.Hbond>
5.0357

> <Gold.PLP.Chemscore.CHOScore>
0.0000

> <Gold.PLP.Chemscore.Metal>
0.0000

> <Gold.Chemscore.Hbonds>
donor molecule, donor type, donor heavy atom, donor atom, acceptor molecule, acceptor atom, score
      P1  H  6896  6909       L1    10  0.80
      P1  H  6931  6943       L1    11  0.70
      P1  H  6934  6947       L1    11  1.86
      P1  H  7997  8010       L1    20  0.04

> <Gold.PLP.Chemscore.Internal.Correction>
0.0767

> <Gold.Rescore>
     Score         DG    S(hbond)    S(metal)    S(lipo)     H(rot)  DE(clash)    DE(int)     intcor
     15.97     -17.96       2.24        0.00      76.36       1.54       0.04       1.94       ----

> <Gold.Chemscore.Fitness>
15.9683

> <Gold.Chemscore.DG>
-17.9555

> <Gold.Chemscore.ZeroCoef>
-5.4800

> <Gold.Chemscore.Hbond>
2.2430

> <Gold.Chemscore.Metal>
0.0000

> <Gold.Chemscore.Lipo>
76.3611

> <Gold.Chemscore.Internal_Hbond>
0.0000

> <Gold.Chemscore.DEClash>
0.0437

> <Gold.Chemscore.DEInternal>
1.9435

> <Gold.Chemscore.Rot>
1.5431

> <Gold.Chemscore.Internal.Correction>
   9.000000E+99

> <Gold.Chemscore.Hbonds>
donor molecule, donor type, donor heavy atom, donor atom, acceptor molecule, acceptor atom, score
      P1  H  6896  6909       L1    10  0.76
      P1  H  6931  6943       L1    11  0.05
      P1  H  6934  6947       L1    11  0.79

> <Gold.Chemscore.Hbond.Weighted>
-7.4915

> <Gold.Chemscore.Metal.Weighted>
-0.0000

> <Gold.Chemscore.Lipo.Weighted>
-8.9343

> <Gold.Chemscore.Internal_Hbond.Weighted>
0.0000

> <Gold.Chemscore.DEClash.Weighted>
0.0437

> <Gold.Chemscore.DEInternal.Weighted>
1.9435

> <Gold.Chemscore.Rot.Weighted>
3.9503

> <Gold.Chemscore.Internal.Correction.Weighted>
   9.000000E+99

> <Gold.Protein.RotatedTorsions>
[ 6907 6896 6895 6894 ] final   43.61 input  -60.11 | X-H torsion
[ 7974 7965 7964 7962 ] final -176.80 input  175.53 | X-H torsion
[ 8008 7997 7996 7995 ] final   10.92 input   59.86 | X-H torsion
[ 10167 10162 10161 10158 ] final -148.57 input  -65.29 | X-H torsion
[ 10718 10713 10712 10709 ] final  167.85 input   66.30 | X-H torsion
[ 10763 10752 10751 10750 ] final  -49.73 input  -60.55 | X-H torsion
[ 11005 11000 10999 10996 ] final  173.31 input  -57.11 | X-H torsion

> <Gold.Protein.ActiveResidues>
 VAL166  LYS551  ARG553  GLY616  TRP617  ASP618  TYR619  PRO620  LYS621  CYS622 
 ASP623  PHE694  ASN695  SER759  ASP760  ASP761  ALA762  ILE779  LEU786  VAL792 
 PHE793  MET794  SER795  GLU796  ALA797  LYS798  CYS799  TRP800  GLU811  SER814 

> <Gold.Protein.RotatedAtoms>
  152.2224  134.8400  160.0483 H   0  0  0  0  0  0  0  0  0  0  0  0  # atno 6907 bound_to 6896
  151.9179  133.3572  159.3894 H   0  0  0  0  0  0  0  0  0  0  0  0  # atno 6908 bound_to 6896
  150.7003  134.4591  159.5416 H   0  0  0  0  0  0  0  0  0  0  0  0  # atno 6909 bound_to 6896
  144.7127  140.1115  143.6411 H   0  0  0  0  0  0  0  0  0  0  0  0  # atno 7974 bound_to 7965
  154.7999  140.2850  155.5929 H   0  0  0  0  0  0  0  0  0  0  0  0  # atno 8008 bound_to 7997
  156.2976  140.2588  156.2794 H   0  0  0  0  0  0  0  0  0  0  0  0  # atno 8009 bound_to 7997
  154.9571  140.0378  157.2161 H   0  0  0  0  0  0  0  0  0  0  0  0  # atno 8010 bound_to 7997
  139.7520  143.8504  152.2588 H   0  0  0  0  0  0  0  0  0  0  0  0  # atno 10167 bound_to 10162
  157.0456  131.0299  151.2698 H   0  0  0  0  0  0  0  0  0  0  0  0  # atno 10718 bound_to 10713
  154.0989  135.6566  153.4865 H   0  0  0  0  0  0  0  0  0  0  0  0  # atno 10763 bound_to 10752
  153.0295  135.5220  154.7306 H   0  0  0  0  0  0  0  0  0  0  0  0  # atno 10764 bound_to 10752
  154.6452  135.2993  155.0023 H   0  0  0  0  0  0  0  0  0  0  0  0  # atno 10765 bound_to 10752
  140.3391  134.7292  157.4189 H   0  0  0  0  0  0  0  0  0  0  0  0  # atno 11005 bound_to 11000
  145.9450  139.2695  143.1246 LP  0  0  0  0  0  0  0  0  0  0  0  0  # atno 17320 bound_to 7965
  145.9383  140.8998  143.0321 LP  0  0  0  0  0  0  0  0  0  0  0  0  # atno 17321 bound_to 7965
  139.8485  144.7176  150.9243 LP  0  0  0  0  0  0  0  0  0  0  0  0  # atno 17342 bound_to 10162
  140.7799  143.3920  151.1294 LP  0  0  0  0  0  0  0  0  0  0  0  0  # atno 17343 bound_to 10162
  157.5070  130.7915  149.7665 LP  0  0  0  0  0  0  0  0  0  0  0  0  # atno 17370 bound_to 10713
  156.0024  130.3873  150.2556 LP  0  0  0  0  0  0  0  0  0  0  0  0  # atno 17371 bound_to 10713
  140.0796  134.5749  155.8554 LP  0  0  0  0  0  0  0  0  0  0  0  0  # atno 17394 bound_to 11000
  141.2043  133.6638  156.6115 LP  0  0  0  0  0  0  0  0  0  0  0  0  # atno 17395 bound_to 11000

$$$$
