#       Name:                AV-unprocessed.smi:2928
#       Creating user name   scv26
#       Creation time:       Fri Mar 27 16:12:54 2020


#       File generated by GOLD software.
#

@<TRIPOS>MOLECULE
AV-unprocessed.smi:2928
    59    62     1
SMALL
NO_CHARGES


@<TRIPOS>ATOM
      1 ****        -5.4437  -1.2959  -0.5145 C.3            1 S1                 0.0000
      2 ****        -4.0358  -1.7601  -0.5047 N.4            1 S1                 1.0000
      3 ****        -3.2762  -1.4187   0.7214 C.3            1 S1                 0.0000
      4 ****        -2.0112  -2.3046   0.7950 C.3            1 S1                 0.0000
      5 ****        -1.1420  -2.2616  -0.4766 C.3            1 S1                 0.0000
      6 ****        -1.9817  -2.2781  -1.7691 C.3            1 S1                 0.0000
      7 ****        -3.2502  -1.3955  -1.7077 C.3            1 S1                 0.0000
      8 ****        -2.9967   0.1316  -1.7788 C.3            1 S1                 0.0000
      9 ****        -2.5101   0.7983  -0.4682 C.3            1 S1                 0.0000
     10 ****        -1.0631   0.9979  -0.4757 N.am           1 S1                 0.0000
     11 ****        -0.3874   1.8867   0.2665 C.2            1 S1                 0.0000
     12 ****        -0.9264   2.6727   1.0452 O.2            1 S1                 0.0000
     13 ****         0.9350   1.7774   0.0601 N.am           1 S1                 0.0000
     14 ****         1.9921   2.4701   0.7149 C.ar           1 S1                 0.0000
     15 ****         1.8448   3.7751   1.2440 C.ar           1 S1                 0.0000
     16 ****         2.9493   4.3943   1.8571 C.ar           1 S1                 0.0000
     17 ****         4.1657   3.6906   1.9117 C.ar           1 S1                 0.0000
     18 ****         4.3267   2.4536   1.3991 N.ar           1 S1                 0.0000
     19 ****         3.2658   1.8527   0.8072 C.ar           1 S1                 0.0000
     20 ****         3.4552   0.5623   0.2809 N.3            1 S1                 0.0000
     21 ****         4.4452   0.4535  -0.7772 C.3            1 S1                 0.0000
     22 ****         4.7323  -1.0442  -0.9114 C.3            1 S1                 0.0000
     23 ****         4.3024  -1.6501   0.4307 C.3            1 S1                 0.0000
     24 ****         3.7935  -0.4633   1.2530 C.3            1 S1                 0.0000
     25 ****        -3.0199   0.1056   0.8246 C.3            1 S1                 0.0000
     26 ****        -5.5205  -0.2088  -0.5006 H              1 S1                 0.0000
     27 ****        -5.9771  -1.6831   0.3541 H              1 S1                 0.0000
     28 ****        -5.9575  -1.6591  -1.4051 H              1 S1                 0.0000
     29 ****        -3.8907  -1.6979   1.5787 H              1 S1                 0.0000
     30 ****        -1.4115  -2.0418   1.6671 H              1 S1                 0.0000
     31 ****        -2.3287  -3.3364   0.9526 H              1 S1                 0.0000
     32 ****        -0.4901  -1.3950  -0.4583 H              1 S1                 0.0000
     33 ****        -0.4588  -3.1115  -0.4775 H              1 S1                 0.0000
     34 ****        -1.3625  -1.9977  -2.6219 H              1 S1                 0.0000
     35 ****        -2.2944  -3.3068  -1.9548 H              1 S1                 0.0000
     36 ****        -3.8455  -1.6613  -2.5825 H              1 S1                 0.0000
     37 ****        -2.3229   0.3642  -2.6047 H              1 S1                 0.0000
     38 ****        -3.9391   0.6062  -2.0547 H              1 S1                 0.0000
     39 ****        -2.9276   1.8073  -0.4722 H              1 S1                 0.0000
     40 ****        -0.5280   0.3971  -1.0855 H              1 S1                 0.0000
     41 ****         1.2287   1.0317  -0.5539 H              1 S1                 0.0000
     42 ****         0.9132   4.3159   1.1778 H              1 S1                 0.0000
     43 ****         2.8662   5.3884   2.2708 H              1 S1                 0.0000
     44 ****         5.0351   4.1348   2.3734 H              1 S1                 0.0000
     45 ****         4.0715   0.8768  -1.7100 H              1 S1                 0.0000
     46 ****         5.3576   0.9869  -0.5061 H              1 S1                 0.0000
     47 ****         4.1384  -1.4735  -1.7193 H              1 S1                 0.0000
     48 ****         5.7829  -1.2318  -1.1350 H              1 S1                 0.0000
     49 ****         3.5015  -2.3734   0.2723 H              1 S1                 0.0000
     50 ****         5.1205  -2.1649   0.9352 H              1 S1                 0.0000
     51 ****         4.5767  -0.1102   1.9255 H              1 S1                 0.0000
     52 ****         2.9272  -0.7342   1.8573 H              1 S1                 0.0000
     53 ****        -3.9652   0.5786   1.0929 H              1 S1                 0.0000
     54 ****        -2.3639   0.3148   1.6702 H              1 S1                 0.0000
     55 ****        -4.0975  -2.7683  -0.5148 H              1 S1                 0.0000
     56 ****        -1.9209   2.6701   1.1498 LP             1 S1                 0.0000
     57 ****        -0.3699   3.3141   1.5734 LP             1 S1                 0.0000
     58 ****         5.2106   1.9894   1.4546 LP             1 S1                 0.0000
     59 ****         2.5401   0.4017  -0.0890 LP             1 S1                 0.0000
@<TRIPOS>BOND
    1    1    2 1     
    2    1   26 1     
    3    1   27 1     
    4    1   28 1     
    5    2    7 1     
    6    2    3 1     
    7    2   55 1     
    8    3   25 1     
    9    3    4 1     
   10    3   29 1     
   11    4    5 1     
   12    4   30 1     
   13    4   31 1     
   14    5    6 1     
   15    5   32 1     
   16    5   33 1     
   17    6    7 1     
   18    6   34 1     
   19    6   35 1     
   20    7    8 1     
   21    7   36 1     
   22    8    9 1     
   23    8   37 1     
   24    8   38 1     
   25    9   10 1     
   26    9   25 1     
   27    9   39 1     
   28   10   11 am    
   29   10   40 1     
   30   11   12 2     
   31   11   13 am    
   32   13   14 1     
   33   13   41 1     
   34   14   19 ar    
   35   14   15 ar    
   36   15   16 ar    
   37   15   42 1     
   38   16   17 ar    
   39   16   43 1     
   40   17   18 ar    
   41   17   44 1     
   42   18   19 ar    
   43   19   20 1     
   44   20   24 1     
   45   20   21 1     
   46   21   22 1     
   47   21   45 1     
   48   21   46 1     
   49   22   23 1     
   50   22   47 1     
   51   22   48 1     
   52   23   24 1     
   53   23   49 1     
   54   23   50 1     
   55   24   51 1     
   56   24   52 1     
   57   25   53 1     
   58   25   54 1     
   59   12   56 1     
   60   12   57 1     
   61   18   58 1     
   62   20   59 1     
@<TRIPOS>SUBSTRUCTURE
      1 S1             1
@<TRIPOS>SET
LONE_PAIRS      STATIC     ATOMS    <user>   **** ""
4 56 57 58 59
DONOR_HYDROGENS      STATIC     ATOMS    <user>   **** ""
3 55 40 41
ATOM$BLUE        STATIC     ATOMS    COLORGROUP SYSTEM
4 56 57 58 59
ATOM$RED        STATIC     ATOMS    COLORGROUP SYSTEM
3 55 40 41
