AV-unprocessed.smi:2448|AV-procd|sdf|9662|dock2
  -GOLD-   2272013303D 1   1.00000     0.00000
 Structure written by MMmdl.
 38 39  0  0  0  0  0  0  0  0  2 V2000
  149.7149  143.6959  159.3498 O   0  0  0  0  0  0  0  0  0  0  0  0
  151.0041  144.0205  158.8615 C   0  0  2  0  0  0  0  0  0  0  0  0
  151.1906  143.3344  157.4933 C   0  0  0  0  0  0  0  0  0  0  0  0
  151.2644  141.8755  157.6124 N   0  0  0  0  0  0  0  0  0  0  0  0
  150.0601  141.1383  157.2060 C   0  0  1  0  0  0  0  0  0  0  0  0
  150.1546  140.6215  155.7470 C   0  0  0  0  0  0  0  0  0  0  0  0
  148.8537  140.6501  154.9642 C   0  0  0  0  0  0  0  0  0  0  0  0
  148.2226  141.8791  154.6694 C   0  0  0  0  0  0  0  0  0  0  0  0
  147.0190  141.8762  153.9351 C   0  0  0  0  0  0  0  0  0  0  0  0
  146.4833  140.7054  153.5257 N   0  3  0  0  0  0  0  0  0  0  0  0
  147.0514  139.5083  153.7898 C   0  0  0  0  0  0  0  0  0  0  0  0
  148.2554  139.4488  154.5209 C   0  0  0  0  0  0  0  0  0  0  0  0
  149.8165  139.9704  158.1851 C   0  0  0  0  0  0  0  0  0  0  0  0
  148.6153  139.4361  157.9611 F   0  0  0  0  0  0  0  0  0  0  0  0
  150.7329  139.0193  158.0054 F   0  0  0  0  0  0  0  0  0  0  0  0
  149.8713  140.3918  159.4491 F   0  0  0  0  0  0  0  0  0  0  0  0
  152.0713  143.6336  159.9012 C   0  0  0  0  0  0  0  0  0  0  0  0
  151.9876  144.6355  161.0562 C   0  0  0  0  0  0  0  0  0  0  0  0
  151.5259  146.2394  160.3569 S   0  0  0  0  0  0  0  0  0  0  0  0
  151.0851  145.5525  158.7379 C   0  0  0  0  0  0  0  0  0  0  0  0
  149.1012  143.7400  158.6326 H   0  0  0  0  0  0  0  0  0  0  0  0
  150.3733  143.6137  156.8271 H   0  0  0  0  0  0  0  0  0  0  0  0
  152.0967  143.7250  157.0384 H   0  0  0  0  0  0  0  0  0  0  0  0
  151.4940  141.6330  158.5714 H   0  0  0  0  0  0  0  0  0  0  0  0
  149.1926  141.7944  157.2906 H   0  0  0  0  0  0  0  0  0  0  0  0
  150.9190  141.1805  155.2053 H   0  0  0  0  0  0  0  0  0  0  0  0
  150.4946  139.5857  155.7475 H   0  0  0  0  0  0  0  0  0  0  0  0
  148.6558  142.8125  154.9985 H   0  0  0  0  0  0  0  0  0  0  0  0
  146.4732  142.7684  153.6651 H   0  0  0  0  0  0  0  0  0  0  0  0
  146.5302  138.6414  153.4104 H   0  0  0  0  0  0  0  0  0  0  0  0
  148.7153  138.4934  154.7294 H   0  0  0  0  0  0  0  0  0  0  0  0
  151.9576  142.6081  160.2550 H   0  0  0  0  0  0  0  0  0  0  0  0
  153.0595  143.7037  159.4441 H   0  0  0  0  0  0  0  0  0  0  0  0
  151.2088  144.3342  161.7574 H   0  0  0  0  0  0  0  0  0  0  0  0
  152.9241  144.7037  161.6100 H   0  0  0  0  0  0  0  0  0  0  0  0
  151.8824  145.8327  158.0485 H   0  0  0  0  0  0  0  0  0  0  0  0
  150.1630  145.9957  158.3602 H   0  0  0  0  0  0  0  0  0  0  0  0
  145.6114  140.7257  152.9956 H   0  0  0  0  0  0  0  0  0  0  0  0
  1  2  1  0  0  0  0
  1 21  1  0  0  0  0
  2 20  1  0  0  0  0
  2  3  1  0  0  0  0
  2 17  1  0  0  0  0
  3  4  1  0  0  0  0
  3 22  1  0  0  0  0
  3 23  1  0  0  0  0
  4  5  1  0  0  0  0
  4 24  1  0  0  0  0
  5  6  1  0  0  0  0
  5 13  1  0  0  0  0
  5 25  1  0  0  0  0
  6  7  1  0  0  0  0
  6 26  1  0  0  0  0
  6 27  1  0  0  0  0
  7 12  1  0  0  0  0
  7  8  2  0  0  0  0
  8  9  1  0  0  0  0
  8 28  1  0  0  0  0
  9 10  2  0  0  0  0
  9 29  1  0  0  0  0
 10 11  1  0  0  0  0
 10 38  1  0  0  0  0
 11 12  2  0  0  0  0
 11 30  1  0  0  0  0
 12 31  1  0  0  0  0
 13 14  1  0  0  0  0
 13 15  1  0  0  0  0
 13 16  1  0  0  0  0
 17 18  1  0  0  0  0
 17 32  1  0  0  0  0
 17 33  1  0  0  0  0
 18 19  1  0  0  0  0
 18 34  1  0  0  0  0
 18 35  1  0  0  0  0
 19 20  1  0  0  0  0
 20 36  1  0  0  0  0
 20 37  1  0  0  0  0
M  CHG  1  10   1
M  END
> <s_m_source_file>
AV-unprocessed.smi

> <i_m_source_file_index>
2448

> <i_lp_mmshare_version>
43012

> <i_f3d_flags>
0

> <s_epik_input>
W0NIMl0xU1tDSDJdW0NIMl1bQ0BAXTEoW09IXSlbQ0gyXVtOSF1bQ0BASF0oQyhGKShGKUYpW0NIMl1jMltjSF1bY0hdbltjSF1bY0hdMg==

> <s_epik_cmdline>
J2VwaWtfcHl0aG9uJywgJy1waCcsICc3LjAnLCAnLXRuJywgJzgnLCAnLW1hJywgJzIwMCcsICctbWV0YWxfYmluZGluZycsICctaW1hZScsICc8aW5maWxlLm1hZT4nLCAnLW9tYWUnLCAnPG91dGZpbGUubWFlPic=

> <r_epik_Ionization_Penalty>
1.11129

> <r_epik_Ionization_Penalty_Charging>
1.08366

> <r_epik_Ionization_Penalty_Neutral>
0.0276276

> <r_epik_State_Penalty>
1.93785

> <r_epik_Charging_Adjusted_Penalty>
3.02151

> <i_epik_Tot_Q>
1

> <i_epik_Tot_abs_Q>
1

> <r_epik_Metal_State_Penalty>
5.97911

> <b_epik_Metal_Only>
0

> <s_lp_Force_Field>
OPLS_2005

> <r_lp_Energy>
38.9461

> <b_lp_Chiralities_Consistent>
1

> <s_lp_Variant>
AV-unprocessed.smi:2448-12

> <Gold.Version>
5.8.1

> <Gold.Id.Protein>
6NUR|6NUR_protein|mol2

> <Gold.PLP.Fitness>
43.7519

> <Gold.PLP.PLP>
-40.1176

> <Gold.PLP.part.hbond>
-2.0000

> <Gold.PLP.part.metal>
0.0000

> <Gold.PLP.part.buried>
-1.9643

> <Gold.PLP.part.nonpolar>
-35.5473

> <Gold.PLP.part.repulsive>
0.0141

> <Gold.PLP.ligand.clash>
0.0000

> <Gold.PLP.ligand.torsion>
1.4879

> <Gold.PLP.Chemscore.Hbond>
2.0000

> <Gold.PLP.Chemscore.CHOScore>
0.0000

> <Gold.PLP.Chemscore.Metal>
0.0000

> <Gold.Chemscore.Hbonds>
donor molecule, donor type, donor heavy atom, donor atom, acceptor molecule, acceptor atom, score
      L1  H    10    38       P1 10175  2.00

> <Gold.PLP.Chemscore.Internal.Correction>
0.6102

> <Gold.Rescore>
     Score         DG    S(hbond)    S(metal)    S(lipo)     H(rot)  DE(clash)    DE(int)     intcor
     13.75     -16.01       0.99        0.00     114.70       2.42       0.93       1.33       ----

> <Gold.Chemscore.Fitness>
13.7525

> <Gold.Chemscore.DG>
-16.0088

> <Gold.Chemscore.ZeroCoef>
-5.4800

> <Gold.Chemscore.Hbond>
0.9928

> <Gold.Chemscore.Metal>
0.0000

> <Gold.Chemscore.Lipo>
114.7018

> <Gold.Chemscore.Internal_Hbond>
0.0000

> <Gold.Chemscore.DEClash>
0.9303

> <Gold.Chemscore.DEInternal>
1.3259

> <Gold.Chemscore.Rot>
2.4247

> <Gold.Chemscore.Internal.Correction>
   9.000000E+99

> <Gold.Chemscore.Hbonds>
donor molecule, donor type, donor heavy atom, donor atom, acceptor molecule, acceptor atom, score
      L1  H    10    38       P1 10175  0.58

> <Gold.Chemscore.Hbond.Weighted>
-3.3159

> <Gold.Chemscore.Metal.Weighted>
-0.0000

> <Gold.Chemscore.Lipo.Weighted>
-13.4201

> <Gold.Chemscore.Internal_Hbond.Weighted>
0.0000

> <Gold.Chemscore.DEClash.Weighted>
0.9303

> <Gold.Chemscore.DEInternal.Weighted>
1.3259

> <Gold.Chemscore.Rot.Weighted>
6.2072

> <Gold.Chemscore.Internal.Correction.Weighted>
   9.000000E+99

> <Gold.Protein.RotatedTorsions>
[ 6907 6896 6895 6894 ] final  -53.01 input  -60.11 | X-H torsion
[ 7974 7965 7964 7962 ] final   84.80 input  175.53 | X-H torsion
[ 8008 7997 7996 7995 ] final -168.75 input   59.86 | X-H torsion
[ 10167 10162 10161 10158 ] final  157.65 input  -65.29 | X-H torsion
[ 10718 10713 10712 10709 ] final  -66.00 input   66.30 | X-H torsion
[ 10763 10752 10751 10750 ] final   14.46 input  -60.55 | X-H torsion
[ 11005 11000 10999 10996 ] final   56.06 input  -57.11 | X-H torsion

> <Gold.Protein.ActiveResidues>
 VAL166  LYS551  ARG553  GLY616  TRP617  ASP618  TYR619  PRO620  LYS621  CYS622 
 ASP623  PHE694  ASN695  SER759  ASP760  ASP761  ALA762  ILE779  LEU786  VAL792 
 PHE793  MET794  SER795  GLU796  ALA797  LYS798  CYS799  TRP800  GLU811  SER814 

> <Gold.Protein.RotatedAtoms>
  150.8466  134.7776  159.6974 H   0  0  0  0  0  0  0  0  0  0  0  0  # atno 6907 bound_to 6896
  152.4541  134.5327  159.9825 H   0  0  0  0  0  0  0  0  0  0  0  0  # atno 6908 bound_to 6896
  151.5456  133.3387  159.2979 H   0  0  0  0  0  0  0  0  0  0  0  0  # atno 6909 bound_to 6896
  145.5939  139.2342  143.2284 H   0  0  0  0  0  0  0  0  0  0  0  0  # atno 7974 bound_to 7965
  155.8957  140.1032  157.1386 H   0  0  0  0  0  0  0  0  0  0  0  0  # atno 8008 bound_to 7997
  154.4020  140.1302  156.4436 H   0  0  0  0  0  0  0  0  0  0  0  0  # atno 8009 bound_to 7997
  155.7482  140.3465  155.5139 H   0  0  0  0  0  0  0  0  0  0  0  0  # atno 8010 bound_to 7997
  139.4824  144.4897  151.8326 H   0  0  0  0  0  0  0  0  0  0  0  0  # atno 10167 bound_to 10162
  156.0637  130.4255  150.1645 H   0  0  0  0  0  0  0  0  0  0  0  0  # atno 10718 bound_to 10713
  153.1620  135.6797  153.8729 H   0  0  0  0  0  0  0  0  0  0  0  0  # atno 10763 bound_to 10752
  153.8121  135.3141  155.3403 H   0  0  0  0  0  0  0  0  0  0  0  0  # atno 10764 bound_to 10752
  154.7939  135.4818  154.0205 H   0  0  0  0  0  0  0  0  0  0  0  0  # atno 10765 bound_to 10752
  140.0558  134.5671  155.9209 H   0  0  0  0  0  0  0  0  0  0  0  0  # atno 11005 bound_to 11000
  146.1626  140.6765  142.9270 LP  0  0  0  0  0  0  0  0  0  0  0  0  # atno 17320 bound_to 7965
  144.7339  140.4752  143.6918 LP  0  0  0  0  0  0  0  0  0  0  0  0  # atno 17321 bound_to 7965
  140.4380  144.2025  150.5890 LP  0  0  0  0  0  0  0  0  0  0  0  0  # atno 17342 bound_to 10162
  140.4712  143.2412  151.9087 LP  0  0  0  0  0  0  0  0  0  0  0  0  # atno 17343 bound_to 10162
  156.9709  130.9834  151.3459 LP  0  0  0  0  0  0  0  0  0  0  0  0  # atno 17370 bound_to 10713
  157.5664  130.8280  149.8333 LP  0  0  0  0  0  0  0  0  0  0  0  0  # atno 17371 bound_to 10713
  141.1951  133.6586  156.5629 LP  0  0  0  0  0  0  0  0  0  0  0  0  # atno 17394 bound_to 11000
  140.3846  134.7494  157.4683 LP  0  0  0  0  0  0  0  0  0  0  0  0  # atno 17395 bound_to 11000

$$$$
