#       Name:                AV-unprocessed.smi:2774
#       Creating user name   scv26
#       Creation time:       Fri Mar 27 15:12:31 2020


#       File generated by GOLD software.
#

@<TRIPOS>MOLECULE
AV-unprocessed.smi:2774
    38    39     1
SMALL
NO_CHARGES


@<TRIPOS>ATOM
      1 ****        -2.5790  -0.5621   0.7010 O.3            1 S1                 0.0000
      2 ****        -2.0127   0.4023  -0.1645 C.3            1 S1                 0.0000
      3 ****        -0.4847   0.3906   0.0166 C.3            1 S1                 0.0000
      4 ****         0.0962  -0.9131  -0.3716 N.4            1 S1                 1.0000
      5 ****         1.5662  -1.0145  -0.2363 C.3            1 S1                 0.0000
      6 ****         2.0841  -2.1531  -1.1369 C.3            1 S1                 0.0000
      7 ****         3.6172  -2.2733  -1.1269 C.3            1 S1                 0.0000
      8 ****         4.1720  -2.5783   0.2709 C.3            1 S1                 0.0000
      9 ****         3.7748  -1.2472   1.4349 S.3            1 S1                 0.0000
     10 ****         1.9723  -1.2388   1.2351 C.3            1 S1                 0.0000
     11 ****        -2.5872   1.7866   0.0909 C.ar           1 S1                 0.0000
     12 ****        -2.6144   2.3348   1.3916 C.ar           1 S1                 0.0000
     13 ****        -3.1518   3.6255   1.5681 C.ar           1 S1                 0.0000
     14 ****        -3.6433   4.3683   0.5536 N.ar           1 S1                 0.0000
     15 ****        -3.6153   3.8393  -0.6883 C.ar           1 S1                 0.0000
     16 ****        -3.0997   2.5587  -0.9726 C.ar           1 S1                 0.0000
     17 ****        -3.5139  -0.5792   0.5596 H              1 S1                 0.0000
     18 ****        -2.2568   0.1080  -1.1865 H              1 S1                 0.0000
     19 ****        -0.0380   1.1668  -0.6063 H              1 S1                 0.0000
     20 ****        -0.2289   0.6257   1.0498 H              1 S1                 0.0000
     21 ****        -0.3351  -1.6430   0.1779 H              1 S1                 0.0000
     22 ****         2.0027  -0.0793  -0.5908 H              1 S1                 0.0000
     23 ****         1.6431  -3.1022  -0.8282 H              1 S1                 0.0000
     24 ****         1.7537  -1.9837  -2.1626 H              1 S1                 0.0000
     25 ****         3.9200  -3.0650  -1.8129 H              1 S1                 0.0000
     26 ****         4.0633  -1.3537  -1.5075 H              1 S1                 0.0000
     27 ****         3.7620  -3.5157   0.6482 H              1 S1                 0.0000
     28 ****         5.2552  -2.6962   0.2305 H              1 S1                 0.0000
     29 ****         1.5768  -0.4541   1.8791 H              1 S1                 0.0000
     30 ****         1.5717  -2.1838   1.6041 H              1 S1                 0.0000
     31 ****        -2.2319   1.7830   2.2378 H              1 S1                 0.0000
     32 ****        -3.1866   4.0732   2.5503 H              1 S1                 0.0000
     33 ****        -4.0146   4.4556  -1.4802 H              1 S1                 0.0000
     34 ****        -3.1013   2.1843  -1.9858 H              1 S1                 0.0000
     35 ****        -0.1358  -1.0663  -1.3425 H              1 S1                 0.0000
     36 ****        -2.3858  -0.3176   1.6512 LP             1 S1                 0.0000
     37 ****        -2.1912  -1.4623   0.5030 LP             1 S1                 0.0000
     38 ****        -4.0164   5.2816   0.7168 LP             1 S1                 0.0000
@<TRIPOS>BOND
    1    1    2 1     
    2    1   17 1     
    3    2    3 1     
    4    2   11 1     
    5    2   18 1     
    6    3    4 1     
    7    3   19 1     
    8    3   20 1     
    9    4    5 1     
   10    4   21 1     
   11    4   35 1     
   12    5   10 1     
   13    5    6 1     
   14    5   22 1     
   15    6    7 1     
   16    6   23 1     
   17    6   24 1     
   18    7    8 1     
   19    7   25 1     
   20    7   26 1     
   21    8    9 1     
   22    8   27 1     
   23    8   28 1     
   24    9   10 1     
   25   10   29 1     
   26   10   30 1     
   27   11   16 ar    
   28   11   12 ar    
   29   12   13 ar    
   30   12   31 1     
   31   13   14 ar    
   32   13   32 1     
   33   14   15 ar    
   34   15   16 ar    
   35   15   33 1     
   36   16   34 1     
   37    1   36 1     
   38    1   37 1     
   39   14   38 1     
@<TRIPOS>SUBSTRUCTURE
      1 S1             1
@<TRIPOS>SET
LONE_PAIRS      STATIC     ATOMS    <user>   **** ""
3 36 37 38
DONOR_HYDROGENS      STATIC     ATOMS    <user>   **** ""
3 17 21 35
ATOM$BLUE        STATIC     ATOMS    COLORGROUP SYSTEM
3 36 37 38
ATOM$RED        STATIC     ATOMS    COLORGROUP SYSTEM
3 17 21 35
