AV-unprocessed.smi:2281|AV-procd|sdf|9193|dock8
  -GOLD-   2272012413D 1   1.00000     0.00000
 Structure written by MMmdl.
 40 41  0  0  0  0  0  0  0  0  1 V2000
  147.4085  139.3404  152.7968 C   0  0  0  0  0  0  0  0  0  0  0  0
  148.5755  139.6029  153.7322 C   0  0  0  0  0  0  0  0  0  0  0  0
  149.5944  138.6469  153.7099 N   0  0  0  0  0  0  0  0  0  0  0  0
  150.6227  138.7826  154.4815 C   0  0  0  0  0  0  0  0  0  0  0  0
  150.7503  139.8702  155.3619 N   0  0  0  0  0  0  0  0  0  0  0  0
  151.9822  139.9033  156.1770 C   0  0  0  0  0  0  0  0  0  0  0  0
  151.8117  139.4509  157.6604 C   0  0  1  0  0  0  0  0  0  0  0  0
  150.3702  139.0622  158.0571 C   0  0  0  0  0  0  0  0  0  0  0  0
  152.5665  138.2596  157.8015 O   0  0  0  0  0  0  0  0  0  0  0  0
  152.3321  140.5591  158.5885 C   0  0  0  0  0  0  0  0  0  0  0  0
  153.4264  140.3494  159.4622 C   0  0  0  0  0  0  0  0  0  0  0  0
  153.8854  141.3861  160.2965 C   0  0  0  0  0  0  0  0  0  0  0  0
  153.2591  142.6453  160.2697 C   0  0  0  0  0  0  0  0  0  0  0  0
  152.1661  142.8752  159.4093 C   0  0  0  0  0  0  0  0  0  0  0  0
  151.4994  144.2426  159.3724 C   0  0  0  0  0  0  0  0  0  0  0  0
  151.5536  144.8402  160.5633 F   0  0  0  0  0  0  0  0  0  0  0  0
  152.1000  145.0331  158.4822 F   0  0  0  0  0  0  0  0  0  0  0  0
  150.2215  144.0969  159.0241 F   0  0  0  0  0  0  0  0  0  0  0  0
  151.7148  141.8322  158.5715 C   0  0  0  0  0  0  0  0  0  0  0  0
  149.8136  140.8626  155.4252 C   0  0  0  0  0  0  0  0  0  0  0  0
  149.9427  141.8298  156.1779 O   0  0  0  0  0  0  0  0  0  0  0  0
  148.6454  140.6909  154.5463 C   0  0  0  0  0  0  0  0  0  0  0  0
  147.5648  141.7630  154.6154 C   0  0  0  0  0  0  0  0  0  0  0  0
  146.4776  139.2639  153.3591 H   0  0  0  0  0  0  0  0  0  0  0  0
  147.5428  138.4092  152.2451 H   0  0  0  0  0  0  0  0  0  0  0  0
  147.3126  140.1479  152.0706 H   0  0  0  0  0  0  0  0  0  0  0  0
  151.4468  138.0673  154.4985 H   0  0  0  0  0  0  0  0  0  0  0  0
  152.7757  139.3217  155.7023 H   0  0  0  0  0  0  0  0  0  0  0  0
  152.3741  140.9211  156.1528 H   0  0  0  0  0  0  0  0  0  0  0  0
  149.6708  139.8858  157.9170 H   0  0  0  0  0  0  0  0  0  0  0  0
  150.3199  138.7690  159.1065 H   0  0  0  0  0  0  0  0  0  0  0  0
  149.9996  138.2188  157.4736 H   0  0  0  0  0  0  0  0  0  0  0  0
  152.2254  137.6144  157.2017 H   0  0  0  0  0  0  0  0  0  0  0  0
  153.9332  139.3972  159.5068 H   0  0  0  0  0  0  0  0  0  0  0  0
  154.7222  141.2149  160.9575 H   0  0  0  0  0  0  0  0  0  0  0  0
  153.6238  143.4351  160.9098 H   0  0  0  0  0  0  0  0  0  0  0  0
  150.8881  142.0135  157.9007 H   0  0  0  0  0  0  0  0  0  0  0  0
  147.1369  141.7998  155.6177 H   0  0  0  0  0  0  0  0  0  0  0  0
  146.7483  141.5959  153.9148 H   0  0  0  0  0  0  0  0  0  0  0  0
  147.9905  142.7420  154.3930 H   0  0  0  0  0  0  0  0  0  0  0  0
  1  2  1  0  0  0  0
  1 24  1  0  0  0  0
  1 25  1  0  0  0  0
  1 26  1  0  0  0  0
  2 22  2  0  0  0  0
  2  3  1  0  0  0  0
  3  4  2  0  0  0  0
  4  5  1  0  0  0  0
  4 27  1  0  0  0  0
  5  6  1  0  0  0  0
  5 20  1  0  0  0  0
  6  7  1  0  0  0  0
  6 28  1  0  0  0  0
  6 29  1  0  0  0  0
  7  8  1  0  0  0  0
  7  9  1  0  0  0  0
  7 10  1  0  0  0  0
  8 30  1  0  0  0  0
  8 31  1  0  0  0  0
  8 32  1  0  0  0  0
  9 33  1  0  0  0  0
 10 19  1  0  0  0  0
 10 11  2  0  0  0  0
 11 12  1  0  0  0  0
 11 34  1  0  0  0  0
 12 13  2  0  0  0  0
 12 35  1  0  0  0  0
 13 14  1  0  0  0  0
 13 36  1  0  0  0  0
 14 15  1  0  0  0  0
 14 19  2  0  0  0  0
 15 16  1  0  0  0  0
 15 17  1  0  0  0  0
 15 18  1  0  0  0  0
 19 37  1  0  0  0  0
 20 21  2  0  0  0  0
 20 22  1  0  0  0  0
 22 23  1  0  0  0  0
 23 38  1  0  0  0  0
 23 39  1  0  0  0  0
 23 40  1  0  0  0  0
M  END
> <s_m_source_file>
AV-unprocessed.smi

> <i_m_source_file_index>
2281

> <i_lp_mmshare_version>
43012

> <i_f3d_flags>
0

> <s_epik_input>
W0NIM11jMW5bY0hdbihjKD1PKWMxW0NIM10pW0NIMl1bQ0BAXShbQ0gzXSkoW09IXSljMltjSF1bY0hdW2NIXWMoQyhGKShGKUYpW2NIXTI=

> <s_epik_cmdline>
J2VwaWtfcHl0aG9uJywgJy1waCcsICc3LjAnLCAnLXRuJywgJzgnLCAnLW1hJywgJzIwMCcsICctbWV0YWxfYmluZGluZycsICctaW1hZScsICc8aW5maWxlLm1hZT4nLCAnLW9tYWUnLCAnPG91dGZpbGUubWFlPic=

> <r_lp_tautomer_probability>
1

> <r_epik_Ionization_Penalty>
5.68222e-05

> <r_epik_Ionization_Penalty_Charging>
9.07816e-08

> <r_epik_Ionization_Penalty_Neutral>
5.67314e-05

> <r_epik_State_Penalty>
-0

> <r_epik_Charging_Adjusted_Penalty>
9.07816e-08

> <i_epik_Tot_Q>
0

> <i_epik_Tot_abs_Q>
0

> <r_epik_Metal_State_Penalty>
-0

> <b_epik_Metal_Only>
0

> <s_lp_Force_Field>
OPLS_2005

> <r_lp_Energy>
23.727

> <b_lp_Chiralities_Consistent>
1

> <s_lp_Variant>
AV-unprocessed.smi:2281-1

> <Gold.Version>
5.8.1

> <Gold.Id.Protein>
6NUR|6NUR_protein|mol2

> <Gold.PLP.Fitness>
48.5677

> <Gold.PLP.PLP>
-52.5456

> <Gold.PLP.part.hbond>
0.0000

> <Gold.PLP.part.metal>
0.0000

> <Gold.PLP.part.buried>
-1.7263

> <Gold.PLP.part.nonpolar>
-51.8248

> <Gold.PLP.part.repulsive>
1.7816

> <Gold.PLP.ligand.clash>
0.0000

> <Gold.PLP.ligand.torsion>
2.5175

> <Gold.PLP.Chemscore.Hbond>
0.0000

> <Gold.PLP.Chemscore.CHOScore>
0.0000

> <Gold.PLP.Chemscore.Metal>
0.0000

> <Gold.PLP.Chemscore.Internal.Correction>
1.0571

> <Gold.Rescore>
     Score         DG    S(hbond)    S(metal)    S(lipo)     H(rot)  DE(clash)    DE(int)     intcor
      9.90     -13.23       0.00        0.00     111.86       2.09       0.78       2.55       ----

> <Gold.Chemscore.Fitness>
9.9008

> <Gold.Chemscore.DG>
-13.2278

> <Gold.Chemscore.ZeroCoef>
-5.4800

> <Gold.Chemscore.Hbond>
0.0000

> <Gold.Chemscore.Metal>
0.0000

> <Gold.Chemscore.Lipo>
111.8629

> <Gold.Chemscore.Internal_Hbond>
0.0000

> <Gold.Chemscore.DEClash>
0.7811

> <Gold.Chemscore.DEInternal>
2.5459

> <Gold.Chemscore.Rot>
2.0860

> <Gold.Chemscore.Internal.Correction>
   9.000000E+99

> <Gold.Chemscore.Hbond.Weighted>
-0.0000

> <Gold.Chemscore.Metal.Weighted>
-0.0000

> <Gold.Chemscore.Lipo.Weighted>
-13.0880

> <Gold.Chemscore.Internal_Hbond.Weighted>
0.0000

> <Gold.Chemscore.DEClash.Weighted>
0.7811

> <Gold.Chemscore.DEInternal.Weighted>
2.5459

> <Gold.Chemscore.Rot.Weighted>
5.3402

> <Gold.Chemscore.Internal.Correction.Weighted>
   9.000000E+99

> <Gold.Protein.RotatedTorsions>
[ 6907 6896 6895 6894 ] final   85.42 input  -60.11 | X-H torsion
[ 7974 7965 7964 7962 ] final  150.08 input  175.53 | X-H torsion
[ 8008 7997 7996 7995 ] final  -29.16 input   59.86 | X-H torsion
[ 10167 10162 10161 10158 ] final  148.41 input  -65.29 | X-H torsion
[ 10718 10713 10712 10709 ] final   44.37 input   66.30 | X-H torsion
[ 10763 10752 10751 10750 ] final   84.29 input  -60.55 | X-H torsion
[ 11005 11000 10999 10996 ] final -168.31 input  -57.11 | X-H torsion

> <Gold.Protein.ActiveResidues>
 VAL166  LYS551  ARG553  GLY616  TRP617  ASP618  TYR619  PRO620  LYS621  CYS622 
 ASP623  PHE694  ASN695  SER759  ASP760  ASP761  ALA762  ILE779  LEU786  VAL792 
 PHE793  MET794  SER795  GLU796  ALA797  LYS798  CYS799  TRP800  GLU811  SER814 

> <Gold.Protein.RotatedAtoms>
  152.5374  134.2588  159.8927 H   0  0  0  0  0  0  0  0  0  0  0  0  # atno 6907 bound_to 6896
  151.2549  133.4325  159.2621 H   0  0  0  0  0  0  0  0  0  0  0  0  # atno 6908 bound_to 6896
  151.0505  134.9684  159.8265 H   0  0  0  0  0  0  0  0  0  0  0  0  # atno 6909 bound_to 6896
  144.8390  139.6363  143.6025 H   0  0  0  0  0  0  0  0  0  0  0  0  # atno 7974 bound_to 7965
  154.4301  140.1826  156.1204 H   0  0  0  0  0  0  0  0  0  0  0  0  # atno 8008 bound_to 7997
  156.0147  140.3347  155.6952 H   0  0  0  0  0  0  0  0  0  0  0  0  # atno 8009 bound_to 7997
  155.6061  140.0645  157.2710 H   0  0  0  0  0  0  0  0  0  0  0  0  # atno 8010 bound_to 7997
  139.4875  144.5681  151.7106 H   0  0  0  0  0  0  0  0  0  0  0  0  # atno 10167 bound_to 10162
  157.4261  130.7997  149.7560 H   0  0  0  0  0  0  0  0  0  0  0  0  # atno 10718 bound_to 10713
  153.1368  135.4659  154.9435 H   0  0  0  0  0  0  0  0  0  0  0  0  # atno 10763 bound_to 10752
  154.7713  135.3159  154.8186 H   0  0  0  0  0  0  0  0  0  0  0  0  # atno 10764 bound_to 10752
  153.8717  135.6903  153.4828 H   0  0  0  0  0  0  0  0  0  0  0  0  # atno 10765 bound_to 10752
  140.5434  134.5500  157.5105 H   0  0  0  0  0  0  0  0  0  0  0  0  # atno 11005 bound_to 11000
  146.2685  139.6578  142.9312 LP  0  0  0  0  0  0  0  0  0  0  0  0  # atno 17320 bound_to 7965
  145.4734  141.0436  143.2686 LP  0  0  0  0  0  0  0  0  0  0  0  0  # atno 17321 bound_to 7965
  140.5263  144.0800  150.6039 LP  0  0  0  0  0  0  0  0  0  0  0  0  # atno 17342 bound_to 10162
  140.3775  143.2820  152.0208 LP  0  0  0  0  0  0  0  0  0  0  0  0  # atno 17343 bound_to 10162
  155.9897  130.3950  150.3062 LP  0  0  0  0  0  0  0  0  0  0  0  0  # atno 17370 bound_to 10713
  157.1214  131.0247  151.3007 LP  0  0  0  0  0  0  0  0  0  0  0  0  # atno 17371 bound_to 10713
  139.9492  134.7647  156.0488 LP  0  0  0  0  0  0  0  0  0  0  0  0  # atno 17394 bound_to 11000
  141.1214  133.6612  156.3224 LP  0  0  0  0  0  0  0  0  0  0  0  0  # atno 17395 bound_to 11000

$$$$
