AV-unprocessed.smi:148|AV-procd|sdf|1228|dock1
  -GOLD-   2262018423D 1   1.00000     0.00000
 Structure written by MMmdl.
 63 67  0  0  0  0  0  0  0  0  1 V2000
  142.8884  134.5385  154.2808 O   0  0  0  0  0  0  0  0  0  0  0  0
  143.3652  134.9558  153.0181 C   0  0  0  0  0  0  0  0  0  0  0  0
  144.2847  133.8866  152.3783 C   0  0  2  0  0  0  0  0  0  0  0  0
  145.6881  134.4391  152.0246 C   0  0  0  0  0  0  0  0  0  0  0  0
  145.9633  135.7264  152.6386 N   0  0  0  0  0  0  0  0  0  0  0  0
  145.6633  136.9637  152.1157 C   0  0  0  0  0  0  0  0  0  0  0  0
  146.0214  137.9802  152.8517 N   0  0  0  0  0  0  0  0  0  0  0  0
  146.6063  137.3978  153.9699 C   0  0  0  0  0  0  0  0  0  0  0  0
  147.2045  137.9048  155.1584 C   0  0  0  0  0  0  0  0  0  0  0  0
  147.3425  139.2161  155.4512 N   0  0  0  0  0  0  0  0  0  0  0  0
  146.0180  139.7704  155.7424 C   0  0  0  0  0  0  0  0  0  0  0  0
  146.0514  141.2986  155.8306 C   0  0  0  0  0  0  0  0  0  0  0  0
  147.0844  141.7328  156.8703 C   0  0  0  0  0  0  0  0  0  0  0  0
  148.4538  141.1392  156.5187 C   0  0  0  0  0  0  0  0  0  0  0  0
  148.4259  139.5910  156.3858 C   0  0  2  0  0  0  0  0  0  0  0  0
  149.8426  139.0662  155.9623 C   0  0  2  0  0  0  0  0  0  0  0  0
  151.0738  139.8234  156.5061 C   0  0  0  0  0  0  0  0  0  0  0  0
  152.2388  139.5320  155.5496 C   0  0  0  0  0  0  0  0  0  0  0  0
  151.6307  138.8187  154.3389 C   0  0  0  0  0  0  0  0  0  0  0  0
  150.1230  139.0536  154.4440 C   0  0  2  0  0  0  0  0  0  0  0  0
  149.8195  140.3057  153.8542 O   0  0  0  0  0  0  0  0  0  0  0  0
  147.7004  137.0151  156.0531 N   0  0  0  0  0  0  0  0  0  0  0  0
  147.5979  135.7040  155.8154 C   0  0  0  0  0  0  0  0  0  0  0  0
  147.0569  135.0853  154.7634 N   0  0  0  0  0  0  0  0  0  0  0  0
  146.5728  135.9802  153.8547 C   0  0  0  0  0  0  0  0  0  0  0  0
  143.6190  133.1929  151.1626 C   0  0  1  0  0  0  0  0  0  0  0  0
  143.8833  133.8598  149.8241 C   0  0  0  0  0  0  0  0  0  0  0  0
  143.5366  132.7494  148.8393 C   0  0  0  0  0  0  0  0  0  0  0  0
  143.9051  131.5377  149.4875 O   0  0  0  0  0  0  0  0  0  0  0  0
  144.1273  131.7754  150.8742 C   0  0  0  0  0  0  0  0  0  0  0  0
  142.6696  133.6205  154.2318 H   0  0  0  0  0  0  0  0  0  0  0  0
  142.5122  135.1765  152.3766 H   0  0  0  0  0  0  0  0  0  0  0  0
  143.8952  135.8998  153.1425 H   0  0  0  0  0  0  0  0  0  0  0  0
  144.4340  133.1202  153.1405 H   0  0  0  0  0  0  0  0  0  0  0  0
  146.4663  133.7490  152.3506 H   0  0  0  0  0  0  0  0  0  0  0  0
  145.7971  134.5355  150.9438 H   0  0  0  0  0  0  0  0  0  0  0  0
  145.1730  137.0884  151.1611 H   0  0  0  0  0  0  0  0  0  0  0  0
  145.3084  139.4718  154.9687 H   0  0  0  0  0  0  0  0  0  0  0  0
  145.6495  139.3617  156.6844 H   0  0  0  0  0  0  0  0  0  0  0  0
  146.3009  141.7216  154.8565 H   0  0  0  0  0  0  0  0  0  0  0  0
  145.0654  141.6806  156.0962 H   0  0  0  0  0  0  0  0  0  0  0  0
  147.1438  142.8209  156.9100 H   0  0  0  0  0  0  0  0  0  0  0  0
  146.7790  141.3977  157.8623 H   0  0  0  0  0  0  0  0  0  0  0  0
  148.8038  141.5784  155.5832 H   0  0  0  0  0  0  0  0  0  0  0  0
  149.1574  141.4549  157.2875 H   0  0  0  0  0  0  0  0  0  0  0  0
  148.1806  139.1792  157.3653 H   0  0  0  0  0  0  0  0  0  0  0  0
  149.9233  138.0318  156.3020 H   0  0  0  0  0  0  0  0  0  0  0  0
  150.8790  140.8964  156.5144 H   0  0  0  0  0  0  0  0  0  0  0  0
  151.3366  139.5273  157.5205 H   0  0  0  0  0  0  0  0  0  0  0  0
  152.7221  140.4629  155.2509 H   0  0  0  0  0  0  0  0  0  0  0  0
  152.9975  138.9078  156.0227 H   0  0  0  0  0  0  0  0  0  0  0  0
  152.0533  139.1576  153.3919 H   0  0  0  0  0  0  0  0  0  0  0  0
  151.8320  137.7494  154.4176 H   0  0  0  0  0  0  0  0  0  0  0  0
  149.5701  138.2702  153.9250 H   0  0  0  0  0  0  0  0  0  0  0  0
  149.4244  140.1516  153.0098 H   0  0  0  0  0  0  0  0  0  0  0  0
  148.0086  135.0581  156.5773 H   0  0  0  0  0  0  0  0  0  0  0  0
  142.5389  133.1489  151.3133 H   0  0  0  0  0  0  0  0  0  0  0  0
  143.2865  134.7580  149.6632 H   0  0  0  0  0  0  0  0  0  0  0  0
  144.9372  134.1264  149.7310 H   0  0  0  0  0  0  0  0  0  0  0  0
  142.4626  132.7301  148.6505 H   0  0  0  0  0  0  0  0  0  0  0  0
  144.0474  132.8632  147.8830 H   0  0  0  0  0  0  0  0  0  0  0  0
  145.1993  131.7017  151.0624 H   0  0  0  0  0  0  0  0  0  0  0  0
  143.6262  131.0233  151.4841 H   0  0  0  0  0  0  0  0  0  0  0  0
  1  2  1  0  0  0  0
  1 31  1  0  0  0  0
  2  3  1  0  0  0  0
  2 32  1  0  0  0  0
  2 33  1  0  0  0  0
  3  4  1  0  0  0  0
  3 26  1  0  0  0  0
  3 34  1  0  0  0  0
  4  5  1  0  0  0  0
  4 35  1  0  0  0  0
  4 36  1  0  0  0  0
  5 25  1  0  0  0  0
  5  6  1  0  0  0  0
  6  7  2  0  0  0  0
  6 37  1  0  0  0  0
  7  8  1  0  0  0  0
  8 25  2  0  0  0  0
  8  9  1  0  0  0  0
  9 10  1  0  0  0  0
  9 22  2  0  0  0  0
 10 15  1  0  0  0  0
 10 11  1  0  0  0  0
 11 12  1  0  0  0  0
 11 38  1  0  0  0  0
 11 39  1  0  0  0  0
 12 13  1  0  0  0  0
 12 40  1  0  0  0  0
 12 41  1  0  0  0  0
 13 14  1  0  0  0  0
 13 42  1  0  0  0  0
 13 43  1  0  0  0  0
 14 15  1  0  0  0  0
 14 44  1  0  0  0  0
 14 45  1  0  0  0  0
 15 16  1  0  0  0  0
 15 46  1  0  0  0  0
 16 20  1  0  0  0  0
 16 17  1  0  0  0  0
 16 47  1  0  0  0  0
 17 18  1  0  0  0  0
 17 48  1  0  0  0  0
 17 49  1  0  0  0  0
 18 19  1  0  0  0  0
 18 50  1  0  0  0  0
 18 51  1  0  0  0  0
 19 20  1  0  0  0  0
 19 52  1  0  0  0  0
 19 53  1  0  0  0  0
 20 21  1  0  0  0  0
 20 54  1  0  0  0  0
 21 55  1  0  0  0  0
 22 23  1  0  0  0  0
 23 24  2  0  0  0  0
 23 56  1  0  0  0  0
 24 25  1  0  0  0  0
 26 30  1  0  0  0  0
 26 27  1  0  0  0  0
 26 57  1  0  0  0  0
 27 28  1  0  0  0  0
 27 58  1  0  0  0  0
 27 59  1  0  0  0  0
 28 29  1  0  0  0  0
 28 60  1  0  0  0  0
 28 61  1  0  0  0  0
 29 30  1  0  0  0  0
 30 62  1  0  0  0  0
 30 63  1  0  0  0  0
M  END
> <s_m_source_file>
AV-unprocessed.smi

> <i_m_source_file_index>
148

> <i_lp_mmshare_version>
43012

> <i_f3d_flags>
0

> <s_epik_input>
W0NIMl0xT1tDSDJdW0NIMl1bQ0BIXTFbQ0BIXShbQ0gyXVtPSF0pW0NIMl1uKFtjSF1uMiljKGMyMyluW2NIXW5jM040W0NIMl1bQ0gyXVtDSDJdW0NIMl1bQ0BIXTRbQ0BASF01W0NIMl1bQ0gyXVtDSDJdW0NASF01W09IXQ==

> <s_epik_cmdline>
J2VwaWtfcHl0aG9uJywgJy1waCcsICc3LjAnLCAnLXRuJywgJzgnLCAnLW1hJywgJzIwMCcsICctbWV0YWxfYmluZGluZycsICctaW1hZScsICc8aW5maWxlLm1hZT4nLCAnLW9tYWUnLCAnPG91dGZpbGUubWFlPic=

> <r_lp_tautomer_probability>
1

> <r_epik_Ionization_Penalty>
0.00556303

> <r_epik_Ionization_Penalty_Charging>
0

> <r_epik_Ionization_Penalty_Neutral>
0.00556303

> <r_epik_State_Penalty>
0.00401767

> <r_epik_Charging_Adjusted_Penalty>
0.00401767

> <i_epik_Tot_Q>
0

> <i_epik_Tot_abs_Q>
0

> <r_epik_Metal_State_Penalty>
-0

> <b_epik_Metal_Only>
0

> <s_lp_Force_Field>
OPLS_2005

> <r_lp_Energy>
70.1865

> <b_lp_Chiralities_Consistent>
1

> <s_lp_Variant>
AV-unprocessed.smi:148-27

> <Gold.Version>
5.8.1

> <Gold.Id.Protein>
6NUR|6NUR_protein|mol2

> <Gold.PLP.Fitness>
43.6275

> <Gold.PLP.PLP>
-36.0594

> <Gold.PLP.part.hbond>
-3.8724

> <Gold.PLP.part.metal>
0.0000

> <Gold.PLP.part.buried>
-1.3345

> <Gold.PLP.part.nonpolar>
-31.7611

> <Gold.PLP.part.repulsive>
0.5362

> <Gold.PLP.ligand.clash>
0.0000

> <Gold.PLP.ligand.torsion>
3.2033

> <Gold.PLP.Chemscore.Hbond>
3.4560

> <Gold.PLP.Chemscore.CHOScore>
1.0000

> <Gold.PLP.Chemscore.Metal>
0.0000

> <Gold.Chemscore.Hbonds>
donor molecule, donor type, donor heavy atom, donor atom, acceptor molecule, acceptor atom, score
      L1  H     1    31       P1 10957  1.00
      L1  H    21    55       P1  7957  0.98
      P1  H  7989  7998       L1    21  0.67
      P1  H 10785 10796       L1    29  0.72
      L1  C     6    37       P1 10171  1.00

> <Gold.PLP.Chemscore.Internal.Correction>
0.6066

> <Gold.Rescore>
     Score         DG    S(hbond)    S(metal)    S(lipo)     H(rot)  DE(clash)    DE(int)     intcor
     13.43     -18.85       3.14        0.00      97.15       3.32       0.93       4.49       ----

> <Gold.Chemscore.Fitness>
13.4280

> <Gold.Chemscore.DG>
-18.8503

> <Gold.Chemscore.ZeroCoef>
-5.4800

> <Gold.Chemscore.Hbond>
3.1448

> <Gold.Chemscore.Metal>
0.0000

> <Gold.Chemscore.Lipo>
97.1500

> <Gold.Chemscore.Internal_Hbond>
0.0000

> <Gold.Chemscore.DEClash>
0.9285

> <Gold.Chemscore.DEInternal>
4.4938

> <Gold.Chemscore.Rot>
3.3203

> <Gold.Chemscore.Internal.Correction>
   9.000000E+99

> <Gold.Chemscore.Hbonds>
donor molecule, donor type, donor heavy atom, donor atom, acceptor molecule, acceptor atom, score
      L1  H     1    31       P1 10957  0.98
      L1  H    21    55       P1  7957  0.93
      P1  H  7989  7998       L1    21  0.08
      P1  H 10785 10796       L1    29  0.61

> <Gold.Chemscore.Hbond.Weighted>
-10.5038

> <Gold.Chemscore.Metal.Weighted>
-0.0000

> <Gold.Chemscore.Lipo.Weighted>
-11.3665

> <Gold.Chemscore.Internal_Hbond.Weighted>
0.0000

> <Gold.Chemscore.DEClash.Weighted>
0.9285

> <Gold.Chemscore.DEInternal.Weighted>
4.4938

> <Gold.Chemscore.Rot.Weighted>
8.5000

> <Gold.Chemscore.Internal.Correction.Weighted>
   9.000000E+99

> <Gold.Protein.RotatedTorsions>
[ 6907 6896 6895 6894 ] final   84.44 input  -60.11 | X-H torsion
[ 7974 7965 7964 7962 ] final -157.95 input  175.53 | X-H torsion
[ 8008 7997 7996 7995 ] final  121.45 input   59.86 | X-H torsion
[ 10167 10162 10161 10158 ] final  153.04 input  -65.29 | X-H torsion
[ 10718 10713 10712 10709 ] final  108.09 input   66.30 | X-H torsion
[ 10763 10752 10751 10750 ] final  166.50 input  -60.55 | X-H torsion
[ 11005 11000 10999 10996 ] final   85.54 input  -57.11 | X-H torsion

> <Gold.Protein.ActiveResidues>
 VAL166  LYS551  ARG553  GLY616  TRP617  ASP618  TYR619  PRO620  LYS621  CYS622 
 ASP623  PHE694  ASN695  SER759  ASP760  ASP761  ALA762  ILE779  LEU786  VAL792 
 PHE793  MET794  SER795  GLU796  ALA797  LYS798  CYS799  TRP800  GLU811  SER814 

> <Gold.Protein.RotatedAtoms>
  152.5352  134.2740  159.8982 H   0  0  0  0  0  0  0  0  0  0  0  0  # atno 6907 bound_to 6896
  151.2696  133.4255  159.2628 H   0  0  0  0  0  0  0  0  0  0  0  0  # atno 6908 bound_to 6896
  151.0379  134.9601  159.8203 H   0  0  0  0  0  0  0  0  0  0  0  0  # atno 6909 bound_to 6896
  144.7526  140.3897  143.6036 H   0  0  0  0  0  0  0  0  0  0  0  0  # atno 7974 bound_to 7965
  156.2687  140.2808  156.1309 H   0  0  0  0  0  0  0  0  0  0  0  0  # atno 8008 bound_to 7997
  155.1055  140.0390  157.2726 H   0  0  0  0  0  0  0  0  0  0  0  0  # atno 8009 bound_to 7997
  154.6783  140.2603  155.6941 H   0  0  0  0  0  0  0  0  0  0  0  0  # atno 8010 bound_to 7997
  139.4829  144.5307  151.7727 H   0  0  0  0  0  0  0  0  0  0  0  0  # atno 10167 bound_to 10162
  157.6601  131.0886  150.6254 H   0  0  0  0  0  0  0  0  0  0  0  0  # atno 10718 bound_to 10713
  154.3399  135.2754  155.2428 H   0  0  0  0  0  0  0  0  0  0  0  0  # atno 10763 bound_to 10752
  154.4703  135.5884  153.6320 H   0  0  0  0  0  0  0  0  0  0  0  0  # atno 10764 bound_to 10752
  152.9858  135.6086  154.3599 H   0  0  0  0  0  0  0  0  0  0  0  0  # atno 10765 bound_to 10752
  139.8968  134.8294  156.2597 H   0  0  0  0  0  0  0  0  0  0  0  0  # atno 11005 bound_to 11000
  145.6890  139.1635  143.2658 LP  0  0  0  0  0  0  0  0  0  0  0  0  # atno 17320 bound_to 7965
  146.1496  140.6943  142.9328 LP  0  0  0  0  0  0  0  0  0  0  0  0  # atno 17321 bound_to 7965
  140.4833  144.1418  150.5936 LP  0  0  0  0  0  0  0  0  0  0  0  0  # atno 17342 bound_to 10162
  140.4253  143.2592  151.9663 LP  0  0  0  0  0  0  0  0  0  0  0  0  # atno 17343 bound_to 10162
  156.6557  130.4498  149.5704 LP  0  0  0  0  0  0  0  0  0  0  0  0  # atno 17370 bound_to 10713
  156.2104  130.6675  151.1263 LP  0  0  0  0  0  0  0  0  0  0  0  0  # atno 17371 bound_to 10713
  141.0170  133.7062  156.1206 LP  0  0  0  0  0  0  0  0  0  0  0  0  # atno 17394 bound_to 11000
  140.7287  134.4279  157.5568 LP  0  0  0  0  0  0  0  0  0  0  0  0  # atno 17395 bound_to 11000

$$$$
