AV-unprocessed.smi:36|AV-procd|sdf|284|dock3
  -GOLD-   2262016 63D 1   1.00000     0.00000
 Structure written by MMmdl.
 64 67  0  0  0  0  0  0  0  0  1 V2000
  143.5008  133.5564  160.7400 C   0  0  0  0  0  0  0  0  0  0  0  0
  144.3157  134.4059  161.7291 C   0  0  0  0  0  0  0  0  0  0  0  0
  144.1401  135.8989  161.4041 C   0  0  0  0  0  0  0  0  0  0  0  0
  143.8450  134.1311  163.1670 C   0  0  0  0  0  0  0  0  0  0  0  0
  146.1655  133.9518  161.5836 Si  0  0  0  0  0  0  0  0  0  0  0  0
  147.2000  134.8388  162.9071 C   0  0  0  0  0  0  0  0  0  0  0  0
  146.4230  132.0735  161.7158 C   0  0  0  0  0  0  0  0  0  0  0  0
  146.7023  134.4628  160.0637 O   0  0  0  0  0  0  0  0  0  0  0  0
  148.0646  134.5460  159.7040 C   0  0  0  0  0  0  0  0  0  0  0  0
  148.1941  134.3224  158.1923 C   0  0  1  0  0  0  0  0  0  0  0  0
  147.4630  135.3119  157.4615 O   0  0  0  0  0  0  0  0  0  0  0  0
  148.2447  135.8360  156.4266 C   0  0  1  0  0  0  0  0  0  0  0  0
  148.7587  137.1775  156.8583 N   0  0  0  0  0  0  0  0  0  0  0  0
  148.6255  137.8186  158.0731 C   0  0  0  0  0  0  0  0  0  0  0  0
  149.1846  138.9966  158.1496 N   0  0  0  0  0  0  0  0  0  0  0  0
  149.7165  139.1994  156.8833 C   0  0  0  0  0  0  0  0  0  0  0  0
  150.4394  140.2600  156.2778 C   0  0  0  0  0  0  0  0  0  0  0  0
  150.7568  141.3637  156.9942 N   0  0  0  0  0  0  0  0  0  0  0  0
  151.3599  141.4326  158.3135 C   0  0  0  0  0  0  0  0  0  0  0  0
  151.7581  140.4289  158.9054 O   0  0  0  0  0  0  0  0  0  0  0  0
  151.5561  142.8101  158.8762 C   0  0  0  0  0  0  0  0  0  0  0  0
  151.3091  143.9447  158.0711 C   0  0  0  0  0  0  0  0  0  0  0  0
  151.5102  145.2406  158.5850 C   0  0  0  0  0  0  0  0  0  0  0  0
  151.9673  145.4128  159.9050 C   0  0  0  0  0  0  0  0  0  0  0  0
  152.2262  144.2880  160.7104 C   0  0  0  0  0  0  0  0  0  0  0  0
  152.0251  142.9915  160.1981 C   0  0  0  0  0  0  0  0  0  0  0  0
  150.8006  140.1076  154.9762 N   0  0  0  0  0  0  0  0  0  0  0  0
  150.4695  138.9965  154.3116 C   0  0  0  0  0  0  0  0  0  0  0  0
  149.7988  137.9297  154.7521 N   0  0  0  0  0  0  0  0  0  0  0  0
  149.4416  138.0718  156.0613 C   0  0  0  0  0  0  0  0  0  0  0  0
  149.4066  134.8585  156.2436 C   0  0  0  0  0  0  0  0  0  0  0  0
  149.6319  134.3952  157.6670 C   0  0  2  0  0  0  0  0  0  0  0  0
  150.2819  133.1410  157.6956 O   0  0  0  0  0  0  0  0  0  0  0  0
  142.4377  133.7918  160.7994 H   0  0  0  0  0  0  0  0  0  0  0  0
  143.6128  132.4913  160.9447 H   0  0  0  0  0  0  0  0  0  0  0  0
  143.8183  133.7292  159.7116 H   0  0  0  0  0  0  0  0  0  0  0  0
  144.4538  136.1238  160.3845 H   0  0  0  0  0  0  0  0  0  0  0  0
  144.7312  136.5230  162.0755 H   0  0  0  0  0  0  0  0  0  0  0  0
  143.0981  136.2058  161.5012 H   0  0  0  0  0  0  0  0  0  0  0  0
  142.7962  134.3988  163.2992 H   0  0  0  0  0  0  0  0  0  0  0  0
  144.4247  134.7062  163.8899 H   0  0  0  0  0  0  0  0  0  0  0  0
  143.9497  133.0772  163.4255 H   0  0  0  0  0  0  0  0  0  0  0  0
  146.8937  134.5530  163.9130 H   0  0  0  0  0  0  0  0  0  0  0  0
  147.1040  135.9217  162.8326 H   0  0  0  0  0  0  0  0  0  0  0  0
  148.2591  134.6008  162.8113 H   0  0  0  0  0  0  0  0  0  0  0  0
  146.0360  131.6820  162.6562 H   0  0  0  0  0  0  0  0  0  0  0  0
  147.4792  131.8099  161.6668 H   0  0  0  0  0  0  0  0  0  0  0  0
  145.9187  131.5423  160.9089 H   0  0  0  0  0  0  0  0  0  0  0  0
  148.4436  135.5321  159.9741 H   0  0  0  0  0  0  0  0  0  0  0  0
  148.6416  133.8082  160.2605 H   0  0  0  0  0  0  0  0  0  0  0  0
  147.7522  133.3609  157.9254 H   0  0  0  0  0  0  0  0  0  0  0  0
  147.6685  136.0369  155.5226 H   0  0  0  0  0  0  0  0  0  0  0  0
  148.0981  137.3900  158.9117 H   0  0  0  0  0  0  0  0  0  0  0  0
  150.5288  142.2487  156.5651 H   0  0  0  0  0  0  0  0  0  0  0  0
  150.9595  143.8290  157.0552 H   0  0  0  0  0  0  0  0  0  0  0  0
  151.3151  146.1031  157.9651 H   0  0  0  0  0  0  0  0  0  0  0  0
  152.1233  146.4064  160.2983 H   0  0  0  0  0  0  0  0  0  0  0  0
  152.5825  144.4198  161.7215 H   0  0  0  0  0  0  0  0  0  0  0  0
  152.2398  142.1422  160.8302 H   0  0  0  0  0  0  0  0  0  0  0  0
  150.7901  138.9563  153.2811 H   0  0  0  0  0  0  0  0  0  0  0  0
  149.0661  134.0373  155.6110 H   0  0  0  0  0  0  0  0  0  0  0  0
  150.2805  135.3188  155.7829 H   0  0  0  0  0  0  0  0  0  0  0  0
  150.2156  135.1346  158.2178 H   0  0  0  0  0  0  0  0  0  0  0  0
  150.6384  132.9697  156.8368 H   0  0  0  0  0  0  0  0  0  0  0  0
  1  2  1  0  0  0  0
  1 34  1  0  0  0  0
  1 35  1  0  0  0  0
  1 36  1  0  0  0  0
  2  3  1  0  0  0  0
  2  4  1  0  0  0  0
  2  5  1  0  0  0  0
  3 37  1  0  0  0  0
  3 38  1  0  0  0  0
  3 39  1  0  0  0  0
  4 40  1  0  0  0  0
  4 41  1  0  0  0  0
  4 42  1  0  0  0  0
  5  6  1  0  0  0  0
  5  7  1  0  0  0  0
  5  8  1  0  0  0  0
  6 43  1  0  0  0  0
  6 44  1  0  0  0  0
  6 45  1  0  0  0  0
  7 46  1  0  0  0  0
  7 47  1  0  0  0  0
  7 48  1  0  0  0  0
  8  9  1  0  0  0  0
  9 10  1  0  0  0  0
  9 49  1  0  0  0  0
  9 50  1  0  0  0  0
 10 32  1  0  0  0  0
 10 11  1  0  0  0  0
 10 51  1  0  0  0  0
 11 12  1  0  0  0  0
 12 13  1  0  0  0  0
 12 31  1  0  0  0  0
 12 52  1  0  0  0  0
 13 30  1  0  0  0  0
 13 14  1  0  0  0  0
 14 15  2  0  0  0  0
 14 53  1  0  0  0  0
 15 16  1  0  0  0  0
 16 30  2  0  0  0  0
 16 17  1  0  0  0  0
 17 18  1  0  0  0  0
 17 27  2  0  0  0  0
 18 19  1  0  0  0  0
 18 54  1  0  0  0  0
 19 20  2  0  0  0  0
 19 21  1  0  0  0  0
 21 26  1  0  0  0  0
 21 22  2  0  0  0  0
 22 23  1  0  0  0  0
 22 55  1  0  0  0  0
 23 24  2  0  0  0  0
 23 56  1  0  0  0  0
 24 25  1  0  0  0  0
 24 57  1  0  0  0  0
 25 26  2  0  0  0  0
 25 58  1  0  0  0  0
 26 59  1  0  0  0  0
 27 28  1  0  0  0  0
 28 29  2  0  0  0  0
 28 60  1  0  0  0  0
 29 30  1  0  0  0  0
 31 32  1  0  0  0  0
 31 61  1  0  0  0  0
 31 62  1  0  0  0  0
 32 33  1  0  0  0  0
 32 63  1  0  0  0  0
 33 64  1  0  0  0  0
M  END
> <s_m_source_file>
AV-unprocessed.smi

> <i_m_source_file_index>
36

> <i_lp_mmshare_version>
43012

> <i_f3d_flags>
0

> <s_epik_input>
W0NIM11DKFtDSDNdKShbQ0gzXSlbU2ldKFtDSDNdKShbQ0gzXSlPW0NIMl1bQ0BASF0xT1tDQEhdKFtDSDJdW0NASF0xW09IXSluKFtjSF1uMiljKGMyMyluW2NIXW5jM1tOSF1DKD1PKWM0W2NIXVtjSF1bY0hdW2NIXVtjSF00

> <s_epik_cmdline>
J2VwaWtfcHl0aG9uJywgJy1waCcsICc3LjAnLCAnLXRuJywgJzgnLCAnLW1hJywgJzIwMCcsICctbWV0YWxfYmluZGluZycsICctaW1hZScsICc8aW5maWxlLm1hZT4nLCAnLW9tYWUnLCAnPG91dGZpbGUubWFlPic=

> <r_lp_tautomer_probability>
1

> <r_epik_Ionization_Penalty>
0.00150433

> <r_epik_Ionization_Penalty_Charging>
0

> <r_epik_Ionization_Penalty_Neutral>
0.00150433

> <r_epik_State_Penalty>
0.00724046

> <r_epik_Charging_Adjusted_Penalty>
0.00724046

> <i_epik_Tot_Q>
0

> <i_epik_Tot_abs_Q>
0

> <r_epik_Metal_State_Penalty>
0.323355

> <b_epik_Metal_Only>
0

> <s_epik_Chemistry_Notes>
This compound contains an acetal/aminal-like group ( X-CH(R)-Y where X, Y are N, S, or O) that may be acid/base labile, releasing an aldehyde.

> <s_lp_Force_Field>
OPLS_2005

> <r_lp_Energy>
33.6094

> <b_lp_Chiralities_Consistent>
1

> <s_lp_Variant>
AV-unprocessed.smi:36-6

> <Gold.Version>
5.8.1

> <Gold.Id.Protein>
6NUR|6NUR_protein|mol2

> <Gold.PLP.Fitness>
52.9908

> <Gold.PLP.PLP>
-46.3686

> <Gold.PLP.part.hbond>
-2.0000

> <Gold.PLP.part.metal>
0.0000

> <Gold.PLP.part.buried>
-7.2092

> <Gold.PLP.part.nonpolar>
-36.7942

> <Gold.PLP.part.repulsive>
0.3357

> <Gold.PLP.ligand.clash>
0.0000

> <Gold.PLP.ligand.torsion>
1.0468

> <Gold.PLP.Chemscore.Hbond>
1.6939

> <Gold.PLP.Chemscore.CHOScore>
0.9728

> <Gold.PLP.Chemscore.Metal>
0.0000

> <Gold.Chemscore.Hbonds>
donor molecule, donor type, donor heavy atom, donor atom, acceptor molecule, acceptor atom, score
      P1  H  6896  6907       L1    33  0.75
      P1  H  7989  7998       L1    27  0.65
      L1  C    28    60       P1  7957  0.72

> <Gold.PLP.Chemscore.Internal.Correction>
0.7159

> <Gold.Rescore>
     Score         DG    S(hbond)    S(metal)    S(lipo)     H(rot)  DE(clash)    DE(int)     intcor
     14.61     -16.26       0.93        0.00     124.83       2.70       0.62       1.03       ----

> <Gold.Chemscore.Fitness>
14.6101

> <Gold.Chemscore.DG>
-16.2571

> <Gold.Chemscore.ZeroCoef>
-5.4800

> <Gold.Chemscore.Hbond>
0.9266

> <Gold.Chemscore.Metal>
0.0000

> <Gold.Chemscore.Lipo>
124.8278

> <Gold.Chemscore.Internal_Hbond>
0.0000

> <Gold.Chemscore.DEClash>
0.6213

> <Gold.Chemscore.DEInternal>
1.0257

> <Gold.Chemscore.Rot>
2.7041

> <Gold.Chemscore.Internal.Correction>
   9.000000E+99

> <Gold.Chemscore.Hbonds>
donor molecule, donor type, donor heavy atom, donor atom, acceptor molecule, acceptor atom, score
      P1  H  6896  6907       L1    33  0.09
      P1  H  7989  7998       L1    27  0.06

> <Gold.Chemscore.Hbond.Weighted>
-3.0947

> <Gold.Chemscore.Metal.Weighted>
-0.0000

> <Gold.Chemscore.Lipo.Weighted>
-14.6049

> <Gold.Chemscore.Internal_Hbond.Weighted>
0.0000

> <Gold.Chemscore.DEClash.Weighted>
0.6213

> <Gold.Chemscore.DEInternal.Weighted>
1.0257

> <Gold.Chemscore.Rot.Weighted>
6.9225

> <Gold.Chemscore.Internal.Correction.Weighted>
   9.000000E+99

> <Gold.Protein.RotatedTorsions>
[ 6907 6896 6895 6894 ] final -150.20 input  -60.11 | X-H torsion
[ 7974 7965 7964 7962 ] final  131.32 input  175.53 | X-H torsion
[ 8008 7997 7996 7995 ] final   58.30 input   59.86 | X-H torsion
[ 10167 10162 10161 10158 ] final -114.79 input  -65.29 | X-H torsion
[ 10718 10713 10712 10709 ] final   58.02 input   66.30 | X-H torsion
[ 10763 10752 10751 10750 ] final   83.88 input  -60.55 | X-H torsion
[ 11005 11000 10999 10996 ] final -179.84 input  -57.11 | X-H torsion

> <Gold.Protein.ActiveResidues>
 VAL166  LYS551  ARG553  GLY616  TRP617  ASP618  TYR619  PRO620  LYS621  CYS622 
 ASP623  PHE694  ASN695  SER759  ASP760  ASP761  ALA762  ILE779  LEU786  VAL792 
 PHE793  MET794  SER795  GLU796  ALA797  LYS798  CYS799  TRP800  GLU811  SER814 

> <Gold.Protein.RotatedAtoms>
  151.1951  133.4644  159.2595 H   0  0  0  0  0  0  0  0  0  0  0  0  # atno 6907 bound_to 6896
  151.1125  135.0034  159.8510 H   0  0  0  0  0  0  0  0  0  0  0  0  # atno 6908 bound_to 6896
  152.5451  134.1869  159.8711 H   0  0  0  0  0  0  0  0  0  0  0  0  # atno 6909 bound_to 6896
  145.0085  139.4243  143.5256 H   0  0  0  0  0  0  0  0  0  0  0  0  # atno 7974 bound_to 7965
  155.5478  140.3485  155.4461 H   0  0  0  0  0  0  0  0  0  0  0  0  # atno 8008 bound_to 7997
  156.0605  140.1339  156.9972 H   0  0  0  0  0  0  0  0  0  0  0  0  # atno 8009 bound_to 7997
  154.4477  140.0986  156.6495 H   0  0  0  0  0  0  0  0  0  0  0  0  # atno 8010 bound_to 7997
  140.0971  143.4647  152.1835 H   0  0  0  0  0  0  0  0  0  0  0  0  # atno 10167 bound_to 10162
  157.5562  130.8802  149.9040 H   0  0  0  0  0  0  0  0  0  0  0  0  # atno 10718 bound_to 10713
  153.1331  135.4675  154.9379 H   0  0  0  0  0  0  0  0  0  0  0  0  # atno 10763 bound_to 10752
  154.7682  135.3151  154.8246 H   0  0  0  0  0  0  0  0  0  0  0  0  # atno 10764 bound_to 10752
  153.8785  135.6896  153.4823 H   0  0  0  0  0  0  0  0  0  0  0  0  # atno 10765 bound_to 10752
  140.4141  134.6665  157.4630 H   0  0  0  0  0  0  0  0  0  0  0  0  # atno 11005 bound_to 11000
  146.3465  139.9515  142.8728 LP  0  0  0  0  0  0  0  0  0  0  0  0  # atno 17320 bound_to 7965
  145.2055  140.9873  143.4131 LP  0  0  0  0  0  0  0  0  0  0  0  0  # atno 17321 bound_to 7965
  139.5692  144.7453  151.3938 LP  0  0  0  0  0  0  0  0  0  0  0  0  # atno 17342 bound_to 10162
  140.6998  143.7660  150.7384 LP  0  0  0  0  0  0  0  0  0  0  0  0  # atno 17343 bound_to 10162
  156.0621  130.3698  150.0959 LP  0  0  0  0  0  0  0  0  0  0  0  0  # atno 17370 bound_to 10713
  156.9127  130.9657  151.3560 LP  0  0  0  0  0  0  0  0  0  0  0  0  # atno 17371 bound_to 10713
  140.0246  134.6496  155.9190 LP  0  0  0  0  0  0  0  0  0  0  0  0  # atno 17394 bound_to 11000
  141.1810  133.6546  156.5018 LP  0  0  0  0  0  0  0  0  0  0  0  0  # atno 17395 bound_to 11000

$$$$
