AV-unprocessed.smi:1096|AV-procd|sdf|4749|dock5
  -GOLD-   22720 3283D 1   1.00000     0.00000
 Structure written by MMmdl.
 48 50  0  0  0  0  0  0  0  0  1 V2000
  150.7646  133.9165  155.3950 O   0  0  0  0  0  0  0  0  0  0  0  0
  150.3552  134.5965  154.4534 C   0  0  0  0  0  0  0  0  0  0  0  0
  149.5704  134.1524  153.4557 N   0  0  0  0  0  0  0  0  0  0  0  0
  149.0728  132.8385  153.2480 C   0  0  0  0  0  0  0  0  0  0  0  0
  148.0168  132.7393  152.3135 C   0  0  0  0  0  0  0  0  0  0  0  0
  147.4555  131.4785  152.0337 C   0  0  0  0  0  0  0  0  0  0  0  0
  147.9656  130.3473  152.6955 C   0  0  0  0  0  0  0  0  0  0  0  0
  149.0179  130.5331  153.6107 C   0  0  0  0  0  0  0  0  0  0  0  0
  149.5571  131.7406  153.8809 N   0  0  0  0  0  0  0  0  0  0  0  0
  150.6438  135.8972  154.2999 N   0  0  0  0  0  0  0  0  0  0  0  0
  151.4598  136.6943  155.2110 C   0  0  2  0  0  0  0  0  0  0  0  0
  150.8430  136.6532  156.6214 C   0  0  0  0  0  0  0  0  0  0  0  0
  151.6300  137.5335  157.6055 C   0  0  0  0  0  0  0  0  0  0  0  0
  151.7163  138.9931  157.1051 C   0  0  1  0  0  0  0  0  0  0  0  0
  152.4940  139.8958  158.0873 C   0  0  0  0  0  0  0  0  0  0  0  0
  153.6564  139.5932  158.3624 O   0  0  0  0  0  0  0  0  0  0  0  0
  151.8821  140.9682  158.6509 N   0  0  0  0  0  0  0  0  0  0  0  0
  150.5751  141.4548  158.1927 C   0  0  0  0  0  0  0  0  0  0  0  0
  150.7905  142.6820  157.2900 C   0  0  0  0  0  0  0  0  0  0  0  0
  151.5847  144.0424  158.2048 S   0  0  0  0  0  0  0  0  0  0  0  0
  152.9668  143.1377  158.9707 C   0  0  0  0  0  0  0  0  0  0  0  0
  152.4656  141.8592  159.6612 C   0  0  0  0  0  0  0  0  0  0  0  0
  152.3614  139.0238  155.7042 C   0  0  0  0  0  0  0  0  0  0  0  0
  151.5808  138.1485  154.7103 C   0  0  0  0  0  0  0  0  0  0  0  0
  149.3014  134.8329  152.7606 H   0  0  0  0  0  0  0  0  0  0  0  0
  147.6370  133.6186  151.8136 H   0  0  0  0  0  0  0  0  0  0  0  0
  146.6477  131.3820  151.3232 H   0  0  0  0  0  0  0  0  0  0  0  0
  147.5614  129.3638  152.5069 H   0  0  0  0  0  0  0  0  0  0  0  0
  149.4389  129.6907  154.1393 H   0  0  0  0  0  0  0  0  0  0  0  0
  150.2647  136.3760  153.4961 H   0  0  0  0  0  0  0  0  0  0  0  0
  152.4583  136.2561  155.2654 H   0  0  0  0  0  0  0  0  0  0  0  0
  149.8066  136.9925  156.5836 H   0  0  0  0  0  0  0  0  0  0  0  0
  150.8186  135.6264  156.9884 H   0  0  0  0  0  0  0  0  0  0  0  0
  151.1527  137.5000  158.5858 H   0  0  0  0  0  0  0  0  0  0  0  0
  152.6289  137.1129  157.7323 H   0  0  0  0  0  0  0  0  0  0  0  0
  150.6863  139.3403  157.0333 H   0  0  0  0  0  0  0  0  0  0  0  0
  150.0150  140.6922  157.6498 H   0  0  0  0  0  0  0  0  0  0  0  0
  149.9489  141.7188  159.0459 H   0  0  0  0  0  0  0  0  0  0  0  0
  151.4137  142.4188  156.4345 H   0  0  0  0  0  0  0  0  0  0  0  0
  149.8380  143.0354  156.8944 H   0  0  0  0  0  0  0  0  0  0  0  0
  153.7036  142.8947  158.2044 H   0  0  0  0  0  0  0  0  0  0  0  0
  153.4578  143.7924  159.6909 H   0  0  0  0  0  0  0  0  0  0  0  0
  151.7136  142.1150  160.4089 H   0  0  0  0  0  0  0  0  0  0  0  0
  153.2651  141.3883  160.2310 H   0  0  0  0  0  0  0  0  0  0  0  0
  152.4058  140.0460  155.3266 H   0  0  0  0  0  0  0  0  0  0  0  0
  153.3935  138.6740  155.7612 H   0  0  0  0  0  0  0  0  0  0  0  0
  152.0754  138.1740  153.7387 H   0  0  0  0  0  0  0  0  0  0  0  0
  150.5867  138.5723  154.5607 H   0  0  0  0  0  0  0  0  0  0  0  0
  1  2  2  0  0  0  0
  2  3  1  0  0  0  0
  2 10  1  0  0  0  0
  3  4  1  0  0  0  0
  3 25  1  0  0  0  0
  4  9  1  0  0  0  0
  4  5  2  0  0  0  0
  5  6  1  0  0  0  0
  5 26  1  0  0  0  0
  6  7  2  0  0  0  0
  6 27  1  0  0  0  0
  7  8  1  0  0  0  0
  7 28  1  0  0  0  0
  8  9  2  0  0  0  0
  8 29  1  0  0  0  0
 10 11  1  0  0  0  0
 10 30  1  0  0  0  0
 11 24  1  0  0  0  0
 11 12  1  0  0  0  0
 11 31  1  0  0  0  0
 12 13  1  0  0  0  0
 12 32  1  0  0  0  0
 12 33  1  0  0  0  0
 13 14  1  0  0  0  0
 13 34  1  0  0  0  0
 13 35  1  0  0  0  0
 14 15  1  0  0  0  0
 14 23  1  0  0  0  0
 14 36  1  0  0  0  0
 15 16  2  0  0  0  0
 15 17  1  0  0  0  0
 17 22  1  0  0  0  0
 17 18  1  0  0  0  0
 18 19  1  0  0  0  0
 18 37  1  0  0  0  0
 18 38  1  0  0  0  0
 19 20  1  0  0  0  0
 19 39  1  0  0  0  0
 19 40  1  0  0  0  0
 20 21  1  0  0  0  0
 21 22  1  0  0  0  0
 21 41  1  0  0  0  0
 21 42  1  0  0  0  0
 22 43  1  0  0  0  0
 22 44  1  0  0  0  0
 23 24  1  0  0  0  0
 23 45  1  0  0  0  0
 23 46  1  0  0  0  0
 24 47  1  0  0  0  0
 24 48  1  0  0  0  0
M  END
> <s_m_source_file>
AV-unprocessed.smi

> <i_m_source_file_index>
1096

> <i_lp_mmshare_version>
43012

> <i_f3d_flags>
0

> <s_epik_input>
bjFbY0hdW2NIXVtjSF1bY0hdYzFbTkhdQyg9TylbTkhdW0NAQEhdMltDSDJdW0NIMl1bQ0BIXShbQ0gyXVtDSDJdMilDKD1PKU4zW0NIMl1bQ0gyXVNbQ0gyXVtDSDJdMw==

> <s_epik_cmdline>
J2VwaWtfcHl0aG9uJywgJy1waCcsICc3LjAnLCAnLXRuJywgJzgnLCAnLW1hJywgJzIwMCcsICctbWV0YWxfYmluZGluZycsICctaW1hZScsICc8aW5maWxlLm1hZT4nLCAnLW9tYWUnLCAnPG91dGZpbGUubWFlPic=

> <r_lp_tautomer_probability>
1

> <r_epik_Ionization_Penalty>
5.08504e-05

> <r_epik_Ionization_Penalty_Charging>
0

> <r_epik_Ionization_Penalty_Neutral>
5.08504e-05

> <r_epik_State_Penalty>
-0

> <r_epik_Charging_Adjusted_Penalty>
0

> <i_epik_Tot_Q>
0

> <i_epik_Tot_abs_Q>
0

> <r_epik_Metal_State_Penalty>
-0

> <b_epik_Metal_Only>
0

> <s_lp_Force_Field>
OPLS_2005

> <r_lp_Energy>
29.3602

> <b_lp_Chiralities_Consistent>
1

> <s_lp_Variant>
AV-unprocessed.smi:1096-1

> <Gold.Version>
5.8.1

> <Gold.Id.Protein>
6NUR|6NUR_protein|mol2

> <Gold.PLP.Fitness>
51.5782

> <Gold.PLP.PLP>
-43.0852

> <Gold.PLP.part.hbond>
-3.6204

> <Gold.PLP.part.metal>
0.0000

> <Gold.PLP.part.buried>
-3.6381

> <Gold.PLP.part.nonpolar>
-36.2128

> <Gold.PLP.part.repulsive>
0.1617

> <Gold.PLP.ligand.clash>
0.0000

> <Gold.PLP.ligand.torsion>
0.0951

> <Gold.PLP.Chemscore.Hbond>
2.8723

> <Gold.PLP.Chemscore.CHOScore>
0.0000

> <Gold.PLP.Chemscore.Metal>
0.0000

> <Gold.Chemscore.Hbonds>
donor molecule, donor type, donor heavy atom, donor atom, acceptor molecule, acceptor atom, score
      L1  H     3    25       P1  7948  0.10
      L1  H    10    30       P1  7948  0.39
      P1  H  7997  8010       L1    16  1.00

> <Gold.PLP.Chemscore.Internal.Correction>
0.0664

> <Gold.Rescore>
     Score         DG    S(hbond)    S(metal)    S(lipo)     H(rot)  DE(clash)    DE(int)     intcor
     18.84     -21.66       2.51        0.00      94.17       1.26       0.03       2.79       ----

> <Gold.Chemscore.Fitness>
18.8447

> <Gold.Chemscore.DG>
-21.6624

> <Gold.Chemscore.ZeroCoef>
-5.4800

> <Gold.Chemscore.Hbond>
2.5102

> <Gold.Chemscore.Metal>
0.0000

> <Gold.Chemscore.Lipo>
94.1730

> <Gold.Chemscore.Internal_Hbond>
0.0000

> <Gold.Chemscore.DEClash>
0.0263

> <Gold.Chemscore.DEInternal>
2.7913

> <Gold.Chemscore.Rot>
1.2578

> <Gold.Chemscore.Internal.Correction>
   9.000000E+99

> <Gold.Chemscore.Hbonds>
donor molecule, donor type, donor heavy atom, donor atom, acceptor molecule, acceptor atom, score
      L1  H    10    30       P1  7948  0.01
      P1  H  7997  8010       L1    16  0.95

> <Gold.Chemscore.Hbond.Weighted>
-8.3841

> <Gold.Chemscore.Metal.Weighted>
-0.0000

> <Gold.Chemscore.Lipo.Weighted>
-11.0182

> <Gold.Chemscore.Internal_Hbond.Weighted>
0.0000

> <Gold.Chemscore.DEClash.Weighted>
0.0263

> <Gold.Chemscore.DEInternal.Weighted>
2.7913

> <Gold.Chemscore.Rot.Weighted>
3.2200

> <Gold.Chemscore.Internal.Correction.Weighted>
   9.000000E+99

> <Gold.Protein.RotatedTorsions>
[ 6907 6896 6895 6894 ] final -143.12 input  -60.11 | X-H torsion
[ 7974 7965 7964 7962 ] final  169.89 input  175.53 | X-H torsion
[ 8008 7997 7996 7995 ] final   13.59 input   59.86 | X-H torsion
[ 10167 10162 10161 10158 ] final -105.55 input  -65.29 | X-H torsion
[ 10718 10713 10712 10709 ] final  100.79 input   66.30 | X-H torsion
[ 10763 10752 10751 10750 ] final  -52.60 input  -60.55 | X-H torsion
[ 11005 11000 10999 10996 ] final   69.50 input  -57.11 | X-H torsion

> <Gold.Protein.ActiveResidues>
 VAL166  LYS551  ARG553  GLY616  TRP617  ASP618  TYR619  PRO620  LYS621  CYS622 
 ASP623  PHE694  ASN695  SER759  ASP760  ASP761  ALA762  ILE779  LEU786  VAL792 
 PHE793  MET794  SER795  GLU796  ALA797  LYS798  CYS799  TRP800  GLU811  SER814 

> <Gold.Protein.RotatedAtoms>
  151.0961  133.5278  159.2612 H   0  0  0  0  0  0  0  0  0  0  0  0  # atno 6907 bound_to 6896
  151.2127  135.0487  159.8927 H   0  0  0  0  0  0  0  0  0  0  0  0  # atno 6908 bound_to 6896
  152.5439  134.0775  159.8274 H   0  0  0  0  0  0  0  0  0  0  0  0  # atno 6909 bound_to 6896
  144.7341  139.9121  143.6415 H   0  0  0  0  0  0  0  0  0  0  0  0  # atno 7974 bound_to 7965
  154.8365  140.2908  155.5687 H   0  0  0  0  0  0  0  0  0  0  0  0  # atno 8008 bound_to 7997
  156.3009  140.2522  156.3232 H   0  0  0  0  0  0  0  0  0  0  0  0  # atno 8009 bound_to 7997
  154.9172  140.0387  157.1968 H   0  0  0  0  0  0  0  0  0  0  0  0  # atno 8010 bound_to 7997
  140.1973  143.3845  152.1158 H   0  0  0  0  0  0  0  0  0  0  0  0  # atno 10167 bound_to 10162
  157.6845  131.0708  150.5154 H   0  0  0  0  0  0  0  0  0  0  0  0  # atno 10718 bound_to 10713
  154.1454  135.6498  153.4951 H   0  0  0  0  0  0  0  0  0  0  0  0  # atno 10763 bound_to 10752
  153.0153  135.5325  154.6862 H   0  0  0  0  0  0  0  0  0  0  0  0  # atno 10764 bound_to 10752
  154.6135  135.2956  155.0377 H   0  0  0  0  0  0  0  0  0  0  0  0  # atno 10765 bound_to 10752
  139.9650  134.6996  156.0565 H   0  0  0  0  0  0  0  0  0  0  0  0  # atno 11005 bound_to 11000
  146.0993  139.3987  143.0357 LP  0  0  0  0  0  0  0  0  0  0  0  0  # atno 17320 bound_to 7965
  145.7601  140.9938  143.1204 LP  0  0  0  0  0  0  0  0  0  0  0  0  # atno 17321 bound_to 7965
  139.5231  144.7068  151.5331 LP  0  0  0  0  0  0  0  0  0  0  0  0  # atno 17342 bound_to 10162
  140.6415  143.8880  150.6696 LP  0  0  0  0  0  0  0  0  0  0  0  0  # atno 17343 bound_to 10162
  156.5469  130.4222  149.6126 LP  0  0  0  0  0  0  0  0  0  0  0  0  # atno 17370 bound_to 10713
  156.2936  130.7138  151.1993 LP  0  0  0  0  0  0  0  0  0  0  0  0  # atno 17371 bound_to 10713
  141.1329  133.6582  156.3514 LP  0  0  0  0  0  0  0  0  0  0  0  0  # atno 17394 bound_to 11000
  140.5416  134.6114  157.5381 LP  0  0  0  0  0  0  0  0  0  0  0  0  # atno 17395 bound_to 11000

$$$$
