AV-unprocessed.smi:3031|AV-procd|sdf|11549|dock6
  -GOLD-   2272016503D 1   1.00000     0.00000
 Structure written by MMmdl.
 48 49  0  0  0  0  0  0  0  0  3 V2000
  150.9622  142.9467  158.0176 C   0  0  0  0  0  0  0  0  0  0  0  0
  150.8957  141.6985  157.1855 C   0  0  0  0  0  0  0  0  0  0  0  0
  151.4696  140.4275  157.4709 C   0  0  0  0  0  0  0  0  0  0  0  0
  151.2302  139.5325  156.5264 N   0  0  0  0  0  0  0  0  0  0  0  0
  150.4913  140.1948  155.6106 N   0  0  0  0  0  0  0  0  0  0  0  0
  150.0526  139.5192  154.3999 C   0  0  0  0  0  0  0  0  0  0  0  0
  148.5171  139.4596  154.2609 C   0  0  2  0  0  0  0  0  0  0  0  0
  147.8923  138.6780  155.4278 C   0  0  0  0  0  0  0  0  0  0  0  0
  148.1473  138.8567  152.9598 N   0  3  0  0  0  0  0  0  0  0  0  0
  146.6949  138.7583  152.6994 C   0  0  0  0  0  0  0  0  0  0  0  0
  146.3591  137.4976  151.8837 C   0  0  2  0  0  0  0  0  0  0  0  0
  146.3201  137.8497  150.5134 O   0  0  0  0  0  0  0  0  0  0  0  0
  144.9881  136.9072  152.2761 C   0  0  0  0  0  0  0  0  0  0  0  0
  144.6989  135.6173  151.5969 N   0  3  0  0  0  0  0  0  0  0  0  0
  145.9124  134.8200  151.2866 C   0  0  0  0  0  0  0  0  0  0  0  0
  145.5308  133.5207  150.5560 C   0  0  0  0  0  0  0  0  0  0  0  0
  144.6139  132.7785  151.3494 O   0  0  0  0  0  0  0  0  0  0  0  0
  143.4079  133.4957  151.5786 C   0  0  0  0  0  0  0  0  0  0  0  0
  143.7180  134.7936  152.3438 C   0  0  0  0  0  0  0  0  0  0  0  0
  150.2855  141.5079  155.9782 C   0  0  0  0  0  0  0  0  0  0  0  0
  151.8399  143.5452  157.7730 H   0  0  0  0  0  0  0  0  0  0  0  0
  151.0144  142.7197  159.0827 H   0  0  0  0  0  0  0  0  0  0  0  0
  150.0881  143.5808  157.8680 H   0  0  0  0  0  0  0  0  0  0  0  0
  152.0520  140.1313  158.3310 H   0  0  0  0  0  0  0  0  0  0  0  0
  150.4906  140.0297  153.5408 H   0  0  0  0  0  0  0  0  0  0  0  0
  150.4696  138.5113  154.4095 H   0  0  0  0  0  0  0  0  0  0  0  0
  148.1334  140.4804  154.2916 H   0  0  0  0  0  0  0  0  0  0  0  0
  148.1821  139.1118  156.3854 H   0  0  0  0  0  0  0  0  0  0  0  0
  148.2144  137.6361  155.4264 H   0  0  0  0  0  0  0  0  0  0  0  0
  146.8032  138.6915  155.3867 H   0  0  0  0  0  0  0  0  0  0  0  0
  148.5345  139.4471  152.2371 H   0  0  0  0  0  0  0  0  0  0  0  0
  146.1694  138.7257  153.6540 H   0  0  0  0  0  0  0  0  0  0  0  0
  146.3496  139.6509  152.1753 H   0  0  0  0  0  0  0  0  0  0  0  0
  147.1477  136.7607  152.0351 H   0  0  0  0  0  0  0  0  0  0  0  0
  145.4180  137.8902  150.2319 H   0  0  0  0  0  0  0  0  0  0  0  0
  144.9278  136.7618  153.3559 H   0  0  0  0  0  0  0  0  0  0  0  0
  144.2131  137.6342  152.0262 H   0  0  0  0  0  0  0  0  0  0  0  0
  146.5995  135.3917  150.6640 H   0  0  0  0  0  0  0  0  0  0  0  0
  146.4416  134.5822  152.2109 H   0  0  0  0  0  0  0  0  0  0  0  0
  145.0956  133.7351  149.5786 H   0  0  0  0  0  0  0  0  0  0  0  0
  146.4191  132.9131  150.3825 H   0  0  0  0  0  0  0  0  0  0  0  0
  142.9112  133.7105  150.6310 H   0  0  0  0  0  0  0  0  0  0  0  0
  142.7292  132.8702  152.1590 H   0  0  0  0  0  0  0  0  0  0  0  0
  144.1141  134.5591  153.3334 H   0  0  0  0  0  0  0  0  0  0  0  0
  142.7959  135.3576  152.4919 H   0  0  0  0  0  0  0  0  0  0  0  0
  149.7259  142.1930  155.3580 H   0  0  0  0  0  0  0  0  0  0  0  0
  148.5704  137.9427  152.8850 H   0  0  0  0  0  0  0  0  0  0  0  0
  144.2603  135.8471  150.7159 H   0  0  0  0  0  0  0  0  0  0  0  0
  1  2  1  0  0  0  0
  1 21  1  0  0  0  0
  1 22  1  0  0  0  0
  1 23  1  0  0  0  0
  2 20  2  0  0  0  0
  2  3  1  0  0  0  0
  3  4  2  0  0  0  0
  3 24  1  0  0  0  0
  4  5  1  0  0  0  0
  5  6  1  0  0  0  0
  5 20  1  0  0  0  0
  6  7  1  0  0  0  0
  6 25  1  0  0  0  0
  6 26  1  0  0  0  0
  7  8  1  0  0  0  0
  7  9  1  0  0  0  0
  7 27  1  0  0  0  0
  8 28  1  0  0  0  0
  8 29  1  0  0  0  0
  8 30  1  0  0  0  0
  9 10  1  0  0  0  0
  9 31  1  0  0  0  0
  9 47  1  0  0  0  0
 10 11  1  0  0  0  0
 10 32  1  0  0  0  0
 10 33  1  0  0  0  0
 11 12  1  0  0  0  0
 11 13  1  0  0  0  0
 11 34  1  0  0  0  0
 12 35  1  0  0  0  0
 13 14  1  0  0  0  0
 13 36  1  0  0  0  0
 13 37  1  0  0  0  0
 14 19  1  0  0  0  0
 14 15  1  0  0  0  0
 14 48  1  0  0  0  0
 15 16  1  0  0  0  0
 15 38  1  0  0  0  0
 15 39  1  0  0  0  0
 16 17  1  0  0  0  0
 16 40  1  0  0  0  0
 16 41  1  0  0  0  0
 17 18  1  0  0  0  0
 18 19  1  0  0  0  0
 18 42  1  0  0  0  0
 18 43  1  0  0  0  0
 19 44  1  0  0  0  0
 19 45  1  0  0  0  0
 20 46  1  0  0  0  0
M  CHG  1   9   1
M  CHG  1  14   1
M  END
> <s_m_source_file>
AV-unprocessed.smi

> <i_m_source_file_index>
3031

> <i_lp_mmshare_version>
43012

> <i_f3d_flags>
0

> <s_epik_input>
W0NIM11jMVtjSF1ubihbY0hdMSlbQ0gyXVtDQEhdKFtDSDNdKVtOSF1bQ0gyXVtDQEhdKFtPSF0pW0NIMl1OMltDSDJdW0NIMl1PW0NIMl1bQ0gyXTI=

> <s_epik_cmdline>
J2VwaWtfcHl0aG9uJywgJy1waCcsICc3LjAnLCAnLXRuJywgJzgnLCAnLW1hJywgJzIwMCcsICctbWV0YWxfYmluZGluZycsICctaW1hZScsICc8aW5maWxlLm1hZT4nLCAnLW9tYWUnLCAnPG91dGZpbGUubWFlPic=

> <r_lp_tautomer_probability>
1

> <r_epik_Ionization_Penalty>
1.76542

> <r_epik_Ionization_Penalty_Charging>
1.76348

> <r_epik_Ionization_Penalty_Neutral>
0.00194017

> <r_epik_State_Penalty>
1.49348

> <r_epik_Charging_Adjusted_Penalty>
3.25696

> <i_epik_Tot_Q>
2

> <i_epik_Tot_abs_Q>
2

> <r_epik_Metal_State_Penalty>
1.49349

> <b_epik_Metal_Only>
0

> <s_lp_Force_Field>
OPLS_2005

> <r_lp_Energy>
27.3319

> <b_lp_Chiralities_Consistent>
1

> <s_lp_Variant>
AV-unprocessed.smi:3031-9

> <Gold.Version>
5.8.1

> <Gold.Id.Protein>
6NUR|6NUR_protein|mol2

> <Gold.PLP.Fitness>
52.3745

> <Gold.PLP.PLP>
-36.7981

> <Gold.PLP.part.hbond>
-4.0912

> <Gold.PLP.part.metal>
0.0000

> <Gold.PLP.part.buried>
-3.0653

> <Gold.PLP.part.nonpolar>
-30.6736

> <Gold.PLP.part.repulsive>
0.1819

> <Gold.PLP.ligand.clash>
0.0000

> <Gold.PLP.ligand.torsion>
1.0250

> <Gold.PLP.Chemscore.Hbond>
4.8945

> <Gold.PLP.Chemscore.CHOScore>
0.8841

> <Gold.PLP.Chemscore.Metal>
0.0000

> <Gold.Chemscore.Hbonds>
donor molecule, donor type, donor heavy atom, donor atom, acceptor molecule, acceptor atom, score
      L1  H     9    31       P1  7957  1.00
      L1  H     9    47       P1  7948  2.00
      L1  H    12    35       P1 10171  1.00
      P1  H  7954  7966       L1    12  0.91
      L1  C    20    46       P1  8028  0.64

> <Gold.PLP.Chemscore.Internal.Correction>
0.2905

> <Gold.Rescore>
     Score         DG    S(hbond)    S(metal)    S(lipo)     H(rot)  DE(clash)    DE(int)     intcor
     19.19     -20.59       3.61        0.00      86.20       2.74       0.38       1.02       ----

> <Gold.Chemscore.Fitness>
19.1932

> <Gold.Chemscore.DG>
-20.5947

> <Gold.Chemscore.ZeroCoef>
-5.4800

> <Gold.Chemscore.Hbond>
3.6086

> <Gold.Chemscore.Metal>
0.0000

> <Gold.Chemscore.Lipo>
86.1969

> <Gold.Chemscore.Internal_Hbond>
0.0000

> <Gold.Chemscore.DEClash>
0.3791

> <Gold.Chemscore.DEInternal>
1.0224

> <Gold.Chemscore.Rot>
2.7434

> <Gold.Chemscore.Internal.Correction>
   9.000000E+99

> <Gold.Chemscore.Hbonds>
donor molecule, donor type, donor heavy atom, donor atom, acceptor molecule, acceptor atom, score
      L1  H     9    31       P1  7957  0.99
      L1  H     9    47       P1  7948  0.91
      L1  H    12    35       P1 10171  0.99
      P1  H  7954  7966       L1    12  0.54

> <Gold.Chemscore.Hbond.Weighted>
-12.0528

> <Gold.Chemscore.Metal.Weighted>
-0.0000

> <Gold.Chemscore.Lipo.Weighted>
-10.0850

> <Gold.Chemscore.Internal_Hbond.Weighted>
0.0000

> <Gold.Chemscore.DEClash.Weighted>
0.3791

> <Gold.Chemscore.DEInternal.Weighted>
1.0224

> <Gold.Chemscore.Rot.Weighted>
7.0231

> <Gold.Chemscore.Internal.Correction.Weighted>
   9.000000E+99

> <Gold.Protein.RotatedTorsions>
[ 6907 6896 6895 6894 ] final -110.46 input  -60.11 | X-H torsion
[ 7974 7965 7964 7962 ] final -157.03 input  175.53 | X-H torsion
[ 8008 7997 7996 7995 ] final   21.12 input   59.86 | X-H torsion
[ 10167 10162 10161 10158 ] final  111.19 input  -65.29 | X-H torsion
[ 10718 10713 10712 10709 ] final    5.83 input   66.30 | X-H torsion
[ 10763 10752 10751 10750 ] final   19.00 input  -60.55 | X-H torsion
[ 11005 11000 10999 10996 ] final  165.79 input  -57.11 | X-H torsion

> <Gold.Protein.ActiveResidues>
 VAL166  LYS551  ARG553  GLY616  TRP617  ASP618  TYR619  PRO620  LYS621  CYS622 
 ASP623  PHE694  ASN695  SER759  ASP760  ASP761  ALA762  ILE779  LEU786  VAL792 
 PHE793  MET794  SER795  GLU796  ALA797  LYS798  CYS799  TRP800  GLU811  SER814 

> <Gold.Protein.RotatedAtoms>
  150.7626  133.9379  159.3446 H   0  0  0  0  0  0  0  0  0  0  0  0  # atno 6907 bound_to 6896
  151.7284  135.0878  160.0305 H   0  0  0  0  0  0  0  0  0  0  0  0  # atno 6908 bound_to 6896
  152.3605  133.6254  159.6047 H   0  0  0  0  0  0  0  0  0  0  0  0  # atno 6909 bound_to 6896
  144.7566  140.4026  143.6008 H   0  0  0  0  0  0  0  0  0  0  0  0  # atno 7974 bound_to 7965
  154.9459  140.3059  155.5098 H   0  0  0  0  0  0  0  0  0  0  0  0  # atno 8008 bound_to 7997
  156.2992  140.2328  156.4470 H   0  0  0  0  0  0  0  0  0  0  0  0  # atno 8009 bound_to 7997
  154.8101  140.0429  157.1325 H   0  0  0  0  0  0  0  0  0  0  0  0  # atno 8010 bound_to 7997
  139.6630  144.7128  151.1829 H   0  0  0  0  0  0  0  0  0  0  0  0  # atno 10167 bound_to 10162
  156.9133  130.5764  149.5647 H   0  0  0  0  0  0  0  0  0  0  0  0  # atno 10718 bound_to 10713
  153.1200  135.6717  153.9352 H   0  0  0  0  0  0  0  0  0  0  0  0  # atno 10763 bound_to 10752
  153.8870  135.3051  155.3448 H   0  0  0  0  0  0  0  0  0  0  0  0  # atno 10764 bound_to 10752
  154.7612  135.4987  153.9548 H   0  0  0  0  0  0  0  0  0  0  0  0  # atno 10765 bound_to 10752
  140.2597  134.7912  157.3579 H   0  0  0  0  0  0  0  0  0  0  0  0  # atno 11005 bound_to 11000
  145.6758  139.1608  143.2728 LP  0  0  0  0  0  0  0  0  0  0  0  0  # atno 17320 bound_to 7965
  146.1583  140.6825  142.9289 LP  0  0  0  0  0  0  0  0  0  0  0  0  # atno 17321 bound_to 7965
  140.7588  143.5964  150.8744 LP  0  0  0  0  0  0  0  0  0  0  0  0  # atno 17342 bound_to 10162
  139.9623  143.6150  152.2999 LP  0  0  0  0  0  0  0  0  0  0  0  0  # atno 17343 bound_to 10162
  156.0526  130.5592  150.9021 LP  0  0  0  0  0  0  0  0  0  0  0  0  # atno 17370 bound_to 10713
  157.5954  131.0943  150.9050 LP  0  0  0  0  0  0  0  0  0  0  0  0  # atno 17371 bound_to 10713
  140.1476  134.4891  155.7984 LP  0  0  0  0  0  0  0  0  0  0  0  0  # atno 17394 bound_to 11000
  141.2192  133.6850  156.7322 LP  0  0  0  0  0  0  0  0  0  0  0  0  # atno 17395 bound_to 11000

$$$$
