AV-unprocessed.smi:686|AV-procd|sdf|3342|dock5
  -GOLD-   22720 0313D 1   1.00000     0.00000
 Structure written by MMmdl.
 41 42  0  0  0  0  0  0  0  0  2 V2000
  145.6123  131.7208  150.3558 C   0  0  0  0  0  0  0  0  0  0  0  0
  144.9187  132.6904  151.3224 C   0  0  1  0  0  0  0  0  0  0  0  0
  145.4297  134.1287  151.2170 C   0  0  0  0  0  0  0  0  0  0  0  0
  144.3184  134.9682  151.7068 N   0  3  1  0  0  0  0  0  0  0  0  0
  144.4289  136.4217  151.3959 C   0  0  0  0  0  0  0  0  0  0  0  0
  144.5903  136.6670  149.8839 C   0  0  0  0  0  0  0  0  0  0  0  0
  145.6051  137.0679  152.1521 C   0  0  0  0  0  0  0  0  0  0  0  0
  143.0911  134.3121  151.2056 C   0  0  0  0  0  0  0  0  0  0  0  0
  143.3978  132.8055  151.1129 C   0  0  2  0  0  0  0  0  0  0  0  0
  142.6846  132.0408  152.1432 N   0  0  0  0  0  0  0  0  0  0  0  0
  140.9580  131.9612  152.1498 S   0  0  0  0  0  0  0  0  0  0  0  0
  140.4590  132.7282  150.9974 O   0  0  0  0  0  0  0  0  0  0  0  0
  140.5843  130.5491  152.3195 O   0  0  0  0  0  0  0  0  0  0  0  0
  140.5224  132.8613  153.6994 C   0  0  0  0  0  0  0  0  0  0  0  0
  139.1467  132.4568  154.1446 C   0  0  0  0  0  0  0  0  0  0  0  0
  138.6896  131.1733  154.5525 C   0  0  0  0  0  0  0  0  0  0  0  0
  137.3715  131.3815  154.8398 C   0  0  0  0  0  0  0  0  0  0  0  0
  137.0393  132.6808  154.6323 O   0  0  0  0  0  0  0  0  0  0  0  0
  138.1800  133.3601  154.1896 N   0  0  0  0  0  0  0  0  0  0  0  0
  145.4590  132.0157  149.3172 H   0  0  0  0  0  0  0  0  0  0  0  0
  145.2255  130.7084  150.4750 H   0  0  0  0  0  0  0  0  0  0  0  0
  146.6870  131.6890  150.5378 H   0  0  0  0  0  0  0  0  0  0  0  0
  145.1161  132.3551  152.3426 H   0  0  0  0  0  0  0  0  0  0  0  0
  146.3421  134.2742  151.7963 H   0  0  0  0  0  0  0  0  0  0  0  0
  145.6429  134.3815  150.1766 H   0  0  0  0  0  0  0  0  0  0  0  0
  143.5088  136.9109  151.7198 H   0  0  0  0  0  0  0  0  0  0  0  0
  144.7180  137.7292  149.6729 H   0  0  0  0  0  0  0  0  0  0  0  0
  143.7163  136.3399  149.3207 H   0  0  0  0  0  0  0  0  0  0  0  0
  145.4619  136.1451  149.4870 H   0  0  0  0  0  0  0  0  0  0  0  0
  145.7100  138.1203  151.8865 H   0  0  0  0  0  0  0  0  0  0  0  0
  146.5479  136.5729  151.9161 H   0  0  0  0  0  0  0  0  0  0  0  0
  145.4673  137.0290  153.2328 H   0  0  0  0  0  0  0  0  0  0  0  0
  142.2375  134.5403  151.8430 H   0  0  0  0  0  0  0  0  0  0  0  0
  142.8599  134.6881  150.2075 H   0  0  0  0  0  0  0  0  0  0  0  0
  143.1107  132.4284  150.1300 H   0  0  0  0  0  0  0  0  0  0  0  0
  143.1297  131.1600  152.4020 H   0  0  0  0  0  0  0  0  0  0  0  0
  141.2702  132.6295  154.4576 H   0  0  0  0  0  0  0  0  0  0  0  0
  140.5702  133.9325  153.5065 H   0  0  0  0  0  0  0  0  0  0  0  0
  139.2399  130.2464  154.6193 H   0  0  0  0  0  0  0  0  0  0  0  0
  136.5766  130.7377  155.1862 H   0  0  0  0  0  0  0  0  0  0  0  0
  144.3079  134.8700  152.7119 H   0  0  0  0  0  0  0  0  0  0  0  0
  1  2  1  0  0  0  0
  1 20  1  0  0  0  0
  1 21  1  0  0  0  0
  1 22  1  0  0  0  0
  2  9  1  0  0  0  0
  2  3  1  0  0  0  0
  2 23  1  0  0  0  0
  3  4  1  0  0  0  0
  3 24  1  0  0  0  0
  3 25  1  0  0  0  0
  4  5  1  0  0  0  0
  4  8  1  0  0  0  0
  4 41  1  0  0  0  0
  5  6  1  0  0  0  0
  5  7  1  0  0  0  0
  5 26  1  0  0  0  0
  6 27  1  0  0  0  0
  6 28  1  0  0  0  0
  6 29  1  0  0  0  0
  7 30  1  0  0  0  0
  7 31  1  0  0  0  0
  7 32  1  0  0  0  0
  8  9  1  0  0  0  0
  8 33  1  0  0  0  0
  8 34  1  0  0  0  0
  9 10  1  0  0  0  0
  9 35  1  0  0  0  0
 10 11  1  0  0  0  0
 10 36  1  0  0  0  0
 11 12  2  0  0  0  0
 11 13  2  0  0  0  0
 11 14  1  0  0  0  0
 14 15  1  0  0  0  0
 14 37  1  0  0  0  0
 14 38  1  0  0  0  0
 15 19  2  0  0  0  0
 15 16  1  0  0  0  0
 16 17  2  0  0  0  0
 16 39  1  0  0  0  0
 17 18  1  0  0  0  0
 17 40  1  0  0  0  0
 18 19  1  0  0  0  0
M  CHG  1   4   1
M  END
> <s_m_source_file>
AV-unprocessed.smi

> <i_m_source_file_index>
686

> <i_lp_mmshare_version>
43012

> <i_f3d_flags>
0

> <s_epik_input>
W0NIM11bQ0BASF0xW0NIMl1OKFtDSF0oW0NIM10pW0NIM10pW0NIMl1bQ0BIXTFbTkhdUyg9TykoPU8pW0NIMl1jMltjSF1bY0hdb24y

> <s_epik_cmdline>
J2VwaWtfcHl0aG9uJywgJy1waCcsICc3LjAnLCAnLXRuJywgJzgnLCAnLW1hJywgJzIwMCcsICctbWV0YWxfYmluZGluZycsICctaW1hZScsICc8aW5maWxlLm1hZT4nLCAnLW9tYWUnLCAnPG91dGZpbGUubWFlPic=

> <r_epik_Ionization_Penalty>
0.00200818

> <r_epik_Ionization_Penalty_Charging>
0.000701289

> <r_epik_Ionization_Penalty_Neutral>
0.00130689

> <r_epik_State_Penalty>
0.00131314

> <r_epik_Charging_Adjusted_Penalty>
0.00201443

> <i_epik_Tot_Q>
1

> <i_epik_Tot_abs_Q>
1

> <r_epik_Metal_State_Penalty>
0.310831

> <b_epik_Metal_Only>
0

> <s_lp_Force_Field>
OPLS_2005

> <r_lp_Energy>
19.8293

> <b_lp_Chiralities_Consistent>
1

> <s_lp_Variant>
AV-unprocessed.smi:686-6

> <Gold.Version>
5.8.1

> <Gold.Id.Protein>
6NUR|6NUR_protein|mol2

> <Gold.PLP.Fitness>
41.3677

> <Gold.PLP.PLP>
-30.4339

> <Gold.PLP.part.hbond>
-3.2543

> <Gold.PLP.part.metal>
0.0000

> <Gold.PLP.part.buried>
-1.9410

> <Gold.PLP.part.nonpolar>
-25.9510

> <Gold.PLP.part.repulsive>
0.1379

> <Gold.PLP.ligand.clash>
0.0000

> <Gold.PLP.ligand.torsion>
0.5796

> <Gold.PLP.Chemscore.Hbond>
3.9760

> <Gold.PLP.Chemscore.CHOScore>
0.0000

> <Gold.PLP.Chemscore.Metal>
0.0000

> <Gold.PLP.Chemscore.Internal.Correction>
0.1651

> <Gold.Rescore>
     Score         DG    S(hbond)    S(metal)    S(lipo)     H(rot)  DE(clash)    DE(int)     intcor
     15.16     -18.10       2.73        0.00      71.77       1.91       1.40       1.54       ----

> <Gold.Chemscore.Fitness>
15.1560

> <Gold.Chemscore.DG>
-18.1005

> <Gold.Chemscore.ZeroCoef>
-5.4800

> <Gold.Chemscore.Hbond>
2.7297

> <Gold.Chemscore.Metal>
0.0000

> <Gold.Chemscore.Lipo>
71.7666

> <Gold.Chemscore.Internal_Hbond>
0.0000

> <Gold.Chemscore.DEClash>
1.4047

> <Gold.Chemscore.DEInternal>
1.5398

> <Gold.Chemscore.Rot>
1.9115

> <Gold.Chemscore.Internal.Correction>
   9.000000E+99

> <Gold.Chemscore.Hbond.Weighted>
-9.1173

> <Gold.Chemscore.Metal.Weighted>
-0.0000

> <Gold.Chemscore.Lipo.Weighted>
-8.3967

> <Gold.Chemscore.Internal_Hbond.Weighted>
0.0000

> <Gold.Chemscore.DEClash.Weighted>
1.4047

> <Gold.Chemscore.DEInternal.Weighted>
1.5398

> <Gold.Chemscore.Rot.Weighted>
4.8935

> <Gold.Chemscore.Internal.Correction.Weighted>
   9.000000E+99

> <Gold.Protein.RotatedTorsions>
[ 6907 6896 6895 6894 ] final   50.41 input  -60.11 | X-H torsion
[ 7974 7965 7964 7962 ] final   55.77 input  175.53 | X-H torsion
[ 8008 7997 7996 7995 ] final  -62.52 input   59.86 | X-H torsion
[ 10167 10162 10161 10158 ] final  -23.22 input  -65.29 | X-H torsion
[ 10718 10713 10712 10709 ] final -139.73 input   66.30 | X-H torsion
[ 10763 10752 10751 10750 ] final -125.06 input  -60.55 | X-H torsion
[ 11005 11000 10999 10996 ] final   85.81 input  -57.11 | X-H torsion

> <Gold.Protein.ActiveResidues>
 VAL166  LYS551  ARG553  GLY616  TRP617  ASP618  TYR619  PRO620  LYS621  CYS622 
 ASP623  PHE694  ASN695  SER759  ASP760  ASP761  ALA762  ILE779  LEU786  VAL792 
 PHE793  MET794  SER795  GLU796  ALA797  LYS798  CYS799  TRP800  GLU811  SER814 

> <Gold.Protein.RotatedAtoms>
  152.3015  134.7605  160.0356 H   0  0  0  0  0  0  0  0  0  0  0  0  # atno 6907 bound_to 6896
  151.8117  133.3377  159.3565 H   0  0  0  0  0  0  0  0  0  0  0  0  # atno 6908 bound_to 6896
  150.7276  134.5588  159.5876 H   0  0  0  0  0  0  0  0  0  0  0  0  # atno 6909 bound_to 6896
  145.9469  139.3938  143.0329 H   0  0  0  0  0  0  0  0  0  0  0  0  # atno 7974 bound_to 7965
  154.4504  140.0994  156.6601 H   0  0  0  0  0  0  0  0  0  0  0  0  # atno 8008 bound_to 7997
  155.5303  140.3481  155.4406 H   0  0  0  0  0  0  0  0  0  0  0  0  # atno 8009 bound_to 7997
  156.0669  140.1340  156.9864 H   0  0  0  0  0  0  0  0  0  0  0  0  # atno 8010 bound_to 7997
  140.7287  143.4462  151.0583 H   0  0  0  0  0  0  0  0  0  0  0  0  # atno 10167 bound_to 10162
  156.3141  130.7498  151.1581 H   0  0  0  0  0  0  0  0  0  0  0  0  # atno 10718 bound_to 10713
  154.8731  135.4042  154.3207 H   0  0  0  0  0  0  0  0  0  0  0  0  # atno 10763 bound_to 10752
  153.4036  135.7019  153.6414 H   0  0  0  0  0  0  0  0  0  0  0  0  # atno 10764 bound_to 10752
  153.5146  135.3700  155.2574 H   0  0  0  0  0  0  0  0  0  0  0  0  # atno 10765 bound_to 10752
  139.8961  134.8312  156.2633 H   0  0  0  0  0  0  0  0  0  0  0  0  # atno 11005 bound_to 11000
  145.8224  140.9672  143.0892 LP  0  0  0  0  0  0  0  0  0  0  0  0  # atno 17320 bound_to 7965
  144.6789  140.0058  143.7484 LP  0  0  0  0  0  0  0  0  0  0  0  0  # atno 17321 bound_to 7965
  139.8134  143.7919  152.3173 LP  0  0  0  0  0  0  0  0  0  0  0  0  # atno 17342 bound_to 10162
  139.7976  144.7386  150.9868 LP  0  0  0  0  0  0  0  0  0  0  0  0  # atno 17343 bound_to 10162
  157.7397  131.0525  150.5211 LP  0  0  0  0  0  0  0  0  0  0  0  0  # atno 17370 bound_to 10713
  156.5354  130.4195  149.6180 LP  0  0  0  0  0  0  0  0  0  0  0  0  # atno 17371 bound_to 10713
  141.0148  133.7075  156.1171 LP  0  0  0  0  0  0  0  0  0  0  0  0  # atno 17394 bound_to 11000
  140.7317  134.4248  157.5565 LP  0  0  0  0  0  0  0  0  0  0  0  0  # atno 17395 bound_to 11000

$$$$
