#       Name:                AV-unprocessed.smi:1589
#       Creating user name   scv26
#       Creation time:       Fri Mar 27 07:03:03 2020


#       File generated by GOLD software.
#

@<TRIPOS>MOLECULE
AV-unprocessed.smi:1589
    49    50     1
SMALL
NO_CHARGES


@<TRIPOS>ATOM
      1 ****        -5.1820   0.4195  -0.9918 C.3            1 S1                 0.0000
      2 ****        -4.3963   1.2171   0.0725 C.3            1 S1                 0.0000
      3 ****        -5.2526   2.4282   0.5028 C.3            1 S1                 0.0000
      4 ****        -3.0673   1.6306  -0.4228 N.3            1 S1                 0.0000
      5 ****        -2.2584   0.4679  -0.8285 C.3            1 S1                 0.0000
      6 ****        -0.8732   0.9020  -1.3439 C.3            1 S1                 0.0000
      7 ****        -0.1797   1.6228  -0.2702 N.am           1 S1                 0.0000
      8 ****         0.8853   1.1933   0.4528 C.2            1 S1                 0.0000
      9 ****         1.3228   1.8126   1.4233 O.2            1 S1                 0.0000
     10 ****         1.4274   0.0442   0.0074 N.am           1 S1                 0.0000
     11 ****         2.5348  -0.6586   0.5444 C.2            1 S1                 0.0000
     12 ****         3.3951  -0.3053   1.6221 C.2            1 S1                 0.0000
     13 ****         4.3213  -1.2329   1.8140 N.2            1 S1                 0.0000
     14 ****         4.0768  -2.1786   0.8725 N.pl3          1 S1                 0.0000
     15 ****         4.9213  -3.3610   0.8021 C.3            1 S1                 0.0000
     16 ****         5.8580  -3.3490  -0.4127 C.2            1 S1                 0.0000
     17 ****         6.3644  -4.5266  -0.7864 N.am           1 S1                 0.0000
     18 ****         6.1284  -2.3059  -1.0062 O.2            1 S1                 0.0000
     19 ****         2.9892  -1.8571   0.0834 C.2            1 S1                 0.0000
     20 ****        -0.9390   2.8253   0.0723 C.3            1 S1                 0.0000
     21 ****        -2.3267   2.4020   0.5913 C.3            1 S1                 0.0000
     22 ****        -6.2107   0.2497  -0.6729 H              1 S1                 0.0000
     23 ****        -4.7595  -0.5690  -1.1681 H              1 S1                 0.0000
     24 ****        -5.2184   0.9517  -1.9432 H              1 S1                 0.0000
     25 ****        -4.2585   0.5749   0.9438 H              1 S1                 0.0000
     26 ****        -6.2758   2.1243   0.7256 H              1 S1                 0.0000
     27 ****        -5.2998   3.1831  -0.2830 H              1 S1                 0.0000
     28 ****        -4.8787   2.9004   1.4107 H              1 S1                 0.0000
     29 ****        -2.1498  -0.2233   0.0088 H              1 S1                 0.0000
     30 ****        -2.7451  -0.0762  -1.6357 H              1 S1                 0.0000
     31 ****        -0.3333   0.0299  -1.7121 H              1 S1                 0.0000
     32 ****        -0.9828   1.5585  -2.2088 H              1 S1                 0.0000
     33 ****         0.9852  -0.3786  -0.7957 H              1 S1                 0.0000
     34 ****         3.3892   0.5658   2.2599 H              1 S1                 0.0000
     35 ****         5.5162  -3.4387   1.7137 H              1 S1                 0.0000
     36 ****         4.2756  -4.2392   0.7630 H              1 S1                 0.0000
     37 ****         6.9825  -4.5816  -1.5830 H              1 S1                 0.0000
     38 ****         6.1214  -5.3614  -0.2725 H              1 S1                 0.0000
     39 ****         2.6455  -2.4943  -0.7183 H              1 S1                 0.0000
     40 ****        -0.4384   3.4390   0.8223 H              1 S1                 0.0000
     41 ****        -1.0404   3.4603  -0.8093 H              1 S1                 0.0000
     42 ****        -2.8643   3.3123   0.8502 H              1 S1                 0.0000
     43 ****        -2.2240   1.8152   1.5056 H              1 S1                 0.0000
     44 ****        -3.2292   2.2122  -1.2201 LP             1 S1                 0.0000
     45 ****         0.8903   2.6686   1.7065 LP             1 S1                 0.0000
     46 ****         2.1106   1.4595   1.9280 LP             1 S1                 0.0000
     47 ****         5.0449  -1.2354   2.5042 LP             1 S1                 0.0000
     48 ****         5.7347  -1.4394  -0.6992 LP             1 S1                 0.0000
     49 ****         6.7419  -2.3244  -1.7957 LP             1 S1                 0.0000
@<TRIPOS>BOND
    1    1    2 1     
    2    1   22 1     
    3    1   23 1     
    4    1   24 1     
    5    2    3 1     
    6    2    4 1     
    7    2   25 1     
    8    3   26 1     
    9    3   27 1     
   10    3   28 1     
   11    4   21 1     
   12    4    5 1     
   13    5    6 1     
   14    5   29 1     
   15    5   30 1     
   16    6    7 1     
   17    6   31 1     
   18    6   32 1     
   19    7    8 am    
   20    7   20 1     
   21    8    9 2     
   22    8   10 am    
   23   10   11 1     
   24   10   33 1     
   25   11   19 2     
   26   11   12 1     
   27   12   13 2     
   28   12   34 1     
   29   13   14 1     
   30   14   15 1     
   31   14   19 1     
   32   15   16 1     
   33   15   35 1     
   34   15   36 1     
   35   16   17 am    
   36   16   18 2     
   37   17   37 1     
   38   17   38 1     
   39   19   39 1     
   40   20   21 1     
   41   20   40 1     
   42   20   41 1     
   43   21   42 1     
   44   21   43 1     
   45    4   44 1     
   46    9   45 1     
   47    9   46 1     
   48   13   47 1     
   49   18   48 1     
   50   18   49 1     
@<TRIPOS>SUBSTRUCTURE
      1 S1             1
@<TRIPOS>SET
LONE_PAIRS      STATIC     ATOMS    <user>   **** ""
6 44 45 46 47 48 49
DONOR_HYDROGENS      STATIC     ATOMS    <user>   **** ""
3 33 37 38
ATOM$BLUE        STATIC     ATOMS    COLORGROUP SYSTEM
6 44 45 46 47 48 49
ATOM$RED        STATIC     ATOMS    COLORGROUP SYSTEM
3 33 37 38
