AV-unprocessed.smi:1884|AV-procd|sdf|7649|dock6
  -GOLD-   22720 9383D 1   1.00000     0.00000
 Structure written by MMmdl.
 41 43  0  0  0  0  0  0  0  0  2 V2000
  149.3424  141.2025  155.1137 C   0  0  0  0  0  0  0  0  0  0  0  0
  150.1740  141.7531  156.2231 C   0  0  0  0  0  0  0  0  0  0  0  0
  150.1716  143.0426  156.6639 N   0  3  0  0  0  0  0  0  0  0  0  0
  151.0771  143.1836  157.7166 C   0  0  0  0  0  0  0  0  0  0  0  0
  151.4202  144.2952  158.4800 C   0  0  0  0  0  0  0  0  0  0  0  0
  152.3940  144.0990  159.4812 C   0  0  0  0  0  0  0  0  0  0  0  0
  152.9856  142.8367  159.6930 C   0  0  0  0  0  0  0  0  0  0  0  0
  152.6263  141.7160  158.9154 C   0  0  0  0  0  0  0  0  0  0  0  0
  151.6624  141.9180  157.9276 C   0  0  0  0  0  0  0  0  0  0  0  0
  151.0722  141.0664  156.9854 N   0  0  0  0  0  0  0  0  0  0  0  0
  151.4575  139.6470  156.9419 C   0  0  0  0  0  0  0  0  0  0  0  0
  151.6019  139.1096  155.5039 C   0  0  1  0  0  0  0  0  0  0  0  0
  152.7593  139.6138  154.8683 O   0  0  0  0  0  0  0  0  0  0  0  0
  151.6041  137.5746  155.4184 C   0  0  0  0  0  0  0  0  0  0  0  0
  150.3295  137.0631  155.7895 O   0  0  0  0  0  0  0  0  0  0  0  0
  149.9543  135.8284  155.3055 C   0  0  0  0  0  0  0  0  0  0  0  0
  148.5721  135.5537  155.2554 C   0  0  0  0  0  0  0  0  0  0  0  0
  148.0981  134.3178  154.7746 C   0  0  0  0  0  0  0  0  0  0  0  0
  149.0085  133.3368  154.3350 C   0  0  0  0  0  0  0  0  0  0  0  0
  148.5235  132.0601  153.8380 C   0  0  0  0  0  0  0  0  0  0  0  0
  148.1370  131.0438  153.4423 N   0  0  0  0  0  0  0  0  0  0  0  0
  150.3920  133.5991  154.3794 C   0  0  0  0  0  0  0  0  0  0  0  0
  150.8642  134.8359  154.8610 C   0  0  0  0  0  0  0  0  0  0  0  0
  148.7354  141.9879  154.6629 H   0  0  0  0  0  0  0  0  0  0  0  0
  148.6788  140.4245  155.4914 H   0  0  0  0  0  0  0  0  0  0  0  0
  149.9806  140.7720  154.3420 H   0  0  0  0  0  0  0  0  0  0  0  0
  150.9692  145.2634  158.3188 H   0  0  0  0  0  0  0  0  0  0  0  0
  152.6944  144.9337  160.0979 H   0  0  0  0  0  0  0  0  0  0  0  0
  153.7308  142.7248  160.4672 H   0  0  0  0  0  0  0  0  0  0  0  0
  153.0890  140.7547  159.0840 H   0  0  0  0  0  0  0  0  0  0  0  0
  152.3734  139.5087  157.5164 H   0  0  0  0  0  0  0  0  0  0  0  0
  150.6849  139.0861  157.4689 H   0  0  0  0  0  0  0  0  0  0  0  0
  150.7575  139.4700  154.9152 H   0  0  0  0  0  0  0  0  0  0  0  0
  152.8541  139.1828  154.0329 H   0  0  0  0  0  0  0  0  0  0  0  0
  151.8167  137.2841  154.3883 H   0  0  0  0  0  0  0  0  0  0  0  0
  152.3929  137.1611  156.0495 H   0  0  0  0  0  0  0  0  0  0  0  0
  147.8662  136.2996  155.5903 H   0  0  0  0  0  0  0  0  0  0  0  0
  147.0343  134.1294  154.7461 H   0  0  0  0  0  0  0  0  0  0  0  0
  151.0998  132.8541  154.0447 H   0  0  0  0  0  0  0  0  0  0  0  0
  151.9310  134.9982  154.8779 H   0  0  0  0  0  0  0  0  0  0  0  0
  149.5907  143.7724  156.2717 H   0  0  0  0  0  0  0  0  0  0  0  0
  1  2  1  0  0  0  0
  1 24  1  0  0  0  0
  1 25  1  0  0  0  0
  1 26  1  0  0  0  0
  2 10  1  0  0  0  0
  2  3  2  0  0  0  0
  3  4  1  0  0  0  0
  3 41  1  0  0  0  0
  4  9  2  0  0  0  0
  4  5  1  0  0  0  0
  5  6  2  0  0  0  0
  5 27  1  0  0  0  0
  6  7  1  0  0  0  0
  6 28  1  0  0  0  0
  7  8  2  0  0  0  0
  7 29  1  0  0  0  0
  8  9  1  0  0  0  0
  8 30  1  0  0  0  0
  9 10  1  0  0  0  0
 10 11  1  0  0  0  0
 11 12  1  0  0  0  0
 11 31  1  0  0  0  0
 11 32  1  0  0  0  0
 12 13  1  0  0  0  0
 12 14  1  0  0  0  0
 12 33  1  0  0  0  0
 13 34  1  0  0  0  0
 14 15  1  0  0  0  0
 14 35  1  0  0  0  0
 14 36  1  0  0  0  0
 15 16  1  0  0  0  0
 16 23  1  0  0  0  0
 16 17  2  0  0  0  0
 17 18  1  0  0  0  0
 17 37  1  0  0  0  0
 18 19  2  0  0  0  0
 18 38  1  0  0  0  0
 19 20  1  0  0  0  0
 19 22  1  0  0  0  0
 20 21  3  0  0  0  0
 22 23  2  0  0  0  0
 22 39  1  0  0  0  0
 23 40  1  0  0  0  0
M  CHG  1   3   1
M  END
> <s_m_source_file>
AV-unprocessed.smi

> <i_m_source_file_index>
1884

> <i_lp_mmshare_version>
43012

> <i_f3d_flags>
0

> <s_epik_input>
W2NIXTFbY0hdW2NIXVtjSF1jKGMxMiluKGMobjIpW0NIM10pW0NIMl1bQ0BIXShbT0hdKVtDSDJdT2MzW2NIXVtjSF1jKEMjTilbY0hdW2NIXTM=

> <s_epik_cmdline>
J2VwaWtfcHl0aG9uJywgJy1waCcsICc3LjAnLCAnLXRuJywgJzgnLCAnLW1hJywgJzIwMCcsICctbWV0YWxfYmluZGluZycsICctaW1hZScsICc8aW5maWxlLm1hZT4nLCAnLW9tYWUnLCAnPG91dGZpbGUubWFlPic=

> <r_epik_Ionization_Penalty>
1.04791

> <r_epik_Ionization_Penalty_Charging>
1.04791

> <r_epik_Ionization_Penalty_Neutral>
2.3993e-06

> <r_epik_State_Penalty>
1.10051

> <r_epik_Charging_Adjusted_Penalty>
2.14841

> <i_epik_Tot_Q>
1

> <i_epik_Tot_abs_Q>
1

> <r_epik_Metal_State_Penalty>
5.09283

> <b_epik_Metal_Only>
0

> <s_lp_Force_Field>
OPLS_2005

> <r_lp_Energy>
19.6719

> <b_lp_Chiralities_Consistent>
1

> <s_lp_Variant>
AV-unprocessed.smi:1884-4

> <Gold.Version>
5.8.1

> <Gold.Id.Protein>
6NUR|6NUR_protein|mol2

> <Gold.PLP.Fitness>
53.6842

> <Gold.PLP.PLP>
-46.3761

> <Gold.PLP.part.hbond>
-2.9751

> <Gold.PLP.part.metal>
0.0000

> <Gold.PLP.part.buried>
-5.2230

> <Gold.PLP.part.nonpolar>
-38.1130

> <Gold.PLP.part.repulsive>
0.2228

> <Gold.PLP.ligand.clash>
0.0000

> <Gold.PLP.ligand.torsion>
0.8777

> <Gold.PLP.Chemscore.Hbond>
3.0000

> <Gold.PLP.Chemscore.CHOScore>
0.0000

> <Gold.PLP.Chemscore.Metal>
0.0000

> <Gold.Chemscore.Hbonds>
donor molecule, donor type, donor heavy atom, donor atom, acceptor molecule, acceptor atom, score
      L1  H     3    41       P1  8028  0.98
      P1  H  7997  8009       L1    13  0.86

> <Gold.PLP.Chemscore.Internal.Correction>
0.0636

> <Gold.Rescore>
     Score         DG    S(hbond)    S(metal)    S(lipo)     H(rot)  DE(clash)    DE(int)     intcor
     19.03     -19.62       1.97        0.00     116.99       2.39       0.01       0.57       ----

> <Gold.Chemscore.Fitness>
19.0344

> <Gold.Chemscore.DG>
-19.6176

> <Gold.Chemscore.ZeroCoef>
-5.4800

> <Gold.Chemscore.Hbond>
1.9680

> <Gold.Chemscore.Metal>
0.0000

> <Gold.Chemscore.Lipo>
116.9868

> <Gold.Chemscore.Internal_Hbond>
0.0000

> <Gold.Chemscore.DEClash>
0.0141

> <Gold.Chemscore.DEInternal>
0.5691

> <Gold.Chemscore.Rot>
2.3917

> <Gold.Chemscore.Internal.Correction>
   9.000000E+99

> <Gold.Chemscore.Hbonds>
donor molecule, donor type, donor heavy atom, donor atom, acceptor molecule, acceptor atom, score
      L1  H     3    41       P1  8028  0.50
      P1  H  7997  8009       L1    13  0.74

> <Gold.Chemscore.Hbond.Weighted>
-6.5730

> <Gold.Chemscore.Metal.Weighted>
-0.0000

> <Gold.Chemscore.Lipo.Weighted>
-13.6875

> <Gold.Chemscore.Internal_Hbond.Weighted>
0.0000

> <Gold.Chemscore.DEClash.Weighted>
0.0141

> <Gold.Chemscore.DEInternal.Weighted>
0.5691

> <Gold.Chemscore.Rot.Weighted>
6.1229

> <Gold.Chemscore.Internal.Correction.Weighted>
   9.000000E+99

> <Gold.Protein.RotatedTorsions>
[ 6907 6896 6895 6894 ] final -122.69 input  -60.11 | X-H torsion
[ 7974 7965 7964 7962 ] final  123.04 input  175.53 | X-H torsion
[ 8008 7997 7996 7995 ] final -123.72 input   59.86 | X-H torsion
[ 10167 10162 10161 10158 ] final  132.00 input  -65.29 | X-H torsion
[ 10718 10713 10712 10709 ] final -134.19 input   66.30 | X-H torsion
[ 10763 10752 10751 10750 ] final  147.50 input  -60.55 | X-H torsion
[ 11005 11000 10999 10996 ] final  -69.32 input  -57.11 | X-H torsion

> <Gold.Protein.ActiveResidues>
 VAL166  LYS551  ARG553  GLY616  TRP617  ASP618  TYR619  PRO620  LYS621  CYS622 
 ASP623  PHE694  ASN695  SER759  ASP760  ASP761  ALA762  ILE779  LEU786  VAL792 
 PHE793  MET794  SER795  GLU796  ALA797  LYS798  CYS799  TRP800  GLU811  SER814 

> <Gold.Protein.RotatedAtoms>
  150.8600  133.7658  159.2995 H   0  0  0  0  0  0  0  0  0  0  0  0  # atno 6907 bound_to 6896
  151.5303  135.1066  159.9910 H   0  0  0  0  0  0  0  0  0  0  0  0  # atno 6908 bound_to 6896
  152.4619  133.7796  159.6899 H   0  0  0  0  0  0  0  0  0  0  0  0  # atno 6909 bound_to 6896
  145.1006  139.3521  143.4814 H   0  0  0  0  0  0  0  0  0  0  0  0  # atno 7974 bound_to 7965
  155.1852  140.0411  157.2890 H   0  0  0  0  0  0  0  0  0  0  0  0  # atno 8008 bound_to 7997
  154.6176  140.2492  155.7561 H   0  0  0  0  0  0  0  0  0  0  0  0  # atno 8009 bound_to 7997
  156.2415  140.2901  156.0469 H   0  0  0  0  0  0  0  0  0  0  0  0  # atno 8010 bound_to 7997
  139.5359  144.6681  151.4789 H   0  0  0  0  0  0  0  0  0  0  0  0  # atno 10167 bound_to 10162
  156.2528  130.7163  151.1069 H   0  0  0  0  0  0  0  0  0  0  0  0  # atno 10718 bound_to 10713
  154.0393  135.2891  155.3357 H   0  0  0  0  0  0  0  0  0  0  0  0  # atno 10763 bound_to 10752
  154.6939  135.5215  153.8434 H   0  0  0  0  0  0  0  0  0  0  0  0  # atno 10764 bound_to 10752
  153.0607  135.6612  154.0599 H   0  0  0  0  0  0  0  0  0  0  0  0  # atno 10765 bound_to 10752
  141.1551  133.6761  156.6582 H   0  0  0  0  0  0  0  0  0  0  0  0  # atno 11005 bound_to 11000
  146.3530  140.0881  142.8614 LP  0  0  0  0  0  0  0  0  0  0  0  0  # atno 17320 bound_to 7965
  145.0960  140.9315  143.4741 LP  0  0  0  0  0  0  0  0  0  0  0  0  # atno 17321 bound_to 7965
  140.6564  143.8590  150.6840 LP  0  0  0  0  0  0  0  0  0  0  0  0  # atno 17342 bound_to 10162
  140.1970  143.3990  152.1820 LP  0  0  0  0  0  0  0  0  0  0  0  0  # atno 17343 bound_to 10162
  157.7221  131.0675  150.6091 LP  0  0  0  0  0  0  0  0  0  0  0  0  # atno 17370 bound_to 10713
  156.6173  130.4396  149.5836 LP  0  0  0  0  0  0  0  0  0  0  0  0  # atno 17371 bound_to 10713
  140.3268  134.7962  157.4295 LP  0  0  0  0  0  0  0  0  0  0  0  0  # atno 17394 bound_to 11000
  140.1050  134.5421  155.8317 LP  0  0  0  0  0  0  0  0  0  0  0  0  # atno 17395 bound_to 11000

$$$$
