#       Name:                AV-unprocessed.smi:1430
#       Creating user name   scv26
#       Creation time:       Fri Mar 27 05:48:38 2020


#       File generated by GOLD software.
#

@<TRIPOS>MOLECULE
AV-unprocessed.smi:1430
    54    55     1
SMALL
NO_CHARGES


@<TRIPOS>ATOM
      1 ****        -6.5877   3.4744   1.3796 C.3            1 S1                 0.0000
      2 ****        -5.4225   3.7778   0.6210 O.3            1 S1                 0.0000
      3 ****        -4.2643   3.0779   0.8905 C.ar           1 S1                 0.0000
      4 ****        -3.1073   3.3768   0.1443 C.ar           1 S1                 0.0000
      5 ****        -1.9208   2.6677   0.4123 C.ar           1 S1                 0.0000
      6 ****        -1.9268   1.6823   1.4285 C.ar           1 S1                 0.0000
      7 ****        -0.8036   0.8864   1.7831 N.am           1 S1                 0.0000
      8 ****         0.4979   1.1164   1.5403 C.2            1 S1                 0.0000
      9 ****         0.9557   2.1139   0.9848 O.2            1 S1                 0.0000
     10 ****         1.2602   0.1095   1.9898 N.am           1 S1                 0.0000
     11 ****         2.7177   0.0437   1.8948 C.3            1 S1                 0.0000
     12 ****         3.2406  -0.0588   0.4440 C.3            1 S1                 0.0000
     13 ****         2.4501  -0.9918  -0.3976 N.4            1 S1                 1.0000
     14 ****         2.6557  -0.7776  -1.8474 C.3            1 S1                 0.0000
     15 ****         1.7032  -1.6759  -2.6566 C.3            1 S1                 0.0000
     16 ****         1.9417  -1.5538  -4.1655 C.3            1 S1                 0.0000
     17 ****         1.9049  -3.0382  -2.2872 O.3            1 S1                 0.0000
     18 ****         1.7287  -3.3195  -0.8979 C.3            1 S1                 0.0000
     19 ****         0.2513  -3.2533  -0.4709 C.3            1 S1                 0.0000
     20 ****         2.6498  -2.4191  -0.0524 C.3            1 S1                 0.0000
     21 ****        -3.1406   1.4503   2.1082 C.ar           1 S1                 0.0000
     22 ****        -4.2811   2.1262   1.8563 N.ar           1 S1                 0.0000
     23 ****        -7.4096   4.1086   1.0476 H              1 S1                 0.0000
     24 ****        -6.4321   3.6643   2.4425 H              1 S1                 0.0000
     25 ****        -6.8949   2.4368   1.2416 H              1 S1                 0.0000
     26 ****        -3.1305   4.1354  -0.6241 H              1 S1                 0.0000
     27 ****        -1.0425   2.8854  -0.1747 H              1 S1                 0.0000
     28 ****        -1.0158   0.0618   2.3258 H              1 S1                 0.0000
     29 ****         0.8004  -0.6641   2.4478 H              1 S1                 0.0000
     30 ****         3.1590   0.9085   2.3926 H              1 S1                 0.0000
     31 ****         3.0417  -0.8276   2.4640 H              1 S1                 0.0000
     32 ****         3.1946   0.9352  -0.0026 H              1 S1                 0.0000
     33 ****         4.2938  -0.3432   0.4357 H              1 S1                 0.0000
     34 ****         2.4691   0.2681  -2.0959 H              1 S1                 0.0000
     35 ****         3.6949  -0.9891  -2.1051 H              1 S1                 0.0000
     36 ****         0.6707  -1.3895  -2.4544 H              1 S1                 0.0000
     37 ****         1.7937  -0.5282  -4.5049 H              1 S1                 0.0000
     38 ****         1.2525  -2.1893  -4.7222 H              1 S1                 0.0000
     39 ****         2.9568  -1.8507  -4.4308 H              1 S1                 0.0000
     40 ****         2.0516  -4.3512  -0.7554 H              1 S1                 0.0000
     41 ****         0.1311  -3.5988   0.5562 H              1 S1                 0.0000
     42 ****        -0.3654  -3.8900  -1.1055 H              1 S1                 0.0000
     43 ****        -0.1505  -2.2414  -0.5195 H              1 S1                 0.0000
     44 ****         3.6924  -2.6865  -0.2315 H              1 S1                 0.0000
     45 ****         2.4588  -2.5894   1.0072 H              1 S1                 0.0000
     46 ****        -3.2001   0.6995   2.8827 H              1 S1                 0.0000
     47 ****         1.4795  -0.7779  -0.2175 H              1 S1                 0.0000
     48 ****        -5.2219   4.7472   0.7620 LP             1 S1                 0.0000
     49 ****        -5.6464   3.6201  -0.3408 LP             1 S1                 0.0000
     50 ****         0.3413   2.8383   0.6721 LP             1 S1                 0.0000
     51 ****         1.9422   2.2003   0.8458 LP             1 S1                 0.0000
     52 ****         2.8384  -3.2930  -2.5394 LP             1 S1                 0.0000
     53 ****         1.2559  -3.5985  -2.8019 LP             1 S1                 0.0000
     54 ****        -5.1172   1.9302   2.3687 LP             1 S1                 0.0000
@<TRIPOS>BOND
    1    1    2 1     
    2    1   23 1     
    3    1   24 1     
    4    1   25 1     
    5    2    3 1     
    6    3   22 ar    
    7    3    4 ar    
    8    4    5 ar    
    9    4   26 1     
   10    5    6 ar    
   11    5   27 1     
   12    6    7 1     
   13    6   21 ar    
   14    7    8 am    
   15    7   28 1     
   16    8    9 2     
   17    8   10 am    
   18   10   11 1     
   19   10   29 1     
   20   11   12 1     
   21   11   30 1     
   22   11   31 1     
   23   12   13 1     
   24   12   32 1     
   25   12   33 1     
   26   13   20 1     
   27   13   14 1     
   28   13   47 1     
   29   14   15 1     
   30   14   34 1     
   31   14   35 1     
   32   15   16 1     
   33   15   17 1     
   34   15   36 1     
   35   16   37 1     
   36   16   38 1     
   37   16   39 1     
   38   17   18 1     
   39   18   19 1     
   40   18   20 1     
   41   18   40 1     
   42   19   41 1     
   43   19   42 1     
   44   19   43 1     
   45   20   44 1     
   46   20   45 1     
   47   21   22 ar    
   48   21   46 1     
   49    2   48 1     
   50    2   49 1     
   51    9   50 1     
   52    9   51 1     
   53   17   52 1     
   54   17   53 1     
   55   22   54 1     
@<TRIPOS>SUBSTRUCTURE
      1 S1             1
@<TRIPOS>SET
LONE_PAIRS      STATIC     ATOMS    <user>   **** ""
7 48 49 50 51 52 53 54
DONOR_HYDROGENS      STATIC     ATOMS    <user>   **** ""
3 28 29 47
ATOM$BLUE        STATIC     ATOMS    COLORGROUP SYSTEM
7 48 49 50 51 52 53 54
ATOM$RED        STATIC     ATOMS    COLORGROUP SYSTEM
3 28 29 47
