AV-unprocessed.smi:276|AV-procd|sdf|2075|dock4
  -GOLD-   2262021333D 1   1.00000     0.00000
 Structure written by MMmdl.
 57 61  0  0  0  0  0  0  0  0  1 V2000
  145.4233  132.0785  161.8207 C   0  0  0  0  0  0  0  0  0  0  0  0
  145.2377  133.4809  161.7455 O   0  0  0  0  0  0  0  0  0  0  0  0
  146.2593  134.2106  162.4111 C   0  0  1  0  0  0  0  0  0  0  0  0
  147.6631  133.6413  162.1521 C   0  0  0  0  0  0  0  0  0  0  0  0
  147.7889  134.5769  160.9331 C   0  0  1  0  0  0  0  0  0  0  0  0
  147.4004  133.8952  159.6902 N   0  0  0  0  0  0  0  0  0  0  0  0
  148.2217  132.7525  159.3036 C   0  0  0  0  0  0  0  0  0  0  0  0
  147.2033  134.6984  158.6225 C   0  0  0  0  0  0  0  0  0  0  0  0
  147.6199  135.9842  158.7316 N   0  0  0  0  0  0  0  0  0  0  0  0
  147.4617  136.8262  157.7060 C   0  0  0  0  0  0  0  0  0  0  0  0
  146.9130  136.5940  156.5115 N   0  0  0  0  0  0  0  0  0  0  0  0
  146.4765  135.3059  156.4082 C   0  0  0  0  0  0  0  0  0  0  0  0
  146.5792  134.2980  157.4072 C   0  0  0  0  0  0  0  0  0  0  0  0
  146.0213  133.1124  156.9438 N   0  0  0  0  0  0  0  0  0  0  0  0
  145.6113  133.4033  155.7396 C   0  0  0  0  0  0  0  0  0  0  0  0
  145.8371  134.7014  155.3409 N   0  0  0  0  0  0  0  0  0  0  0  0
  145.4763  135.2947  154.0662 C   0  0  0  0  0  0  0  0  0  0  0  0
  146.1962  134.6480  152.8625 C   0  0  1  0  0  0  0  0  0  0  0  0
  147.5302  134.4025  153.2616 O   0  0  0  0  0  0  0  0  0  0  0  0
  145.5665  133.3272  152.3617 C   0  0  2  0  0  0  0  0  0  0  0  0
  146.2775  132.7146  151.1503 C   0  0  0  0  0  0  0  0  0  0  0  0
  145.1708  131.9205  150.4972 C   0  0  0  0  0  0  0  0  0  0  0  0
  143.9827  132.8529  150.6885 C   0  0  0  0  0  0  0  0  0  0  0  0
  144.2240  133.5295  151.9175 O   0  0  0  0  0  0  0  0  0  0  0  0
  146.6895  135.4459  161.6012 C   0  0  0  0  0  0  0  0  0  0  0  0
  147.0957  136.7119  162.3762 C   0  0  0  0  0  0  0  0  0  0  0  0
  145.7099  137.2844  162.0688 C   0  0  0  0  0  0  0  0  0  0  0  0
  145.6621  136.3352  160.8708 C   0  0  0  0  0  0  0  0  0  0  0  0
  144.6149  131.5750  161.2909 H   0  0  0  0  0  0  0  0  0  0  0  0
  145.4107  131.7368  162.8563 H   0  0  0  0  0  0  0  0  0  0  0  0
  146.3649  131.7744  161.3631 H   0  0  0  0  0  0  0  0  0  0  0  0
  146.0357  134.4242  163.4577 H   0  0  0  0  0  0  0  0  0  0  0  0
  148.3655  133.9036  162.9448 H   0  0  0  0  0  0  0  0  0  0  0  0
  147.6953  132.5716  161.9484 H   0  0  0  0  0  0  0  0  0  0  0  0
  148.7624  135.0654  160.8865 H   0  0  0  0  0  0  0  0  0  0  0  0
  148.0600  132.4645  158.2634 H   0  0  0  0  0  0  0  0  0  0  0  0
  147.9829  131.8851  159.9178 H   0  0  0  0  0  0  0  0  0  0  0  0
  149.2809  132.9793  159.4308 H   0  0  0  0  0  0  0  0  0  0  0  0
  147.8263  137.8301  157.8660 H   0  0  0  0  0  0  0  0  0  0  0  0
  145.1199  132.6763  155.1097 H   0  0  0  0  0  0  0  0  0  0  0  0
  144.3952  135.2076  153.9492 H   0  0  0  0  0  0  0  0  0  0  0  0
  145.6996  136.3617  154.1095 H   0  0  0  0  0  0  0  0  0  0  0  0
  146.2312  135.3595  152.0369 H   0  0  0  0  0  0  0  0  0  0  0  0
  148.0738  135.1045  152.9382 H   0  0  0  0  0  0  0  0  0  0  0  0
  145.5412  132.5921  153.1677 H   0  0  0  0  0  0  0  0  0  0  0  0
  146.6217  133.4956  150.4705 H   0  0  0  0  0  0  0  0  0  0  0  0
  147.1357  132.1011  151.4263 H   0  0  0  0  0  0  0  0  0  0  0  0
  145.3669  131.6878  149.4502 H   0  0  0  0  0  0  0  0  0  0  0  0
  145.0093  130.9851  151.0349 H   0  0  0  0  0  0  0  0  0  0  0  0
  143.9458  133.5927  149.8878 H   0  0  0  0  0  0  0  0  0  0  0  0
  143.0310  132.3215  150.7051 H   0  0  0  0  0  0  0  0  0  0  0  0
  147.3028  136.5610  163.4360 H   0  0  0  0  0  0  0  0  0  0  0  0
  147.8978  137.2667  161.8862 H   0  0  0  0  0  0  0  0  0  0  0  0
  144.9695  137.0392  162.8322 H   0  0  0  0  0  0  0  0  0  0  0  0
  145.6973  138.3445  161.8142 H   0  0  0  0  0  0  0  0  0  0  0  0
  146.0516  136.8142  159.9724 H   0  0  0  0  0  0  0  0  0  0  0  0
  144.6909  135.8742  160.6904 H   0  0  0  0  0  0  0  0  0  0  0  0
  1  2  1  0  0  0  0
  1 29  1  0  0  0  0
  1 30  1  0  0  0  0
  1 31  1  0  0  0  0
  2  3  1  0  0  0  0
  3 25  1  0  0  0  0
  3  4  1  0  0  0  0
  3 32  1  0  0  0  0
  4  5  1  0  0  0  0
  4 33  1  0  0  0  0
  4 34  1  0  0  0  0
  5  6  1  0  0  0  0
  5 25  1  0  0  0  0
  5 35  1  0  0  0  0
  6  7  1  0  0  0  0
  6  8  1  0  0  0  0
  7 36  1  0  0  0  0
  7 37  1  0  0  0  0
  7 38  1  0  0  0  0
  8 13  1  0  0  0  0
  8  9  2  0  0  0  0
  9 10  1  0  0  0  0
 10 11  2  0  0  0  0
 10 39  1  0  0  0  0
 11 12  1  0  0  0  0
 12 16  1  0  0  0  0
 12 13  2  0  0  0  0
 13 14  1  0  0  0  0
 14 15  2  0  0  0  0
 15 16  1  0  0  0  0
 15 40  1  0  0  0  0
 16 17  1  0  0  0  0
 17 18  1  0  0  0  0
 17 41  1  0  0  0  0
 17 42  1  0  0  0  0
 18 19  1  0  0  0  0
 18 20  1  0  0  0  0
 18 43  1  0  0  0  0
 19 44  1  0  0  0  0
 20 24  1  0  0  0  0
 20 21  1  0  0  0  0
 20 45  1  0  0  0  0
 21 22  1  0  0  0  0
 21 46  1  0  0  0  0
 21 47  1  0  0  0  0
 22 23  1  0  0  0  0
 22 48  1  0  0  0  0
 22 49  1  0  0  0  0
 23 24  1  0  0  0  0
 23 50  1  0  0  0  0
 23 51  1  0  0  0  0
 25 28  1  0  0  0  0
 25 26  1  0  0  0  0
 26 27  1  0  0  0  0
 26 52  1  0  0  0  0
 26 53  1  0  0  0  0
 27 28  1  0  0  0  0
 27 54  1  0  0  0  0
 27 55  1  0  0  0  0
 28 56  1  0  0  0  0
 28 57  1  0  0  0  0
M  END
> <s_m_source_file>
AV-unprocessed.smi

> <i_m_source_file_index>
276

> <i_lp_mmshare_version>
43012

> <i_f3d_flags>
0

> <s_epik_input>
W0NIMl0xW0NIMl1bQ0gyXUMxMltDQEhdKE9bQ0gzXSlbQ0gyXVtDQEhdMk4oW0NIM10pYyhuW2NIXW4zKWMoYzM0KW5bY0hdbjRbQ0gyXVtDQEhdKFtPSF0pW0NAQEhdNVtDSDJdW0NIMl1bQ0gyXU81

> <s_epik_cmdline>
J2VwaWtfcHl0aG9uJywgJy1waCcsICc3LjAnLCAnLXRuJywgJzgnLCAnLW1hJywgJzIwMCcsICctbWV0YWxfYmluZGluZycsICctaW1hZScsICc8aW5maWxlLm1hZT4nLCAnLW9tYWUnLCAnPG91dGZpbGUubWFlPic=

> <r_lp_tautomer_probability>
1

> <r_epik_Ionization_Penalty>
0.00204117

> <r_epik_Ionization_Penalty_Charging>
0

> <r_epik_Ionization_Penalty_Neutral>
0.00204117

> <r_epik_State_Penalty>
0.00127401

> <r_epik_Charging_Adjusted_Penalty>
0.00127401

> <i_epik_Tot_Q>
0

> <i_epik_Tot_abs_Q>
0

> <r_epik_Metal_State_Penalty>
-0

> <b_epik_Metal_Only>
0

> <s_lp_Force_Field>
OPLS_2005

> <r_lp_Energy>
56.2402

> <b_lp_Chiralities_Consistent>
1

> <s_lp_Variant>
AV-unprocessed.smi:276-6

> <Gold.Version>
5.8.1

> <Gold.Id.Protein>
6NUR|6NUR_protein|mol2

> <Gold.PLP.Fitness>
39.4325

> <Gold.PLP.PLP>
-34.4524

> <Gold.PLP.part.hbond>
-1.0000

> <Gold.PLP.part.metal>
0.0000

> <Gold.PLP.part.buried>
-6.7617

> <Gold.PLP.part.nonpolar>
-27.7037

> <Gold.PLP.part.repulsive>
0.2311

> <Gold.PLP.ligand.clash>
0.0000

> <Gold.PLP.ligand.torsion>
0.8785

> <Gold.PLP.Chemscore.Hbond>
1.0000

> <Gold.PLP.Chemscore.CHOScore>
0.9827

> <Gold.PLP.Chemscore.Metal>
0.0000

> <Gold.Chemscore.Hbonds>
donor molecule, donor type, donor heavy atom, donor atom, acceptor molecule, acceptor atom, score
      L1  H    19    44       P1  7948  1.00
      L1  C    15    40       P1 10957  0.79

> <Gold.PLP.Chemscore.Internal.Correction>
0.7892

> <Gold.Rescore>
     Score         DG    S(hbond)    S(metal)    S(lipo)     H(rot)  DE(clash)    DE(int)     intcor
     11.99     -12.90       0.99        0.00      94.69       2.72       0.00       0.91       ----

> <Gold.Chemscore.Fitness>
11.9930

> <Gold.Chemscore.DG>
-12.9045

> <Gold.Chemscore.ZeroCoef>
-5.4800

> <Gold.Chemscore.Hbond>
0.9887

> <Gold.Chemscore.Metal>
0.0000

> <Gold.Chemscore.Lipo>
94.6859

> <Gold.Chemscore.Internal_Hbond>
0.0000

> <Gold.Chemscore.DEClash>
0.0000

> <Gold.Chemscore.DEInternal>
0.9115

> <Gold.Chemscore.Rot>
2.7172

> <Gold.Chemscore.Internal.Correction>
   9.000000E+99

> <Gold.Chemscore.Hbonds>
donor molecule, donor type, donor heavy atom, donor atom, acceptor molecule, acceptor atom, score
      L1  H    19    44       P1  7948  0.97

> <Gold.Chemscore.Hbond.Weighted>
-3.3023

> <Gold.Chemscore.Metal.Weighted>
-0.0000

> <Gold.Chemscore.Lipo.Weighted>
-11.0782

> <Gold.Chemscore.Internal_Hbond.Weighted>
0.0000

> <Gold.Chemscore.DEClash.Weighted>
0.0000

> <Gold.Chemscore.DEInternal.Weighted>
0.9115

> <Gold.Chemscore.Rot.Weighted>
6.9560

> <Gold.Chemscore.Internal.Correction.Weighted>
   9.000000E+99

> <Gold.Protein.RotatedTorsions>
[ 6907 6896 6895 6894 ] final  154.89 input  -60.11 | X-H torsion
[ 7974 7965 7964 7962 ] final  -40.66 input  175.53 | X-H torsion
[ 8008 7997 7996 7995 ] final  -86.73 input   59.86 | X-H torsion
[ 10167 10162 10161 10158 ] final   84.96 input  -65.29 | X-H torsion
[ 10718 10713 10712 10709 ] final  -28.94 input   66.30 | X-H torsion
[ 10763 10752 10751 10750 ] final   41.39 input  -60.55 | X-H torsion
[ 11005 11000 10999 10996 ] final  -19.75 input  -57.11 | X-H torsion

> <Gold.Protein.ActiveResidues>
 VAL166  LYS551  ARG553  GLY616  TRP617  ASP618  TYR619  PRO620  LYS621  CYS622 
 ASP623  PHE694  ASN695  SER759  ASP760  ASP761  ALA762  ILE779  LEU786  VAL792 
 PHE793  MET794  SER795  GLU796  ALA797  LYS798  CYS799  TRP800  GLU811  SER814 

> <Gold.Protein.RotatedAtoms>
  152.0520  133.4023  159.4380 H   0  0  0  0  0  0  0  0  0  0  0  0  # atno 6907 bound_to 6896
  150.6870  134.3297  159.4831 H   0  0  0  0  0  0  0  0  0  0  0  0  # atno 6908 bound_to 6896
  152.1108  134.9275  160.0617 H   0  0  0  0  0  0  0  0  0  0  0  0  # atno 6909 bound_to 6896
  146.0284  140.6763  142.9145 H   0  0  0  0  0  0  0  0  0  0  0  0  # atno 7974 bound_to 7965
  154.6552  140.0575  157.0000 H   0  0  0  0  0  0  0  0  0  0  0  0  # atno 8008 bound_to 7997
  155.1311  140.3256  155.4455 H   0  0  0  0  0  0  0  0  0  0  0  0  # atno 8009 bound_to 7997
  156.2594  140.1980  156.6430 H   0  0  0  0  0  0  0  0  0  0  0  0  # atno 8010 bound_to 7997
  139.9026  144.6320  150.8620 H   0  0  0  0  0  0  0  0  0  0  0  0  # atno 10167 bound_to 10162
  156.4188  130.4422  149.7199 H   0  0  0  0  0  0  0  0  0  0  0  0  # atno 10718 bound_to 10713
  152.9909  135.6163  154.2779 H   0  0  0  0  0  0  0  0  0  0  0  0  # atno 10763 bound_to 10752
  154.2510  135.2785  155.2818 H   0  0  0  0  0  0  0  0  0  0  0  0  # atno 10764 bound_to 10752
  154.5288  135.5794  153.6799 H   0  0  0  0  0  0  0  0  0  0  0  0  # atno 10765 bound_to 10752
  140.8398  133.7935  155.9848 H   0  0  0  0  0  0  0  0  0  0  0  0  # atno 11005 bound_to 11000
  144.7019  140.3690  143.7149 LP  0  0  0  0  0  0  0  0  0  0  0  0  # atno 17320 bound_to 7965
  145.7081  139.1678  143.2554 LP  0  0  0  0  0  0  0  0  0  0  0  0  # atno 17321 bound_to 7965
  140.7703  143.3425  151.2179 LP  0  0  0  0  0  0  0  0  0  0  0  0  # atno 17342 bound_to 10162
  139.7011  143.9531  152.2906 LP  0  0  0  0  0  0  0  0  0  0  0  0  # atno 17343 bound_to 10162
  156.4148  130.7740  151.2754 LP  0  0  0  0  0  0  0  0  0  0  0  0  # atno 17370 bound_to 10713
  157.7508  131.0200  150.3693 LP  0  0  0  0  0  0  0  0  0  0  0  0  # atno 17371 bound_to 10713
  140.8908  134.2498  157.5095 LP  0  0  0  0  0  0  0  0  0  0  0  0  # atno 17394 bound_to 11000
  139.8703  134.9660  156.4549 LP  0  0  0  0  0  0  0  0  0  0  0  0  # atno 17395 bound_to 11000

$$$$
