#       Name:                AV-unprocessed.smi:1213
#       Creating user name   scv26
#       Creation time:       Fri Mar 27 04:13:39 2020


#       File generated by GOLD software.
#

@<TRIPOS>MOLECULE
AV-unprocessed.smi:1213
    42    43     1
SMALL
NO_CHARGES


@<TRIPOS>ATOM
      1 ****        -5.5192   2.5364   0.1198 N.am           1 S1                 0.0000
      2 ****        -4.6815   2.2259  -0.8725 C.2            1 S1                 0.0000
      3 ****        -4.3931   3.0233  -1.7625 O.2            1 S1                 0.0000
      4 ****        -4.0728   0.8185  -0.8615 C.3            1 S1                 0.0000
      5 ****        -2.5951   0.7911  -0.7748 N.3            1 S1                 0.0000
      6 ****        -2.1298  -0.5936  -0.9058 C.3            1 S1                 0.0000
      7 ****        -0.5931  -0.6484  -0.9516 C.3            1 S1                 0.0000
      8 ****         0.0209  -0.0170   0.3082 C.3            1 S1                 0.0000
      9 ****         1.4755   0.0462   0.2034 N.am           1 S1                 0.0000
     10 ****         2.3135  -0.9687   0.4597 C.2            1 S1                 0.0000
     11 ****         1.9388  -2.0841   0.8235 O.2            1 S1                 0.0000
     12 ****         3.5925  -0.6032   0.2636 N.am           1 S1                 0.0000
     13 ****         4.7649  -1.3866   0.4272 C.2            1 S1                 0.0000
     14 ****         4.7697  -2.6675   0.8148 N.2            1 S1                 0.0000
     15 ****         6.0643  -3.1872   0.8917 C.2            1 S1                 0.0000
     16 ****         7.0401  -2.2818   0.5569 C.2            1 S1                 0.0000
     17 ****         6.3681  -0.7314   0.1280 S.3            1 S1                 0.0000
     18 ****        -0.5531   1.3959   0.4845 C.3            1 S1                 0.0000
     19 ****        -2.0921   1.3800   0.4751 C.3            1 S1                 0.0000
     20 ****        -5.9391   3.4541   0.1505 H              1 S1                 0.0000
     21 ****        -5.7278   1.8562   0.8361 H              1 S1                 0.0000
     22 ****        -4.5002   0.2368  -0.0422 H              1 S1                 0.0000
     23 ****        -4.3899   0.3301  -1.7840 H              1 S1                 0.0000
     24 ****        -2.5048  -1.2010  -0.0800 H              1 S1                 0.0000
     25 ****        -2.5234  -1.0310  -1.8245 H              1 S1                 0.0000
     26 ****        -0.2671  -1.6843  -1.0514 H              1 S1                 0.0000
     27 ****        -0.2381  -0.1260  -1.8415 H              1 S1                 0.0000
     28 ****        -0.2539  -0.6131   1.1808 H              1 S1                 0.0000
     29 ****         1.8708   0.9265  -0.0930 H              1 S1                 0.0000
     30 ****         3.7459   0.3476  -0.0376 H              1 S1                 0.0000
     31 ****         6.2006  -4.2146   1.1956 H              1 S1                 0.0000
     32 ****         8.1092  -2.4326   0.5371 H              1 S1                 0.0000
     33 ****        -0.1956   1.8300   1.4189 H              1 S1                 0.0000
     34 ****        -0.1953   2.0469  -0.3148 H              1 S1                 0.0000
     35 ****        -2.4392   2.4067   0.5899 H              1 S1                 0.0000
     36 ****        -2.4705   0.8214   1.3331 H              1 S1                 0.0000
     37 ****        -4.7902   3.9410  -1.7595 LP             1 S1                 0.0000
     38 ****        -3.7614   2.7541  -2.4895 LP             1 S1                 0.0000
     39 ****        -2.2347   1.3497  -1.5218 LP             1 S1                 0.0000
     40 ****         0.9634  -2.2699   0.9419 LP             1 S1                 0.0000
     41 ****         2.6100  -2.8040   1.0004 LP             1 S1                 0.0000
     42 ****         3.9439  -3.1910   1.0247 LP             1 S1                 0.0000
@<TRIPOS>BOND
    1    1    2 am    
    2    1   20 1     
    3    1   21 1     
    4    2    3 2     
    5    2    4 1     
    6    4    5 1     
    7    4   22 1     
    8    4   23 1     
    9    5   19 1     
   10    5    6 1     
   11    6    7 1     
   12    6   24 1     
   13    6   25 1     
   14    7    8 1     
   15    7   26 1     
   16    7   27 1     
   17    8    9 1     
   18    8   18 1     
   19    8   28 1     
   20    9   10 am    
   21    9   29 1     
   22   10   11 2     
   23   10   12 am    
   24   12   13 1     
   25   12   30 1     
   26   13   17 1     
   27   13   14 2     
   28   14   15 1     
   29   15   16 2     
   30   15   31 1     
   31   16   17 1     
   32   16   32 1     
   33   18   19 1     
   34   18   33 1     
   35   18   34 1     
   36   19   35 1     
   37   19   36 1     
   38    3   37 1     
   39    3   38 1     
   40    5   39 1     
   41   11   40 1     
   42   11   41 1     
   43   14   42 1     
@<TRIPOS>SUBSTRUCTURE
      1 S1             1
@<TRIPOS>SET
LONE_PAIRS      STATIC     ATOMS    <user>   **** ""
6 37 38 39 40 41 42
DONOR_HYDROGENS      STATIC     ATOMS    <user>   **** ""
4 20 21 29 30
ATOM$BLUE        STATIC     ATOMS    COLORGROUP SYSTEM
6 37 38 39 40 41 42
ATOM$RED        STATIC     ATOMS    COLORGROUP SYSTEM
4 20 21 29 30
