#       Name:                AV-unprocessed.smi:1429
#       Creating user name   scv26
#       Creation time:       Fri Mar 27 05:47:41 2020


#       File generated by GOLD software.
#

@<TRIPOS>MOLECULE
AV-unprocessed.smi:1429
    36    37     1
SMALL
NO_CHARGES


@<TRIPOS>ATOM
      1 ****        -6.5690   2.1899   0.2783 C.3            1 S1                 0.0000
      2 ****        -5.2540   1.4884   0.2779 C.2            1 S1                 0.0000
      3 ****        -5.1385   0.1597   0.2713 N.2            1 S1                 0.0000
      4 ****        -3.8133  -0.2472   0.2732 N.2            1 S1                 0.0000
      5 ****        -2.9351   0.7732   0.2812 C.2            1 S1                 0.0000
      6 ****        -1.5867   0.6713   0.2829 N.pl3          1 S1                -1.0000
      7 ****        -0.8839  -0.4903   0.2855 C.2            1 S1                 0.0000
      8 ****        -1.3307  -1.6391   0.2883 O.2            1 S1                 0.0000
      9 ****         0.4427  -0.3029   0.2847 N.am           1 S1                 0.0000
     10 ****         1.4424  -1.3639   0.2872 C.3            1 S1                 0.0000
     11 ****         2.8647  -0.7809   0.2669 C.3            1 S1                 0.0000
     12 ****         3.2081   0.0126  -0.9787 C.3            1 S1                 0.0000
     13 ****         4.7331   0.0231  -0.9347 C.3            1 S1                 0.0000
     14 ****         5.1147  -1.1918  -0.2949 O.3            1 S1                 0.0000
     15 ****         3.9688  -1.8371   0.2531 C.3            1 S1                 0.0000
     16 ****        -3.7264   2.3495   0.2869 S.3            1 S1                 0.0000
     17 ****        -7.3890   1.4711   0.2788 H              1 S1                 0.0000
     18 ****        -6.6560   2.8187  -0.6078 H              1 S1                 0.0000
     19 ****        -6.6549   2.8184   1.1648 H              1 S1                 0.0000
     20 ****         0.7806   0.6482   0.2813 H              1 S1                 0.0000
     21 ****         1.3084  -1.9797   1.1777 H              1 S1                 0.0000
     22 ****         1.2855  -2.0116  -0.5770 H              1 S1                 0.0000
     23 ****         3.0074  -0.1415   1.1400 H              1 S1                 0.0000
     24 ****         2.8629  -0.5119  -1.8710 H              1 S1                 0.0000
     25 ****         2.7777   1.0143  -0.9839 H              1 S1                 0.0000
     26 ****         5.1771   0.1086  -1.9268 H              1 S1                 0.0000
     27 ****         5.0902   0.8586  -0.3314 H              1 S1                 0.0000
     28 ****         4.1744  -2.2390   1.2456 H              1 S1                 0.0000
     29 ****         3.6996  -2.6694  -0.3987 H              1 S1                 0.0000
     30 ****        -5.9162  -0.4689   0.2656 LP             1 S1                 0.0000
     31 ****        -3.5359  -1.2079   0.2690 LP             1 S1                 0.0000
     32 ****        -1.0631   1.5233   0.2822 LP             1 S1                 0.0000
     33 ****        -2.3191  -1.7912   0.2888 LP             1 S1                 0.0000
     34 ****        -0.7048  -2.4190   0.2900 LP             1 S1                 0.0000
     35 ****         5.7631  -0.9896   0.4390 LP             1 S1                 0.0000
     36 ****         5.5465  -1.7966  -0.9641 LP             1 S1                 0.0000
@<TRIPOS>BOND
    1    1    2 1     
    2    1   17 1     
    3    1   18 1     
    4    1   19 1     
    5    2   16 1     
    6    2    3 2     
    7    3    4 1     
    8    4    5 2     
    9    5    6 1     
   10    5   16 1     
   11    6    7 1     
   12    7    8 2     
   13    7    9 am    
   14    9   10 1     
   15    9   20 1     
   16   10   11 1     
   17   10   21 1     
   18   10   22 1     
   19   11   15 1     
   20   11   12 1     
   21   11   23 1     
   22   12   13 1     
   23   12   24 1     
   24   12   25 1     
   25   13   14 1     
   26   13   26 1     
   27   13   27 1     
   28   14   15 1     
   29   15   28 1     
   30   15   29 1     
   31    3   30 1     
   32    4   31 1     
   33    6   32 1     
   34    8   33 1     
   35    8   34 1     
   36   14   35 1     
   37   14   36 1     
@<TRIPOS>SUBSTRUCTURE
      1 S1             1
@<TRIPOS>SET
LONE_PAIRS      STATIC     ATOMS    <user>   **** ""
7 30 31 32 33 34 35 36
DONOR_HYDROGENS      STATIC     ATOMS    <user>   **** ""
1 20
ATOM$BLUE        STATIC     ATOMS    COLORGROUP SYSTEM
7 30 31 32 33 34 35 36
ATOM$RED        STATIC     ATOMS    COLORGROUP SYSTEM
1 20
