AV-unprocessed.smi:2191|AV-procd|sdf|8894|dock5
  -GOLD-   2272012103D 1   1.00000     0.00000
 Structure written by MMmdl.
 37 39  0  0  0  0  0  0  0  0  2 V2000
  152.3988  137.4036  154.3940 O   0  0  0  0  0  0  0  0  0  0  0  0
  152.4450  138.7282  154.8874 C   0  0  2  0  0  0  0  0  0  0  0  0
  153.8743  139.0168  155.3736 C   0  0  0  0  0  0  0  0  0  0  0  0
  154.7455  139.0369  154.2505 O   0  0  0  0  0  0  0  0  0  0  0  0
  156.0762  138.7377  154.4504 C   0  0  0  0  0  0  0  0  0  0  0  0
  156.9202  138.7906  153.3215 C   0  0  0  0  0  0  0  0  0  0  0  0
  158.2940  138.5017  153.4335 C   0  0  0  0  0  0  0  0  0  0  0  0
  158.8396  138.1529  154.6827 C   0  0  0  0  0  0  0  0  0  0  0  0
  158.0091  138.0943  155.8172 C   0  0  0  0  0  0  0  0  0  0  0  0
  156.6355  138.3853  155.7052 C   0  0  0  0  0  0  0  0  0  0  0  0
  151.4102  138.8880  156.0188 C   0  0  0  0  0  0  0  0  0  0  0  0
  150.8805  140.2562  156.1181 N   0  0  0  0  0  0  0  0  0  0  0  0
  150.0392  140.9219  155.2812 C   0  0  0  0  0  0  0  0  0  0  0  0
  149.8384  142.1642  155.8012 N   0  3  0  0  0  0  0  0  0  0  0  0
  150.5612  142.2952  156.9887 C   0  0  0  0  0  0  0  0  0  0  0  0
  150.6737  143.3641  157.8726 C   0  0  0  0  0  0  0  0  0  0  0  0
  151.4959  143.1682  159.0015 C   0  0  0  0  0  0  0  0  0  0  0  0
  152.1669  141.9472  159.2181 C   0  0  0  0  0  0  0  0  0  0  0  0
  152.0462  140.8705  158.3152 C   0  0  0  0  0  0  0  0  0  0  0  0
  151.2329  141.0722  157.2000 C   0  0  0  0  0  0  0  0  0  0  0  0
  152.3700  137.4390  153.4496 H   0  0  0  0  0  0  0  0  0  0  0  0
  152.1883  139.4132  154.0781 H   0  0  0  0  0  0  0  0  0  0  0  0
  153.9036  139.9997  155.8470 H   0  0  0  0  0  0  0  0  0  0  0  0
  154.1865  138.2800  156.1162 H   0  0  0  0  0  0  0  0  0  0  0  0
  156.5098  139.0575  152.3585 H   0  0  0  0  0  0  0  0  0  0  0  0
  158.9286  138.5479  152.5607 H   0  0  0  0  0  0  0  0  0  0  0  0
  159.8930  137.9308  154.7706 H   0  0  0  0  0  0  0  0  0  0  0  0
  158.4263  137.8263  156.7767 H   0  0  0  0  0  0  0  0  0  0  0  0
  156.0321  138.3298  156.5982 H   0  0  0  0  0  0  0  0  0  0  0  0
  150.5854  138.1846  155.9045 H   0  0  0  0  0  0  0  0  0  0  0  0
  151.8740  138.6580  156.9787 H   0  0  0  0  0  0  0  0  0  0  0  0
  149.6076  140.5340  154.3700 H   0  0  0  0  0  0  0  0  0  0  0  0
  150.1596  144.3001  157.7100 H   0  0  0  0  0  0  0  0  0  0  0  0
  151.6130  143.9696  159.7166 H   0  0  0  0  0  0  0  0  0  0  0  0
  152.7864  141.8331  160.0957 H   0  0  0  0  0  0  0  0  0  0  0  0
  152.5604  139.9383  158.4961 H   0  0  0  0  0  0  0  0  0  0  0  0
  149.2491  142.8681  155.3752 H   0  0  0  0  0  0  0  0  0  0  0  0
  1  2  1  0  0  0  0
  1 21  1  0  0  0  0
  2  3  1  0  0  0  0
  2 11  1  0  0  0  0
  2 22  1  0  0  0  0
  3  4  1  0  0  0  0
  3 23  1  0  0  0  0
  3 24  1  0  0  0  0
  4  5  1  0  0  0  0
  5 10  1  0  0  0  0
  5  6  2  0  0  0  0
  6  7  1  0  0  0  0
  6 25  1  0  0  0  0
  7  8  2  0  0  0  0
  7 26  1  0  0  0  0
  8  9  1  0  0  0  0
  8 27  1  0  0  0  0
  9 10  2  0  0  0  0
  9 28  1  0  0  0  0
 10 29  1  0  0  0  0
 11 12  1  0  0  0  0
 11 30  1  0  0  0  0
 11 31  1  0  0  0  0
 12 20  1  0  0  0  0
 12 13  1  0  0  0  0
 13 14  2  0  0  0  0
 13 32  1  0  0  0  0
 14 15  1  0  0  0  0
 14 37  1  0  0  0  0
 15 20  2  0  0  0  0
 15 16  1  0  0  0  0
 16 17  2  0  0  0  0
 16 33  1  0  0  0  0
 17 18  1  0  0  0  0
 17 34  1  0  0  0  0
 18 19  2  0  0  0  0
 18 35  1  0  0  0  0
 19 20  1  0  0  0  0
 19 36  1  0  0  0  0
M  CHG  1  14   1
M  END
> <s_m_source_file>
AV-unprocessed.smi

> <i_m_source_file_index>
2191

> <i_lp_mmshare_version>
43012

> <i_f3d_flags>
0

> <s_epik_input>
W2NIXTFbY0hdW2NIXVtjSF1jKGMxMiluKFtjSF1uMilbQ0gyXVtDQEhdKFtPSF0pW0NIMl1PYzNbY0hdW2NIXVtjSF1bY0hdW2NIXTM=

> <s_epik_cmdline>
J2VwaWtfcHl0aG9uJywgJy1waCcsICc3LjAnLCAnLXRuJywgJzgnLCAnLW1hJywgJzIwMCcsICctbWV0YWxfYmluZGluZycsICctaW1hZScsICc8aW5maWxlLm1hZT4nLCAnLW9tYWUnLCAnPG91dGZpbGUubWFlPic=

> <r_lp_tautomer_probability>
1

> <r_epik_Ionization_Penalty>
1.35015

> <r_epik_Ionization_Penalty_Charging>
1.35015

> <r_epik_Ionization_Penalty_Neutral>
2.3993e-06

> <r_epik_State_Penalty>
1.42814

> <r_epik_Charging_Adjusted_Penalty>
2.77829

> <i_epik_Tot_Q>
1

> <i_epik_Tot_abs_Q>
1

> <r_epik_Metal_State_Penalty>
5.46522

> <b_epik_Metal_Only>
0

> <s_lp_Force_Field>
OPLS_2005

> <r_lp_Energy>
21.7284

> <b_lp_Chiralities_Consistent>
1

> <s_lp_Variant>
AV-unprocessed.smi:2191-3

> <Gold.Version>
5.8.1

> <Gold.Id.Protein>
6NUR|6NUR_protein|mol2

> <Gold.PLP.Fitness>
49.1139

> <Gold.PLP.PLP>
-41.5271

> <Gold.PLP.part.hbond>
-3.3891

> <Gold.PLP.part.metal>
0.0000

> <Gold.PLP.part.buried>
0.9120

> <Gold.PLP.part.nonpolar>
-39.7649

> <Gold.PLP.part.repulsive>
0.1099

> <Gold.PLP.ligand.clash>
0.0000

> <Gold.PLP.ligand.torsion>
0.6528

> <Gold.PLP.Chemscore.Hbond>
2.9440

> <Gold.PLP.Chemscore.CHOScore>
0.0000

> <Gold.PLP.Chemscore.Metal>
0.0000

> <Gold.Chemscore.Hbonds>
donor molecule, donor type, donor heavy atom, donor atom, acceptor molecule, acceptor atom, score
      L1  H    14    37       P1  8028  1.47
      P1  H 10752 10765       L1     1  0.14

> <Gold.PLP.Chemscore.Internal.Correction>
0.0604

> <Gold.Rescore>
     Score         DG    S(hbond)    S(metal)    S(lipo)     H(rot)  DE(clash)    DE(int)     intcor
     18.82     -22.36       2.08        0.00     135.40       2.31       2.81       0.73       ----

> <Gold.Chemscore.Fitness>
18.8238

> <Gold.Chemscore.DG>
-22.3633

> <Gold.Chemscore.ZeroCoef>
-5.4800

> <Gold.Chemscore.Hbond>
2.0789

> <Gold.Chemscore.Metal>
0.0000

> <Gold.Chemscore.Lipo>
135.3973

> <Gold.Chemscore.Internal_Hbond>
0.0000

> <Gold.Chemscore.DEClash>
2.8052

> <Gold.Chemscore.DEInternal>
0.7343

> <Gold.Chemscore.Rot>
2.3053

> <Gold.Chemscore.Internal.Correction>
   9.000000E+99

> <Gold.Chemscore.Hbonds>
donor molecule, donor type, donor heavy atom, donor atom, acceptor molecule, acceptor atom, score
      L1  H    14    37       P1  8028  0.74

> <Gold.Chemscore.Hbond.Weighted>
-6.9434

> <Gold.Chemscore.Metal.Weighted>
-0.0000

> <Gold.Chemscore.Lipo.Weighted>
-15.8415

> <Gold.Chemscore.Internal_Hbond.Weighted>
0.0000

> <Gold.Chemscore.DEClash.Weighted>
2.8052

> <Gold.Chemscore.DEInternal.Weighted>
0.7343

> <Gold.Chemscore.Rot.Weighted>
5.9015

> <Gold.Chemscore.Internal.Correction.Weighted>
   9.000000E+99

> <Gold.Protein.RotatedTorsions>
[ 6907 6896 6895 6894 ] final   35.30 input  -60.11 | X-H torsion
[ 7974 7965 7964 7962 ] final -142.02 input  175.53 | X-H torsion
[ 8008 7997 7996 7995 ] final   19.06 input   59.86 | X-H torsion
[ 10167 10162 10161 10158 ] final  -58.57 input  -65.29 | X-H torsion
[ 10718 10713 10712 10709 ] final -102.74 input   66.30 | X-H torsion
[ 10763 10752 10751 10750 ] final  150.92 input  -60.55 | X-H torsion
[ 11005 11000 10999 10996 ] final  161.66 input  -57.11 | X-H torsion

> <Gold.Protein.ActiveResidues>
 VAL166  LYS551  ARG553  GLY616  TRP617  ASP618  TYR619  PRO620  LYS621  CYS622 
 ASP623  PHE694  ASN695  SER759  ASP760  ASP761  ALA762  ILE779  LEU786  VAL792 
 PHE793  MET794  SER795  GLU796  ALA797  LYS798  CYS799  TRP800  GLU811  SER814 

> <Gold.Protein.RotatedAtoms>
  152.1142  134.9252  160.0565 H   0  0  0  0  0  0  0  0  0  0  0  0  # atno 6907 bound_to 6896
  152.0418  133.3976  159.4348 H   0  0  0  0  0  0  0  0  0  0  0  0  # atno 6908 bound_to 6896
  150.6845  134.3327  159.4877 H   0  0  0  0  0  0  0  0  0  0  0  0  # atno 6909 bound_to 6896
  144.8475  140.6009  143.5412 H   0  0  0  0  0  0  0  0  0  0  0  0  # atno 7974 bound_to 7965
  154.9151  140.3019  155.5245 H   0  0  0  0  0  0  0  0  0  0  0  0  # atno 8008 bound_to 7997
  156.3013  140.2382  156.4131 H   0  0  0  0  0  0  0  0  0  0  0  0  # atno 8009 bound_to 7997
  154.8386  140.0415  157.1515 H   0  0  0  0  0  0  0  0  0  0  0  0  # atno 8010 bound_to 7997
  140.6189  143.2412  151.5529 H   0  0  0  0  0  0  0  0  0  0  0  0  # atno 10167 bound_to 10162
  156.0240  130.5434  150.7152 H   0  0  0  0  0  0  0  0  0  0  0  0  # atno 10718 bound_to 10713
  154.0954  135.2849  155.3263 H   0  0  0  0  0  0  0  0  0  0  0  0  # atno 10763 bound_to 10752
  154.6592  135.5341  153.7999 H   0  0  0  0  0  0  0  0  0  0  0  0  # atno 10764 bound_to 10752
  153.0398  135.6529  154.1121 H   0  0  0  0  0  0  0  0  0  0  0  0  # atno 10765 bound_to 10752
  140.2180  134.8217  157.3191 H   0  0  0  0  0  0  0  0  0  0  0  0  # atno 11005 bound_to 11000
  145.4567  139.1517  143.3888 LP  0  0  0  0  0  0  0  0  0  0  0  0  # atno 17320 bound_to 7965
  146.2756  140.4696  142.8796 LP  0  0  0  0  0  0  0  0  0  0  0  0  # atno 17321 bound_to 7965
  139.5422  144.2618  152.1372 LP  0  0  0  0  0  0  0  0  0  0  0  0  # atno 17342 bound_to 10162
  140.1833  144.4823  150.6517 LP  0  0  0  0  0  0  0  0  0  0  0  0  # atno 17343 bound_to 10162
  157.4781  131.0900  151.0567 LP  0  0  0  0  0  0  0  0  0  0  0  0  # atno 17370 bound_to 10713
  157.1008  130.5981  149.5460 LP  0  0  0  0  0  0  0  0  0  0  0  0  # atno 17371 bound_to 10713
  140.1879  134.4408  155.7733 LP  0  0  0  0  0  0  0  0  0  0  0  0  # atno 17394 bound_to 11000
  141.2224  133.7013  156.7979 LP  0  0  0  0  0  0  0  0  0  0  0  0  # atno 17395 bound_to 11000

$$$$
