AV-unprocessed.smi:1616|AV-procd|sdf|6482|dock5
  -GOLD-   22720 7143D 1   1.00000     0.00000
 Structure written by MMmdl.
 38 39  0  0  0  0  0  0  0  0  1 V2000
  152.0173  144.1864  160.0193 C   0  0  0  0  0  0  0  0  0  0  0  0
  152.2027  142.8274  159.4001 C   0  0  0  0  0  0  0  0  0  0  0  0
  151.6096  142.6183  158.2712 N   0  0  0  0  0  0  0  0  0  0  0  0
  151.7084  141.4038  157.6204 N   0  0  0  0  0  0  0  0  0  0  0  0
  150.9511  141.3369  156.3617 C   0  0  0  0  0  0  0  0  0  0  0  0
  149.5005  140.8639  156.5404 C   0  0  0  0  0  0  0  0  0  0  0  0
  149.2435  139.6868  156.7986 O   0  0  0  0  0  0  0  0  0  0  0  0
  148.5585  141.8107  156.4098 N   0  0  0  0  0  0  0  0  0  0  0  0
  147.1203  141.6037  156.5483 C   0  0  2  0  0  0  0  0  0  0  0  0
  146.8440  140.6601  157.7294 C   0  0  0  0  0  0  0  0  0  0  0  0
  146.4860  141.0771  155.2749 C   0  0  0  0  0  0  0  0  0  0  0  0
  146.6500  141.8061  153.9628 C   0  0  0  0  0  0  0  0  0  0  0  0
  145.3022  141.7744  154.6482 C   0  0  0  0  0  0  0  0  0  0  0  0
  152.4211  140.3336  158.0771 C   0  0  0  0  0  0  0  0  0  0  0  0
  152.4810  139.2672  157.4632 O   0  0  0  0  0  0  0  0  0  0  0  0
  153.0939  140.5791  159.3548 C   0  0  0  0  0  0  0  0  0  0  0  0
  153.8506  139.4842  159.8706 C   0  0  0  0  0  0  0  0  0  0  0  0
  154.4529  138.5825  160.2763 N   0  0  0  0  0  0  0  0  0  0  0  0
  153.0018  141.7664  160.0047 C   0  0  0  0  0  0  0  0  0  0  0  0
  153.6777  142.0713  161.3347 C   0  0  0  0  0  0  0  0  0  0  0  0
  152.9734  144.7016  160.1149 H   0  0  0  0  0  0  0  0  0  0  0  0
  151.5767  144.1019  161.0130 H   0  0  0  0  0  0  0  0  0  0  0  0
  151.3599  144.8200  159.4215 H   0  0  0  0  0  0  0  0  0  0  0  0
  150.9296  142.3190  155.8856 H   0  0  0  0  0  0  0  0  0  0  0  0
  151.4587  140.6810  155.6517 H   0  0  0  0  0  0  0  0  0  0  0  0
  148.8613  142.7509  156.2001 H   0  0  0  0  0  0  0  0  0  0  0  0
  146.6489  142.5633  156.7689 H   0  0  0  0  0  0  0  0  0  0  0  0
  145.7726  140.5163  157.8734 H   0  0  0  0  0  0  0  0  0  0  0  0
  147.2472  141.0604  158.6602 H   0  0  0  0  0  0  0  0  0  0  0  0
  147.2921  139.6792  157.5671 H   0  0  0  0  0  0  0  0  0  0  0  0
  146.4739  139.9903  155.2133 H   0  0  0  0  0  0  0  0  0  0  0  0
  147.1950  142.7479  153.9702 H   0  0  0  0  0  0  0  0  0  0  0  0
  146.7727  141.2034  153.0654 H   0  0  0  0  0  0  0  0  0  0  0  0
  144.5277  141.1504  154.2072 H   0  0  0  0  0  0  0  0  0  0  0  0
  144.9529  142.6960  155.1094 H   0  0  0  0  0  0  0  0  0  0  0  0
  154.2848  141.2392  161.6896 H   0  0  0  0  0  0  0  0  0  0  0  0
  152.9323  142.2842  162.1014 H   0  0  0  0  0  0  0  0  0  0  0  0
  154.3343  142.9372  161.2429 H   0  0  0  0  0  0  0  0  0  0  0  0
  1  2  1  0  0  0  0
  1 21  1  0  0  0  0
  1 22  1  0  0  0  0
  1 23  1  0  0  0  0
  2 19  1  0  0  0  0
  2  3  2  0  0  0  0
  3  4  1  0  0  0  0
  4  5  1  0  0  0  0
  4 14  1  0  0  0  0
  5  6  1  0  0  0  0
  5 24  1  0  0  0  0
  5 25  1  0  0  0  0
  6  7  2  0  0  0  0
  6  8  1  0  0  0  0
  8  9  1  0  0  0  0
  8 26  1  0  0  0  0
  9 10  1  0  0  0  0
  9 11  1  0  0  0  0
  9 27  1  0  0  0  0
 10 28  1  0  0  0  0
 10 29  1  0  0  0  0
 10 30  1  0  0  0  0
 11 13  1  0  0  0  0
 11 12  1  0  0  0  0
 11 31  1  0  0  0  0
 12 13  1  0  0  0  0
 12 32  1  0  0  0  0
 12 33  1  0  0  0  0
 13 34  1  0  0  0  0
 13 35  1  0  0  0  0
 14 15  2  0  0  0  0
 14 16  1  0  0  0  0
 16 17  1  0  0  0  0
 16 19  2  0  0  0  0
 17 18  3  0  0  0  0
 19 20  1  0  0  0  0
 20 36  1  0  0  0  0
 20 37  1  0  0  0  0
 20 38  1  0  0  0  0
M  END
> <s_m_source_file>
AV-unprocessed.smi

> <i_m_source_file_index>
1616

> <i_lp_mmshare_version>
43012

> <i_f3d_flags>
0

> <s_epik_input>
TiNDYyhjMVtDSDNdKWMoPU8pbihuYzFbQ0gzXSlbQ0gyXUMoPU8pW05IXVtDQEhdKFtDSDNdKVtDSF0yW0NIMl1bQ0gyXTI=

> <s_epik_cmdline>
J2VwaWtfcHl0aG9uJywgJy1waCcsICc3LjAnLCAnLXRuJywgJzgnLCAnLW1hJywgJzIwMCcsICctbWV0YWxfYmluZGluZycsICctaW1hZScsICc8aW5maWxlLm1hZT4nLCAnLW9tYWUnLCAnPG91dGZpbGUubWFlPic=

> <r_lp_tautomer_probability>
1

> <r_epik_Ionization_Penalty>
1.93246e-08

> <r_epik_Ionization_Penalty_Charging>
2.27031e-11

> <r_epik_Ionization_Penalty_Neutral>
1.93019e-08

> <r_epik_State_Penalty>
-0

> <r_epik_Charging_Adjusted_Penalty>
2.27031e-11

> <i_epik_Tot_Q>
0

> <i_epik_Tot_abs_Q>
0

> <r_epik_Metal_State_Penalty>
-0

> <b_epik_Metal_Only>
0

> <s_lp_Force_Field>
OPLS_2005

> <r_lp_Energy>
28.018

> <b_lp_Chiralities_Consistent>
1

> <s_lp_Variant>
AV-unprocessed.smi:1616-1

> <Gold.Version>
5.8.1

> <Gold.Id.Protein>
6NUR|6NUR_protein|mol2

> <Gold.PLP.Fitness>
38.1888

> <Gold.PLP.PLP>
-37.2048

> <Gold.PLP.part.hbond>
-1.0000

> <Gold.PLP.part.metal>
0.0000

> <Gold.PLP.part.buried>
-5.2472

> <Gold.PLP.part.nonpolar>
-31.3559

> <Gold.PLP.part.repulsive>
0.0751

> <Gold.PLP.ligand.clash>
0.0000

> <Gold.PLP.ligand.torsion>
1.5398

> <Gold.PLP.Chemscore.Hbond>
1.0000

> <Gold.PLP.Chemscore.CHOScore>
0.0000

> <Gold.PLP.Chemscore.Metal>
0.0000

> <Gold.Chemscore.Hbonds>
donor molecule, donor type, donor heavy atom, donor atom, acceptor molecule, acceptor atom, score
      L1  H     8    26       P1  8028  0.98

> <Gold.PLP.Chemscore.Internal.Correction>
1.0635

> <Gold.Rescore>
     Score         DG    S(hbond)    S(metal)    S(lipo)     H(rot)  DE(clash)    DE(int)     intcor
     11.20     -13.04       0.96        0.00      73.96       1.68       0.07       1.77       ----

> <Gold.Chemscore.Fitness>
11.2027

> <Gold.Chemscore.DG>
-13.0434

> <Gold.Chemscore.ZeroCoef>
-5.4800

> <Gold.Chemscore.Hbond>
0.9621

> <Gold.Chemscore.Metal>
0.0000

> <Gold.Chemscore.Lipo>
73.9582

> <Gold.Chemscore.Internal_Hbond>
0.0000

> <Gold.Chemscore.DEClash>
0.0749

> <Gold.Chemscore.DEInternal>
1.7658

> <Gold.Chemscore.Rot>
1.6809

> <Gold.Chemscore.Internal.Correction>
   9.000000E+99

> <Gold.Chemscore.Hbonds>
donor molecule, donor type, donor heavy atom, donor atom, acceptor molecule, acceptor atom, score
      L1  H     8    26       P1  8028  0.92

> <Gold.Chemscore.Hbond.Weighted>
-3.2133

> <Gold.Chemscore.Metal.Weighted>
-0.0000

> <Gold.Chemscore.Lipo.Weighted>
-8.6531

> <Gold.Chemscore.Internal_Hbond.Weighted>
0.0000

> <Gold.Chemscore.DEClash.Weighted>
0.0749

> <Gold.Chemscore.DEInternal.Weighted>
1.7658

> <Gold.Chemscore.Rot.Weighted>
4.3030

> <Gold.Chemscore.Internal.Correction.Weighted>
   9.000000E+99

> <Gold.Protein.RotatedTorsions>
[ 6907 6896 6895 6894 ] final -123.48 input  -60.11 | X-H torsion
[ 7974 7965 7964 7962 ] final   -0.11 input  175.53 | X-H torsion
[ 8008 7997 7996 7995 ] final  -14.09 input   59.86 | X-H torsion
[ 10167 10162 10161 10158 ] final  149.86 input  -65.29 | X-H torsion
[ 10718 10713 10712 10709 ] final  100.48 input   66.30 | X-H torsion
[ 10763 10752 10751 10750 ] final    1.35 input  -60.55 | X-H torsion
[ 11005 11000 10999 10996 ] final    3.54 input  -57.11 | X-H torsion

> <Gold.Protein.ActiveResidues>
 VAL166  LYS551  ARG553  GLY616  TRP617  ASP618  TYR619  PRO620  LYS621  CYS622 
 ASP623  PHE694  ASN695  SER759  ASP760  ASP761  ALA762  ILE779  LEU786  VAL792 
 PHE793  MET794  SER795  GLU796  ALA797  LYS798  CYS799  TRP800  GLU811  SER814 

> <Gold.Protein.RotatedAtoms>
  150.8675  133.7553  159.2971 H   0  0  0  0  0  0  0  0  0  0  0  0  # atno 6907 bound_to 6896
  151.5175  135.1065  159.9879 H   0  0  0  0  0  0  0  0  0  0  0  0  # atno 6908 bound_to 6896
  152.4672  133.7904  159.6954 H   0  0  0  0  0  0  0  0  0  0  0  0  # atno 6909 bound_to 6896
  146.2430  140.1221  142.8340 H   0  0  0  0  0  0  0  0  0  0  0  0  # atno 7974 bound_to 7965
  154.5239  140.2232  155.8926 H   0  0  0  0  0  0  0  0  0  0  0  0  # atno 8008 bound_to 7997
  156.1692  140.3125  155.8907 H   0  0  0  0  0  0  0  0  0  0  0  0  # atno 8009 bound_to 7997
  155.3594  140.0460  157.3037 H   0  0  0  0  0  0  0  0  0  0  0  0  # atno 8010 bound_to 7997
  139.4856  144.5568  151.7303 H   0  0  0  0  0  0  0  0  0  0  0  0  # atno 10167 bound_to 10162
  157.6853  131.0699  150.5107 H   0  0  0  0  0  0  0  0  0  0  0  0  # atno 10718 bound_to 10713
  153.3091  135.6961  153.7132 H   0  0  0  0  0  0  0  0  0  0  0  0  # atno 10763 bound_to 10752
  153.6016  135.3461  155.2948 H   0  0  0  0  0  0  0  0  0  0  0  0  # atno 10764 bound_to 10752
  154.8570  135.4342  154.2224 H   0  0  0  0  0  0  0  0  0  0  0  0  # atno 10765 bound_to 10752
  140.5920  133.9915  155.8093 H   0  0  0  0  0  0  0  0  0  0  0  0  # atno 11005 bound_to 11000
  145.0398  140.8936  143.5059 LP  0  0  0  0  0  0  0  0  0  0  0  0  # atno 17320 bound_to 7965
  145.1299  139.2638  143.5545 LP  0  0  0  0  0  0  0  0  0  0  0  0  # atno 17321 bound_to 7965
  140.5131  144.0995  150.6000 LP  0  0  0  0  0  0  0  0  0  0  0  0  # atno 17342 bound_to 10162
  140.3927  143.2744  152.0041 LP  0  0  0  0  0  0  0  0  0  0  0  0  # atno 17343 bound_to 10162
  156.5425  130.4211  149.6147 LP  0  0  0  0  0  0  0  0  0  0  0  0  # atno 17370 bound_to 10713
  156.2973  130.7157  151.2021 LP  0  0  0  0  0  0  0  0  0  0  0  0  # atno 17371 bound_to 10713
  141.0929  133.9889  157.3208 LP  0  0  0  0  0  0  0  0  0  0  0  0  # atno 17394 bound_to 11000
  139.9270  135.0201  156.8269 LP  0  0  0  0  0  0  0  0  0  0  0  0  # atno 17395 bound_to 11000

$$$$
