AV-unprocessed.smi:1824|AV-procd|sdf|7403|dock10
  -GOLD-   22720 9 73D 1   1.00000     0.00000
 Structure written by MMmdl.
 45 47  0  0  0  0  0  0  0  0  2 V2000
  150.0714  133.0114  155.0831 C   0  0  0  0  0  0  0  0  0  0  0  0
  149.4244  134.3326  154.6535 C   0  0  2  0  0  0  0  0  0  0  0  0
  150.3608  135.5365  154.8694 C   0  0  0  0  0  0  0  0  0  0  0  0
  149.6730  136.8001  154.5149 N   0  3  2  0  0  0  0  0  0  0  0  0
  150.5592  137.9855  154.6401 C   0  0  0  0  0  0  0  0  0  0  0  0
  149.7776  139.2837  154.9229 C   0  0  2  0  0  0  0  0  0  0  0  0
  149.0420  139.6298  153.7646 O   0  0  0  0  0  0  0  0  0  0  0  0
  150.7183  140.4453  155.2966 C   0  0  0  0  0  0  0  0  0  0  0  0
  151.2739  140.3047  156.6312 N   0  0  0  0  0  0  0  0  0  0  0  0
  151.6389  139.1595  157.2391 C   0  0  0  0  0  0  0  0  0  0  0  0
  152.1271  139.2534  158.4724 N   0  0  0  0  0  0  0  0  0  0  0  0
  152.0786  140.6195  158.6901 C   0  0  0  0  0  0  0  0  0  0  0  0
  152.4587  141.3826  159.8171 C   0  0  0  0  0  0  0  0  0  0  0  0
  152.3145  142.7858  159.8119 C   0  0  0  0  0  0  0  0  0  0  0  0
  152.6837  143.5019  160.9001 F   0  0  0  0  0  0  0  0  0  0  0  0
  151.7879  143.4455  158.6813 C   0  0  0  0  0  0  0  0  0  0  0  0
  151.6520  144.7926  158.6847 F   0  0  0  0  0  0  0  0  0  0  0  0
  151.4017  142.7060  157.5469 C   0  0  0  0  0  0  0  0  0  0  0  0
  151.5491  141.3066  157.5561 C   0  0  0  0  0  0  0  0  0  0  0  0
  148.4020  136.9241  155.2705 C   0  0  0  0  0  0  0  0  0  0  0  0
  147.5173  135.6834  155.0441 C   0  0  2  0  0  0  0  0  0  0  0  0
  146.2276  135.7333  155.8706 C   0  0  0  0  0  0  0  0  0  0  0  0
  148.2429  134.5197  155.4250 O   0  0  0  0  0  0  0  0  0  0  0  0
  150.9826  132.8177  154.5168 H   0  0  0  0  0  0  0  0  0  0  0  0
  149.3932  132.1739  154.9173 H   0  0  0  0  0  0  0  0  0  0  0  0
  150.3311  133.0243  156.1420 H   0  0  0  0  0  0  0  0  0  0  0  0
  149.1564  134.2595  153.5980 H   0  0  0  0  0  0  0  0  0  0  0  0
  150.6890  135.5805  155.9094 H   0  0  0  0  0  0  0  0  0  0  0  0
  151.2544  135.4197  154.2546 H   0  0  0  0  0  0  0  0  0  0  0  0
  151.2953  137.8018  155.4243 H   0  0  0  0  0  0  0  0  0  0  0  0
  151.1276  138.1190  153.7179 H   0  0  0  0  0  0  0  0  0  0  0  0
  149.0733  139.1339  155.7408 H   0  0  0  0  0  0  0  0  0  0  0  0
  149.6415  139.6963  153.0364 H   0  0  0  0  0  0  0  0  0  0  0  0
  151.5465  140.4996  154.5887 H   0  0  0  0  0  0  0  0  0  0  0  0
  150.1943  141.4001  155.2343 H   0  0  0  0  0  0  0  0  0  0  0  0
  151.5379  138.2019  156.7491 H   0  0  0  0  0  0  0  0  0  0  0  0
  152.8624  140.8884  160.6883 H   0  0  0  0  0  0  0  0  0  0  0  0
  150.9977  143.2097  156.6816 H   0  0  0  0  0  0  0  0  0  0  0  0
  148.6205  137.0397  156.3336 H   0  0  0  0  0  0  0  0  0  0  0  0
  147.8595  137.8157  154.9585 H   0  0  0  0  0  0  0  0  0  0  0  0
  147.2493  135.6107  153.9885 H   0  0  0  0  0  0  0  0  0  0  0  0
  145.6253  136.6032  155.6074 H   0  0  0  0  0  0  0  0  0  0  0  0
  146.4437  135.7859  156.9381 H   0  0  0  0  0  0  0  0  0  0  0  0
  145.6196  134.8450  155.6978 H   0  0  0  0  0  0  0  0  0  0  0  0
  149.4339  136.7259  153.5360 H   0  0  0  0  0  0  0  0  0  0  0  0
  1  2  1  0  0  0  0
  1 24  1  0  0  0  0
  1 25  1  0  0  0  0
  1 26  1  0  0  0  0
  2 23  1  0  0  0  0
  2  3  1  0  0  0  0
  2 27  1  0  0  0  0
  3  4  1  0  0  0  0
  3 28  1  0  0  0  0
  3 29  1  0  0  0  0
  4  5  1  0  0  0  0
  4 20  1  0  0  0  0
  4 45  1  0  0  0  0
  5  6  1  0  0  0  0
  5 30  1  0  0  0  0
  5 31  1  0  0  0  0
  6  7  1  0  0  0  0
  6  8  1  0  0  0  0
  6 32  1  0  0  0  0
  7 33  1  0  0  0  0
  8  9  1  0  0  0  0
  8 34  1  0  0  0  0
  8 35  1  0  0  0  0
  9 19  1  0  0  0  0
  9 10  1  0  0  0  0
 10 11  2  0  0  0  0
 10 36  1  0  0  0  0
 11 12  1  0  0  0  0
 12 19  2  0  0  0  0
 12 13  1  0  0  0  0
 13 14  2  0  0  0  0
 13 37  1  0  0  0  0
 14 15  1  0  0  0  0
 14 16  1  0  0  0  0
 16 17  1  0  0  0  0
 16 18  2  0  0  0  0
 18 19  1  0  0  0  0
 18 38  1  0  0  0  0
 20 21  1  0  0  0  0
 20 39  1  0  0  0  0
 20 40  1  0  0  0  0
 21 22  1  0  0  0  0
 21 23  1  0  0  0  0
 21 41  1  0  0  0  0
 22 42  1  0  0  0  0
 22 43  1  0  0  0  0
 22 44  1  0  0  0  0
M  CHG  1   4   1
M  END
> <s_m_source_file>
AV-unprocessed.smi

> <i_m_source_file_index>
1824

> <i_lp_mmshare_version>
43012

> <i_f3d_flags>
0

> <s_epik_input>
W0NIM11bQ0BASF0xW0NIMl1OKFtDSDJdW0NASF0oTzEpW0NIM10pW0NIMl1bQ0BIXShbT0hdKVtDSDJdbihbY0hdbjIpYyhjMjMpW2NIXWMoRiljKEYpW2NIXTM=

> <s_epik_cmdline>
J2VwaWtfcHl0aG9uJywgJy1waCcsICc3LjAnLCAnLXRuJywgJzgnLCAnLW1hJywgJzIwMCcsICctbWV0YWxfYmluZGluZycsICctaW1hZScsICc8aW5maWxlLm1hZT4nLCAnLW9tYWUnLCAnPG91dGZpbGUubWFlPic=

> <r_epik_Ionization_Penalty>
0.61967

> <r_epik_Ionization_Penalty_Charging>
0.608065

> <r_epik_Ionization_Penalty_Neutral>
0.0116057

> <r_epik_State_Penalty>
0.664205

> <r_epik_Charging_Adjusted_Penalty>
1.27227

> <i_epik_Tot_Q>
1

> <i_epik_Tot_abs_Q>
1

> <r_epik_Metal_State_Penalty>
0.654947

> <b_epik_Metal_Only>
0

> <s_lp_Force_Field>
OPLS_2005

> <r_lp_Energy>
19.9364

> <b_lp_Chiralities_Consistent>
1

> <s_lp_Variant>
AV-unprocessed.smi:1824-11

> <Gold.Version>
5.8.1

> <Gold.Id.Protein>
6NUR|6NUR_protein|mol2

> <Gold.PLP.Fitness>
50.1952

> <Gold.PLP.PLP>
-43.2144

> <Gold.PLP.part.hbond>
-2.0000

> <Gold.PLP.part.metal>
0.0000

> <Gold.PLP.part.buried>
-4.9124

> <Gold.PLP.part.nonpolar>
-36.3941

> <Gold.PLP.part.repulsive>
0.0792

> <Gold.PLP.ligand.clash>
0.0000

> <Gold.PLP.ligand.torsion>
0.8463

> <Gold.PLP.Chemscore.Hbond>
2.8800

> <Gold.PLP.Chemscore.CHOScore>
0.0000

> <Gold.PLP.Chemscore.Metal>
0.0000

> <Gold.Chemscore.Hbonds>
donor molecule, donor type, donor heavy atom, donor atom, acceptor molecule, acceptor atom, score
      L1  H     4    45       P1  7948  2.00
      L1  H     7    33       P1  7957  0.80

> <Gold.PLP.Chemscore.Internal.Correction>
0.0333

> <Gold.Rescore>
     Score         DG    S(hbond)    S(metal)    S(lipo)     H(rot)  DE(clash)    DE(int)     intcor
     16.17     -17.08       1.89        0.00      96.08       2.33       0.10       0.81       ----

> <Gold.Chemscore.Fitness>
16.1654

> <Gold.Chemscore.DG>
-17.0781

> <Gold.Chemscore.ZeroCoef>
-5.4800

> <Gold.Chemscore.Hbond>
1.8889

> <Gold.Chemscore.Metal>
0.0000

> <Gold.Chemscore.Lipo>
96.0824

> <Gold.Chemscore.Internal_Hbond>
0.0000

> <Gold.Chemscore.DEClash>
0.0992

> <Gold.Chemscore.DEInternal>
0.8135

> <Gold.Chemscore.Rot>
2.3251

> <Gold.Chemscore.Internal.Correction>
   9.000000E+99

> <Gold.Chemscore.Hbonds>
donor molecule, donor type, donor heavy atom, donor atom, acceptor molecule, acceptor atom, score
      L1  H     4    45       P1  7948  0.88
      L1  H     7    33       P1  7957  0.79

> <Gold.Chemscore.Hbond.Weighted>
-6.3088

> <Gold.Chemscore.Metal.Weighted>
-0.0000

> <Gold.Chemscore.Lipo.Weighted>
-11.2416

> <Gold.Chemscore.Internal_Hbond.Weighted>
0.0000

> <Gold.Chemscore.DEClash.Weighted>
0.0992

> <Gold.Chemscore.DEInternal.Weighted>
0.8135

> <Gold.Chemscore.Rot.Weighted>
5.9523

> <Gold.Chemscore.Internal.Correction.Weighted>
   9.000000E+99

> <Gold.Protein.RotatedTorsions>
[ 6907 6896 6895 6894 ] final -110.13 input  -60.11 | X-H torsion
[ 7974 7965 7964 7962 ] final   75.57 input  175.53 | X-H torsion
[ 8008 7997 7996 7995 ] final -147.06 input   59.86 | X-H torsion
[ 10167 10162 10161 10158 ] final   61.29 input  -65.29 | X-H torsion
[ 10718 10713 10712 10709 ] final    0.05 input   66.30 | X-H torsion
[ 10763 10752 10751 10750 ] final   73.31 input  -60.55 | X-H torsion
[ 11005 11000 10999 10996 ] final   90.07 input  -57.11 | X-H torsion

> <Gold.Protein.ActiveResidues>
 VAL166  LYS551  ARG553  GLY616  TRP617  ASP618  TYR619  PRO620  LYS621  CYS622 
 ASP623  PHE694  ASN695  SER759  ASP760  ASP761  ALA762  ILE779  LEU786  VAL792 
 PHE793  MET794  SER795  GLU796  ALA797  LYS798  CYS799  TRP800  GLU811  SER814 

> <Gold.Protein.RotatedAtoms>
  150.7605  133.9427  159.3460 H   0  0  0  0  0  0  0  0  0  0  0  0  # atno 6907 bound_to 6896
  151.7336  135.0867  160.0313 H   0  0  0  0  0  0  0  0  0  0  0  0  # atno 6908 bound_to 6896
  152.3573  133.6216  159.6025 H   0  0  0  0  0  0  0  0  0  0  0  0  # atno 6909 bound_to 6896
  145.7139  139.2624  143.1635 H   0  0  0  0  0  0  0  0  0  0  0  0  # atno 7974 bound_to 7965
  155.5694  140.0633  157.2810 H   0  0  0  0  0  0  0  0  0  0  0  0  # atno 8008 bound_to 7997
  154.4365  140.1871  156.0910 H   0  0  0  0  0  0  0  0  0  0  0  0  # atno 8009 bound_to 7997
  156.0387  140.3298  155.7224 H   0  0  0  0  0  0  0  0  0  0  0  0  # atno 8010 bound_to 7997
  140.1563  144.4413  150.6732 H   0  0  0  0  0  0  0  0  0  0  0  0  # atno 10167 bound_to 10162
  156.8276  130.5477  149.5690 H   0  0  0  0  0  0  0  0  0  0  0  0  # atno 10718 bound_to 10713
  153.0513  135.5068  154.7874 H   0  0  0  0  0  0  0  0  0  0  0  0  # atno 10763 bound_to 10752
  154.6734  135.2956  154.9714 H   0  0  0  0  0  0  0  0  0  0  0  0  # atno 10764 bound_to 10752
  154.0524  135.6702  153.4854 H   0  0  0  0  0  0  0  0  0  0  0  0  # atno 10765 bound_to 10752
  139.8863  134.8591  156.3232 H   0  0  0  0  0  0  0  0  0  0  0  0  # atno 11005 bound_to 11000
  146.0687  140.7892  142.9699 LP  0  0  0  0  0  0  0  0  0  0  0  0  # atno 17320 bound_to 7965
  144.6934  140.3309  143.7216 LP  0  0  0  0  0  0  0  0  0  0  0  0  # atno 17321 bound_to 7965
  140.6671  143.2272  151.5717 LP  0  0  0  0  0  0  0  0  0  0  0  0  # atno 17342 bound_to 10162
  139.5402  144.2669  152.1334 LP  0  0  0  0  0  0  0  0  0  0  0  0  # atno 17343 bound_to 10162
  156.0952  130.5927  150.9802 LP  0  0  0  0  0  0  0  0  0  0  0  0  # atno 17370 bound_to 10713
  157.6424  131.0908  150.8224 LP  0  0  0  0  0  0  0  0  0  0  0  0  # atno 17371 bound_to 10713
  140.9773  133.7289  156.0620 LP  0  0  0  0  0  0  0  0  0  0  0  0  # atno 17394 bound_to 11000
  140.7795  134.3742  157.5490 LP  0  0  0  0  0  0  0  0  0  0  0  0  # atno 17395 bound_to 11000

$$$$
