AV-unprocessed.smi:74|AV-procd|sdf|764|dock8
  -GOLD-   2262017103D 1   1.00000     0.00000
 Structure written by MMmdl.
 58 62  0  0  0  0  0  0  0  0  1 V2000
  147.1597  132.4558  149.5866 O   0  0  0  0  0  0  0  0  0  0  0  0
  145.7974  132.1016  149.4617 C   0  0  0  0  0  0  0  0  0  0  0  0
  144.9274  132.8720  150.4684 C   0  0  0  0  0  0  0  0  0  0  0  0
  143.6069  132.1055  150.6869 C   0  0  0  0  0  0  0  0  0  0  0  0
  142.8328  132.0629  149.5052 O   0  0  0  0  0  0  0  0  0  0  0  0
  145.6464  133.3265  151.7589 C   0  0  0  0  0  0  0  0  0  0  0  0
  144.9193  134.6706  151.6803 C   0  0  0  0  0  0  0  0  0  0  0  0
  145.5388  135.8737  152.1522 N   0  0  0  0  0  0  0  0  0  0  0  0
  145.6361  137.0714  151.4807 C   0  0  0  0  0  0  0  0  0  0  0  0
  146.2042  138.0386  152.1478 N   0  0  0  0  0  0  0  0  0  0  0  0
  146.4949  137.4748  153.3848 C   0  0  0  0  0  0  0  0  0  0  0  0
  147.0889  137.9634  154.5833 C   0  0  0  0  0  0  0  0  0  0  0  0
  147.5513  139.2338  154.7102 N   0  0  0  0  0  0  0  0  0  0  0  0
  147.2773  140.1088  153.5746 C   0  0  0  0  0  0  0  0  0  0  0  0
  147.5505  141.5729  153.9568 C   0  0  0  0  0  0  0  0  0  0  0  0
  148.8843  141.7058  154.4378 O   0  0  0  0  0  0  0  0  0  0  0  0
  149.1229  140.9110  155.5967 C   0  0  2  0  0  0  0  0  0  0  0  0
  150.5416  141.1953  156.1092 C   0  0  0  0  0  0  0  0  0  0  0  0
  150.4848  142.0953  157.2042 O   0  0  0  0  0  0  0  0  0  0  0  0
  151.6710  142.0964  157.9777 C   0  0  0  0  0  0  0  0  0  0  0  0
  151.5957  143.2237  158.9850 C   0  0  0  0  0  0  0  0  0  0  0  0
  152.4974  144.4312  158.8603 C   0  0  0  0  0  0  0  0  0  0  0  0
  152.7181  143.4401  159.9744 C   0  0  0  0  0  0  0  0  0  0  0  0
  148.8876  139.4233  155.2696 C   0  0  0  0  0  0  0  0  0  0  0  0
  147.1747  137.1015  155.6323 N   0  0  0  0  0  0  0  0  0  0  0  0
  146.7225  135.8495  155.5190 C   0  0  0  0  0  0  0  0  0  0  0  0
  146.1563  135.2598  154.4649 N   0  0  0  0  0  0  0  0  0  0  0  0
  146.0626  136.1183  153.4095 C   0  0  0  0  0  0  0  0  0  0  0  0
  144.7724  134.3827  150.1841 C   0  0  0  0  0  0  0  0  0  0  0  0
  147.6738  131.6637  149.6197 H   0  0  0  0  0  0  0  0  0  0  0  0
  145.4774  132.2786  148.4348 H   0  0  0  0  0  0  0  0  0  0  0  0
  145.7179  131.0261  149.6240 H   0  0  0  0  0  0  0  0  0  0  0  0
  143.7941  131.0774  150.9976 H   0  0  0  0  0  0  0  0  0  0  0  0
  143.0102  132.5552  151.4808 H   0  0  0  0  0  0  0  0  0  0  0  0
  142.3883  132.8910  149.4071 H   0  0  0  0  0  0  0  0  0  0  0  0
  145.4149  132.7426  152.6504 H   0  0  0  0  0  0  0  0  0  0  0  0
  146.7259  133.4311  151.6337 H   0  0  0  0  0  0  0  0  0  0  0  0
  143.9517  134.6151  152.1820 H   0  0  0  0  0  0  0  0  0  0  0  0
  145.2744  137.2073  150.4719 H   0  0  0  0  0  0  0  0  0  0  0  0
  147.9175  139.8167  152.7412 H   0  0  0  0  0  0  0  0  0  0  0  0
  146.2484  140.0119  153.2312 H   0  0  0  0  0  0  0  0  0  0  0  0
  147.4218  142.2181  153.0879 H   0  0  0  0  0  0  0  0  0  0  0  0
  146.8430  141.9140  154.7144 H   0  0  0  0  0  0  0  0  0  0  0  0
  148.4201  141.2212  156.3724 H   0  0  0  0  0  0  0  0  0  0  0  0
  151.0269  140.2643  156.4059 H   0  0  0  0  0  0  0  0  0  0  0  0
  151.1389  141.6331  155.3080 H   0  0  0  0  0  0  0  0  0  0  0  0
  151.7770  141.1503  158.5102 H   0  0  0  0  0  0  0  0  0  0  0  0
  152.5479  142.2258  157.3409 H   0  0  0  0  0  0  0  0  0  0  0  0
  150.5924  143.4076  159.3647 H   0  0  0  0  0  0  0  0  0  0  0  0
  153.2204  144.4425  158.0470 H   0  0  0  0  0  0  0  0  0  0  0  0
  152.0773  145.3999  159.1237 H   0  0  0  0  0  0  0  0  0  0  0  0
  152.4462  143.7480  160.9821 H   0  0  0  0  0  0  0  0  0  0  0  0
  153.5893  142.7918  159.9041 H   0  0  0  0  0  0  0  0  0  0  0  0
  149.0031  138.8262  156.1752 H   0  0  0  0  0  0  0  0  0  0  0  0
  149.6286  139.0717  154.5500 H   0  0  0  0  0  0  0  0  0  0  0  0
  146.8302  135.2325  156.3988 H   0  0  0  0  0  0  0  0  0  0  0  0
  145.5979  134.7899  149.5965 H   0  0  0  0  0  0  0  0  0  0  0  0
  143.8106  134.6736  149.7604 H   0  0  0  0  0  0  0  0  0  0  0  0
  1  2  1  0  0  0  0
  1 30  1  0  0  0  0
  2  3  1  0  0  0  0
  2 31  1  0  0  0  0
  2 32  1  0  0  0  0
  3 29  1  0  0  0  0
  3  4  1  0  0  0  0
  3  6  1  0  0  0  0
  4  5  1  0  0  0  0
  4 33  1  0  0  0  0
  4 34  1  0  0  0  0
  5 35  1  0  0  0  0
  6  7  1  0  0  0  0
  6 36  1  0  0  0  0
  6 37  1  0  0  0  0
  7  8  1  0  0  0  0
  7 29  1  0  0  0  0
  7 38  1  0  0  0  0
  8 28  1  0  0  0  0
  8  9  1  0  0  0  0
  9 10  2  0  0  0  0
  9 39  1  0  0  0  0
 10 11  1  0  0  0  0
 11 28  2  0  0  0  0
 11 12  1  0  0  0  0
 12 13  1  0  0  0  0
 12 25  2  0  0  0  0
 13 24  1  0  0  0  0
 13 14  1  0  0  0  0
 14 15  1  0  0  0  0
 14 40  1  0  0  0  0
 14 41  1  0  0  0  0
 15 16  1  0  0  0  0
 15 42  1  0  0  0  0
 15 43  1  0  0  0  0
 16 17  1  0  0  0  0
 17 18  1  0  0  0  0
 17 24  1  0  0  0  0
 17 44  1  0  0  0  0
 18 19  1  0  0  0  0
 18 45  1  0  0  0  0
 18 46  1  0  0  0  0
 19 20  1  0  0  0  0
 20 21  1  0  0  0  0
 20 47  1  0  0  0  0
 20 48  1  0  0  0  0
 21 23  1  0  0  0  0
 21 22  1  0  0  0  0
 21 49  1  0  0  0  0
 22 23  1  0  0  0  0
 22 50  1  0  0  0  0
 22 51  1  0  0  0  0
 23 52  1  0  0  0  0
 23 53  1  0  0  0  0
 24 54  1  0  0  0  0
 24 55  1  0  0  0  0
 25 26  1  0  0  0  0
 26 27  2  0  0  0  0
 26 56  1  0  0  0  0
 27 28  1  0  0  0  0
 29 57  1  0  0  0  0
 29 58  1  0  0  0  0
M  END
> <s_m_source_file>
AV-unprocessed.smi

> <i_m_source_file_index>
74

> <i_lp_mmshare_version>
43012

> <i_f3d_flags>
0

> <s_epik_input>
W09IXVtDSDJdQzEoW0NIMl1bT0hdKVtDSDJdW0NIXShbQ0gyXTEpbihbY0hdbjIpYyhjMjMpbltjSF1uYzNONFtDSDJdW0NIMl1PW0NASF0oW0NIMl00KVtDSDJdT1tDSDJdW0NIXTVbQ0gyXVtDSDJdNQ==

> <s_epik_cmdline>
J2VwaWtfcHl0aG9uJywgJy1waCcsICc3LjAnLCAnLXRuJywgJzgnLCAnLW1hJywgJzIwMCcsICctbWV0YWxfYmluZGluZycsICctaW1hZScsICc8aW5maWxlLm1hZT4nLCAnLW9tYWUnLCAnPG91dGZpbGUubWFlPic=

> <r_lp_tautomer_probability>
1

> <r_epik_Ionization_Penalty>
5.89322e-05

> <r_epik_Ionization_Penalty_Charging>
0

> <r_epik_Ionization_Penalty_Neutral>
5.89322e-05

> <r_epik_State_Penalty>
-0

> <r_epik_Charging_Adjusted_Penalty>
0

> <i_epik_Tot_Q>
0

> <i_epik_Tot_abs_Q>
0

> <r_epik_Metal_State_Penalty>
-0

> <b_epik_Metal_Only>
0

> <s_lp_Force_Field>
OPLS_2005

> <r_lp_Energy>
49.4071

> <b_lp_Chiralities_Consistent>
1

> <s_lp_Variant>
AV-unprocessed.smi:74-2

> <Gold.Version>
5.8.1

> <Gold.Id.Protein>
6NUR|6NUR_protein|mol2

> <Gold.PLP.Fitness>
57.6029

> <Gold.PLP.PLP>
-49.0801

> <Gold.PLP.part.hbond>
-6.0192

> <Gold.PLP.part.metal>
0.0000

> <Gold.PLP.part.buried>
-2.4673

> <Gold.PLP.part.nonpolar>
-41.5173

> <Gold.PLP.part.repulsive>
0.8369

> <Gold.PLP.ligand.clash>
0.5904

> <Gold.PLP.ligand.torsion>
2.0017

> <Gold.PLP.Chemscore.Hbond>
2.9746

> <Gold.PLP.Chemscore.CHOScore>
0.9161

> <Gold.PLP.Chemscore.Metal>
0.0000

> <Gold.Chemscore.Hbonds>
donor molecule, donor type, donor heavy atom, donor atom, acceptor molecule, acceptor atom, score
      L1  H     1    30       P1 10747  0.98
      L1  H     5    35       P1 10186  0.93
      P1  H  8011  8017       L1    16  0.03
      P1  H 10785 10796       L1     5  0.83
      L1  C     9    39       P1 10171  0.96

> <Gold.PLP.Chemscore.Internal.Correction>
1.4446

> <Gold.Rescore>
     Score         DG    S(hbond)    S(metal)    S(lipo)     H(rot)  DE(clash)    DE(int)     intcor
     14.02     -18.81       2.56        0.00     127.70       3.97       1.19       3.60       ----

> <Gold.Chemscore.Fitness>
14.0223

> <Gold.Chemscore.DG>
-18.8079

> <Gold.Chemscore.ZeroCoef>
-5.4800

> <Gold.Chemscore.Hbond>
2.5568

> <Gold.Chemscore.Metal>
0.0000

> <Gold.Chemscore.Lipo>
127.7005

> <Gold.Chemscore.Internal_Hbond>
0.0000

> <Gold.Chemscore.DEClash>
1.1896

> <Gold.Chemscore.DEInternal>
3.5960

> <Gold.Chemscore.Rot>
3.9660

> <Gold.Chemscore.Internal.Correction>
   9.000000E+99

> <Gold.Chemscore.Hbonds>
donor molecule, donor type, donor heavy atom, donor atom, acceptor molecule, acceptor atom, score
      L1  H     1    30       P1 10747  0.93
      L1  H     5    35       P1 10186  0.88
      P1  H  8011  8017       L1    16  0.01
      P1  H 10785 10796       L1     5  0.37

> <Gold.Chemscore.Hbond.Weighted>
-8.5398

> <Gold.Chemscore.Metal.Weighted>
-0.0000

> <Gold.Chemscore.Lipo.Weighted>
-14.9410

> <Gold.Chemscore.Internal_Hbond.Weighted>
0.0000

> <Gold.Chemscore.DEClash.Weighted>
1.1896

> <Gold.Chemscore.DEInternal.Weighted>
3.5960

> <Gold.Chemscore.Rot.Weighted>
10.1529

> <Gold.Chemscore.Internal.Correction.Weighted>
   9.000000E+99

> <Gold.Protein.RotatedTorsions>
[ 6907 6896 6895 6894 ] final  166.84 input  -60.11 | X-H torsion
[ 7974 7965 7964 7962 ] final    6.50 input  175.53 | X-H torsion
[ 8008 7997 7996 7995 ] final -109.83 input   59.86 | X-H torsion
[ 10167 10162 10161 10158 ] final   15.80 input  -65.29 | X-H torsion
[ 10718 10713 10712 10709 ] final   39.31 input   66.30 | X-H torsion
[ 10763 10752 10751 10750 ] final  161.55 input  -60.55 | X-H torsion
[ 11005 11000 10999 10996 ] final  -80.28 input  -57.11 | X-H torsion

> <Gold.Protein.ActiveResidues>
 VAL166  LYS551  ARG553  GLY616  TRP617  ASP618  TYR619  PRO620  LYS621  CYS622 
 ASP623  PHE694  ASN695  SER759  ASP760  ASP761  ALA762  ILE779  LEU786  VAL792 
 PHE793  MET794  SER795  GLU796  ALA797  LYS798  CYS799  TRP800  GLU811  SER814 

> <Gold.Protein.RotatedAtoms>
  151.8726  133.3478  159.3739 H   0  0  0  0  0  0  0  0  0  0  0  0  # atno 6907 bound_to 6896
  150.7149  134.5098  159.5611 H   0  0  0  0  0  0  0  0  0  0  0  0  # atno 6908 bound_to 6896
  152.2634  134.8011  160.0478 H   0  0  0  0  0  0  0  0  0  0  0  0  # atno 6909 bound_to 6896
  146.2434  140.0224  142.8397 H   0  0  0  0  0  0  0  0  0  0  0  0  # atno 7974 bound_to 7965
  154.9653  140.0398  157.2209 H   0  0  0  0  0  0  0  0  0  0  0  0  # atno 8008 bound_to 7997
  154.7851  140.2825  155.6011 H   0  0  0  0  0  0  0  0  0  0  0  0  # atno 8009 bound_to 7997
  156.2942  140.2584  156.2686 H   0  0  0  0  0  0  0  0  0  0  0  0  # atno 8010 bound_to 7997
  140.5842  143.8922  150.6816 H   0  0  0  0  0  0  0  0  0  0  0  0  # atno 10167 bound_to 10162
  157.3691  130.7691  149.7105 H   0  0  0  0  0  0  0  0  0  0  0  0  # atno 10718 bound_to 10713
  154.2647  135.2767  155.2763 H   0  0  0  0  0  0  0  0  0  0  0  0  # atno 10763 bound_to 10752
  154.5353  135.5718  153.6797 H   0  0  0  0  0  0  0  0  0  0  0  0  # atno 10764 bound_to 10752
  152.9956  135.6238  154.2799 H   0  0  0  0  0  0  0  0  0  0  0  0  # atno 10765 bound_to 10752
  141.1668  133.7143  156.8250 H   0  0  0  0  0  0  0  0  0  0  0  0  # atno 11005 bound_to 11000
  145.1229  140.9473  143.4590 LP  0  0  0  0  0  0  0  0  0  0  0  0  # atno 17320 bound_to 7965
  145.0464  139.3218  143.5951 LP  0  0  0  0  0  0  0  0  0  0  0  0  # atno 17321 bound_to 7965
  140.2429  143.3650  152.1471 LP  0  0  0  0  0  0  0  0  0  0  0  0  # atno 17342 bound_to 10162
  139.5188  144.7010  151.5493 LP  0  0  0  0  0  0  0  0  0  0  0  0  # atno 17343 bound_to 10162
  155.9752  130.4092  150.3867 LP  0  0  0  0  0  0  0  0  0  0  0  0  # atno 17370 bound_to 10713
  157.1955  131.0425  151.2678 LP  0  0  0  0  0  0  0  0  0  0  0  0  # atno 17371 bound_to 10713
  140.2092  134.8840  157.3256 LP  0  0  0  0  0  0  0  0  0  0  0  0  # atno 17394 bound_to 11000
  140.2105  134.4145  155.7615 LP  0  0  0  0  0  0  0  0  0  0  0  0  # atno 17395 bound_to 11000

$$$$
