AV-unprocessed.smi:3335|AV-procd|sdf|12848|dock4
  -GOLD-   2272019233D 1   1.00000     0.00000
 Structure written by MMmdl.
 46 47  0  0  0  0  0  0  0  0  1 V2000
  151.5476  144.8888  159.6490 C   0  0  0  0  0  0  0  0  0  0  0  0
  152.0750  143.5179  159.9602 C   0  0  0  0  0  0  0  0  0  0  0  0
  152.2396  142.9152  161.2393 C   0  0  0  0  0  0  0  0  0  0  0  0
  152.7313  141.6892  161.1707 N   0  0  0  0  0  0  0  0  0  0  0  0
  152.9007  141.4640  159.8483 N   0  0  0  0  0  0  0  0  0  0  0  0
  153.4270  140.1878  159.3797 C   0  0  1  0  0  0  0  0  0  0  0  0
  153.7622  139.2826  160.5811 C   0  0  0  0  0  0  0  0  0  0  0  0
  152.4748  139.5084  158.3576 C   0  0  1  0  0  0  0  0  0  0  0  0
  151.0183  139.4089  158.8497 C   0  0  0  0  0  0  0  0  0  0  0  0
  152.4570  140.2914  157.1213 N   0  0  0  0  0  0  0  0  0  0  0  0
  151.5339  139.7889  156.0866 C   0  0  2  0  0  0  0  0  0  0  0  0
  152.3373  139.2946  154.8744 C   0  0  0  0  0  0  0  0  0  0  0  0
  150.5007  140.8460  155.6352 C   0  0  0  0  0  0  0  0  0  0  0  0
  150.5925  141.9901  156.0837 O   0  0  0  0  0  0  0  0  0  0  0  0
  149.5242  140.4985  154.7688 N   0  0  0  0  0  0  0  0  0  0  0  0
  149.3407  139.1888  154.1436 C   0  0  0  0  0  0  0  0  0  0  0  0
  148.2681  139.3841  153.0720 C   0  0  0  0  0  0  0  0  0  0  0  0
  147.4668  140.5814  153.5614 C   0  0  0  0  0  0  0  0  0  0  0  0
  148.4905  141.4288  154.3170 C   0  0  0  0  0  0  0  0  0  0  0  0
  152.5106  142.5530  159.0967 C   0  0  0  0  0  0  0  0  0  0  0  0
  152.3168  145.6512  159.7712 H   0  0  0  0  0  0  0  0  0  0  0  0
  150.7185  145.1599  160.3029 H   0  0  0  0  0  0  0  0  0  0  0  0
  151.1835  144.9600  158.6240 H   0  0  0  0  0  0  0  0  0  0  0  0
  152.0166  143.3307  162.2110 H   0  0  0  0  0  0  0  0  0  0  0  0
  154.3651  140.4124  158.8693 H   0  0  0  0  0  0  0  0  0  0  0  0
  154.3082  138.3927  160.2688 H   0  0  0  0  0  0  0  0  0  0  0  0
  152.8608  138.9545  161.0993 H   0  0  0  0  0  0  0  0  0  0  0  0
  154.3894  139.8069  161.3029 H   0  0  0  0  0  0  0  0  0  0  0  0
  152.8313  138.4931  158.1780 H   0  0  0  0  0  0  0  0  0  0  0  0
  150.9324  138.7636  159.7240 H   0  0  0  0  0  0  0  0  0  0  0  0
  150.3686  138.9873  158.0822 H   0  0  0  0  0  0  0  0  0  0  0  0
  150.6219  140.3882  159.1196 H   0  0  0  0  0  0  0  0  0  0  0  0
  152.2774  141.2626  157.3334 H   0  0  0  0  0  0  0  0  0  0  0  0
  151.0264  138.9251  156.5118 H   0  0  0  0  0  0  0  0  0  0  0  0
  151.6825  138.8723  154.1111 H   0  0  0  0  0  0  0  0  0  0  0  0
  153.0427  138.5157  155.1650 H   0  0  0  0  0  0  0  0  0  0  0  0
  152.9073  140.1026  154.4139 H   0  0  0  0  0  0  0  0  0  0  0  0
  150.2638  138.8079  153.7044 H   0  0  0  0  0  0  0  0  0  0  0  0
  148.9993  138.4784  154.8981 H   0  0  0  0  0  0  0  0  0  0  0  0
  148.7424  139.6281  152.1205 H   0  0  0  0  0  0  0  0  0  0  0  0
  147.6538  138.4961  152.9210 H   0  0  0  0  0  0  0  0  0  0  0  0
  146.9808  141.1265  152.7518 H   0  0  0  0  0  0  0  0  0  0  0  0
  146.6913  140.2442  154.2504 H   0  0  0  0  0  0  0  0  0  0  0  0
  148.0257  141.9616  155.1482 H   0  0  0  0  0  0  0  0  0  0  0  0
  148.9427  142.1662  153.6520 H   0  0  0  0  0  0  0  0  0  0  0  0
  152.5720  142.5506  158.0182 H   0  0  0  0  0  0  0  0  0  0  0  0
  1  2  1  0  0  0  0
  1 21  1  0  0  0  0
  1 22  1  0  0  0  0
  1 23  1  0  0  0  0
  2 20  2  0  0  0  0
  2  3  1  0  0  0  0
  3  4  2  0  0  0  0
  3 24  1  0  0  0  0
  4  5  1  0  0  0  0
  5  6  1  0  0  0  0
  5 20  1  0  0  0  0
  6  7  1  0  0  0  0
  6  8  1  0  0  0  0
  6 25  1  0  0  0  0
  7 26  1  0  0  0  0
  7 27  1  0  0  0  0
  7 28  1  0  0  0  0
  8  9  1  0  0  0  0
  8 10  1  0  0  0  0
  8 29  1  0  0  0  0
  9 30  1  0  0  0  0
  9 31  1  0  0  0  0
  9 32  1  0  0  0  0
 10 11  1  0  0  0  0
 10 33  1  0  0  0  0
 11 12  1  0  0  0  0
 11 13  1  0  0  0  0
 11 34  1  0  0  0  0
 12 35  1  0  0  0  0
 12 36  1  0  0  0  0
 12 37  1  0  0  0  0
 13 14  2  0  0  0  0
 13 15  1  0  0  0  0
 15 19  1  0  0  0  0
 15 16  1  0  0  0  0
 16 17  1  0  0  0  0
 16 38  1  0  0  0  0
 16 39  1  0  0  0  0
 17 18  1  0  0  0  0
 17 40  1  0  0  0  0
 17 41  1  0  0  0  0
 18 19  1  0  0  0  0
 18 42  1  0  0  0  0
 18 43  1  0  0  0  0
 19 44  1  0  0  0  0
 19 45  1  0  0  0  0
 20 46  1  0  0  0  0
M  END
> <s_m_source_file>
AV-unprocessed.smi

> <i_m_source_file_index>
3335

> <i_lp_mmshare_version>
43012

> <i_f3d_flags>
0

> <s_epik_input>
W0NIM11jMVtjSF1ubihbY0hdMSlbQ0BIXShbQ0gzXSlbQ0BIXShbQ0gzXSlbTkhdW0NASF0oW0NIM10pQyg9TylOMltDSDJdW0NIMl1bQ0gyXVtDSDJdMg==

> <s_epik_cmdline>
J2VwaWtfcHl0aG9uJywgJy1waCcsICc3LjAnLCAnLXRuJywgJzgnLCAnLW1hJywgJzIwMCcsICctbWV0YWxfYmluZGluZycsICctaW1hZScsICc8aW5maWxlLm1hZT4nLCAnLW9tYWUnLCAnPG91dGZpbGUubWFlPic=

> <r_lp_tautomer_probability>
1

> <r_epik_Ionization_Penalty>
0.918803

> <r_epik_Ionization_Penalty_Charging>
0

> <r_epik_Ionization_Penalty_Neutral>
0.918803

> <r_epik_State_Penalty>
0.958258

> <r_epik_Charging_Adjusted_Penalty>
0.958258

> <i_epik_Tot_Q>
0

> <i_epik_Tot_abs_Q>
0

> <r_epik_Metal_State_Penalty>
0.956786

> <b_epik_Metal_Only>
0

> <s_lp_Force_Field>
OPLS_2005

> <r_lp_Energy>
37.1843

> <b_lp_Chiralities_Consistent>
1

> <s_lp_Variant>
AV-unprocessed.smi:3335-12

> <Gold.Version>
5.8.1

> <Gold.Id.Protein>
6NUR|6NUR_protein|mol2

> <Gold.PLP.Fitness>
44.0486

> <Gold.PLP.PLP>
-45.0133

> <Gold.PLP.part.hbond>
-1.0000

> <Gold.PLP.part.metal>
0.0000

> <Gold.PLP.part.buried>
1.4517

> <Gold.PLP.part.nonpolar>
-44.1733

> <Gold.PLP.part.repulsive>
0.1052

> <Gold.PLP.ligand.clash>
0.0000

> <Gold.PLP.ligand.torsion>
0.9339

> <Gold.PLP.Chemscore.Hbond>
0.2687

> <Gold.PLP.Chemscore.CHOScore>
0.0000

> <Gold.PLP.Chemscore.Metal>
0.0000

> <Gold.Chemscore.Hbonds>
donor molecule, donor type, donor heavy atom, donor atom, acceptor molecule, acceptor atom, score
      P1  H  7997  8008       L1    10  0.20

> <Gold.PLP.Chemscore.Internal.Correction>
0.0968

> <Gold.Rescore>
     Score         DG    S(hbond)    S(metal)    S(lipo)     H(rot)  DE(clash)    DE(int)     intcor
     12.65     -14.34       0.00        0.00     111.18       1.62       0.02       1.67       ----

> <Gold.Chemscore.Fitness>
12.6496

> <Gold.Chemscore.DG>
-14.3404

> <Gold.Chemscore.ZeroCoef>
-5.4800

> <Gold.Chemscore.Hbond>
0.0000

> <Gold.Chemscore.Metal>
0.0000

> <Gold.Chemscore.Lipo>
111.1848

> <Gold.Chemscore.Internal_Hbond>
0.0000

> <Gold.Chemscore.DEClash>
0.0243

> <Gold.Chemscore.DEInternal>
1.6665

> <Gold.Chemscore.Rot>
1.6204

> <Gold.Chemscore.Internal.Correction>
   9.000000E+99

> <Gold.Chemscore.Hbond.Weighted>
-0.0000

> <Gold.Chemscore.Metal.Weighted>
-0.0000

> <Gold.Chemscore.Lipo.Weighted>
-13.0086

> <Gold.Chemscore.Internal_Hbond.Weighted>
0.0000

> <Gold.Chemscore.DEClash.Weighted>
0.0243

> <Gold.Chemscore.DEInternal.Weighted>
1.6665

> <Gold.Chemscore.Rot.Weighted>
4.1482

> <Gold.Chemscore.Internal.Correction.Weighted>
   9.000000E+99

> <Gold.Protein.RotatedTorsions>
[ 6907 6896 6895 6894 ] final -102.97 input  -60.11 | X-H torsion
[ 7974 7965 7964 7962 ] final  -35.54 input  175.53 | X-H torsion
[ 8008 7997 7996 7995 ] final  -86.55 input   59.86 | X-H torsion
[ 10167 10162 10161 10158 ] final  -27.20 input  -65.29 | X-H torsion
[ 10718 10713 10712 10709 ] final  -21.28 input   66.30 | X-H torsion
[ 10763 10752 10751 10750 ] final -149.65 input  -60.55 | X-H torsion
[ 11005 11000 10999 10996 ] final   68.75 input  -57.11 | X-H torsion

> <Gold.Protein.ActiveResidues>
 VAL166  LYS551  ARG553  GLY616  TRP617  ASP618  TYR619  PRO620  LYS621  CYS622 
 ASP623  PHE694  ASN695  SER759  ASP760  ASP761  ALA762  ILE779  LEU786  VAL792 
 PHE793  MET794  SER795  GLU796  ALA797  LYS798  CYS799  TRP800  GLU811  SER814 

> <Gold.Protein.RotatedAtoms>
  150.7219  134.0500  159.3794 H   0  0  0  0  0  0  0  0  0  0  0  0  # atno 6907 bound_to 6896
  151.8476  135.0566  160.0464 H   0  0  0  0  0  0  0  0  0  0  0  0  # atno 6908 bound_to 6896
  152.2815  133.5439  159.5537 H   0  0  0  0  0  0  0  0  0  0  0  0  # atno 6909 bound_to 6896
  146.0737  140.6172  142.8940 H   0  0  0  0  0  0  0  0  0  0  0  0  # atno 7974 bound_to 7965
  154.6532  140.0577  156.9979 H   0  0  0  0  0  0  0  0  0  0  0  0  # atno 8008 bound_to 7997
  155.1340  140.3259  155.4449 H   0  0  0  0  0  0  0  0  0  0  0  0  # atno 8009 bound_to 7997
  156.2585  140.1976  156.6458 H   0  0  0  0  0  0  0  0  0  0  0  0  # atno 8010 bound_to 7997
  140.7278  143.4113  151.1101 H   0  0  0  0  0  0  0  0  0  0  0  0  # atno 10167 bound_to 10162
  156.5203  130.4631  149.6600 H   0  0  0  0  0  0  0  0  0  0  0  0  # atno 10718 bound_to 10713
  154.8165  135.3304  154.7161 H   0  0  0  0  0  0  0  0  0  0  0  0  # atno 10763 bound_to 10752
  153.7801  135.6919  153.4894 H   0  0  0  0  0  0  0  0  0  0  0  0  # atno 10764 bound_to 10752
  153.1986  135.4524  155.0186 H   0  0  0  0  0  0  0  0  0  0  0  0  # atno 10765 bound_to 10752
  139.9693  134.6927  156.0480 H   0  0  0  0  0  0  0  0  0  0  0  0  # atno 11005 bound_to 11000
  144.7248  140.4490  143.6981 LP  0  0  0  0  0  0  0  0  0  0  0  0  # atno 17320 bound_to 7965
  145.6344  139.1541  143.2951 LP  0  0  0  0  0  0  0  0  0  0  0  0  # atno 17321 bound_to 7965
  139.7747  143.8443  152.3127 LP  0  0  0  0  0  0  0  0  0  0  0  0  # atno 17342 bound_to 10162
  139.8373  144.7226  150.9375 LP  0  0  0  0  0  0  0  0  0  0  0  0  # atno 17343 bound_to 10162
  156.3155  130.7252  151.2154 LP  0  0  0  0  0  0  0  0  0  0  0  0  # atno 17370 bound_to 10713
  157.7438  131.0469  150.4920 LP  0  0  0  0  0  0  0  0  0  0  0  0  # atno 17371 bound_to 10713
  141.1373  133.6572  156.3629 LP  0  0  0  0  0  0  0  0  0  0  0  0  # atno 17394 bound_to 11000
  140.5328  134.6196  157.5355 LP  0  0  0  0  0  0  0  0  0  0  0  0  # atno 17395 bound_to 11000

$$$$
