#       Name:                AV-unprocessed.smi:1578
#       Creating user name   scv26
#       Creation time:       Fri Mar 27 06:57:20 2020


#       File generated by GOLD software.
#

@<TRIPOS>MOLECULE
AV-unprocessed.smi:1578
    51    52     1
SMALL
NO_CHARGES


@<TRIPOS>ATOM
      1 ****        -3.0552  -3.2042  -0.9098 C.3            1 S1                 0.0000
      2 ****        -2.3549  -1.9062  -0.4862 C.3            1 S1                 0.0000
      3 ****        -2.3585  -1.7381   1.0518 C.3            1 S1                 0.0000
      4 ****        -1.6227  -0.5322   1.5127 N.4            1 S1                 1.0000
      5 ****        -2.3780   0.7299   1.3254 C.3            1 S1                 0.0000
      6 ****        -1.5130   1.9292   1.7452 C.3            1 S1                 0.0000
      7 ****        -1.1204   1.7739   3.1034 O.3            1 S1                 0.0000
      8 ****        -0.3321   0.6065   3.3006 C.3            1 S1                 0.0000
      9 ****        -1.1408  -0.6436   2.9097 C.3            1 S1                 0.0000
     10 ****        -0.9876  -1.9043  -1.0060 N.am           1 S1                 0.0000
     11 ****        -0.3361  -0.8420  -1.5049 C.2            1 S1                 0.0000
     12 ****        -0.8533   0.2654  -1.6507 O.2            1 S1                 0.0000
     13 ****         1.1359  -1.0611  -1.8742 C.3            1 S1                 0.0000
     14 ****         2.0001   0.0233  -1.3777 N.am           1 S1                 0.0000
     15 ****         2.4777   0.9536  -2.3213 C.2            1 S1                 0.0000
     16 ****         3.2744   1.9878  -1.9918 C.2            1 S1                 0.0000
     17 ****         3.7529   2.9769  -3.0426 C.3            1 S1                 0.0000
     18 ****         4.4180   3.9931  -2.4933 F              1 S1                 0.0000
     19 ****         4.5600   2.3676  -3.9103 F              1 S1                 0.0000
     20 ****         2.7168   3.4703  -3.7209 F              1 S1                 0.0000
     21 ****         3.6216   2.1163  -0.5894 C.2            1 S1                 0.0000
     22 ****         3.1691   1.2381   0.3267 C.2            1 S1                 0.0000
     23 ****         2.3098   0.1136  -0.0486 C.2            1 S1                 0.0000
     24 ****         1.8878  -0.6941   0.7802 O.2            1 S1                 0.0000
     25 ****        -4.0868  -3.2249  -0.5573 H              1 S1                 0.0000
     26 ****        -2.5482  -4.0813  -0.5058 H              1 S1                 0.0000
     27 ****        -3.0772  -3.3030  -1.9956 H              1 S1                 0.0000
     28 ****        -2.9158  -1.0852  -0.9347 H              1 S1                 0.0000
     29 ****        -3.3793  -1.7170   1.4368 H              1 S1                 0.0000
     30 ****        -1.8886  -2.6213   1.4875 H              1 S1                 0.0000
     31 ****        -2.6784   0.8460   0.2847 H              1 S1                 0.0000
     32 ****        -3.2931   0.7032   1.9190 H              1 S1                 0.0000
     33 ****        -0.6341   2.0197   1.1043 H              1 S1                 0.0000
     34 ****        -2.0793   2.8551   1.6442 H              1 S1                 0.0000
     35 ****         0.5874   0.6773   2.7186 H              1 S1                 0.0000
     36 ****        -0.0393   0.5509   4.3492 H              1 S1                 0.0000
     37 ****        -1.9916  -0.7656   3.5818 H              1 S1                 0.0000
     38 ****        -0.5147  -1.5301   3.0170 H              1 S1                 0.0000
     39 ****        -0.4796  -2.7748  -0.9402 H              1 S1                 0.0000
     40 ****         1.4856  -2.0170  -1.4785 H              1 S1                 0.0000
     41 ****         1.2026  -1.1551  -2.9587 H              1 S1                 0.0000
     42 ****         2.1520   0.7790  -3.3366 H              1 S1                 0.0000
     43 ****         4.2550   2.9283  -0.2644 H              1 S1                 0.0000
     44 ****         3.4473   1.3642   1.3627 H              1 S1                 0.0000
     45 ****        -0.7953  -0.4681   0.9363 H              1 S1                 0.0000
     46 ****        -1.9410   1.7089   3.6712 LP             1 S1                 0.0000
     47 ****        -0.5871   2.5738   3.3787 LP             1 S1                 0.0000
     48 ****        -1.8085   0.4091  -1.3918 LP             1 S1                 0.0000
     49 ****        -0.3183   1.0213  -2.0280 LP             1 S1                 0.0000
     50 ****         1.2979  -1.4472   0.4890 LP             1 S1                 0.0000
     51 ****         2.1352  -0.5967   1.7443 LP             1 S1                 0.0000
@<TRIPOS>BOND
    1    1    2 1     
    2    1   25 1     
    3    1   26 1     
    4    1   27 1     
    5    2    3 1     
    6    2   10 1     
    7    2   28 1     
    8    3    4 1     
    9    3   29 1     
   10    3   30 1     
   11    4    9 1     
   12    4    5 1     
   13    4   45 1     
   14    5    6 1     
   15    5   31 1     
   16    5   32 1     
   17    6    7 1     
   18    6   33 1     
   19    6   34 1     
   20    7    8 1     
   21    8    9 1     
   22    8   35 1     
   23    8   36 1     
   24    9   37 1     
   25    9   38 1     
   26   10   11 am    
   27   10   39 1     
   28   11   12 2     
   29   11   13 1     
   30   13   14 1     
   31   13   40 1     
   32   13   41 1     
   33   14   23 am    
   34   14   15 1     
   35   15   16 2     
   36   15   42 1     
   37   16   17 1     
   38   16   21 1     
   39   17   18 1     
   40   17   19 1     
   41   17   20 1     
   42   21   22 2     
   43   21   43 1     
   44   22   23 1     
   45   22   44 1     
   46   23   24 2     
   47    7   46 1     
   48    7   47 1     
   49   12   48 1     
   50   12   49 1     
   51   24   50 1     
   52   24   51 1     
@<TRIPOS>SUBSTRUCTURE
      1 S1             1
@<TRIPOS>SET
LONE_PAIRS      STATIC     ATOMS    <user>   **** ""
6 46 47 48 49 50 51
DONOR_HYDROGENS      STATIC     ATOMS    <user>   **** ""
2 45 39
ATOM$BLUE        STATIC     ATOMS    COLORGROUP SYSTEM
6 46 47 48 49 50 51
ATOM$RED        STATIC     ATOMS    COLORGROUP SYSTEM
2 45 39
