AV-unprocessed.smi:1645|AV-procd|sdf|6619|dock3
  -GOLD-   22720 7313D 1   1.00000     0.00000
 Structure written by MMmdl.
 55 58  0  0  0  0  0  0  0  0  4 V2000
  146.8757  136.3119  155.8557 O   0  0  0  0  0  0  0  0  0  0  0  0
  147.3968  136.0457  154.7664 C   0  0  0  0  0  0  0  0  0  0  0  0
  148.5168  136.6795  154.3771 N   0  0  0  0  0  0  0  0  0  0  0  0
  149.2304  137.7088  155.0456 C   0  0  0  0  0  0  0  0  0  0  0  0
  150.3388  138.2813  154.3872 C   0  0  0  0  0  0  0  0  0  0  0  0
  151.0626  139.3172  155.0119 C   0  0  0  0  0  0  0  0  0  0  0  0
  150.6558  139.7746  156.2864 C   0  0  0  0  0  0  0  0  0  0  0  0
  151.3133  140.7958  156.9843 N   0  0  0  0  0  0  0  0  0  0  0  0
  151.8726  140.3395  158.2541 C   0  0  0  0  0  0  0  0  0  0  0  0
  152.7366  141.4372  158.8990 C   0  0  0  0  0  0  0  0  0  0  0  0
  151.9448  142.7473  159.0413 C   0  0  0  0  0  0  0  0  0  0  0  0
  151.3629  143.1648  157.6813 C   0  0  0  0  0  0  0  0  0  0  0  0
  150.5291  142.0256  157.0702 C   0  0  0  0  0  0  0  0  0  0  0  0
  149.5756  139.2167  156.8746 N   0  3  0  0  0  0  0  0  0  0  0  0
  148.8571  138.2211  156.3115 C   0  0  0  0  0  0  0  0  0  0  0  0
  146.9870  135.1223  153.8556 N   0  5  0  0  0  0  0  0  0  0  0  0
  145.6383  134.5530  153.7975 C   0  0  1  0  0  0  0  0  0  0  0  0
  144.5740  135.6033  153.4540 C   0  0  0  0  0  0  0  0  0  0  0  0
  143.4564  134.8072  152.7558 C   0  0  0  0  0  0  0  0  0  0  0  0
  143.9811  133.4331  152.5801 N   0  3  1  0  0  0  0  0  0  0  0  0
  143.4345  132.6479  151.4437 C   0  0  0  0  0  0  0  0  0  0  0  0
  144.0839  133.0181  150.1008 C   0  0  0  0  0  0  0  0  0  0  0  0
  145.6098  132.9252  150.1965 C   0  0  0  0  0  0  0  0  0  0  0  0
  146.1081  133.8491  151.3131 C   0  0  0  0  0  0  0  0  0  0  0  0
  145.4572  133.4981  152.6857 C   0  0  1  0  0  0  0  0  0  0  0  0
  148.9395  136.3322  153.5287 H   0  0  0  0  0  0  0  0  0  0  0  0
  150.6399  137.9245  153.4128 H   0  0  0  0  0  0  0  0  0  0  0  0
  151.9164  139.7528  154.5139 H   0  0  0  0  0  0  0  0  0  0  0  0
  151.0629  140.0613  158.9301 H   0  0  0  0  0  0  0  0  0  0  0  0
  152.4741  139.4442  158.0904 H   0  0  0  0  0  0  0  0  0  0  0  0
  153.0940  141.1068  159.8748 H   0  0  0  0  0  0  0  0  0  0  0  0
  153.6225  141.6112  158.2868 H   0  0  0  0  0  0  0  0  0  0  0  0
  151.1361  142.6117  159.7605 H   0  0  0  0  0  0  0  0  0  0  0  0
  152.5857  143.5358  159.4368 H   0  0  0  0  0  0  0  0  0  0  0  0
  150.7493  144.0590  157.7936 H   0  0  0  0  0  0  0  0  0  0  0  0
  152.1747  143.4288  157.0019 H   0  0  0  0  0  0  0  0  0  0  0  0
  150.1840  142.3113  156.0756 H   0  0  0  0  0  0  0  0  0  0  0  0
  149.6412  141.8528  157.6800 H   0  0  0  0  0  0  0  0  0  0  0  0
  148.0097  137.8833  156.8896 H   0  0  0  0  0  0  0  0  0  0  0  0
  145.3530  134.0948  154.7465 H   0  0  0  0  0  0  0  0  0  0  0  0
  144.2179  136.1267  154.3418 H   0  0  0  0  0  0  0  0  0  0  0  0
  144.9702  136.3538  152.7678 H   0  0  0  0  0  0  0  0  0  0  0  0
  142.5426  134.7778  153.3507 H   0  0  0  0  0  0  0  0  0  0  0  0
  143.2123  135.2640  151.7957 H   0  0  0  0  0  0  0  0  0  0  0  0
  143.6186  131.5930  151.6502 H   0  0  0  0  0  0  0  0  0  0  0  0
  142.3519  132.7697  151.3973 H   0  0  0  0  0  0  0  0  0  0  0  0
  143.7187  132.3533  149.3175 H   0  0  0  0  0  0  0  0  0  0  0  0
  143.7928  134.0275  149.8083 H   0  0  0  0  0  0  0  0  0  0  0  0
  145.9129  131.8970  150.3983 H   0  0  0  0  0  0  0  0  0  0  0  0
  146.0636  133.2066  149.2458 H   0  0  0  0  0  0  0  0  0  0  0  0
  147.1947  133.7710  151.3780 H   0  0  0  0  0  0  0  0  0  0  0  0
  145.8961  134.8787  151.0165 H   0  0  0  0  0  0  0  0  0  0  0  0
  145.8322  132.5286  153.0169 H   0  0  0  0  0  0  0  0  0  0  0  0
  143.6893  132.9491  153.4170 H   0  0  0  0  0  0  0  0  0  0  0  0
  149.2860  139.5642  157.7891 H   0  0  0  0  0  0  0  0  0  0  0  0
  1  2  2  0  0  0  0
  2  3  1  0  0  0  0
  2 16  1  0  0  0  0
  3  4  1  0  0  0  0
  3 26  1  0  0  0  0
  4 15  1  0  0  0  0
  4  5  2  0  0  0  0
  5  6  1  0  0  0  0
  5 27  1  0  0  0  0
  6  7  2  0  0  0  0
  6 28  1  0  0  0  0
  7  8  1  0  0  0  0
  7 14  1  0  0  0  0
  8 13  1  0  0  0  0
  8  9  1  0  0  0  0
  9 10  1  0  0  0  0
  9 29  1  0  0  0  0
  9 30  1  0  0  0  0
 10 11  1  0  0  0  0
 10 31  1  0  0  0  0
 10 32  1  0  0  0  0
 11 12  1  0  0  0  0
 11 33  1  0  0  0  0
 11 34  1  0  0  0  0
 12 13  1  0  0  0  0
 12 35  1  0  0  0  0
 12 36  1  0  0  0  0
 13 37  1  0  0  0  0
 13 38  1  0  0  0  0
 14 15  2  0  0  0  0
 14 55  1  0  0  0  0
 15 39  1  0  0  0  0
 16 17  1  0  0  0  0
 17 25  1  0  0  0  0
 17 18  1  0  0  0  0
 17 40  1  0  0  0  0
 18 19  1  0  0  0  0
 18 41  1  0  0  0  0
 18 42  1  0  0  0  0
 19 20  1  0  0  0  0
 19 43  1  0  0  0  0
 19 44  1  0  0  0  0
 20 25  1  0  0  0  0
 20 21  1  0  0  0  0
 20 54  1  0  0  0  0
 21 22  1  0  0  0  0
 21 45  1  0  0  0  0
 21 46  1  0  0  0  0
 22 23  1  0  0  0  0
 22 47  1  0  0  0  0
 22 48  1  0  0  0  0
 23 24  1  0  0  0  0
 23 49  1  0  0  0  0
 23 50  1  0  0  0  0
 24 25  1  0  0  0  0
 24 51  1  0  0  0  0
 24 52  1  0  0  0  0
 25 53  1  0  0  0  0
M  CHG  1  14   1
M  CHG  1  16  -1
M  CHG  1  20   1
M  END
> <s_m_source_file>
AV-unprocessed.smi

> <i_m_source_file_index>
1645

> <i_lp_mmshare_version>
43012

> <i_f3d_flags>
0

> <s_epik_input>
W0NIMl0xW0NIMl1bQ0gyXVtDSDJdW0NASF0oTjEyKVtDQEBIXShbQ0gyXVtDSDJdMilbTkhdQyg9TylbTkhdYzNbY0hdW2NIXWMobltjSF0zKU40W0NIMl1bQ0gyXVtDSDJdW0NIMl1bQ0gyXTQ=

> <s_epik_cmdline>
J2VwaWtfcHl0aG9uJywgJy1waCcsICc3LjAnLCAnLXRuJywgJzgnLCAnLW1hJywgJzIwMCcsICctbWV0YWxfYmluZGluZycsICctaW1hZScsICc8aW5maWxlLm1hZT4nLCAnLW9tYWUnLCAnPG91dGZpbGUubWFlPic=

> <r_lp_tautomer_probability>
0.999994

> <r_epik_Ionization_Penalty>
8.55589

> <r_epik_Ionization_Penalty_Charging>
8.55589

> <r_epik_Ionization_Penalty_Neutral>
3.8092e-06

> <r_epik_State_Penalty>
8.15703

> <r_epik_Charging_Adjusted_Penalty>
16.7129

> <i_epik_Tot_Q>
1

> <i_epik_Tot_abs_Q>
3

> <r_epik_Metal_State_Penalty>
4.13781

> <b_epik_Metal_Only>
1

> <s_lp_Force_Field>
OPLS_2005

> <r_lp_Energy>
57.4093

> <b_lp_Chiralities_Consistent>
1

> <s_lp_Variant>
AV-unprocessed.smi:1645-20

> <Gold.Version>
5.8.1

> <Gold.Id.Protein>
6NUR|6NUR_protein|mol2

> <Gold.PLP.Fitness>
44.4790

> <Gold.PLP.PLP>
-36.2374

> <Gold.PLP.part.hbond>
-1.9309

> <Gold.PLP.part.metal>
0.0000

> <Gold.PLP.part.buried>
-6.3718

> <Gold.PLP.part.nonpolar>
-29.9551

> <Gold.PLP.part.repulsive>
0.9051

> <Gold.PLP.ligand.clash>
0.0000

> <Gold.PLP.ligand.torsion>
0.1867

> <Gold.PLP.Chemscore.Hbond>
2.8200

> <Gold.PLP.Chemscore.CHOScore>
0.0000

> <Gold.PLP.Chemscore.Metal>
0.0000

> <Gold.Chemscore.Hbonds>
donor molecule, donor type, donor heavy atom, donor atom, acceptor molecule, acceptor atom, score
      L1  H     3    26       P1  7948  1.00
      L1  H    20    54       P1 10957  1.79

> <Gold.PLP.Chemscore.Internal.Correction>
0.1551

> <Gold.Rescore>
     Score         DG    S(hbond)    S(metal)    S(lipo)     H(rot)  DE(clash)    DE(int)     intcor
     19.61     -21.25       1.92        0.00     105.53       1.17       0.02       1.62       ----

> <Gold.Chemscore.Fitness>
19.6111

> <Gold.Chemscore.DG>
-21.2508

> <Gold.Chemscore.ZeroCoef>
-5.4800

> <Gold.Chemscore.Hbond>
1.9243

> <Gold.Chemscore.Metal>
0.0000

> <Gold.Chemscore.Lipo>
105.5280

> <Gold.Chemscore.Internal_Hbond>
0.0000

> <Gold.Chemscore.DEClash>
0.0208

> <Gold.Chemscore.DEInternal>
1.6188

> <Gold.Chemscore.Rot>
1.1731

> <Gold.Chemscore.Internal.Correction>
   9.000000E+99

> <Gold.Chemscore.Hbonds>
donor molecule, donor type, donor heavy atom, donor atom, acceptor molecule, acceptor atom, score
      L1  H     3    26       P1  7948  0.95
      L1  H    20    54       P1 10957  0.68

> <Gold.Chemscore.Hbond.Weighted>
-6.4272

> <Gold.Chemscore.Metal.Weighted>
-0.0000

> <Gold.Chemscore.Lipo.Weighted>
-12.3468

> <Gold.Chemscore.Internal_Hbond.Weighted>
0.0000

> <Gold.Chemscore.DEClash.Weighted>
0.0208

> <Gold.Chemscore.DEInternal.Weighted>
1.6188

> <Gold.Chemscore.Rot.Weighted>
3.0032

> <Gold.Chemscore.Internal.Correction.Weighted>
   9.000000E+99

> <Gold.Protein.RotatedTorsions>
[ 6907 6896 6895 6894 ] final  128.02 input  -60.11 | X-H torsion
[ 7974 7965 7964 7962 ] final  -62.65 input  175.53 | X-H torsion
[ 8008 7997 7996 7995 ] final  -84.15 input   59.86 | X-H torsion
[ 10167 10162 10161 10158 ] final   62.60 input  -65.29 | X-H torsion
[ 10718 10713 10712 10709 ] final   32.45 input   66.30 | X-H torsion
[ 10763 10752 10751 10750 ] final   -5.39 input  -60.55 | X-H torsion
[ 11005 11000 10999 10996 ] final -139.20 input  -57.11 | X-H torsion

> <Gold.Protein.ActiveResidues>
 VAL166  LYS551  ARG553  GLY616  TRP617  ASP618  TYR619  PRO620  LYS621  CYS622 
 ASP623  PHE694  ASN695  SER759  ASP760  ASP761  ALA762  ILE779  LEU786  VAL792 
 PHE793  MET794  SER795  GLU796  ALA797  LYS798  CYS799  TRP800  GLU811  SER814 

> <Gold.Protein.RotatedAtoms>
  152.3758  133.6480  159.6122 H   0  0  0  0  0  0  0  0  0  0  0  0  # atno 6907 bound_to 6896
  150.7703  133.9195  159.3402 H   0  0  0  0  0  0  0  0  0  0  0  0  # atno 6908 bound_to 6896
  151.7010  135.0931  160.0302 H   0  0  0  0  0  0  0  0  0  0  0  0  # atno 6909 bound_to 6896
  145.7887  140.8722  143.0292 H   0  0  0  0  0  0  0  0  0  0  0  0  # atno 7974 bound_to 7965
  154.6267  140.0609  156.9682 H   0  0  0  0  0  0  0  0  0  0  0  0  # atno 8008 bound_to 7997
  155.1731  140.3292  155.4370 H   0  0  0  0  0  0  0  0  0  0  0  0  # atno 8009 bound_to 7997
  156.2461  140.1910  156.6832 H   0  0  0  0  0  0  0  0  0  0  0  0  # atno 8010 bound_to 7997
  140.1421  144.4543  150.6805 H   0  0  0  0  0  0  0  0  0  0  0  0  # atno 10167 bound_to 10162
  157.2853  130.7275  149.6580 H   0  0  0  0  0  0  0  0  0  0  0  0  # atno 10718 bound_to 10713
  153.3979  135.7004  153.6447 H   0  0  0  0  0  0  0  0  0  0  0  0  # atno 10763 bound_to 10752
  153.4993  135.3656  155.2532 H   0  0  0  0  0  0  0  0  0  0  0  0  # atno 10764 bound_to 10752
  154.8708  135.4108  154.3308 H   0  0  0  0  0  0  0  0  0  0  0  0  # atno 10765 bound_to 10752
  140.8543  134.2248  157.4743 H   0  0  0  0  0  0  0  0  0  0  0  0  # atno 11005 bound_to 11000
  144.6785  140.0092  143.7484 LP  0  0  0  0  0  0  0  0  0  0  0  0  # atno 17320 bound_to 7965
  145.9999  139.3083  143.0934 LP  0  0  0  0  0  0  0  0  0  0  0  0  # atno 17321 bound_to 7965
  140.6754  143.2303  151.5521 LP  0  0  0  0  0  0  0  0  0  0  0  0  # atno 17342 bound_to 10162
  139.5467  144.2503  152.1454 LP  0  0  0  0  0  0  0  0  0  0  0  0  # atno 17343 bound_to 10162
  155.9665  130.4325  150.4967 LP  0  0  0  0  0  0  0  0  0  0  0  0  # atno 17370 bound_to 10713
  157.2919  131.0628  151.2128 LP  0  0  0  0  0  0  0  0  0  0  0  0  # atno 17371 bound_to 10713
  139.8705  134.9698  156.4680 LP  0  0  0  0  0  0  0  0  0  0  0  0  # atno 17394 bound_to 11000
  140.8755  133.7956  155.9410 LP  0  0  0  0  0  0  0  0  0  0  0  0  # atno 17395 bound_to 11000

$$$$
