AV-unprocessed.smi:249|AV-procd|sdf|1929|dock8
  -GOLD-   2262021 43D 1   1.00000     0.00000
 Structure written by MMmdl.
 64 67  0  0  0  0  0  0  0  0  2 V2000
  146.4649  133.7016  150.9088 C   0  0  0  0  0  0  0  0  0  0  0  0
  146.5609  132.7796  152.1357 C   0  0  0  0  0  0  0  0  0  0  0  0
  147.5465  133.2481  153.1530 N   0  3  1  0  0  0  0  0  0  0  0  0
  148.9230  133.3356  152.5836 C   0  0  0  0  0  0  0  0  0  0  0  0
  149.9693  133.6996  153.6454 C   0  0  0  0  0  0  0  0  0  0  0  0
  149.6051  135.0285  154.3194 C   0  0  2  0  0  0  0  0  0  0  0  0
  150.6041  135.4511  155.3076 N   0  0  0  0  0  0  0  0  0  0  0  0
  151.6488  134.5218  155.7361 C   0  0  0  0  0  0  0  0  0  0  0  0
  150.9408  136.7659  155.2654 C   0  0  0  0  0  0  0  0  0  0  0  0
  151.5368  137.2717  154.1530 N   0  0  0  0  0  0  0  0  0  0  0  0
  151.8511  138.5685  154.0877 C   0  0  0  0  0  0  0  0  0  0  0  0
  151.6663  139.5181  155.0059 N   0  0  0  0  0  0  0  0  0  0  0  0
  151.0856  139.0158  156.1331 C   0  0  0  0  0  0  0  0  0  0  0  0
  150.6866  137.6647  156.3398 C   0  0  0  0  0  0  0  0  0  0  0  0
  150.1173  137.5264  157.5997 N   0  0  0  0  0  0  0  0  0  0  0  0
  150.1643  138.7293  158.1028 C   0  0  0  0  0  0  0  0  0  0  0  0
  150.7581  139.6814  157.3039 N   0  0  0  0  0  0  0  0  0  0  0  0
  150.9217  141.0943  157.6186 C   0  0  0  0  0  0  0  0  0  0  0  0
  151.8087  141.3867  158.8634 C   0  0  1  0  0  0  0  0  0  0  0  0
  152.8338  140.2401  159.0336 C   0  0  0  0  0  0  0  0  0  0  0  0
  153.5321  140.0008  157.8287 O   0  0  0  0  0  0  0  0  0  0  0  0
  152.5485  142.7596  158.8184 C   0  0  1  0  0  0  0  0  0  0  0  0
  151.6934  143.9907  158.5544 C   0  0  0  0  0  0  0  0  0  0  0  0
  151.0772  144.2829  159.9179 C   0  0  0  0  0  0  0  0  0  0  0  0
  152.0419  143.8361  160.8645 O   0  0  0  0  0  0  0  0  0  0  0  0
  153.1065  143.1708  160.1903 C   0  0  0  0  0  0  0  0  0  0  0  0
  148.1951  134.9112  154.9142 C   0  0  0  0  0  0  0  0  0  0  0  0
  147.1521  134.5213  153.8432 C   0  0  2  0  0  0  0  0  0  0  0  0
  145.7648  134.4473  154.5155 C   0  0  0  0  0  0  0  0  0  0  0  0
  145.8541  133.2385  150.1336 H   0  0  0  0  0  0  0  0  0  0  0  0
  147.4491  133.8920  150.4799 H   0  0  0  0  0  0  0  0  0  0  0  0
  146.0018  134.6597  151.1413 H   0  0  0  0  0  0  0  0  0  0  0  0
  145.5802  132.6544  152.5972 H   0  0  0  0  0  0  0  0  0  0  0  0
  146.8462  131.8048  151.7476 H   0  0  0  0  0  0  0  0  0  0  0  0
  149.2192  132.3854  152.1430 H   0  0  0  0  0  0  0  0  0  0  0  0
  148.9368  134.0728  151.7790 H   0  0  0  0  0  0  0  0  0  0  0  0
  150.0308  132.8991  154.3836 H   0  0  0  0  0  0  0  0  0  0  0  0
  150.9530  133.7712  153.1796 H   0  0  0  0  0  0  0  0  0  0  0  0
  149.5520  135.7805  153.5326 H   0  0  0  0  0  0  0  0  0  0  0  0
  152.1955  134.9236  156.5904 H   0  0  0  0  0  0  0  0  0  0  0  0
  152.3621  134.3365  154.9323 H   0  0  0  0  0  0  0  0  0  0  0  0
  151.2270  133.5667  156.0460 H   0  0  0  0  0  0  0  0  0  0  0  0
  152.3164  138.8918  153.1682 H   0  0  0  0  0  0  0  0  0  0  0  0
  149.7769  138.9536  159.0861 H   0  0  0  0  0  0  0  0  0  0  0  0
  151.3493  141.5504  156.7255 H   0  0  0  0  0  0  0  0  0  0  0  0
  149.9391  141.5518  157.7408 H   0  0  0  0  0  0  0  0  0  0  0  0
  151.1825  141.3841  159.7549 H   0  0  0  0  0  0  0  0  0  0  0  0
  153.5473  140.4756  159.8240 H   0  0  0  0  0  0  0  0  0  0  0  0
  152.3553  139.3040  159.3157 H   0  0  0  0  0  0  0  0  0  0  0  0
  153.0001  139.4485  157.2765 H   0  0  0  0  0  0  0  0  0  0  0  0
  153.3473  142.7016  158.0779 H   0  0  0  0  0  0  0  0  0  0  0  0
  152.3435  144.8210  158.2743 H   0  0  0  0  0  0  0  0  0  0  0  0
  150.9670  143.8932  157.7542 H   0  0  0  0  0  0  0  0  0  0  0  0
  150.8464  145.3400  160.0507 H   0  0  0  0  0  0  0  0  0  0  0  0
  150.1575  143.7134  160.0564 H   0  0  0  0  0  0  0  0  0  0  0  0
  153.4875  142.3467  160.7914 H   0  0  0  0  0  0  0  0  0  0  0  0
  153.9240  143.8821  160.0619 H   0  0  0  0  0  0  0  0  0  0  0  0
  148.1779  134.1678  155.7117 H   0  0  0  0  0  0  0  0  0  0  0  0
  147.9194  135.8629  155.3708 H   0  0  0  0  0  0  0  0  0  0  0  0
  147.1215  135.3138  153.0934 H   0  0  0  0  0  0  0  0  0  0  0  0
  145.5897  135.3220  155.1429 H   0  0  0  0  0  0  0  0  0  0  0  0
  145.6755  133.5661  155.1516 H   0  0  0  0  0  0  0  0  0  0  0  0
  144.9510  134.4327  153.7916 H   0  0  0  0  0  0  0  0  0  0  0  0
  147.5744  132.5378  153.8707 H   0  0  0  0  0  0  0  0  0  0  0  0
  1  2  1  0  0  0  0
  1 30  1  0  0  0  0
  1 31  1  0  0  0  0
  1 32  1  0  0  0  0
  2  3  1  0  0  0  0
  2 33  1  0  0  0  0
  2 34  1  0  0  0  0
  3 28  1  0  0  0  0
  3  4  1  0  0  0  0
  3 64  1  0  0  0  0
  4  5  1  0  0  0  0
  4 35  1  0  0  0  0
  4 36  1  0  0  0  0
  5  6  1  0  0  0  0
  5 37  1  0  0  0  0
  5 38  1  0  0  0  0
  6  7  1  0  0  0  0
  6 27  1  0  0  0  0
  6 39  1  0  0  0  0
  7  8  1  0  0  0  0
  7  9  1  0  0  0  0
  8 40  1  0  0  0  0
  8 41  1  0  0  0  0
  8 42  1  0  0  0  0
  9 14  1  0  0  0  0
  9 10  2  0  0  0  0
 10 11  1  0  0  0  0
 11 12  2  0  0  0  0
 11 43  1  0  0  0  0
 12 13  1  0  0  0  0
 13 17  1  0  0  0  0
 13 14  2  0  0  0  0
 14 15  1  0  0  0  0
 15 16  2  0  0  0  0
 16 17  1  0  0  0  0
 16 44  1  0  0  0  0
 17 18  1  0  0  0  0
 18 19  1  0  0  0  0
 18 45  1  0  0  0  0
 18 46  1  0  0  0  0
 19 20  1  0  0  0  0
 19 22  1  0  0  0  0
 19 47  1  0  0  0  0
 20 21  1  0  0  0  0
 20 48  1  0  0  0  0
 20 49  1  0  0  0  0
 21 50  1  0  0  0  0
 22 26  1  0  0  0  0
 22 23  1  0  0  0  0
 22 51  1  0  0  0  0
 23 24  1  0  0  0  0
 23 52  1  0  0  0  0
 23 53  1  0  0  0  0
 24 25  1  0  0  0  0
 24 54  1  0  0  0  0
 24 55  1  0  0  0  0
 25 26  1  0  0  0  0
 26 56  1  0  0  0  0
 26 57  1  0  0  0  0
 27 28  1  0  0  0  0
 27 58  1  0  0  0  0
 27 59  1  0  0  0  0
 28 29  1  0  0  0  0
 28 60  1  0  0  0  0
 29 61  1  0  0  0  0
 29 62  1  0  0  0  0
 29 63  1  0  0  0  0
M  CHG  1   3   1
M  END
> <s_m_source_file>
AV-unprocessed.smi

> <i_m_source_file_index>
249

> <i_lp_mmshare_version>
43012

> <i_f3d_flags>
0

> <s_epik_input>
W0NIM11bQ0gyXU4xW0NIMl1bQ0gyXVtDQEhdKFtDSDJdW0NASF0xW0NIM10pTihbQ0gzXSljKG5bY0hdbjIpYyhjMjMpbltjSF1uM1tDSDJdW0NASF0oW0NIMl1bT0hdKVtDQEBIXTRbQ0gyXVtDSDJdT1tDSDJdNA==

> <s_epik_cmdline>
J2VwaWtfcHl0aG9uJywgJy1waCcsICc3LjAnLCAnLXRuJywgJzgnLCAnLW1hJywgJzIwMCcsICctbWV0YWxfYmluZGluZycsICctaW1hZScsICc8aW5maWxlLm1hZT4nLCAnLW9tYWUnLCAnPG91dGZpbGUubWFlPic=

> <r_lp_tautomer_probability>
1

> <r_epik_Ionization_Penalty>
0.00294688

> <r_epik_Ionization_Penalty_Charging>
0.00169971

> <r_epik_Ionization_Penalty_Neutral>
0.00124717

> <r_epik_State_Penalty>
-0

> <r_epik_Charging_Adjusted_Penalty>
0.00169971

> <i_epik_Tot_Q>
1

> <i_epik_Tot_abs_Q>
1

> <r_epik_Metal_State_Penalty>
-0

> <b_epik_Metal_Only>
0

> <s_lp_Force_Field>
OPLS_2005

> <r_lp_Energy>
57.6505

> <b_lp_Chiralities_Consistent>
1

> <s_lp_Variant>
AV-unprocessed.smi:249-32

> <Gold.Version>
5.8.1

> <Gold.Id.Protein>
6NUR|6NUR_protein|mol2

> <Gold.PLP.Fitness>
51.2223

> <Gold.PLP.PLP>
-48.6397

> <Gold.PLP.part.hbond>
-2.0000

> <Gold.PLP.part.metal>
0.0000

> <Gold.PLP.part.buried>
-7.4025

> <Gold.PLP.part.nonpolar>
-39.7013

> <Gold.PLP.part.repulsive>
0.2579

> <Gold.PLP.ligand.clash>
0.0000

> <Gold.PLP.ligand.torsion>
2.2545

> <Gold.PLP.Chemscore.Hbond>
2.0000

> <Gold.PLP.Chemscore.CHOScore>
0.0000

> <Gold.PLP.Chemscore.Metal>
0.0000

> <Gold.Chemscore.Hbonds>
donor molecule, donor type, donor heavy atom, donor atom, acceptor molecule, acceptor atom, score
      P1  H  7989  7998       L1    12  0.40
      P1  H  7997  8010       L1    21  0.57
      P1  H 10752 10763       L1    10  0.06

> <Gold.PLP.Chemscore.Internal.Correction>
1.0915

> <Gold.Rescore>
     Score         DG    S(hbond)    S(metal)    S(lipo)     H(rot)  DE(clash)    DE(int)     intcor
     11.37     -15.04       1.03        0.00     110.15       2.65       0.34       3.33       ----

> <Gold.Chemscore.Fitness>
11.3683

> <Gold.Chemscore.DG>
-15.0365

> <Gold.Chemscore.ZeroCoef>
-5.4800

> <Gold.Chemscore.Hbond>
1.0350

> <Gold.Chemscore.Metal>
0.0000

> <Gold.Chemscore.Lipo>
110.1510

> <Gold.Chemscore.Internal_Hbond>
0.0000

> <Gold.Chemscore.DEClash>
0.3392

> <Gold.Chemscore.DEInternal>
3.3290

> <Gold.Chemscore.Rot>
2.6515

> <Gold.Chemscore.Internal.Correction>
   9.000000E+99

> <Gold.Chemscore.Hbonds>
donor molecule, donor type, donor heavy atom, donor atom, acceptor molecule, acceptor atom, score
      P1  H  7989  7998       L1    12  0.01
      P1  H  7997  8010       L1    21  0.28

> <Gold.Chemscore.Hbond.Weighted>
-3.4568

> <Gold.Chemscore.Metal.Weighted>
-0.0000

> <Gold.Chemscore.Lipo.Weighted>
-12.8877

> <Gold.Chemscore.Internal_Hbond.Weighted>
0.0000

> <Gold.Chemscore.DEClash.Weighted>
0.3392

> <Gold.Chemscore.DEInternal.Weighted>
3.3290

> <Gold.Chemscore.Rot.Weighted>
6.7880

> <Gold.Chemscore.Internal.Correction.Weighted>
   9.000000E+99

> <Gold.Protein.RotatedTorsions>
[ 6907 6896 6895 6894 ] final -176.94 input  -60.11 | X-H torsion
[ 7974 7965 7964 7962 ] final  -56.85 input  175.53 | X-H torsion
[ 8008 7997 7996 7995 ] final   17.66 input   59.86 | X-H torsion
[ 10167 10162 10161 10158 ] final -109.16 input  -65.29 | X-H torsion
[ 10718 10713 10712 10709 ] final   96.20 input   66.30 | X-H torsion
[ 10763 10752 10751 10750 ] final   56.83 input  -60.55 | X-H torsion
[ 11005 11000 10999 10996 ] final -105.19 input  -57.11 | X-H torsion

> <Gold.Protein.ActiveResidues>
 VAL166  LYS551  ARG553  GLY616  TRP617  ASP618  TYR619  PRO620  LYS621  CYS622 
 ASP623  PHE694  ASN695  SER759  ASP760  ASP761  ALA762  ILE779  LEU786  VAL792 
 PHE793  MET794  SER795  GLU796  ALA797  LYS798  CYS799  TRP800  GLU811  SER814 

> <Gold.Protein.RotatedAtoms>
  151.6129  133.3345  159.3071 H   0  0  0  0  0  0  0  0  0  0  0  0  # atno 6907 bound_to 6896
  150.8147  134.7325  159.6731 H   0  0  0  0  0  0  0  0  0  0  0  0  # atno 6908 bound_to 6896
  152.4243  134.5903  160.0023 H   0  0  0  0  0  0  0  0  0  0  0  0  # atno 6909 bound_to 6896
  145.8579  140.8306  142.9952 H   0  0  0  0  0  0  0  0  0  0  0  0  # atno 7974 bound_to 7965
  154.8947  140.2992  155.5351 H   0  0  0  0  0  0  0  0  0  0  0  0  # atno 8008 bound_to 7997
  156.3020  140.2418  156.3902 H   0  0  0  0  0  0  0  0  0  0  0  0  # atno 8009 bound_to 7997
  154.8582  140.0406  157.1637 H   0  0  0  0  0  0  0  0  0  0  0  0  # atno 8010 bound_to 7997
  140.1583  143.4141  152.1444 H   0  0  0  0  0  0  0  0  0  0  0  0  # atno 10167 bound_to 10162
  157.6930  131.0570  150.4455 H   0  0  0  0  0  0  0  0  0  0  0  0  # atno 10718 bound_to 10713
  152.9839  135.5662  154.5292 H   0  0  0  0  0  0  0  0  0  0  0  0  # atno 10763 bound_to 10752
  154.4767  135.2787  155.1604 H   0  0  0  0  0  0  0  0  0  0  0  0  # atno 10764 bound_to 10752
  154.3129  135.6284  153.5527 H   0  0  0  0  0  0  0  0  0  0  0  0  # atno 10765 bound_to 10752
  141.1065  133.8787  157.1704 H   0  0  0  0  0  0  0  0  0  0  0  0  # atno 11005 bound_to 11000
  144.6727  140.1051  143.7458 LP  0  0  0  0  0  0  0  0  0  0  0  0  # atno 17320 bound_to 7965
  145.9282  139.2589  143.1341 LP  0  0  0  0  0  0  0  0  0  0  0  0  # atno 17321 bound_to 7965
  139.5393  144.7241  151.4787 LP  0  0  0  0  0  0  0  0  0  0  0  0  # atno 17342 bound_to 10162
  140.6659  143.8399  150.6941 LP  0  0  0  0  0  0  0  0  0  0  0  0  # atno 17343 bound_to 10162
  156.4810  130.4074  149.6461 LP  0  0  0  0  0  0  0  0  0  0  0  0  # atno 17370 bound_to 10713
  156.3507  130.7430  151.2389 LP  0  0  0  0  0  0  0  0  0  0  0  0  # atno 17371 bound_to 10713
  139.9938  135.0054  157.0035 LP  0  0  0  0  0  0  0  0  0  0  0  0  # atno 17394 bound_to 11000
  140.4888  134.1214  155.7229 LP  0  0  0  0  0  0  0  0  0  0  0  0  # atno 17395 bound_to 11000

$$$$
