AV-unprocessed.smi:3217|AV-procd|sdf|12292|dock3
  -GOLD-   2272018133D 1   1.00000     0.00000
 Structure written by MMmdl.
 34 35  0  0  0  0  0  0  0  0  1 V2000
  144.5460  135.4378  153.2297 C   0  0  0  0  0  0  0  0  0  0  0  0
  145.0584  135.9972  151.8935 C   0  0  1  0  0  0  0  0  0  0  0  0
  146.3085  136.7151  152.1337 N   0  0  0  0  0  0  0  0  0  0  0  0
  146.4421  137.8521  152.8317 C   0  0  0  0  0  0  0  0  0  0  0  0
  145.5051  138.4316  153.3799 O   0  0  0  0  0  0  0  0  0  0  0  0
  147.7261  138.2484  152.8616 N   0  0  0  0  0  0  0  0  0  0  0  0
  148.2892  139.3920  153.4908 C   0  0  0  0  0  0  0  0  0  0  0  0
  147.4945  140.5535  153.5784 C   0  0  0  0  0  0  0  0  0  0  0  0
  148.0175  141.6981  154.2095 C   0  0  0  0  0  0  0  0  0  0  0  0
  149.3203  141.6331  154.7400 C   0  0  0  0  0  0  0  0  0  0  0  0
  150.0892  140.5259  154.6789 N   0  0  0  0  0  0  0  0  0  0  0  0
  149.5819  139.4320  154.0703 C   0  0  0  0  0  0  0  0  0  0  0  0
  145.2984  134.8922  150.8465 C   0  0  1  0  0  0  0  0  0  0  0  0
  146.3169  133.8273  151.2598 C   0  0  0  0  0  0  0  0  0  0  0  0
  145.8829  132.5863  150.4932 C   0  0  0  0  0  0  0  0  0  0  0  0
  144.5004  132.9483  149.9463 C   0  0  0  0  0  0  0  0  0  0  0  0
  144.1238  134.1175  150.6574 O   0  0  0  0  0  0  0  0  0  0  0  0
  143.5915  134.9256  153.1068 H   0  0  0  0  0  0  0  0  0  0  0  0
  144.3933  136.2372  153.9555 H   0  0  0  0  0  0  0  0  0  0  0  0
  145.2525  134.7274  153.6603 H   0  0  0  0  0  0  0  0  0  0  0  0
  144.2994  136.6778  151.5041 H   0  0  0  0  0  0  0  0  0  0  0  0
  147.1399  136.3157  151.7238 H   0  0  0  0  0  0  0  0  0  0  0  0
  148.3898  137.6262  152.4245 H   0  0  0  0  0  0  0  0  0  0  0  0
  146.4967  140.5717  153.1646 H   0  0  0  0  0  0  0  0  0  0  0  0
  147.4340  142.6035  154.2862 H   0  0  0  0  0  0  0  0  0  0  0  0
  149.7536  142.4917  155.2315 H   0  0  0  0  0  0  0  0  0  0  0  0
  150.2349  138.5735  154.0764 H   0  0  0  0  0  0  0  0  0  0  0  0
  145.5885  135.3294  149.8887 H   0  0  0  0  0  0  0  0  0  0  0  0
  147.3429  134.1223  151.0381 H   0  0  0  0  0  0  0  0  0  0  0  0
  146.2480  133.6327  152.3309 H   0  0  0  0  0  0  0  0  0  0  0  0
  146.5713  132.3481  149.6817 H   0  0  0  0  0  0  0  0  0  0  0  0
  145.8349  131.7228  151.1575 H   0  0  0  0  0  0  0  0  0  0  0  0
  144.5575  133.1804  148.8818 H   0  0  0  0  0  0  0  0  0  0  0  0
  143.7715  132.1492  150.0823 H   0  0  0  0  0  0  0  0  0  0  0  0
  1  2  1  0  0  0  0
  1 18  1  0  0  0  0
  1 19  1  0  0  0  0
  1 20  1  0  0  0  0
  2  3  1  0  0  0  0
  2 13  1  0  0  0  0
  2 21  1  0  0  0  0
  3  4  1  0  0  0  0
  3 22  1  0  0  0  0
  4  5  2  0  0  0  0
  4  6  1  0  0  0  0
  6  7  1  0  0  0  0
  6 23  1  0  0  0  0
  7 12  1  0  0  0  0
  7  8  2  0  0  0  0
  8  9  1  0  0  0  0
  8 24  1  0  0  0  0
  9 10  2  0  0  0  0
  9 25  1  0  0  0  0
 10 11  1  0  0  0  0
 10 26  1  0  0  0  0
 11 12  2  0  0  0  0
 12 27  1  0  0  0  0
 13 17  1  0  0  0  0
 13 14  1  0  0  0  0
 13 28  1  0  0  0  0
 14 15  1  0  0  0  0
 14 29  1  0  0  0  0
 14 30  1  0  0  0  0
 15 16  1  0  0  0  0
 15 31  1  0  0  0  0
 15 32  1  0  0  0  0
 16 17  1  0  0  0  0
 16 33  1  0  0  0  0
 16 34  1  0  0  0  0
M  END
> <s_m_source_file>
AV-unprocessed.smi

> <i_m_source_file_index>
3217

> <i_lp_mmshare_version>
43012

> <i_f3d_flags>
0

> <s_epik_input>
TzFbQ0gyXVtDSDJdW0NIMl1bQ0BIXTFbQ0BIXShbQ0gzXSlbTkhdQyg9TylbTkhdYzJbY0hdW2NIXVtjSF1uW2NIXTI=

> <s_epik_cmdline>
J2VwaWtfcHl0aG9uJywgJy1waCcsICc3LjAnLCAnLXRuJywgJzgnLCAnLW1hJywgJzIwMCcsICctbWV0YWxfYmluZGluZycsICctaW1hZScsICc8aW5maWxlLm1hZT4nLCAnLW9tYWUnLCAnPG91dGZpbGUubWFlPic=

> <r_epik_Ionization_Penalty>
0.00475451

> <r_epik_Ionization_Penalty_Charging>
0

> <r_epik_Ionization_Penalty_Neutral>
0.00475451

> <r_epik_State_Penalty>
0.00341814

> <r_epik_Charging_Adjusted_Penalty>
0.00341814

> <i_epik_Tot_Q>
0

> <i_epik_Tot_abs_Q>
0

> <r_epik_Metal_State_Penalty>
-0

> <b_epik_Metal_Only>
0

> <s_lp_Force_Field>
OPLS_2005

> <r_lp_Energy>
20.3997

> <b_lp_Chiralities_Consistent>
1

> <s_lp_Variant>
AV-unprocessed.smi:3217-4

> <Gold.Version>
5.8.1

> <Gold.Id.Protein>
6NUR|6NUR_protein|mol2

> <Gold.PLP.Fitness>
39.8428

> <Gold.PLP.PLP>
-28.9071

> <Gold.PLP.part.hbond>
-3.7859

> <Gold.PLP.part.metal>
0.0000

> <Gold.PLP.part.buried>
-0.3077

> <Gold.PLP.part.nonpolar>
-27.4115

> <Gold.PLP.part.repulsive>
2.1507

> <Gold.PLP.ligand.clash>
0.0000

> <Gold.PLP.ligand.torsion>
0.3031

> <Gold.PLP.Chemscore.Hbond>
2.8400

> <Gold.PLP.Chemscore.CHOScore>
1.0000

> <Gold.PLP.Chemscore.Metal>
0.0000

> <Gold.Chemscore.Hbonds>
donor molecule, donor type, donor heavy atom, donor atom, acceptor molecule, acceptor atom, score
      L1  H     3    22       P1  7948  0.91
      L1  H     6    23       P1  7948  1.00
      P1  H  7989  7998       L1    11  0.90
      L1  C    10    26       P1  8028  1.00

> <Gold.PLP.Chemscore.Internal.Correction>
0.0219

> <Gold.Rescore>
     Score         DG    S(hbond)    S(metal)    S(lipo)     H(rot)  DE(clash)    DE(int)     intcor
     15.40     -17.11       1.98        0.00      69.70       1.22       0.15       1.56       ----

> <Gold.Chemscore.Fitness>
15.3996

> <Gold.Chemscore.DG>
-17.1092

> <Gold.Chemscore.ZeroCoef>
-5.4800

> <Gold.Chemscore.Hbond>
1.9781

> <Gold.Chemscore.Metal>
0.0000

> <Gold.Chemscore.Lipo>
69.6992

> <Gold.Chemscore.Internal_Hbond>
0.0000

> <Gold.Chemscore.DEClash>
0.1493

> <Gold.Chemscore.DEInternal>
1.5602

> <Gold.Chemscore.Rot>
1.2236

> <Gold.Chemscore.Internal.Correction>
   9.000000E+99

> <Gold.Chemscore.Hbonds>
donor molecule, donor type, donor heavy atom, donor atom, acceptor molecule, acceptor atom, score
      L1  H     3    22       P1  7948  0.90
      L1  H     6    23       P1  7948  0.97
      P1  H  7989  7998       L1    11  0.14

> <Gold.Chemscore.Hbond.Weighted>
-6.6069

> <Gold.Chemscore.Metal.Weighted>
-0.0000

> <Gold.Chemscore.Lipo.Weighted>
-8.1548

> <Gold.Chemscore.Internal_Hbond.Weighted>
0.0000

> <Gold.Chemscore.DEClash.Weighted>
0.1493

> <Gold.Chemscore.DEInternal.Weighted>
1.5602

> <Gold.Chemscore.Rot.Weighted>
3.1325

> <Gold.Chemscore.Internal.Correction.Weighted>
   9.000000E+99

> <Gold.Protein.RotatedTorsions>
[ 6907 6896 6895 6894 ] final   18.98 input  -60.11 | X-H torsion
[ 7974 7965 7964 7962 ] final   40.34 input  175.53 | X-H torsion
[ 8008 7997 7996 7995 ] final  166.56 input   59.86 | X-H torsion
[ 10167 10162 10161 10158 ] final   64.57 input  -65.29 | X-H torsion
[ 10718 10713 10712 10709 ] final  -63.71 input   66.30 | X-H torsion
[ 10763 10752 10751 10750 ] final    9.16 input  -60.55 | X-H torsion
[ 11005 11000 10999 10996 ] final  -33.06 input  -57.11 | X-H torsion

> <Gold.Protein.ActiveResidues>
 VAL166  LYS551  ARG553  GLY616  TRP617  ASP618  TYR619  PRO620  LYS621  CYS622 
 ASP623  PHE694  ASN695  SER759  ASP760  ASP761  ALA762  ILE779  LEU786  VAL792 
 PHE793  MET794  SER795  GLU796  ALA797  LYS798  CYS799  TRP800  GLU811  SER814 

> <Gold.Protein.RotatedAtoms>
  151.8737  135.0480  160.0481 H   0  0  0  0  0  0  0  0  0  0  0  0  # atno 6907 bound_to 6896
  152.2568  133.5258  159.5366 H   0  0  0  0  0  0  0  0  0  0  0  0  # atno 6908 bound_to 6896
  150.7102  134.0801  159.3937 H   0  0  0  0  0  0  0  0  0  0  0  0  # atno 6909 bound_to 6896
  146.0913  139.5545  142.9474 H   0  0  0  0  0  0  0  0  0  0  0  0  # atno 7974 bound_to 7965
  156.1708  140.1640  156.8451 H   0  0  0  0  0  0  0  0  0  0  0  0  # atno 8008 bound_to 7997
  154.5255  140.0768  156.8284 H   0  0  0  0  0  0  0  0  0  0  0  0  # atno 8009 bound_to 7997
  155.3516  140.3390  155.4241 H   0  0  0  0  0  0  0  0  0  0  0  0  # atno 8010 bound_to 7997
  140.1208  144.4733  150.6922 H   0  0  0  0  0  0  0  0  0  0  0  0  # atno 10167 bound_to 10162
  156.0774  130.4224  150.1315 H   0  0  0  0  0  0  0  0  0  0  0  0  # atno 10718 bound_to 10713
  153.2171  135.6876  153.8044 H   0  0  0  0  0  0  0  0  0  0  0  0  # atno 10763 bound_to 10752
  153.7256  135.3260  155.3276 H   0  0  0  0  0  0  0  0  0  0  0  0  # atno 10764 bound_to 10752
  154.8251  135.4623  154.1003 H   0  0  0  0  0  0  0  0  0  0  0  0  # atno 10765 bound_to 10752
  140.9604  133.7168  156.1360 H   0  0  0  0  0  0  0  0  0  0  0  0  # atno 11005 bound_to 11000
  145.6034  141.0351  143.2006 LP  0  0  0  0  0  0  0  0  0  0  0  0  # atno 17320 bound_to 7965
  144.7362  139.7579  143.7328 LP  0  0  0  0  0  0  0  0  0  0  0  0  # atno 17321 bound_to 7965
  140.6873  143.2357  151.5225 LP  0  0  0  0  0  0  0  0  0  0  0  0  # atno 17342 bound_to 10162
  139.5570  144.2251  152.1628 LP  0  0  0  0  0  0  0  0  0  0  0  0  # atno 17343 bound_to 10162
  156.9354  130.9727  151.3525 LP  0  0  0  0  0  0  0  0  0  0  0  0  # atno 17370 bound_to 10713
  157.5876  130.8420  149.8612 LP  0  0  0  0  0  0  0  0  0  0  0  0  # atno 17371 bound_to 10713
  140.7476  134.4081  157.5546 LP  0  0  0  0  0  0  0  0  0  0  0  0  # atno 17394 bound_to 11000
  139.8876  134.8878  156.2519 LP  0  0  0  0  0  0  0  0  0  0  0  0  # atno 17395 bound_to 11000

$$$$
