AV-unprocessed.smi:813|AV-procd|sdf|3818|dock5
  -GOLD-   22720 1253D 1   1.00000     0.00000
 Structure written by MMmdl.
 36 37  0  0  0  0  0  0  0  0  1 V2000
  146.3078  134.0258  155.6254 C   0  0  0  0  0  0  0  0  0  0  0  0
  145.7560  135.0581  154.6278 C   0  0  1  0  0  0  0  0  0  0  0  0
  146.8487  135.9519  154.2474 N   0  0  0  0  0  0  0  0  0  0  0  0
  147.0242  137.1977  154.7138 C   0  0  0  0  0  0  0  0  0  0  0  0
  146.2767  137.7240  155.5389 O   0  0  0  0  0  0  0  0  0  0  0  0
  148.1053  137.7766  154.1625 N   0  0  0  0  0  0  0  0  0  0  0  0
  148.6310  139.0727  154.4091 C   0  0  0  0  0  0  0  0  0  0  0  0
  149.7335  139.3029  155.1393 N   0  0  0  0  0  0  0  0  0  0  0  0
  150.0303  140.6573  155.2200 N   0  0  0  0  0  0  0  0  0  0  0  0
  149.1412  141.3946  154.5486 C   0  0  0  0  0  0  0  0  0  0  0  0
  147.8547  140.5062  153.7509 S   0  0  0  0  0  0  0  0  0  0  0  0
  145.2295  134.3050  153.3962 C   0  0  0  0  0  0  0  0  0  0  0  0
  144.3039  133.4988  153.5031 O   0  0  0  0  0  0  0  0  0  0  0  0
  145.8300  134.5857  152.2300 N   0  0  0  0  0  0  0  0  0  0  0  0
  145.5024  133.9735  150.9452 C   0  0  0  0  0  0  0  0  0  0  0  0
  144.0745  134.3407  150.4948 C   0  0  0  0  0  0  0  0  0  0  0  0
  143.2300  133.0891  150.7284 C   0  0  0  0  0  0  0  0  0  0  0  0
  144.2010  131.9383  150.4856 C   0  0  0  0  0  0  0  0  0  0  0  0
  145.5344  132.4354  151.0493 C   0  0  0  0  0  0  0  0  0  0  0  0
  145.5290  133.3349  155.9511 H   0  0  0  0  0  0  0  0  0  0  0  0
  146.6969  134.5174  156.5177 H   0  0  0  0  0  0  0  0  0  0  0  0
  147.1184  133.4353  155.1955 H   0  0  0  0  0  0  0  0  0  0  0  0
  144.9530  135.6285  155.0991 H   0  0  0  0  0  0  0  0  0  0  0  0
  147.5052  135.5999  153.5661 H   0  0  0  0  0  0  0  0  0  0  0  0
  148.6155  137.2236  153.4899 H   0  0  0  0  0  0  0  0  0  0  0  0
  149.2441  142.4693  154.5220 H   0  0  0  0  0  0  0  0  0  0  0  0
  146.5820  135.2595  152.2352 H   0  0  0  0  0  0  0  0  0  0  0  0
  146.2208  134.3050  150.1930 H   0  0  0  0  0  0  0  0  0  0  0  0
  143.6642  135.2132  151.0053 H   0  0  0  0  0  0  0  0  0  0  0  0
  144.0845  134.5708  149.4287 H   0  0  0  0  0  0  0  0  0  0  0  0
  142.8831  133.0674  151.7624 H   0  0  0  0  0  0  0  0  0  0  0  0
  142.3545  133.0463  150.0801 H   0  0  0  0  0  0  0  0  0  0  0  0
  143.8722  131.0065  150.9467 H   0  0  0  0  0  0  0  0  0  0  0  0
  144.2980  131.7628  149.4134 H   0  0  0  0  0  0  0  0  0  0  0  0
  146.3819  132.0066  150.5137 H   0  0  0  0  0  0  0  0  0  0  0  0
  145.6211  132.1194  152.0901 H   0  0  0  0  0  0  0  0  0  0  0  0
  1  2  1  0  0  0  0
  1 20  1  0  0  0  0
  1 21  1  0  0  0  0
  1 22  1  0  0  0  0
  2  3  1  0  0  0  0
  2 12  1  0  0  0  0
  2 23  1  0  0  0  0
  3  4  1  0  0  0  0
  3 24  1  0  0  0  0
  4  5  2  0  0  0  0
  4  6  1  0  0  0  0
  6  7  1  0  0  0  0
  6 25  1  0  0  0  0
  7 11  1  0  0  0  0
  7  8  2  0  0  0  0
  8  9  1  0  0  0  0
  9 10  2  0  0  0  0
 10 11  1  0  0  0  0
 10 26  1  0  0  0  0
 12 13  2  0  0  0  0
 12 14  1  0  0  0  0
 14 15  1  0  0  0  0
 14 27  1  0  0  0  0
 15 19  1  0  0  0  0
 15 16  1  0  0  0  0
 15 28  1  0  0  0  0
 16 17  1  0  0  0  0
 16 29  1  0  0  0  0
 16 30  1  0  0  0  0
 17 18  1  0  0  0  0
 17 31  1  0  0  0  0
 17 32  1  0  0  0  0
 18 19  1  0  0  0  0
 18 33  1  0  0  0  0
 18 34  1  0  0  0  0
 19 35  1  0  0  0  0
 19 36  1  0  0  0  0
M  END
> <s_m_source_file>
AV-unprocessed.smi

> <i_m_source_file_index>
813

> <i_lp_mmshare_version>
43012

> <i_f3d_flags>
0

> <s_epik_input>
W0NIMl0xW0NIMl1bQ0gyXVtDSDJdW0NIXTFbTkhdQyg9TylbQ0BIXShbQ0gzXSlbTkhdQyg9TylbTkhdYzJubltjSF1zMg==

> <s_epik_cmdline>
J2VwaWtfcHl0aG9uJywgJy1waCcsICc3LjAnLCAnLXRuJywgJzgnLCAnLW1hJywgJzIwMCcsICctbWV0YWxfYmluZGluZycsICctaW1hZScsICc8aW5maWxlLm1hZT4nLCAnLW9tYWUnLCAnPG91dGZpbGUubWFlPic=

> <r_lp_tautomer_probability>
1

> <r_epik_Ionization_Penalty>
0.00321247

> <r_epik_Ionization_Penalty_Charging>
0

> <r_epik_Ionization_Penalty_Neutral>
0.00321247

> <r_epik_State_Penalty>
-0

> <r_epik_Charging_Adjusted_Penalty>
0

> <i_epik_Tot_Q>
0

> <i_epik_Tot_abs_Q>
0

> <r_epik_Metal_State_Penalty>
0.363968

> <b_epik_Metal_Only>
0

> <s_lp_Force_Field>
OPLS_2005

> <r_lp_Energy>
15.9742

> <b_lp_Chiralities_Consistent>
1

> <s_lp_Variant>
AV-unprocessed.smi:813-2

> <Gold.Version>
5.8.1

> <Gold.Id.Protein>
6NUR|6NUR_protein|mol2

> <Gold.PLP.Fitness>
38.9630

> <Gold.PLP.PLP>
-27.7417

> <Gold.PLP.part.hbond>
-3.9952

> <Gold.PLP.part.metal>
0.0000

> <Gold.PLP.part.buried>
-3.8041

> <Gold.PLP.part.nonpolar>
-20.5245

> <Gold.PLP.part.repulsive>
0.3295

> <Gold.PLP.ligand.clash>
0.0000

> <Gold.PLP.ligand.torsion>
0.9881

> <Gold.PLP.Chemscore.Hbond>
3.3962

> <Gold.PLP.Chemscore.CHOScore>
1.0000

> <Gold.PLP.Chemscore.Metal>
0.0000

> <Gold.Chemscore.Hbonds>
donor molecule, donor type, donor heavy atom, donor atom, acceptor molecule, acceptor atom, score
      L1  H     3    24       P1  7948  0.26
      L1  H     6    25       P1  7948  1.00
      P1  H  7989  7998       L1     9  0.09
      L1  C    10    26       P1  8028  1.00

> <Gold.PLP.Chemscore.Internal.Correction>
0.0090

> <Gold.Rescore>
     Score         DG    S(hbond)    S(metal)    S(lipo)     H(rot)  DE(clash)    DE(int)     intcor
     14.62     -16.93       2.75        0.00      57.44       1.74       0.00       2.31       ----

> <Gold.Chemscore.Fitness>
14.6191

> <Gold.Chemscore.DG>
-16.9284

> <Gold.Chemscore.ZeroCoef>
-5.4800

> <Gold.Chemscore.Hbond>
2.7518

> <Gold.Chemscore.Metal>
0.0000

> <Gold.Chemscore.Lipo>
57.4366

> <Gold.Chemscore.Internal_Hbond>
0.0000

> <Gold.Chemscore.DEClash>
0.0004

> <Gold.Chemscore.DEInternal>
2.3089

> <Gold.Chemscore.Rot>
1.7433

> <Gold.Chemscore.Internal.Correction>
   9.000000E+99

> <Gold.Chemscore.Hbonds>
donor molecule, donor type, donor heavy atom, donor atom, acceptor molecule, acceptor atom, score
      L1  H     3    24       P1  7948  0.25
      L1  H     6    25       P1  7948  0.99

> <Gold.Chemscore.Hbond.Weighted>
-9.1911

> <Gold.Chemscore.Metal.Weighted>
-0.0000

> <Gold.Chemscore.Lipo.Weighted>
-6.7201

> <Gold.Chemscore.Internal_Hbond.Weighted>
0.0000

> <Gold.Chemscore.DEClash.Weighted>
0.0004

> <Gold.Chemscore.DEInternal.Weighted>
2.3089

> <Gold.Chemscore.Rot.Weighted>
4.4628

> <Gold.Chemscore.Internal.Correction.Weighted>
   9.000000E+99

> <Gold.Protein.RotatedTorsions>
[ 6907 6896 6895 6894 ] final  -55.48 input  -60.11 | X-H torsion
[ 7974 7965 7964 7962 ] final  171.34 input  175.53 | X-H torsion
[ 8008 7997 7996 7995 ] final -138.15 input   59.86 | X-H torsion
[ 10167 10162 10161 10158 ] final  109.05 input  -65.29 | X-H torsion
[ 10718 10713 10712 10709 ] final   -3.41 input   66.30 | X-H torsion
[ 10763 10752 10751 10750 ] final   36.33 input  -60.55 | X-H torsion
[ 11005 11000 10999 10996 ] final -165.76 input  -57.11 | X-H torsion

> <Gold.Protein.ActiveResidues>
 VAL166  LYS551  ARG553  GLY616  TRP617  ASP618  TYR619  PRO620  LYS621  CYS622 
 ASP623  PHE694  ASN695  SER759  ASP760  ASP761  ALA762  ILE779  LEU786  VAL792 
 PHE793  MET794  SER795  GLU796  ALA797  LYS798  CYS799  TRP800  GLU811  SER814 

> <Gold.Protein.RotatedAtoms>
  150.8248  134.7474  159.6803 H   0  0  0  0  0  0  0  0  0  0  0  0  # atno 6907 bound_to 6896
  152.4360  134.5682  159.9923 H   0  0  0  0  0  0  0  0  0  0  0  0  # atno 6908 bound_to 6896
  151.5857  133.3335  159.3053 H   0  0  0  0  0  0  0  0  0  0  0  0  # atno 6909 bound_to 6896
  144.7298  139.9335  143.6425 H   0  0  0  0  0  0  0  0  0  0  0  0  # atno 7974 bound_to 7965
  155.4236  140.0520  157.3024 H   0  0  0  0  0  0  0  0  0  0  0  0  # atno 8008 bound_to 7997
  154.4891  140.2113  155.9547 H   0  0  0  0  0  0  0  0  0  0  0  0  # atno 8009 bound_to 7997
  156.1317  140.3170  155.8364 H   0  0  0  0  0  0  0  0  0  0  0  0  # atno 8010 bound_to 7997
  139.6797  144.7119  151.1537 H   0  0  0  0  0  0  0  0  0  0  0  0  # atno 10167 bound_to 10162
  156.7764  130.5316  149.5758 H   0  0  0  0  0  0  0  0  0  0  0  0  # atno 10718 bound_to 10713
  153.0081  135.6309  154.1968 H   0  0  0  0  0  0  0  0  0  0  0  0  # atno 10763 bound_to 10752
  154.1711  135.2818  155.3082 H   0  0  0  0  0  0  0  0  0  0  0  0  # atno 10764 bound_to 10752
  154.5907  135.5618  153.7336 H   0  0  0  0  0  0  0  0  0  0  0  0  # atno 10765 bound_to 10752
  140.5721  134.5227  157.5163 H   0  0  0  0  0  0  0  0  0  0  0  0  # atno 11005 bound_to 11000
  146.0839  139.3827  143.0447 LP  0  0  0  0  0  0  0  0  0  0  0  0  # atno 17320 bound_to 7965
  145.7803  140.9859  143.1103 LP  0  0  0  0  0  0  0  0  0  0  0  0  # atno 17321 bound_to 7965
  140.7648  143.5717  150.8988 LP  0  0  0  0  0  0  0  0  0  0  0  0  # atno 17342 bound_to 10162
  139.9389  143.6406  152.3058 LP  0  0  0  0  0  0  0  0  0  0  0  0  # atno 17343 bound_to 10162
  156.1245  130.6134  151.0244 LP  0  0  0  0  0  0  0  0  0  0  0  0  # atno 17370 bound_to 10713
  157.6667  131.0870  150.7711 LP  0  0  0  0  0  0  0  0  0  0  0  0  # atno 17371 bound_to 10713
  139.9357  134.7880  156.0810 LP  0  0  0  0  0  0  0  0  0  0  0  0  # atno 17394 bound_to 11000
  141.1049  133.6663  156.2841 LP  0  0  0  0  0  0  0  0  0  0  0  0  # atno 17395 bound_to 11000

$$$$
