AV-unprocessed.smi:1738|AV-procd|sdf|7000|dock1
  -GOLD-   22720 8213D 1   1.00000     0.00000
 Structure written by MMmdl.
 46 48  0  0  0  0  0  0  0  0  2 V2000
  154.0432  136.2245  158.0979 C   0  0  0  0  0  0  0  0  0  0  0  0
  152.5642  137.3148  158.1774 S   0  0  0  0  0  0  0  0  0  0  0  0
  151.9815  137.2047  159.5238 O   0  0  0  0  0  0  0  0  0  0  0  0
  152.9497  138.6365  157.6587 O   0  0  0  0  0  0  0  0  0  0  0  0
  151.4225  136.5673  157.0204 C   0  0  0  0  0  0  0  0  0  0  0  0
  150.2391  135.9551  157.4791 C   0  0  0  0  0  0  0  0  0  0  0  0
  149.3538  135.4207  156.5237 C   0  0  0  0  0  0  0  0  0  0  0  0
  149.6795  135.5320  155.1485 C   0  0  0  0  0  0  0  0  0  0  0  0
  148.8818  135.0405  154.0778 N   0  0  0  0  0  0  0  0  0  0  0  0
  147.8682  134.1579  154.1014 C   0  0  0  0  0  0  0  0  0  0  0  0
  147.4538  133.5652  155.0962 O   0  0  0  0  0  0  0  0  0  0  0  0
  147.3472  133.9908  152.8770 N   0  0  0  0  0  0  0  0  0  0  0  0
  146.2180  133.1201  152.5536 C   0  0  1  0  0  0  0  0  0  0  0  0
  145.8287  133.1618  151.0638 C   0  0  0  0  0  0  0  0  0  0  0  0
  145.4825  131.7104  150.7168 C   0  0  0  0  0  0  0  0  0  0  0  0
  146.4085  130.9453  151.5598 N   0  3  2  0  0  0  0  0  0  0  0  0
  146.2173  129.4862  151.6824 C   0  0  0  0  0  0  0  0  0  0  0  0
  147.4230  128.9016  152.4499 C   0  0  0  0  0  0  0  0  0  0  0  0
  147.6771  129.6318  153.7886 C   0  0  0  0  0  0  0  0  0  0  0  0
  147.7310  131.1648  153.6087 C   0  0  0  0  0  0  0  0  0  0  0  0
  146.4642  131.6247  152.8654 C   0  0  1  0  0  0  0  0  0  0  0  0
  150.8917  136.1719  154.8106 C   0  0  0  0  0  0  0  0  0  0  0  0
  151.7474  136.6889  155.7163 N   0  0  0  0  0  0  0  0  0  0  0  0
  154.8111  136.6050  158.7710 H   0  0  0  0  0  0  0  0  0  0  0  0
  154.4288  136.2080  157.0787 H   0  0  0  0  0  0  0  0  0  0  0  0
  153.7669  135.2139  158.3979 H   0  0  0  0  0  0  0  0  0  0  0  0
  150.0115  135.8912  158.5328 H   0  0  0  0  0  0  0  0  0  0  0  0
  148.4541  134.9406  156.8727 H   0  0  0  0  0  0  0  0  0  0  0  0
  149.0857  135.4479  153.1769 H   0  0  0  0  0  0  0  0  0  0  0  0
  147.7512  134.5161  152.1154 H   0  0  0  0  0  0  0  0  0  0  0  0
  145.3479  133.4460  153.1272 H   0  0  0  0  0  0  0  0  0  0  0  0
  145.0046  133.8472  150.8631 H   0  0  0  0  0  0  0  0  0  0  0  0
  146.6781  133.4825  150.4587 H   0  0  0  0  0  0  0  0  0  0  0  0
  144.4530  131.4818  150.9974 H   0  0  0  0  0  0  0  0  0  0  0  0
  145.6124  131.4872  149.6576 H   0  0  0  0  0  0  0  0  0  0  0  0
  145.2819  129.2713  152.2008 H   0  0  0  0  0  0  0  0  0  0  0  0
  146.1495  129.0379  150.6907 H   0  0  0  0  0  0  0  0  0  0  0  0
  147.2729  127.8363  152.6275 H   0  0  0  0  0  0  0  0  0  0  0  0
  148.3148  128.9842  151.8274 H   0  0  0  0  0  0  0  0  0  0  0  0
  146.8797  129.3807  154.4892 H   0  0  0  0  0  0  0  0  0  0  0  0
  148.6038  129.2753  154.2392 H   0  0  0  0  0  0  0  0  0  0  0  0
  147.8013  131.6473  154.5838 H   0  0  0  0  0  0  0  0  0  0  0  0
  148.6238  131.4445  153.0482 H   0  0  0  0  0  0  0  0  0  0  0  0
  145.6007  131.2910  153.4453 H   0  0  0  0  0  0  0  0  0  0  0  0
  151.1835  136.2789  153.7760 H   0  0  0  0  0  0  0  0  0  0  0  0
  147.3183  131.0778  151.1415 H   0  0  0  0  0  0  0  0  0  0  0  0
  1  2  1  0  0  0  0
  1 24  1  0  0  0  0
  1 25  1  0  0  0  0
  1 26  1  0  0  0  0
  2  3  2  0  0  0  0
  2  4  2  0  0  0  0
  2  5  1  0  0  0  0
  5 23  1  0  0  0  0
  5  6  2  0  0  0  0
  6  7  1  0  0  0  0
  6 27  1  0  0  0  0
  7  8  2  0  0  0  0
  7 28  1  0  0  0  0
  8  9  1  0  0  0  0
  8 22  1  0  0  0  0
  9 10  1  0  0  0  0
  9 29  1  0  0  0  0
 10 11  2  0  0  0  0
 10 12  1  0  0  0  0
 12 13  1  0  0  0  0
 12 30  1  0  0  0  0
 13 21  1  0  0  0  0
 13 14  1  0  0  0  0
 13 31  1  0  0  0  0
 14 15  1  0  0  0  0
 14 32  1  0  0  0  0
 14 33  1  0  0  0  0
 15 16  1  0  0  0  0
 15 34  1  0  0  0  0
 15 35  1  0  0  0  0
 16 21  1  0  0  0  0
 16 17  1  0  0  0  0
 16 46  1  0  0  0  0
 17 18  1  0  0  0  0
 17 36  1  0  0  0  0
 17 37  1  0  0  0  0
 18 19  1  0  0  0  0
 18 38  1  0  0  0  0
 18 39  1  0  0  0  0
 19 20  1  0  0  0  0
 19 40  1  0  0  0  0
 19 41  1  0  0  0  0
 20 21  1  0  0  0  0
 20 42  1  0  0  0  0
 20 43  1  0  0  0  0
 21 44  1  0  0  0  0
 22 23  2  0  0  0  0
 22 45  1  0  0  0  0
M  CHG  1  16   1
M  END
> <s_m_source_file>
AV-unprocessed.smi

> <i_m_source_file_index>
1738

> <i_lp_mmshare_version>
43012

> <i_f3d_flags>
0

> <s_epik_input>
W0NIM11TKD1PKSg9TyljMVtjSF1bY0hdYyhbY0hdbjEpW05IXUMoPU8pW05IXVtDQEhdKFtDSDJdW0NIMl0yKVtDQEBIXShOMjMpW0NIMl1bQ0gyXVtDSDJdW0NIMl0z

> <s_epik_cmdline>
J2VwaWtfcHl0aG9uJywgJy1waCcsICc3LjAnLCAnLXRuJywgJzgnLCAnLW1hJywgJzIwMCcsICctbWV0YWxfYmluZGluZycsICctaW1hZScsICc8aW5maWxlLm1hZT4nLCAnLW9tYWUnLCAnPG91dGZpbGUubWFlPic=

> <r_epik_Ionization_Penalty>
0.00100042

> <r_epik_Ionization_Penalty_Charging>
0.000974069

> <r_epik_Ionization_Penalty_Neutral>
2.63543e-05

> <r_epik_State_Penalty>
0.000633842

> <r_epik_Charging_Adjusted_Penalty>
0.00160791

> <i_epik_Tot_Q>
1

> <i_epik_Tot_abs_Q>
1

> <r_epik_Metal_State_Penalty>
-0

> <b_epik_Metal_Only>
0

> <s_lp_Force_Field>
OPLS_2005

> <r_lp_Energy>
43.1339

> <b_lp_Chiralities_Consistent>
1

> <s_lp_Variant>
AV-unprocessed.smi:1738-4

> <Gold.Version>
5.8.1

> <Gold.Id.Protein>
6NUR|6NUR_protein|mol2

> <Gold.PLP.Fitness>
45.5628

> <Gold.PLP.PLP>
-27.6713

> <Gold.PLP.part.hbond>
-5.5369

> <Gold.PLP.part.metal>
0.0000

> <Gold.PLP.part.buried>
-1.0130

> <Gold.PLP.part.nonpolar>
-20.7840

> <Gold.PLP.part.repulsive>
0.0926

> <Gold.PLP.ligand.clash>
0.0000

> <Gold.PLP.ligand.torsion>
1.0956

> <Gold.PLP.Chemscore.Hbond>
5.0181

> <Gold.PLP.Chemscore.CHOScore>
1.0000

> <Gold.PLP.Chemscore.Metal>
0.0000

> <Gold.Chemscore.Hbonds>
donor molecule, donor type, donor heavy atom, donor atom, acceptor molecule, acceptor atom, score
      L1  H     9    29       P1  7948  0.93
      L1  H    12    30       P1  7948  0.73
      L1  H    16    46       P1 10747  1.00
      P1  H  6896  6908       L1     3  0.78
      P1  H  7997  8009       L1     4  0.49
      P1  H 10752 10765       L1    23  0.54
      L1  C    22    45       P1  7949  1.00

> <Gold.PLP.Chemscore.Internal.Correction>
2.0285

> <Gold.Rescore>
     Score         DG    S(hbond)    S(metal)    S(lipo)     H(rot)  DE(clash)    DE(int)     intcor
     19.05     -22.26       3.17        0.00      74.70       1.00       0.01       3.20       ----

> <Gold.Chemscore.Fitness>
19.0486

> <Gold.Chemscore.DG>
-22.2637

> <Gold.Chemscore.ZeroCoef>
-5.4800

> <Gold.Chemscore.Hbond>
3.1747

> <Gold.Chemscore.Metal>
0.0000

> <Gold.Chemscore.Lipo>
74.7035

> <Gold.Chemscore.Internal_Hbond>
0.0000

> <Gold.Chemscore.DEClash>
0.0119

> <Gold.Chemscore.DEInternal>
3.2033

> <Gold.Chemscore.Rot>
1.0000

> <Gold.Chemscore.Internal.Correction>
   9.000000E+99

> <Gold.Chemscore.Hbonds>
donor molecule, donor type, donor heavy atom, donor atom, acceptor molecule, acceptor atom, score
      L1  H     9    29       P1  7948  0.35
      L1  H    12    30       P1  7948  0.31
      L1  H    16    46       P1 10747  1.00
      P1  H  6896  6908       L1     3  0.57
      P1  H  7997  8009       L1     4  0.50
      P1  H 10752 10765       L1    23  0.03

> <Gold.Chemscore.Hbond.Weighted>
-10.6034

> <Gold.Chemscore.Metal.Weighted>
-0.0000

> <Gold.Chemscore.Lipo.Weighted>
-8.7403

> <Gold.Chemscore.Internal_Hbond.Weighted>
0.0000

> <Gold.Chemscore.DEClash.Weighted>
0.0119

> <Gold.Chemscore.DEInternal.Weighted>
3.2033

> <Gold.Chemscore.Rot.Weighted>
2.5600

> <Gold.Chemscore.Internal.Correction.Weighted>
   9.000000E+99

> <Gold.Protein.RotatedTorsions>
[ 6907 6896 6895 6894 ] final -113.06 input  -60.11 | X-H torsion
[ 7974 7965 7964 7962 ] final  -16.71 input  175.53 | X-H torsion
[ 8008 7997 7996 7995 ] final  156.07 input   59.86 | X-H torsion
[ 10167 10162 10161 10158 ] final  -75.96 input  -65.29 | X-H torsion
[ 10718 10713 10712 10709 ] final  172.11 input   66.30 | X-H torsion
[ 10763 10752 10751 10750 ] final -144.81 input  -60.55 | X-H torsion
[ 11005 11000 10999 10996 ] final  -77.62 input  -57.11 | X-H torsion

> <Gold.Protein.ActiveResidues>
 VAL166  LYS551  ARG553  GLY616  TRP617  ASP618  TYR619  PRO620  LYS621  CYS622 
 ASP623  PHE694  ASN695  SER759  ASP760  ASP761  ALA762  ILE779  LEU786  VAL792 
 PHE793  MET794  SER795  GLU796  ALA797  LYS798  CYS799  TRP800  GLU811  SER814 

> <Gold.Protein.RotatedAtoms>
  150.7802  133.8999  159.3337 H   0  0  0  0  0  0  0  0  0  0  0  0  # atno 6907 bound_to 6896
  151.6864  135.0952  160.0235 H   0  0  0  0  0  0  0  0  0  0  0  0  # atno 6908 bound_to 6896
  152.3851  133.6562  159.6228 H   0  0  0  0  0  0  0  0  0  0  0  0  # atno 6909 bound_to 6896
  146.1975  140.3675  142.8435 H   0  0  0  0  0  0  0  0  0  0  0  0  # atno 7974 bound_to 7965
  156.2443  140.1922  156.6899 H   0  0  0  0  0  0  0  0  0  0  0  0  # atno 8008 bound_to 7997
  154.6259  140.0602  156.9699 H   0  0  0  0  0  0  0  0  0  0  0  0  # atno 8009 bound_to 7997
  155.1787  140.3274  155.4381 H   0  0  0  0  0  0  0  0  0  0  0  0  # atno 8010 bound_to 7997
  140.4898  143.2383  151.7925 H   0  0  0  0  0  0  0  0  0  0  0  0  # atno 10167 bound_to 10162
  156.9837  131.0127  151.2875 H   0  0  0  0  0  0  0  0  0  0  0  0  # atno 10718 bound_to 10713
  154.8411  135.3430  154.6405 H   0  0  0  0  0  0  0  0  0  0  0  0  # atno 10763 bound_to 10752
  153.7016  135.6969  153.5066 H   0  0  0  0  0  0  0  0  0  0  0  0  # atno 10764 bound_to 10752
  153.2518  135.4351  155.0760 H   0  0  0  0  0  0  0  0  0  0  0  0  # atno 10765 bound_to 10752
  141.1661  133.7030  156.7848 H   0  0  0  0  0  0  0  0  0  0  0  0  # atno 11005 bound_to 11000
  144.8611  140.7141  143.6107 LP  0  0  0  0  0  0  0  0  0  0  0  0  # atno 17320 bound_to 7965
  145.3595  139.1685  143.4391 LP  0  0  0  0  0  0  0  0  0  0  0  0  # atno 17321 bound_to 7965
  139.4849  144.4664  151.9479 LP  0  0  0  0  0  0  0  0  0  0  0  0  # atno 17342 bound_to 10162
  140.3750  144.2807  150.5915 LP  0  0  0  0  0  0  0  0  0  0  0  0  # atno 17343 bound_to 10162
  157.5508  130.8181  149.8142 LP  0  0  0  0  0  0  0  0  0  0  0  0  # atno 17370 bound_to 10713
  156.0234  130.3787  150.1894 LP  0  0  0  0  0  0  0  0  0  0  0  0  # atno 17371 bound_to 10713
  140.2368  134.8644  157.3533 LP  0  0  0  0  0  0  0  0  0  0  0  0  # atno 17394 bound_to 11000
  140.1835  134.4459  155.7757 LP  0  0  0  0  0  0  0  0  0  0  0  0  # atno 17395 bound_to 11000

$$$$
