AV-unprocessed.smi:1260|AV-procd|sdf|5297|dock1
  -GOLD-   22720 4413D 1   1.00000     0.00000
 Structure written by MMmdl.
 37 39  0  0  0  0  0  0  0  0  2 V2000
  154.1161  140.1818  159.0123 O   0  0  0  0  0  0  0  0  0  0  0  0
  153.5187  139.7936  160.0153 C   0  0  0  0  0  0  0  0  0  0  0  0
  153.0205  138.3479  160.0941 C   0  0  0  0  0  0  0  0  0  0  0  0
  151.8801  138.1197  159.2246 N   0  0  0  0  0  0  0  0  0  0  0  0
  151.2524  138.9317  158.3716 C   0  0  0  0  0  0  0  0  0  0  0  0
  150.2378  138.3250  157.7753 N   0  0  0  0  0  0  0  0  0  0  0  0
  150.2727  137.0498  158.3144 N   0  0  0  0  0  0  0  0  0  0  0  0
  151.2464  136.9212  159.1733 N   0  0  0  0  0  0  0  0  0  0  0  0
  153.2552  140.5860  161.0676 N   0  0  0  0  0  0  0  0  0  0  0  0
  153.6791  141.9781  161.2047 C   0  0  2  0  0  0  0  0  0  0  0  0
  153.2626  142.5988  162.5520 C   0  0  0  0  0  0  0  0  0  0  0  0
  152.8004  144.0169  162.2012 C   0  0  0  0  0  0  0  0  0  0  0  0
  152.2230  143.8534  160.8617 N   0  3  1  0  0  0  0  0  0  0  0  0
  151.8919  145.0643  160.0837 C   0  0  0  0  0  0  0  0  0  0  0  0
  151.1377  144.6330  158.8073 C   0  0  0  0  0  0  0  0  0  0  0  0
  151.9043  143.5522  158.0114 C   0  0  0  0  0  0  0  0  0  0  0  0
  152.3349  142.3733  158.9110 C   0  0  0  0  0  0  0  0  0  0  0  0
  153.1005  142.9258  160.1268 C   0  0  2  0  0  0  0  0  0  0  0  0
  153.8255  137.6693  159.8094 H   0  0  0  0  0  0  0  0  0  0  0  0
  152.7374  138.1016  161.1187 H   0  0  0  0  0  0  0  0  0  0  0  0
  151.5324  139.9597  158.1930 H   0  0  0  0  0  0  0  0  0  0  0  0
  152.7549  140.1835  161.8469 H   0  0  0  0  0  0  0  0  0  0  0  0
  154.7688  142.0194  161.1445 H   0  0  0  0  0  0  0  0  0  0  0  0
  152.4266  142.0452  162.9826 H   0  0  0  0  0  0  0  0  0  0  0  0
  154.0704  142.5935  163.2847 H   0  0  0  0  0  0  0  0  0  0  0  0
  152.0758  144.4125  162.9136 H   0  0  0  0  0  0  0  0  0  0  0  0
  153.6513  144.6987  162.1559 H   0  0  0  0  0  0  0  0  0  0  0  0
  151.2686  145.7289  160.6829 H   0  0  0  0  0  0  0  0  0  0  0  0
  152.8019  145.6114  159.8329 H   0  0  0  0  0  0  0  0  0  0  0  0
  150.1593  144.2397  159.0869 H   0  0  0  0  0  0  0  0  0  0  0  0
  150.9488  145.5001  158.1740 H   0  0  0  0  0  0  0  0  0  0  0  0
  151.2917  143.1890  157.1858 H   0  0  0  0  0  0  0  0  0  0  0  0
  152.7897  144.0020  157.5601 H   0  0  0  0  0  0  0  0  0  0  0  0
  151.4585  141.8107  159.2355 H   0  0  0  0  0  0  0  0  0  0  0  0
  152.9625  141.6874  158.3413 H   0  0  0  0  0  0  0  0  0  0  0  0
  153.9454  143.5065  159.7500 H   0  0  0  0  0  0  0  0  0  0  0  0
  151.3536  143.3595  161.0038 H   0  0  0  0  0  0  0  0  0  0  0  0
  1  2  2  0  0  0  0
  2  3  1  0  0  0  0
  2  9  1  0  0  0  0
  3  4  1  0  0  0  0
  3 19  1  0  0  0  0
  3 20  1  0  0  0  0
  4  8  1  0  0  0  0
  4  5  1  0  0  0  0
  5  6  2  0  0  0  0
  5 21  1  0  0  0  0
  6  7  1  0  0  0  0
  7  8  2  0  0  0  0
  9 10  1  0  0  0  0
  9 22  1  0  0  0  0
 10 18  1  0  0  0  0
 10 11  1  0  0  0  0
 10 23  1  0  0  0  0
 11 12  1  0  0  0  0
 11 24  1  0  0  0  0
 11 25  1  0  0  0  0
 12 13  1  0  0  0  0
 12 26  1  0  0  0  0
 12 27  1  0  0  0  0
 13 18  1  0  0  0  0
 13 14  1  0  0  0  0
 13 37  1  0  0  0  0
 14 15  1  0  0  0  0
 14 28  1  0  0  0  0
 14 29  1  0  0  0  0
 15 16  1  0  0  0  0
 15 30  1  0  0  0  0
 15 31  1  0  0  0  0
 16 17  1  0  0  0  0
 16 32  1  0  0  0  0
 16 33  1  0  0  0  0
 17 18  1  0  0  0  0
 17 34  1  0  0  0  0
 17 35  1  0  0  0  0
 18 36  1  0  0  0  0
M  CHG  1  13   1
M  END
> <s_m_source_file>
AV-unprocessed.smi

> <i_m_source_file_index>
1260

> <i_lp_mmshare_version>
43012

> <i_f3d_flags>
0

> <s_epik_input>
bjFubltjSF1uMVtDSDJdQyg9TylbTkhdW0NASF0oW0NIMl1bQ0gyXTIpW0NAQEhdKE4yMylbQ0gyXVtDSDJdW0NIMl1bQ0gyXTM=

> <s_epik_cmdline>
J2VwaWtfcHl0aG9uJywgJy1waCcsICc3LjAnLCAnLXRuJywgJzgnLCAnLW1hJywgJzIwMCcsICctbWV0YWxfYmluZGluZycsICctaW1hZScsICc8aW5maWxlLm1hZT4nLCAnLW9tYWUnLCAnPG91dGZpbGUubWFlPic=

> <r_lp_tautomer_probability>
1

> <r_epik_Ionization_Penalty>
0.00234324

> <r_epik_Ionization_Penalty_Charging>
0.00233897

> <r_epik_Ionization_Penalty_Neutral>
4.26861e-06

> <r_epik_State_Penalty>
0.00161477

> <r_epik_Charging_Adjusted_Penalty>
0.00395374

> <i_epik_Tot_Q>
1

> <i_epik_Tot_abs_Q>
1

> <r_epik_Metal_State_Penalty>
-0

> <b_epik_Metal_Only>
0

> <s_lp_Force_Field>
OPLS_2005

> <r_lp_Energy>
44.4325

> <b_lp_Chiralities_Consistent>
1

> <s_lp_Variant>
AV-unprocessed.smi:1260-5

> <Gold.Version>
5.8.1

> <Gold.Id.Protein>
6NUR|6NUR_protein|mol2

> <Gold.PLP.Fitness>
42.1276

> <Gold.PLP.PLP>
-36.7668

> <Gold.PLP.part.hbond>
-2.0000

> <Gold.PLP.part.metal>
0.0000

> <Gold.PLP.part.buried>
-4.2802

> <Gold.PLP.part.nonpolar>
-29.4190

> <Gold.PLP.part.repulsive>
0.1413

> <Gold.PLP.ligand.clash>
0.0000

> <Gold.PLP.ligand.torsion>
0.1572

> <Gold.PLP.Chemscore.Hbond>
1.8880

> <Gold.PLP.Chemscore.CHOScore>
0.0000

> <Gold.PLP.Chemscore.Metal>
0.0000

> <Gold.Chemscore.Hbonds>
donor molecule, donor type, donor heavy atom, donor atom, acceptor molecule, acceptor atom, score
      P1  H  6896  6908       L1     8  0.96
      P1  H  7997  8010       L1     1  0.93

> <Gold.PLP.Chemscore.Internal.Correction>
0.0112

> <Gold.Rescore>
     Score         DG    S(hbond)    S(metal)    S(lipo)     H(rot)  DE(clash)    DE(int)     intcor
     16.95     -17.73       1.96        0.00      92.09       1.98       0.34       0.44       ----

> <Gold.Chemscore.Fitness>
16.9546

> <Gold.Chemscore.DG>
-17.7318

> <Gold.Chemscore.ZeroCoef>
-5.4800

> <Gold.Chemscore.Hbond>
1.9567

> <Gold.Chemscore.Metal>
0.0000

> <Gold.Chemscore.Lipo>
92.0885

> <Gold.Chemscore.Internal_Hbond>
0.0000

> <Gold.Chemscore.DEClash>
0.3399

> <Gold.Chemscore.DEInternal>
0.4374

> <Gold.Chemscore.Rot>
1.9757

> <Gold.Chemscore.Internal.Correction>
   9.000000E+99

> <Gold.Chemscore.Hbonds>
donor molecule, donor type, donor heavy atom, donor atom, acceptor molecule, acceptor atom, score
      P1  H  6896  6908       L1     8  0.45
      P1  H  7997  8010       L1     1  0.89

> <Gold.Chemscore.Hbond.Weighted>
-6.5352

> <Gold.Chemscore.Metal.Weighted>
-0.0000

> <Gold.Chemscore.Lipo.Weighted>
-10.7744

> <Gold.Chemscore.Internal_Hbond.Weighted>
0.0000

> <Gold.Chemscore.DEClash.Weighted>
0.3399

> <Gold.Chemscore.DEInternal.Weighted>
0.4374

> <Gold.Chemscore.Rot.Weighted>
5.0578

> <Gold.Chemscore.Internal.Correction.Weighted>
   9.000000E+99

> <Gold.Protein.RotatedTorsions>
[ 6907 6896 6895 6894 ] final -151.37 input  -60.11 | X-H torsion
[ 7974 7965 7964 7962 ] final   21.71 input  175.53 | X-H torsion
[ 8008 7997 7996 7995 ] final   16.47 input   59.86 | X-H torsion
[ 10167 10162 10161 10158 ] final  149.42 input  -65.29 | X-H torsion
[ 10718 10713 10712 10709 ] final    6.37 input   66.30 | X-H torsion
[ 10763 10752 10751 10750 ] final -112.42 input  -60.55 | X-H torsion
[ 11005 11000 10999 10996 ] final  115.58 input  -57.11 | X-H torsion

> <Gold.Protein.ActiveResidues>
 VAL166  LYS551  ARG553  GLY616  TRP617  ASP618  TYR619  PRO620  LYS621  CYS622 
 ASP623  PHE694  ASN695  SER759  ASP760  ASP761  ALA762  ILE779  LEU786  VAL792 
 PHE793  MET794  SER795  GLU796  ALA797  LYS798  CYS799  TRP800  GLU811  SER814 

> <Gold.Protein.RotatedAtoms>
  151.2121  133.4550  159.2598 H   0  0  0  0  0  0  0  0  0  0  0  0  # atno 6907 bound_to 6896
  151.0967  134.9948  159.8439 H   0  0  0  0  0  0  0  0  0  0  0  0  # atno 6908 bound_to 6896
  152.5439  134.2050  159.8780 H   0  0  0  0  0  0  0  0  0  0  0  0  # atno 6909 bound_to 6896
  146.2060  139.7989  142.8725 H   0  0  0  0  0  0  0  0  0  0  0  0  # atno 7974 bound_to 7965
  154.8774  140.2968  155.5445 H   0  0  0  0  0  0  0  0  0  0  0  0  # atno 8008 bound_to 7997
  156.3022  140.2449  156.3705 H   0  0  0  0  0  0  0  0  0  0  0  0  # atno 8009 bound_to 7997
  154.8753  140.0400  157.1738 H   0  0  0  0  0  0  0  0  0  0  0  0  # atno 8010 bound_to 7997
  139.4862  144.5603  151.7243 H   0  0  0  0  0  0  0  0  0  0  0  0  # atno 10167 bound_to 10162
  156.9211  130.5791  149.5648 H   0  0  0  0  0  0  0  0  0  0  0  0  # atno 10718 bound_to 10713
  154.8349  135.4491  154.1191 H   0  0  0  0  0  0  0  0  0  0  0  0  # atno 10763 bound_to 10752
  153.2432  135.6918  153.7766 H   0  0  0  0  0  0  0  0  0  0  0  0  # atno 10764 bound_to 10752
  153.7106  135.3357  155.3221 H   0  0  0  0  0  0  0  0  0  0  0  0  # atno 10765 bound_to 10752
  139.9014  134.9586  156.7067 H   0  0  0  0  0  0  0  0  0  0  0  0  # atno 11005 bound_to 11000
  145.3317  141.0268  143.3442 LP  0  0  0  0  0  0  0  0  0  0  0  0  # atno 17320 bound_to 7965
  144.8794  139.4926  143.6730 LP  0  0  0  0  0  0  0  0  0  0  0  0  # atno 17321 bound_to 7965
  140.5172  144.0935  150.6012 LP  0  0  0  0  0  0  0  0  0  0  0  0  # atno 17342 bound_to 10162
  140.3880  143.2767  152.0093 LP  0  0  0  0  0  0  0  0  0  0  0  0  # atno 17343 bound_to 10162
  156.0490  130.5563  150.8947 LP  0  0  0  0  0  0  0  0  0  0  0  0  # atno 17370 bound_to 10713
  157.5907  131.0944  150.9123 LP  0  0  0  0  0  0  0  0  0  0  0  0  # atno 17371 bound_to 10713
  140.7107  133.9225  155.8083 LP  0  0  0  0  0  0  0  0  0  0  0  0  # atno 17394 bound_to 11000
  141.0302  134.0767  157.4023 LP  0  0  0  0  0  0  0  0  0  0  0  0  # atno 17395 bound_to 11000

$$$$
