#       Name:                AV-unprocessed.smi:21
#       Creating user name   scv26
#       Creation time:       Thu Mar 26 15:31:53 2020


#       File generated by GOLD software.
#

@<TRIPOS>MOLECULE
AV-unprocessed.smi:21
    71    74     1
SMALL
NO_CHARGES


@<TRIPOS>ATOM
      1 ****        -3.9627  -0.3656   5.1027 C.3            1 S1                 0.0000
      2 ****        -3.4008   0.1551   3.9083 O.3            1 S1                 0.0000
      3 ****        -4.3641   0.6719   2.9990 C.3            1 S1                 0.0000
      4 ****        -3.6551   1.5561   1.9811 C.3            1 S1                 0.0000
      5 ****        -3.0725   0.5615   0.9698 C.3            1 S1                 0.0000
      6 ****        -2.7899   1.1764  -0.4251 C.3            1 S1                 0.0000
      7 ****        -1.8060   2.2581  -0.3868 N.pl3          1 S1                 0.0000
      8 ****        -2.3015   3.6311  -0.2916 C.3            1 S1                 0.0000
      9 ****        -0.4880   2.0101  -0.1204 C.ar           1 S1                 0.0000
     10 ****         0.2956   3.0572   0.2573 N.ar           1 S1                 0.0000
     11 ****         1.5871   2.8854   0.5470 C.ar           1 S1                 0.0000
     12 ****         2.3008   1.7613   0.5260 N.ar           1 S1                 0.0000
     13 ****         1.5368   0.7011   0.1409 C.ar           1 S1                 0.0000
     14 ****         0.1512   0.7315  -0.1995 C.ar           1 S1                 0.0000
     15 ****        -0.2604  -0.5546  -0.5404 N.2            1 S1                 0.0000
     16 ****         0.8060  -1.2924  -0.4045 C.2            1 S1                 0.0000
     17 ****         1.9357  -0.6155  -0.0114 N.pl3          1 S1                 0.0000
     18 ****         3.2492  -1.1870   0.2333 C.3            1 S1                 0.0000
     19 ****         3.9110  -1.8400  -1.0085 C.3            1 S1                 0.0000
     20 ****         5.1280  -2.6666  -0.5245 C.3            1 S1                 0.0000
     21 ****         5.4615  -3.6963  -1.4321 O.3            1 S1                 0.0000
     22 ****         4.3048  -0.7990  -2.1011 C.3            1 S1                 0.0000
     23 ****         5.0508  -1.3606  -3.3016 C.3            1 S1                 0.0000
     24 ****         4.8936  -0.2502  -4.3295 C.3            1 S1                 0.0000
     25 ****         3.5750   0.2337  -4.1280 O.3            1 S1                 0.0000
     26 ****         3.1381  -0.0935  -2.8119 C.3            1 S1                 0.0000
     27 ****        -3.9877  -0.6164   0.9901 N.4            1 S1                 1.0000
     28 ****        -4.6528  -0.9947  -0.2793 C.3            1 S1                 0.0000
     29 ****        -4.9364  -0.4411   2.1150 C.3            1 S1                 0.0000
     30 ****        -5.1389   1.2287   3.5289 H              1 S1                 0.0000
     31 ****        -2.1359   0.1895   1.3858 H              1 S1                 0.0000
     32 ****        -3.1681  -0.7581   5.7370 H              1 S1                 0.0000
     33 ****        -4.6621  -1.1773   4.9034 H              1 S1                 0.0000
     34 ****        -4.4825   0.4126   5.6626 H              1 S1                 0.0000
     35 ****        -4.3863   2.2009   1.4914 H              1 S1                 0.0000
     36 ****        -2.8963   2.1968   2.4317 H              1 S1                 0.0000
     37 ****        -2.4612   0.4241  -1.1390 H              1 S1                 0.0000
     38 ****        -3.7182   1.5689  -0.8408 H              1 S1                 0.0000
     39 ****        -1.7505   4.2872  -0.9665 H              1 S1                 0.0000
     40 ****        -2.1954   4.0113   0.7250 H              1 S1                 0.0000
     41 ****        -3.3555   3.6955  -0.5618 H              1 S1                 0.0000
     42 ****         2.1246   3.7759   0.8383 H              1 S1                 0.0000
     43 ****         0.7993  -2.3561  -0.5937 H              1 S1                 0.0000
     44 ****         3.9042  -0.4181   0.6443 H              1 S1                 0.0000
     45 ****         3.1198  -1.9268   1.0240 H              1 S1                 0.0000
     46 ****         3.1920  -2.5405  -1.4363 H              1 S1                 0.0000
     47 ****         5.9941  -2.0253  -0.3574 H              1 S1                 0.0000
     48 ****         4.9135  -3.1560   0.4259 H              1 S1                 0.0000
     49 ****         6.2014  -4.1730  -1.0878 H              1 S1                 0.0000
     50 ****         4.9385  -0.0352  -1.6471 H              1 S1                 0.0000
     51 ****         6.0975  -1.5839  -3.0936 H              1 S1                 0.0000
     52 ****         4.5679  -2.2700  -3.6622 H              1 S1                 0.0000
     53 ****         5.6015   0.5560  -4.1328 H              1 S1                 0.0000
     54 ****         5.0435  -0.5961  -5.3524 H              1 S1                 0.0000
     55 ****         2.2731  -0.7513  -2.9000 H              1 S1                 0.0000
     56 ****         2.8264   0.8108  -2.2910 H              1 S1                 0.0000
     57 ****        -5.2765  -0.1851  -0.6599 H              1 S1                 0.0000
     58 ****        -5.2919  -1.8638  -0.1212 H              1 S1                 0.0000
     59 ****        -3.9229  -1.2672  -1.0415 H              1 S1                 0.0000
     60 ****        -5.1018  -1.3789   2.6446 H              1 S1                 0.0000
     61 ****        -5.9025  -0.1137   1.7266 H              1 S1                 0.0000
     62 ****        -3.4006  -1.4001   1.2389 H              1 S1                 0.0000
     63 ****        -2.8970  -0.5778   3.4512 LP             1 S1                 0.0000
     64 ****        -2.7698   0.8918   4.1517 LP             1 S1                 0.0000
     65 ****        -0.1037   3.9720   0.3189 LP             1 S1                 0.0000
     66 ****         3.2708   1.7030   0.7621 LP             1 S1                 0.0000
     67 ****        -1.1727  -0.8476  -0.8263 LP             1 S1                 0.0000
     68 ****         5.6990  -3.3000  -2.3189 LP             1 S1                 0.0000
     69 ****         4.6833  -4.3147  -1.5410 LP             1 S1                 0.0000
     70 ****         2.9611  -0.1868  -4.7960 LP             1 S1                 0.0000
     71 ****         3.5642   1.2269  -4.2443 LP             1 S1                 0.0000
@<TRIPOS>BOND
    1    1    2 1     
    2    1   32 1     
    3    1   33 1     
    4    1   34 1     
    5    2    3 1     
    6    3   30 1     
    7    3   29 1     
    8    3    4 1     
    9    4    5 1     
   10    4   35 1     
   11    4   36 1     
   12    5   31 1     
   13    5    6 1     
   14    5   27 1     
   15    6    7 1     
   16    6   37 1     
   17    6   38 1     
   18    7    8 1     
   19    7    9 1     
   20    8   39 1     
   21    8   40 1     
   22    8   41 1     
   23    9   14 ar    
   24    9   10 ar    
   25   10   11 ar    
   26   11   12 ar    
   27   11   42 1     
   28   12   13 ar    
   29   13   17 1     
   30   13   14 ar    
   31   14   15 1     
   32   15   16 2     
   33   16   17 1     
   34   16   43 1     
   35   17   18 1     
   36   18   19 1     
   37   18   44 1     
   38   18   45 1     
   39   19   20 1     
   40   19   22 1     
   41   19   46 1     
   42   20   21 1     
   43   20   47 1     
   44   20   48 1     
   45   21   49 1     
   46   22   26 1     
   47   22   23 1     
   48   22   50 1     
   49   23   24 1     
   50   23   51 1     
   51   23   52 1     
   52   24   25 1     
   53   24   53 1     
   54   24   54 1     
   55   25   26 1     
   56   26   55 1     
   57   26   56 1     
   58   27   28 1     
   59   27   29 1     
   60   27   62 1     
   61   28   57 1     
   62   28   58 1     
   63   28   59 1     
   64   29   60 1     
   65   29   61 1     
   66    2   63 1     
   67    2   64 1     
   68   10   65 1     
   69   12   66 1     
   70   15   67 1     
   71   21   68 1     
   72   21   69 1     
   73   25   70 1     
   74   25   71 1     
@<TRIPOS>SUBSTRUCTURE
      1 S1             1
@<TRIPOS>SET
LONE_PAIRS      STATIC     ATOMS    <user>   **** ""
9 63 64 65 66 67 68 69 70 71
DONOR_HYDROGENS      STATIC     ATOMS    <user>   **** ""
2 49 62
ATOM$BLUE        STATIC     ATOMS    COLORGROUP SYSTEM
9 63 64 65 66 67 68 69 70 71
ATOM$RED        STATIC     ATOMS    COLORGROUP SYSTEM
2 49 62
