#       Name:                AV-unprocessed.smi:2521
#       Creating user name   scv26
#       Creation time:       Fri Mar 27 13:55:36 2020


#       File generated by GOLD software.
#

@<TRIPOS>MOLECULE
AV-unprocessed.smi:2521
    42    43     1
SMALL
NO_CHARGES


@<TRIPOS>ATOM
      1 ****        -5.6716  -1.5684   1.8656 C.3            1 S1                 0.0000
      2 ****        -5.4245  -0.3498   0.9645 C.3            1 S1                 0.0000
      3 ****        -6.5439  -0.1215  -0.0616 C.3            1 S1                 0.0000
      4 ****        -4.0719  -0.3865   0.3246 C.2            1 S1                 0.0000
      5 ****        -3.7026  -1.3268  -0.5506 N.2            1 S1                 0.0000
      6 ****        -2.4039  -1.1435  -1.0013 N.2            1 S1                 0.0000
      7 ****        -1.8043  -0.0758  -0.4566 C.2            1 S1                 0.0000
      8 ****        -0.5454   0.2784  -0.7629 N.pl3          1 S1                -1.0000
      9 ****         0.4735  -0.0725   0.0545 C.2            1 S1                 0.0000
     10 ****         0.3825  -0.7179   1.1013 O.2            1 S1                 0.0000
     11 ****         1.6726   0.3531  -0.3640 N.am           1 S1                 0.0000
     12 ****         2.9349   0.1189   0.3258 C.3            1 S1                 0.0000
     13 ****         4.0911   0.8458  -0.3798 C.3            1 S1                 0.0000
     14 ****         5.4414   0.6342   0.2725 C.3            1 S1                 0.0000
     15 ****         6.3948   1.0434  -0.8454 C.3            1 S1                 0.0000
     16 ****         5.7404   0.6898  -2.0604 O.3            1 S1                 0.0000
     17 ****         4.3749   0.3697  -1.8061 C.3            1 S1                 0.0000
     18 ****        -2.8349   0.8134   0.6639 S.3            1 S1                 0.0000
     19 ****        -4.9034  -1.6483   2.6354 H              1 S1                 0.0000
     20 ****        -5.6645  -2.4950   1.2907 H              1 S1                 0.0000
     21 ****        -6.6364  -1.4965   2.3681 H              1 S1                 0.0000
     22 ****        -5.4295   0.5213   1.6208 H              1 S1                 0.0000
     23 ****        -6.3779   0.7975  -0.6246 H              1 S1                 0.0000
     24 ****        -7.5146  -0.0383   0.4277 H              1 S1                 0.0000
     25 ****        -6.6011  -0.9435  -0.7759 H              1 S1                 0.0000
     26 ****         1.7080   0.8768  -1.2261 H              1 S1                 0.0000
     27 ****         2.8543   0.4703   1.3556 H              1 S1                 0.0000
     28 ****         3.1277  -0.9542   0.3670 H              1 S1                 0.0000
     29 ****         3.8845   1.9173  -0.4029 H              1 S1                 0.0000
     30 ****         5.5755   1.2215   1.1813 H              1 S1                 0.0000
     31 ****         5.5855  -0.4186   0.5201 H              1 S1                 0.0000
     32 ****         6.5498   2.1231  -0.8364 H              1 S1                 0.0000
     33 ****         7.3686   0.5608  -0.7609 H              1 S1                 0.0000
     34 ****         4.2564  -0.7119  -1.8830 H              1 S1                 0.0000
     35 ****         3.7153   0.8335  -2.5398 H              1 S1                 0.0000
     36 ****        -4.2948  -2.0764  -0.8465 LP             1 S1                 0.0000
     37 ****        -1.9604  -1.7462  -1.6647 LP             1 S1                 0.0000
     38 ****        -0.3615   0.8014  -1.5952 LP             1 S1                 0.0000
     39 ****        -0.5119  -1.0345   1.4173 LP             1 S1                 0.0000
     40 ****         1.2030  -0.9247   1.6341 LP             1 S1                 0.0000
     41 ****         6.1967  -0.1037  -2.4631 LP             1 S1                 0.0000
     42 ****         5.7866   1.4595  -2.6972 LP             1 S1                 0.0000
@<TRIPOS>BOND
    1    1    2 1     
    2    1   19 1     
    3    1   20 1     
    4    1   21 1     
    5    2    3 1     
    6    2    4 1     
    7    2   22 1     
    8    3   23 1     
    9    3   24 1     
   10    3   25 1     
   11    4   18 1     
   12    4    5 2     
   13    5    6 1     
   14    6    7 2     
   15    7    8 1     
   16    7   18 1     
   17    8    9 1     
   18    9   10 2     
   19    9   11 am    
   20   11   12 1     
   21   11   26 1     
   22   12   13 1     
   23   12   27 1     
   24   12   28 1     
   25   13   17 1     
   26   13   14 1     
   27   13   29 1     
   28   14   15 1     
   29   14   30 1     
   30   14   31 1     
   31   15   16 1     
   32   15   32 1     
   33   15   33 1     
   34   16   17 1     
   35   17   34 1     
   36   17   35 1     
   37    5   36 1     
   38    6   37 1     
   39    8   38 1     
   40   10   39 1     
   41   10   40 1     
   42   16   41 1     
   43   16   42 1     
@<TRIPOS>SUBSTRUCTURE
      1 S1             1
@<TRIPOS>SET
LONE_PAIRS      STATIC     ATOMS    <user>   **** ""
7 36 37 38 39 40 41 42
DONOR_HYDROGENS      STATIC     ATOMS    <user>   **** ""
1 26
ATOM$BLUE        STATIC     ATOMS    COLORGROUP SYSTEM
7 36 37 38 39 40 41 42
ATOM$RED        STATIC     ATOMS    COLORGROUP SYSTEM
1 26
