AV-unprocessed.smi:2095|AV-procd|sdf|8560|dock8
  -GOLD-   2272011283D 1   1.00000     0.00000
 Structure written by MMmdl.
 42 43  0  0  0  0  0  0  0  0  2 V2000
  147.3442  133.1945  151.6999 C   0  0  0  0  0  0  0  0  0  0  0  0
  145.8861  133.4101  152.1427 C   0  0  2  0  0  0  0  0  0  0  0  0
  144.9634  133.8133  150.9767 C   0  0  0  0  0  0  0  0  0  0  0  0
  145.2005  135.2706  150.5526 C   0  0  0  0  0  0  0  0  0  0  0  0
  145.0859  136.2187  151.7562 C   0  0  0  0  0  0  0  0  0  0  0  0
  146.0273  135.8148  152.8357 N   0  3  1  0  0  0  0  0  0  0  0  0
  146.1801  136.7931  153.9518 C   0  0  1  0  0  0  0  0  0  0  0  0
  144.9215  136.8047  154.8400 C   0  0  0  0  0  0  0  0  0  0  0  0
  147.4815  136.5887  154.7683 C   0  0  0  0  0  0  0  0  0  0  0  0
  148.4975  137.5848  154.4475 N   0  0  0  0  0  0  0  0  0  0  0  0
  148.5662  138.8119  154.9878 C   0  0  0  0  0  0  0  0  0  0  0  0
  147.7687  139.2245  155.8295 O   0  0  0  0  0  0  0  0  0  0  0  0
  149.7141  139.7068  154.5181 C   0  0  0  0  0  0  0  0  0  0  0  0
  151.0030  139.0937  154.7799 N   0  0  0  0  0  0  0  0  0  0  0  0
  151.4859  137.8929  154.4540 C   0  0  0  0  0  0  0  0  0  0  0  0
  152.7200  137.7246  154.9043 N   0  0  0  0  0  0  0  0  0  0  0  0
  152.9875  138.9221  155.5463 N   0  0  0  0  0  0  0  0  0  0  0  0
  151.9726  139.7388  155.4756 N   0  0  0  0  0  0  0  0  0  0  0  0
  145.7713  134.4242  153.3000 C   0  0  0  0  0  0  0  0  0  0  0  0
  147.7990  134.1133  151.3294 H   0  0  0  0  0  0  0  0  0  0  0  0
  147.4055  132.4509  150.9049 H   0  0  0  0  0  0  0  0  0  0  0  0
  147.9555  132.8364  152.5287 H   0  0  0  0  0  0  0  0  0  0  0  0
  145.5345  132.4474  152.5164 H   0  0  0  0  0  0  0  0  0  0  0  0
  145.1027  133.1433  150.1276 H   0  0  0  0  0  0  0  0  0  0  0  0
  143.9238  133.6989  151.2872 H   0  0  0  0  0  0  0  0  0  0  0  0
  146.1851  135.3722  150.0947 H   0  0  0  0  0  0  0  0  0  0  0  0
  144.4778  135.5544  149.7871 H   0  0  0  0  0  0  0  0  0  0  0  0
  145.2946  137.2366  151.4282 H   0  0  0  0  0  0  0  0  0  0  0  0
  144.0612  136.2075  152.1302 H   0  0  0  0  0  0  0  0  0  0  0  0
  146.2235  137.7816  153.4928 H   0  0  0  0  0  0  0  0  0  0  0  0
  144.9417  137.6378  155.5431 H   0  0  0  0  0  0  0  0  0  0  0  0
  144.8259  135.8898  155.4244 H   0  0  0  0  0  0  0  0  0  0  0  0
  144.0181  136.9141  154.2394 H   0  0  0  0  0  0  0  0  0  0  0  0
  147.2795  136.6730  155.8362 H   0  0  0  0  0  0  0  0  0  0  0  0
  147.8927  135.5908  154.6109 H   0  0  0  0  0  0  0  0  0  0  0  0
  149.1927  137.3278  153.7609 H   0  0  0  0  0  0  0  0  0  0  0  0
  149.6281  139.8947  153.4469 H   0  0  0  0  0  0  0  0  0  0  0  0
  149.6618  140.6735  155.0211 H   0  0  0  0  0  0  0  0  0  0  0  0
  150.9374  137.1482  153.8961 H   0  0  0  0  0  0  0  0  0  0  0  0
  144.7741  134.3670  153.7381 H   0  0  0  0  0  0  0  0  0  0  0  0
  146.4730  134.1530  154.0897 H   0  0  0  0  0  0  0  0  0  0  0  0
  146.9389  135.7768  152.4021 H   0  0  0  0  0  0  0  0  0  0  0  0
  1  2  1  0  0  0  0
  1 20  1  0  0  0  0
  1 21  1  0  0  0  0
  1 22  1  0  0  0  0
  2 19  1  0  0  0  0
  2  3  1  0  0  0  0
  2 23  1  0  0  0  0
  3  4  1  0  0  0  0
  3 24  1  0  0  0  0
  3 25  1  0  0  0  0
  4  5  1  0  0  0  0
  4 26  1  0  0  0  0
  4 27  1  0  0  0  0
  5  6  1  0  0  0  0
  5 28  1  0  0  0  0
  5 29  1  0  0  0  0
  6  7  1  0  0  0  0
  6 19  1  0  0  0  0
  6 42  1  0  0  0  0
  7  8  1  0  0  0  0
  7  9  1  0  0  0  0
  7 30  1  0  0  0  0
  8 31  1  0  0  0  0
  8 32  1  0  0  0  0
  8 33  1  0  0  0  0
  9 10  1  0  0  0  0
  9 34  1  0  0  0  0
  9 35  1  0  0  0  0
 10 11  1  0  0  0  0
 10 36  1  0  0  0  0
 11 12  2  0  0  0  0
 11 13  1  0  0  0  0
 13 14  1  0  0  0  0
 13 37  1  0  0  0  0
 13 38  1  0  0  0  0
 14 18  1  0  0  0  0
 14 15  1  0  0  0  0
 15 16  2  0  0  0  0
 15 39  1  0  0  0  0
 16 17  1  0  0  0  0
 17 18  2  0  0  0  0
 19 40  1  0  0  0  0
 19 41  1  0  0  0  0
M  CHG  1   6   1
M  END
> <s_m_source_file>
AV-unprocessed.smi

> <i_m_source_file_index>
2095

> <i_lp_mmshare_version>
43012

> <i_f3d_flags>
0

> <s_epik_input>
W0NIM11bQ0BASF0xW0NIMl1bQ0gyXVtDSDJdTihbQ0gyXTEpW0NASF0oW0NIM10pW0NIMl1bTkhdQyg9TylbQ0gyXW4yW2NIXW5ubjI=

> <s_epik_cmdline>
J2VwaWtfcHl0aG9uJywgJy1waCcsICc3LjAnLCAnLXRuJywgJzgnLCAnLW1hJywgJzIwMCcsICctbWV0YWxfYmluZGluZycsICctaW1hZScsICc8aW5maWxlLm1hZT4nLCAnLW9tYWUnLCAnPG91dGZpbGUubWFlPic=

> <r_lp_tautomer_probability>
1

> <r_epik_Ionization_Penalty>
0.00268321

> <r_epik_Ionization_Penalty_Charging>
0.00267875

> <r_epik_Ionization_Penalty_Neutral>
4.46125e-06

> <r_epik_State_Penalty>
0.00186642

> <r_epik_Charging_Adjusted_Penalty>
0.00454517

> <i_epik_Tot_Q>
1

> <i_epik_Tot_abs_Q>
1

> <r_epik_Metal_State_Penalty>
-0

> <b_epik_Metal_Only>
0

> <s_lp_Force_Field>
OPLS_2005

> <r_lp_Energy>
24.9707

> <b_lp_Chiralities_Consistent>
1

> <s_lp_Variant>
AV-unprocessed.smi:2095-7

> <Gold.Version>
5.8.1

> <Gold.Id.Protein>
6NUR|6NUR_protein|mol2

> <Gold.PLP.Fitness>
39.4644

> <Gold.PLP.PLP>
-27.4895

> <Gold.PLP.part.hbond>
-4.9321

> <Gold.PLP.part.metal>
0.0000

> <Gold.PLP.part.buried>
-1.8264

> <Gold.PLP.part.nonpolar>
-19.6641

> <Gold.PLP.part.repulsive>
0.0684

> <Gold.PLP.ligand.clash>
0.0000

> <Gold.PLP.ligand.torsion>
1.0316

> <Gold.PLP.Chemscore.Hbond>
3.5780

> <Gold.PLP.Chemscore.CHOScore>
1.0612

> <Gold.PLP.Chemscore.Metal>
0.0000

> <Gold.Chemscore.Hbonds>
donor molecule, donor type, donor heavy atom, donor atom, acceptor molecule, acceptor atom, score
      L1  H     6    42       P1  7948  1.56
      L1  H    10    36       P1  7948  0.39
      P1  H  7997  8008       L1    17  1.00
      P1  H 10752 10763       L1    16  0.28
      L1  C    15    39       P1  7949  0.63

> <Gold.PLP.Chemscore.Internal.Correction>
0.1206

> <Gold.Rescore>
     Score         DG    S(hbond)    S(metal)    S(lipo)     H(rot)  DE(clash)    DE(int)     intcor
      9.03     -10.83       2.17        0.00      41.60       2.64       0.70       1.10       ----

> <Gold.Chemscore.Fitness>
9.0308

> <Gold.Chemscore.DG>
-10.8338

> <Gold.Chemscore.ZeroCoef>
-5.4800

> <Gold.Chemscore.Hbond>
2.1722

> <Gold.Chemscore.Metal>
0.0000

> <Gold.Chemscore.Lipo>
41.5984

> <Gold.Chemscore.Internal_Hbond>
0.0000

> <Gold.Chemscore.DEClash>
0.6992

> <Gold.Chemscore.DEInternal>
1.1039

> <Gold.Chemscore.Rot>
2.6439

> <Gold.Chemscore.Internal.Correction>
   9.000000E+99

> <Gold.Chemscore.Hbonds>
donor molecule, donor type, donor heavy atom, donor atom, acceptor molecule, acceptor atom, score
      L1  H     6    42       P1  7948  0.78
      L1  H    10    36       P1  7948  0.37
      P1  H  7997  8008       L1    17  0.29
      P1  H 10752 10763       L1    16  0.05

> <Gold.Chemscore.Hbond.Weighted>
-7.2553

> <Gold.Chemscore.Metal.Weighted>
-0.0000

> <Gold.Chemscore.Lipo.Weighted>
-4.8670

> <Gold.Chemscore.Internal_Hbond.Weighted>
0.0000

> <Gold.Chemscore.DEClash.Weighted>
0.6992

> <Gold.Chemscore.DEInternal.Weighted>
1.1039

> <Gold.Chemscore.Rot.Weighted>
6.7685

> <Gold.Chemscore.Internal.Correction.Weighted>
   9.000000E+99

> <Gold.Protein.RotatedTorsions>
[ 6907 6896 6895 6894 ] final   80.47 input  -60.11 | X-H torsion
[ 7974 7965 7964 7962 ] final -120.15 input  175.53 | X-H torsion
[ 8008 7997 7996 7995 ] final  -21.05 input   59.86 | X-H torsion
[ 10167 10162 10161 10158 ] final  120.48 input  -65.29 | X-H torsion
[ 10718 10713 10712 10709 ] final   21.99 input   66.30 | X-H torsion
[ 10763 10752 10751 10750 ] final   43.38 input  -60.55 | X-H torsion
[ 11005 11000 10999 10996 ] final  158.22 input  -57.11 | X-H torsion

> <Gold.Protein.ActiveResidues>
 VAL166  LYS551  ARG553  GLY616  TRP617  ASP618  TYR619  PRO620  LYS621  CYS622 
 ASP623  PHE694  ASN695  SER759  ASP760  ASP761  ALA762  ILE779  LEU786  VAL792 
 PHE793  MET794  SER795  GLU796  ALA797  LYS798  CYS799  TRP800  GLU811  SER814 

> <Gold.Protein.RotatedAtoms>
  152.5236  134.3352  159.9197 H   0  0  0  0  0  0  0  0  0  0  0  0  # atno 6907 bound_to 6896
  151.3302  133.3997  159.2669 H   0  0  0  0  0  0  0  0  0  0  0  0  # atno 6908 bound_to 6896
  150.9887  134.9244  159.7944 H   0  0  0  0  0  0  0  0  0  0  0  0  # atno 6909 bound_to 6896
  145.0546  140.8244  143.4189 H   0  0  0  0  0  0  0  0  0  0  0  0  # atno 7974 bound_to 7965
  154.4730  140.2045  155.9946 H   0  0  0  0  0  0  0  0  0  0  0  0  # atno 8008 bound_to 7997
  156.1043  140.3239  155.7955 H   0  0  0  0  0  0  0  0  0  0  0  0  # atno 8009 bound_to 7997
  155.4744  140.0533  157.2966 H   0  0  0  0  0  0  0  0  0  0  0  0  # atno 8010 bound_to 7997
  139.5979  144.7047  151.3131 H   0  0  0  0  0  0  0  0  0  0  0  0  # atno 10167 bound_to 10162
  157.1461  130.6654  149.5996 H   0  0  0  0  0  0  0  0  0  0  0  0  # atno 10718 bound_to 10713
  152.9862  135.6103  154.3102 H   0  0  0  0  0  0  0  0  0  0  0  0  # atno 10763 bound_to 10752
  154.2817  135.2777  155.2696 H   0  0  0  0  0  0  0  0  0  0  0  0  # atno 10764 bound_to 10752
  154.5031  135.5861  153.6603 H   0  0  0  0  0  0  0  0  0  0  0  0  # atno 10765 bound_to 10752
  140.1845  134.8452  157.2841 H   0  0  0  0  0  0  0  0  0  0  0  0  # atno 11005 bound_to 11000
  145.1485  139.2529  143.5453 LP  0  0  0  0  0  0  0  0  0  0  0  0  # atno 17320 bound_to 7965
  146.3520  140.1181  142.8601 LP  0  0  0  0  0  0  0  0  0  0  0  0  # atno 17321 bound_to 7965
  140.7227  143.7091  150.7783 LP  0  0  0  0  0  0  0  0  0  0  0  0  # atno 17342 bound_to 10162
  140.0662  143.5106  152.2603 LP  0  0  0  0  0  0  0  0  0  0  0  0  # atno 17343 bound_to 10162
  155.9779  130.4761  150.6624 LP  0  0  0  0  0  0  0  0  0  0  0  0  # atno 17370 bound_to 10713
  157.4263  131.0843  151.1082 LP  0  0  0  0  0  0  0  0  0  0  0  0  # atno 17371 bound_to 10713
  140.2230  134.4001  155.7557 LP  0  0  0  0  0  0  0  0  0  0  0  0  # atno 17394 bound_to 11000
  141.2224  133.7175  156.8520 LP  0  0  0  0  0  0  0  0  0  0  0  0  # atno 17395 bound_to 11000

$$$$
