AV-unprocessed.smi:100|AV-procd|sdf|909|dock9
  -GOLD-   2262017403D 1   1.00000     0.00000
 Structure written by MMmdl.
 31 33  0  0  0  0  0  0  0  0  1 V2000
  148.8972  139.6421  153.5474 N   0  0  0  0  0  0  0  0  0  0  0  0
  149.7195  140.0326  154.5309 C   0  0  0  0  0  0  0  0  0  0  0  0
  151.0082  139.6210  154.4926 N   0  0  0  0  0  0  0  0  0  0  0  0
  151.8473  139.9970  155.4627 C   0  0  0  0  0  0  0  0  0  0  0  0
  151.6014  140.7626  156.5290 N   0  0  0  0  0  0  0  0  0  0  0  0
  150.3015  141.1781  156.5680 C   0  0  0  0  0  0  0  0  0  0  0  0
  149.3019  140.8541  155.6083 C   0  0  0  0  0  0  0  0  0  0  0  0
  148.0955  141.4409  155.9634 N   0  0  0  0  0  0  0  0  0  0  0  0
  148.3705  142.0753  157.0709 C   0  0  0  0  0  0  0  0  0  0  0  0
  149.6734  141.9727  157.5087 N   0  0  0  0  0  0  0  0  0  0  0  0
  150.2601  142.5947  158.7423 C   0  0  2  0  0  0  0  0  0  0  0  0
  149.2533  143.2203  159.4844 O   0  0  0  0  0  0  0  0  0  0  0  0
  149.5109  144.6194  159.5728 C   0  0  1  0  0  0  0  0  0  0  0  0
  148.9003  145.2086  160.8535 C   0  0  0  0  0  0  0  0  0  0  0  0
  149.1658  144.3677  161.9561 O   0  0  0  0  0  0  0  0  0  0  0  0
  151.0330  144.7250  159.4522 C   0  0  1  0  0  0  0  0  0  0  0  0
  151.6256  144.4242  160.6102 F   0  0  0  0  0  0  0  0  0  0  0  0
  151.3481  143.6448  158.4342 C   0  0  2  0  0  0  0  0  0  0  0  0
  151.3107  144.1621  157.1155 O   0  0  0  0  0  0  0  0  0  0  0  0
  147.9309  139.9353  153.5543 H   0  0  0  0  0  0  0  0  0  0  0  0
  149.2453  139.0571  152.8018 H   0  0  0  0  0  0  0  0  0  0  0  0
  152.8600  139.6329  155.3732 H   0  0  0  0  0  0  0  0  0  0  0  0
  147.6216  142.6410  157.6060 H   0  0  0  0  0  0  0  0  0  0  0  0
  150.6410  141.7517  159.3205 H   0  0  0  0  0  0  0  0  0  0  0  0
  149.0571  145.1008  158.7061 H   0  0  0  0  0  0  0  0  0  0  0  0
  149.3360  146.1872  161.0564 H   0  0  0  0  0  0  0  0  0  0  0  0
  147.8243  145.3527  160.7514 H   0  0  0  0  0  0  0  0  0  0  0  0
  148.5839  144.6047  162.6620 H   0  0  0  0  0  0  0  0  0  0  0  0
  151.3763  145.7187  159.1613 H   0  0  0  0  0  0  0  0  0  0  0  0
  152.3342  143.2078  158.5956 H   0  0  0  0  0  0  0  0  0  0  0  0
  150.4087  144.2036  156.8357 H   0  0  0  0  0  0  0  0  0  0  0  0
  1  2  1  0  0  0  0
  1 20  1  0  0  0  0
  1 21  1  0  0  0  0
  2  7  1  0  0  0  0
  2  3  2  0  0  0  0
  3  4  1  0  0  0  0
  4  5  2  0  0  0  0
  4 22  1  0  0  0  0
  5  6  1  0  0  0  0
  6 10  1  0  0  0  0
  6  7  2  0  0  0  0
  7  8  1  0  0  0  0
  8  9  2  0  0  0  0
  9 10  1  0  0  0  0
  9 23  1  0  0  0  0
 10 11  1  0  0  0  0
 11 18  1  0  0  0  0
 11 12  1  0  0  0  0
 11 24  1  0  0  0  0
 12 13  1  0  0  0  0
 13 14  1  0  0  0  0
 13 16  1  0  0  0  0
 13 25  1  0  0  0  0
 14 15  1  0  0  0  0
 14 26  1  0  0  0  0
 14 27  1  0  0  0  0
 15 28  1  0  0  0  0
 16 17  1  0  0  0  0
 16 18  1  0  0  0  0
 16 29  1  0  0  0  0
 18 19  1  0  0  0  0
 18 30  1  0  0  0  0
 19 31  1  0  0  0  0
M  END
> <s_m_source_file>
AV-unprocessed.smi

> <i_m_source_file_index>
100

> <i_lp_mmshare_version>
43012

> <i_f3d_flags>
0

> <s_epik_input>
bjFbY0hdbmMoW05IMl0pYyhjMTIpbltjSF1uMltDQEBIXTNPW0NAQEhdKFtDSDJdW09IXSlbQ0BIXShGKVtDQEhdM1tPSF0=

> <s_epik_cmdline>
J2VwaWtfcHl0aG9uJywgJy1waCcsICc3LjAnLCAnLXRuJywgJzgnLCAnLW1hJywgJzIwMCcsICctbWV0YWxfYmluZGluZycsICctaW1hZScsICc8aW5maWxlLm1hZT4nLCAnLW9tYWUnLCAnPG91dGZpbGUubWFlPic=

> <r_lp_tautomer_probability>
1

> <r_epik_Ionization_Penalty>
0.000750324

> <r_epik_Ionization_Penalty_Charging>
0

> <r_epik_Ionization_Penalty_Neutral>
0.000750324

> <r_epik_State_Penalty>
-0

> <r_epik_Charging_Adjusted_Penalty>
0

> <i_epik_Tot_Q>
0

> <i_epik_Tot_abs_Q>
0

> <r_epik_Metal_State_Penalty>
-0

> <b_epik_Metal_Only>
0

> <s_epik_Chemistry_Notes>
This compound contains an acetal/aminal-like group ( X-CH(R)-Y where X, Y are N, S, or O) that may be acid/base labile, releasing an aldehyde.

> <s_lp_Force_Field>
OPLS_2005

> <r_lp_Energy>
35.7638

> <b_lp_Chiralities_Consistent>
1

> <s_lp_Variant>
AV-unprocessed.smi:100-13

> <Gold.Version>
5.8.1

> <Gold.Id.Protein>
6NUR|6NUR_protein|mol2

> <Gold.PLP.Fitness>
40.3068

> <Gold.PLP.PLP>
-34.4725

> <Gold.PLP.part.hbond>
-6.9981

> <Gold.PLP.part.metal>
0.0000

> <Gold.PLP.part.buried>
-3.2324

> <Gold.PLP.part.nonpolar>
-24.4922

> <Gold.PLP.part.repulsive>
0.4445

> <Gold.PLP.ligand.clash>
0.0000

> <Gold.PLP.ligand.torsion>
0.1587

> <Gold.PLP.Chemscore.Hbond>
2.0500

> <Gold.PLP.Chemscore.CHOScore>
0.0000

> <Gold.PLP.Chemscore.Metal>
0.0000

> <Gold.Chemscore.Hbonds>
donor molecule, donor type, donor heavy atom, donor atom, acceptor molecule, acceptor atom, score
      L1  H     1    21       P1  7957  0.29
      L1  H    19    31       P1  8028  1.00
      P1  H  6933  6944       L1    15  0.29
      P1  H  7989  7998       L1     3  0.48

> <Gold.PLP.Chemscore.Internal.Correction>
0.0016

> <Gold.Rescore>
     Score         DG    S(hbond)    S(metal)    S(lipo)     H(rot)  DE(clash)    DE(int)     intcor
      4.87      -6.74       1.61        0.00      34.65       3.19       0.36       1.51       ----

> <Gold.Chemscore.Fitness>
4.8746

> <Gold.Chemscore.DG>
-6.7439

> <Gold.Chemscore.ZeroCoef>
-5.4800

> <Gold.Chemscore.Hbond>
1.6098

> <Gold.Chemscore.Metal>
0.0000

> <Gold.Chemscore.Lipo>
34.6468

> <Gold.Chemscore.Internal_Hbond>
0.0000

> <Gold.Chemscore.DEClash>
0.3591

> <Gold.Chemscore.DEInternal>
1.5101

> <Gold.Chemscore.Rot>
3.1901

> <Gold.Chemscore.Internal.Correction>
   9.000000E+99

> <Gold.Chemscore.Hbonds>
donor molecule, donor type, donor heavy atom, donor atom, acceptor molecule, acceptor atom, score
      L1  H     1    21       P1  7957  0.28
      L1  H    19    31       P1  8028  0.94
      P1  H  6933  6944       L1    12  0.11

> <Gold.Chemscore.Hbond.Weighted>
-5.3769

> <Gold.Chemscore.Metal.Weighted>
-0.0000

> <Gold.Chemscore.Lipo.Weighted>
-4.0537

> <Gold.Chemscore.Internal_Hbond.Weighted>
0.0000

> <Gold.Chemscore.DEClash.Weighted>
0.3591

> <Gold.Chemscore.DEInternal.Weighted>
1.5101

> <Gold.Chemscore.Rot.Weighted>
8.1667

> <Gold.Chemscore.Internal.Correction.Weighted>
   9.000000E+99

> <Gold.Protein.RotatedTorsions>
[ 6907 6896 6895 6894 ] final -165.98 input  -60.11 | X-H torsion
[ 7974 7965 7964 7962 ] final    2.01 input  175.53 | X-H torsion
[ 8008 7997 7996 7995 ] final  133.31 input   59.86 | X-H torsion
[ 10167 10162 10161 10158 ] final  170.36 input  -65.29 | X-H torsion
[ 10718 10713 10712 10709 ] final   33.29 input   66.30 | X-H torsion
[ 10763 10752 10751 10750 ] final   67.24 input  -60.55 | X-H torsion
[ 11005 11000 10999 10996 ] final -101.54 input  -57.11 | X-H torsion

> <Gold.Protein.ActiveResidues>
 VAL166  LYS551  ARG553  GLY616  TRP617  ASP618  TYR619  PRO620  LYS621  CYS622 
 ASP623  PHE694  ASN695  SER759  ASP760  ASP761  ALA762  ILE779  LEU786  VAL792 
 PHE793  MET794  SER795  GLU796  ALA797  LYS798  CYS799  TRP800  GLU811  SER814 

> <Gold.Protein.RotatedAtoms>
  151.4364  133.3655  159.2775 H   0  0  0  0  0  0  0  0  0  0  0  0  # atno 6907 bound_to 6896
  150.9189  134.8608  159.7486 H   0  0  0  0  0  0  0  0  0  0  0  0  # atno 6908 bound_to 6896
  152.4971  134.4300  159.9561 H   0  0  0  0  0  0  0  0  0  0  0  0  # atno 6909 bound_to 6896
  146.2442  140.0900  142.8352 H   0  0  0  0  0  0  0  0  0  0  0  0  # atno 7974 bound_to 7965
  156.2991  140.2524  156.3233 H   0  0  0  0  0  0  0  0  0  0  0  0  # atno 8008 bound_to 7997
  154.9215  140.0400  157.2019 H   0  0  0  0  0  0  0  0  0  0  0  0  # atno 8009 bound_to 7997
  154.8307  140.2875  155.5728 H   0  0  0  0  0  0  0  0  0  0  0  0  # atno 8010 bound_to 7997
  139.5016  144.3605  151.9830 H   0  0  0  0  0  0  0  0  0  0  0  0  # atno 10167 bound_to 10162
  157.2960  130.7326  149.6638 H   0  0  0  0  0  0  0  0  0  0  0  0  # atno 10718 bound_to 10713
  153.0177  135.5291  154.6949 H   0  0  0  0  0  0  0  0  0  0  0  0  # atno 10763 bound_to 10752
  154.6074  135.2874  155.0472 H   0  0  0  0  0  0  0  0  0  0  0  0  # atno 10764 bound_to 10752
  154.1506  135.6563  153.5015 H   0  0  0  0  0  0  0  0  0  0  0  0  # atno 10765 bound_to 10752
  141.1227  133.8486  157.1244 H   0  0  0  0  0  0  0  0  0  0  0  0  # atno 11005 bound_to 11000
  145.0659  140.9121  143.4911 LP  0  0  0  0  0  0  0  0  0  0  0  0  # atno 17320 bound_to 7965
  145.1024  139.2813  143.5679 LP  0  0  0  0  0  0  0  0  0  0  0  0  # atno 17321 bound_to 7965
  140.3041  144.3613  150.6052 LP  0  0  0  0  0  0  0  0  0  0  0  0  # atno 17342 bound_to 10162
  140.5850  143.2170  151.7358 LP  0  0  0  0  0  0  0  0  0  0  0  0  # atno 17343 bound_to 10162
  155.9669  130.4294  150.4832 LP  0  0  0  0  0  0  0  0  0  0  0  0  # atno 17370 bound_to 10713
  157.2804  131.0605  151.2201 LP  0  0  0  0  0  0  0  0  0  0  0  0  # atno 17371 bound_to 10713
  140.0197  134.9951  157.0566 LP  0  0  0  0  0  0  0  0  0  0  0  0  # atno 17394 bound_to 11000
  140.4460  134.1631  155.7177 LP  0  0  0  0  0  0  0  0  0  0  0  0  # atno 17395 bound_to 11000

$$$$
