AV-unprocessed.smi:2568|AV-procd|sdf|10101|dock6
  -GOLD-   2272014113D 1   1.00000     0.00000
 Structure written by MMmdl.
 23 24  0  0  0  0  0  0  0  0  2 V2000
  151.7301  141.4083  159.0321 C   0  0  0  0  0  0  0  0  0  0  0  0
  151.5301  140.8994  157.6233 C   0  0  0  0  0  0  0  0  0  0  0  0
  152.4098  140.1693  156.9154 N   0  5  0  0  0  0  0  0  0  0  0  0
  151.9103  139.9016  155.7259 N   0  0  0  0  0  0  0  0  0  0  0  0
  150.7036  140.4892  155.7034 C   0  0  0  0  0  0  0  0  0  0  0  0
  149.7390  140.4196  154.5356 C   0  0  1  0  0  0  0  0  0  0  0  0
  149.4554  138.9571  154.1368 C   0  0  0  0  0  0  0  0  0  0  0  0
  148.5174  138.9000  153.0153 N   0  0  0  0  0  0  0  0  0  0  0  0
  147.2903  139.6354  153.3130 C   0  0  0  0  0  0  0  0  0  0  0  0
  147.6215  141.0793  153.7269 C   0  0  0  0  0  0  0  0  0  0  0  0
  148.5028  141.0613  154.8438 O   0  0  0  0  0  0  0  0  0  0  0  0
  150.4519  141.0976  156.8722 N   0  0  0  0  0  0  0  0  0  0  0  0
  152.6804  141.0596  159.4367 H   0  0  0  0  0  0  0  0  0  0  0  0
  150.9278  141.0546  159.6795 H   0  0  0  0  0  0  0  0  0  0  0  0
  151.7289  142.4982  159.0420 H   0  0  0  0  0  0  0  0  0  0  0  0
  150.2074  140.9435  153.7000 H   0  0  0  0  0  0  0  0  0  0  0  0
  150.3857  138.4564  153.8678 H   0  0  0  0  0  0  0  0  0  0  0  0
  149.0449  138.4172  154.9911 H   0  0  0  0  0  0  0  0  0  0  0  0
  148.2932  137.9317  152.8110 H   0  0  0  0  0  0  0  0  0  0  0  0
  146.6339  139.6357  152.4427 H   0  0  0  0  0  0  0  0  0  0  0  0
  146.7457  139.1398  154.1177 H   0  0  0  0  0  0  0  0  0  0  0  0
  148.0694  141.6325  152.8997 H   0  0  0  0  0  0  0  0  0  0  0  0
  146.7098  141.6075  154.0061 H   0  0  0  0  0  0  0  0  0  0  0  0
  1 13  1  0  0  0  0
  1 14  1  0  0  0  0
  1 15  1  0  0  0  0
  1  2  1  0  0  0  0
  2 12  2  0  0  0  0
  2  3  1  0  0  0  0
  3  4  1  0  0  0  0
  4  5  2  0  0  0  0
  5 12  1  0  0  0  0
  5  6  1  0  0  0  0
  6 11  1  0  0  0  0
  6  7  1  0  0  0  0
  6 16  1  0  0  0  0
  7  8  1  0  0  0  0
  7 17  1  0  0  0  0
  7 18  1  0  0  0  0
  8  9  1  0  0  0  0
  8 19  1  0  0  0  0
  9 10  1  0  0  0  0
  9 20  1  0  0  0  0
  9 21  1  0  0  0  0
 10 11  1  0  0  0  0
 10 22  1  0  0  0  0
 10 23  1  0  0  0  0
M  CHG  1   3  -1
M  END
> <s_m_source_file>
AV-unprocessed.smi

> <i_m_source_file_index>
2568

> <i_lp_mmshare_version>
43012

> <i_f3d_flags>
0

> <s_epik_input>
W0NIM11jMW5bbkhdYyhuMSlbQ0BASF0yW0NIMl1bTkhdW0NIMl1bQ0gyXU8y

> <s_epik_cmdline>
J2VwaWtfcHl0aG9uJywgJy1waCcsICc3LjAnLCAnLXRuJywgJzgnLCAnLW1hJywgJzIwMCcsICctbWV0YWxfYmluZGluZycsICctaW1hZScsICc8aW5maWxlLm1hZT4nLCAnLW9tYWUnLCAnPG91dGZpbGUubWFlPic=

> <r_epik_Ionization_Penalty>
17.7898

> <r_epik_Ionization_Penalty_Charging>
16.2165

> <r_epik_Ionization_Penalty_Neutral>
1.5733

> <r_epik_State_Penalty>
6.78491

> <r_epik_Charging_Adjusted_Penalty>
23.0014

> <i_epik_Tot_Q>
-1

> <i_epik_Tot_abs_Q>
1

> <r_epik_Metal_State_Penalty>
3.02615

> <b_epik_Metal_Only>
1

> <s_lp_Force_Field>
OPLS_2005

> <r_lp_Energy>
14.4772

> <b_lp_Chiralities_Consistent>
1

> <s_lp_Variant>
AV-unprocessed.smi:2568-14

> <Gold.Version>
5.8.1

> <Gold.Id.Protein>
6NUR|6NUR_protein|mol2

> <Gold.PLP.Fitness>
29.4391

> <Gold.PLP.PLP>
-20.6531

> <Gold.PLP.part.hbond>
-2.7136

> <Gold.PLP.part.metal>
0.0000

> <Gold.PLP.part.buried>
-0.1388

> <Gold.PLP.part.nonpolar>
-16.3859

> <Gold.PLP.part.repulsive>
0.1591

> <Gold.PLP.ligand.clash>
0.0000

> <Gold.PLP.ligand.torsion>
0.0282

> <Gold.PLP.Chemscore.Hbond>
2.9440

> <Gold.PLP.Chemscore.CHOScore>
0.0000

> <Gold.PLP.Chemscore.Metal>
0.0000

> <Gold.Chemscore.Hbonds>
donor molecule, donor type, donor heavy atom, donor atom, acceptor molecule, acceptor atom, score
      L1  H     8    19       P1  7948  0.84
      P1  H  7997  8009       L1     3  2.00

> <Gold.PLP.Chemscore.Internal.Correction>
0.0103

> <Gold.Rescore>
     Score         DG    S(hbond)    S(metal)    S(lipo)     H(rot)  DE(clash)    DE(int)     intcor
     12.45     -12.60       1.67        0.00      35.21       1.00       0.06       0.09       ----

> <Gold.Chemscore.Fitness>
12.4495

> <Gold.Chemscore.DG>
-12.6045

> <Gold.Chemscore.ZeroCoef>
-5.4800

> <Gold.Chemscore.Hbond>
1.6661

> <Gold.Chemscore.Metal>
0.0000

> <Gold.Chemscore.Lipo>
35.2103

> <Gold.Chemscore.Internal_Hbond>
0.0000

> <Gold.Chemscore.DEClash>
0.0628

> <Gold.Chemscore.DEInternal>
0.0922

> <Gold.Chemscore.Rot>
1.0000

> <Gold.Chemscore.Internal.Correction>
   9.000000E+99

> <Gold.Chemscore.Hbonds>
donor molecule, donor type, donor heavy atom, donor atom, acceptor molecule, acceptor atom, score
      L1  H     8    19       P1  7948  0.78
      P1  H  7997  8009       L1     3  0.42

> <Gold.Chemscore.Hbond.Weighted>
-5.5649

> <Gold.Chemscore.Metal.Weighted>
-0.0000

> <Gold.Chemscore.Lipo.Weighted>
-4.1196

> <Gold.Chemscore.Internal_Hbond.Weighted>
0.0000

> <Gold.Chemscore.DEClash.Weighted>
0.0628

> <Gold.Chemscore.DEInternal.Weighted>
0.0922

> <Gold.Chemscore.Rot.Weighted>
2.5600

> <Gold.Chemscore.Internal.Correction.Weighted>
   9.000000E+99

> <Gold.Protein.RotatedTorsions>
[ 6907 6896 6895 6894 ] final   35.72 input  -60.11 | X-H torsion
[ 7974 7965 7964 7962 ] final  122.39 input  175.53 | X-H torsion
[ 8008 7997 7996 7995 ] final -179.27 input   59.86 | X-H torsion
[ 10167 10162 10161 10158 ] final  -82.01 input  -65.29 | X-H torsion
[ 10718 10713 10712 10709 ] final -176.67 input   66.30 | X-H torsion
[ 10763 10752 10751 10750 ] final  -39.65 input  -60.55 | X-H torsion
[ 11005 11000 10999 10996 ] final -170.71 input  -57.11 | X-H torsion

> <Gold.Protein.ActiveResidues>
 VAL166  LYS551  ARG553  GLY616  TRP617  ASP618  TYR619  PRO620  LYS621  CYS622 
 ASP623  PHE694  ASN695  SER759  ASP760  ASP761  ALA762  ILE779  LEU786  VAL792 
 PHE793  MET794  SER795  GLU796  ALA797  LYS798  CYS799  TRP800  GLU811  SER814 

> <Gold.Protein.RotatedAtoms>
  152.1200  134.9212  160.0563 H   0  0  0  0  0  0  0  0  0  0  0  0  # atno 6907 bound_to 6896
  152.0357  133.3951  159.4324 H   0  0  0  0  0  0  0  0  0  0  0  0  # atno 6908 bound_to 6896
  150.6848  134.3392  159.4904 H   0  0  0  0  0  0  0  0  0  0  0  0  # atno 6909 bound_to 6896
  145.1081  139.3471  143.4777 H   0  0  0  0  0  0  0  0  0  0  0  0  # atno 7974 bound_to 7965
  156.0286  140.1277  157.0282 H   0  0  0  0  0  0  0  0  0  0  0  0  # atno 8008 bound_to 7997
  154.4340  140.1054  156.6136 H   0  0  0  0  0  0  0  0  0  0  0  0  # atno 8009 bound_to 7997
  155.5841  140.3468  155.4550 H   0  0  0  0  0  0  0  0  0  0  0  0  # atno 8010 bound_to 7997
  140.4359  143.2531  151.8694 H   0  0  0  0  0  0  0  0  0  0  0  0  # atno 10167 bound_to 10162
  156.8181  130.9610  151.3113 H   0  0  0  0  0  0  0  0  0  0  0  0  # atno 10718 bound_to 10713
  153.9329  135.6770  153.4745 H   0  0  0  0  0  0  0  0  0  0  0  0  # atno 10763 bound_to 10752
  153.0970  135.4846  154.8794 H   0  0  0  0  0  0  0  0  0  0  0  0  # atno 10764 bound_to 10752
  154.7418  135.3162  154.8672 H   0  0  0  0  0  0  0  0  0  0  0  0  # atno 10765 bound_to 10752
  140.5164  134.5752  157.5034 H   0  0  0  0  0  0  0  0  0  0  0  0  # atno 11005 bound_to 11000
  146.3527  140.0988  142.8609 LP  0  0  0  0  0  0  0  0  0  0  0  0  # atno 17320 bound_to 7965
  145.0878  140.9264  143.4787 LP  0  0  0  0  0  0  0  0  0  0  0  0  # atno 17321 bound_to 7965
  139.4787  144.5283  151.8703 LP  0  0  0  0  0  0  0  0  0  0  0  0  # atno 17342 bound_to 10162
  140.4374  144.2033  150.5890 LP  0  0  0  0  0  0  0  0  0  0  0  0  # atno 17343 bound_to 10162
  157.6471  130.8853  149.9559 LP  0  0  0  0  0  0  0  0  0  0  0  0  # atno 17370 bound_to 10713
  156.1004  130.3656  150.0228 LP  0  0  0  0  0  0  0  0  0  0  0  0  # atno 17371 bound_to 10713
  139.9630  134.7420  156.0197 LP  0  0  0  0  0  0  0  0  0  0  0  0  # atno 17394 bound_to 11000
  141.1358  133.6575  156.3590 LP  0  0  0  0  0  0  0  0  0  0  0  0  # atno 17395 bound_to 11000

$$$$
