AV-unprocessed.smi:2702|AV-procd|sdf|10436|dock3
  -GOLD-   2272014473D 1   1.00000     0.00000
 Structure written by MMmdl.
 47 48  0  0  0  0  0  0  0  0  1 V2000
  143.6850  137.1701  152.9181 C   0  0  0  0  0  0  0  0  0  0  0  0
  144.9339  136.6103  153.2837 O   0  0  0  0  0  0  0  0  0  0  0  0
  145.2956  136.9146  154.6200 C   0  0  0  0  0  0  0  0  0  0  0  0
  146.2078  138.1238  154.6579 C   0  0  0  0  0  0  0  0  0  0  0  0
  146.5878  138.6960  155.8239 C   0  0  0  0  0  0  0  0  0  0  0  0
  147.4601  139.8701  155.8295 C   0  0  0  0  0  0  0  0  0  0  0  0
  147.8345  140.4135  156.8692 O   0  0  0  0  0  0  0  0  0  0  0  0
  147.8302  140.3176  154.5930 N   0  0  0  0  0  0  0  0  0  0  0  0
  148.7119  141.4889  154.4384 C   0  0  0  0  0  0  0  0  0  0  0  0
  149.9504  141.4255  155.3425 C   0  0  0  0  0  0  0  0  0  0  0  0
  150.7353  140.4800  155.2629 O   0  0  0  0  0  0  0  0  0  0  0  0
  150.1022  142.4393  156.2080 N   0  0  0  0  0  0  0  0  0  0  0  0
  151.2206  142.6007  157.1338 C   0  0  2  0  0  0  0  0  0  0  0  0
  151.4822  141.2734  157.8718 C   0  0  0  0  0  0  0  0  0  0  0  0
  152.6763  141.3953  158.8302 C   0  0  0  0  0  0  0  0  0  0  0  0
  152.4923  142.5598  159.8159 C   0  0  0  0  0  0  0  0  0  0  0  0
  152.2219  143.8868  159.0781 C   0  0  2  0  0  0  0  0  0  0  0  0
  152.1374  145.0745  160.0510 C   0  0  0  0  0  0  0  0  0  0  0  0
  150.9996  143.7745  158.1288 C   0  0  2  0  0  0  0  0  0  0  0  0
  149.6436  143.6990  158.8695 C   0  0  0  0  0  0  0  0  0  0  0  0
  147.3889  139.6951  153.4083 C   0  0  0  0  0  0  0  0  0  0  0  0
  146.6193  138.6536  153.4308 N   0  0  0  0  0  0  0  0  0  0  0  0
  143.4506  136.9012  151.8881 H   0  0  0  0  0  0  0  0  0  0  0  0
  143.7060  138.2586  152.9854 H   0  0  0  0  0  0  0  0  0  0  0  0
  142.8826  136.7950  153.5548 H   0  0  0  0  0  0  0  0  0  0  0  0
  144.4029  137.1195  155.2134 H   0  0  0  0  0  0  0  0  0  0  0  0
  145.7984  136.0611  155.0776 H   0  0  0  0  0  0  0  0  0  0  0  0
  146.2523  138.2831  156.7641 H   0  0  0  0  0  0  0  0  0  0  0  0
  149.0231  141.5727  153.3952 H   0  0  0  0  0  0  0  0  0  0  0  0
  148.1873  142.4219  154.6515 H   0  0  0  0  0  0  0  0  0  0  0  0
  149.4046  143.1692  156.2079 H   0  0  0  0  0  0  0  0  0  0  0  0
  152.1109  142.8197  156.5406 H   0  0  0  0  0  0  0  0  0  0  0  0
  150.5956  140.9689  158.4289 H   0  0  0  0  0  0  0  0  0  0  0  0
  151.6770  140.4783  157.1512 H   0  0  0  0  0  0  0  0  0  0  0  0
  152.8111  140.4622  159.3777 H   0  0  0  0  0  0  0  0  0  0  0  0
  153.5893  141.5485  158.2535 H   0  0  0  0  0  0  0  0  0  0  0  0
  151.6741  142.3367  160.5010 H   0  0  0  0  0  0  0  0  0  0  0  0
  153.3870  142.6538  160.4323 H   0  0  0  0  0  0  0  0  0  0  0  0
  153.0902  144.0795  158.4456 H   0  0  0  0  0  0  0  0  0  0  0  0
  151.3669  144.9251  160.8071 H   0  0  0  0  0  0  0  0  0  0  0  0
  151.9159  146.0017  159.5221 H   0  0  0  0  0  0  0  0  0  0  0  0
  153.0831  145.2141  160.5755 H   0  0  0  0  0  0  0  0  0  0  0  0
  150.9723  144.6939  157.5422 H   0  0  0  0  0  0  0  0  0  0  0  0
  149.5721  142.8184  159.5067 H   0  0  0  0  0  0  0  0  0  0  0  0
  148.8069  143.6671  158.1718 H   0  0  0  0  0  0  0  0  0  0  0  0
  149.4819  144.5741  159.4976 H   0  0  0  0  0  0  0  0  0  0  0  0
  147.7360  140.1521  152.4800 H   0  0  0  0  0  0  0  0  0  0  0  0
  1  2  1  0  0  0  0
  1 23  1  0  0  0  0
  1 24  1  0  0  0  0
  1 25  1  0  0  0  0
  2  3  1  0  0  0  0
  3  4  1  0  0  0  0
  3 26  1  0  0  0  0
  3 27  1  0  0  0  0
  4 22  1  0  0  0  0
  4  5  2  0  0  0  0
  5  6  1  0  0  0  0
  5 28  1  0  0  0  0
  6  7  2  0  0  0  0
  6  8  1  0  0  0  0
  8  9  1  0  0  0  0
  8 21  1  0  0  0  0
  9 10  1  0  0  0  0
  9 29  1  0  0  0  0
  9 30  1  0  0  0  0
 10 11  2  0  0  0  0
 10 12  1  0  0  0  0
 12 13  1  0  0  0  0
 12 31  1  0  0  0  0
 13 19  1  0  0  0  0
 13 14  1  0  0  0  0
 13 32  1  0  0  0  0
 14 15  1  0  0  0  0
 14 33  1  0  0  0  0
 14 34  1  0  0  0  0
 15 16  1  0  0  0  0
 15 35  1  0  0  0  0
 15 36  1  0  0  0  0
 16 17  1  0  0  0  0
 16 37  1  0  0  0  0
 16 38  1  0  0  0  0
 17 18  1  0  0  0  0
 17 19  1  0  0  0  0
 17 39  1  0  0  0  0
 18 40  1  0  0  0  0
 18 41  1  0  0  0  0
 18 42  1  0  0  0  0
 19 20  1  0  0  0  0
 19 43  1  0  0  0  0
 20 44  1  0  0  0  0
 20 45  1  0  0  0  0
 20 46  1  0  0  0  0
 21 22  2  0  0  0  0
 21 47  1  0  0  0  0
M  END
> <s_m_source_file>
AV-unprocessed.smi

> <i_m_source_file_index>
2702

> <i_lp_mmshare_version>
43012

> <i_f3d_flags>
0

> <s_epik_input>
W0NIM11PW0NIMl1jMVtjSF1jKD1PKW4oW2NIXW4xKVtDSDJdQyg9TylbTkhdW0NAQEhdMltDSDJdW0NIMl1bQ0gyXVtDQEBIXShbQ0gzXSlbQ0BIXTJbQ0gzXQ==

> <s_epik_cmdline>
J2VwaWtfcHl0aG9uJywgJy1waCcsICc3LjAnLCAnLXRuJywgJzgnLCAnLW1hJywgJzIwMCcsICctbWV0YWxfYmluZGluZycsICctaW1hZScsICc8aW5maWxlLm1hZT4nLCAnLW9tYWUnLCAnPG91dGZpbGUubWFlPic=

> <r_lp_tautomer_probability>
1

> <r_epik_Ionization_Penalty>
1.22164e-06

> <r_epik_Ionization_Penalty_Charging>
3.17988e-07

> <r_epik_Ionization_Penalty_Neutral>
9.03656e-07

> <r_epik_State_Penalty>
-0

> <r_epik_Charging_Adjusted_Penalty>
3.17988e-07

> <i_epik_Tot_Q>
0

> <i_epik_Tot_abs_Q>
0

> <r_epik_Metal_State_Penalty>
-0

> <b_epik_Metal_Only>
0

> <s_lp_Force_Field>
OPLS_2005

> <r_lp_Energy>
18.8167

> <b_lp_Chiralities_Consistent>
1

> <s_lp_Variant>
AV-unprocessed.smi:2702-7

> <Gold.Version>
5.8.1

> <Gold.Id.Protein>
6NUR|6NUR_protein|mol2

> <Gold.PLP.Fitness>
44.1528

> <Gold.PLP.PLP>
-36.1202

> <Gold.PLP.part.hbond>
-2.0000

> <Gold.PLP.part.metal>
0.0000

> <Gold.PLP.part.buried>
-4.2497

> <Gold.PLP.part.nonpolar>
-29.9220

> <Gold.PLP.part.repulsive>
0.5252

> <Gold.PLP.ligand.clash>
0.0000

> <Gold.PLP.ligand.torsion>
0.5108

> <Gold.PLP.Chemscore.Hbond>
2.0000

> <Gold.PLP.Chemscore.CHOScore>
1.0000

> <Gold.PLP.Chemscore.Metal>
0.0000

> <Gold.Chemscore.Hbonds>
donor molecule, donor type, donor heavy atom, donor atom, acceptor molecule, acceptor atom, score
      L1  H    12    31       P1  8028  0.99
      P1  H  7989  7998       L1    11  1.00
      L1  C    21    47       P1  7957  1.00

> <Gold.PLP.Chemscore.Internal.Correction>
0.0542

> <Gold.Rescore>
     Score         DG    S(hbond)    S(metal)    S(lipo)     H(rot)  DE(clash)    DE(int)     intcor
     13.35     -16.64       1.56        0.00      92.98       1.93       0.16       3.13       ----

> <Gold.Chemscore.Fitness>
13.3540

> <Gold.Chemscore.DG>
-16.6437

> <Gold.Chemscore.ZeroCoef>
-5.4800

> <Gold.Chemscore.Hbond>
1.5636

> <Gold.Chemscore.Metal>
0.0000

> <Gold.Chemscore.Lipo>
92.9754

> <Gold.Chemscore.Internal_Hbond>
0.0000

> <Gold.Chemscore.DEClash>
0.1590

> <Gold.Chemscore.DEInternal>
3.1307

> <Gold.Chemscore.Rot>
1.9284

> <Gold.Chemscore.Internal.Correction>
   9.000000E+99

> <Gold.Chemscore.Hbonds>
donor molecule, donor type, donor heavy atom, donor atom, acceptor molecule, acceptor atom, score
      L1  H    12    31       P1  8028  0.93
      P1  H  7989  7998       L1    11  0.27

> <Gold.Chemscore.Hbond.Weighted>
-5.2224

> <Gold.Chemscore.Metal.Weighted>
-0.0000

> <Gold.Chemscore.Lipo.Weighted>
-10.8781

> <Gold.Chemscore.Internal_Hbond.Weighted>
0.0000

> <Gold.Chemscore.DEClash.Weighted>
0.1590

> <Gold.Chemscore.DEInternal.Weighted>
3.1307

> <Gold.Chemscore.Rot.Weighted>
4.9368

> <Gold.Chemscore.Internal.Correction.Weighted>
   9.000000E+99

> <Gold.Protein.RotatedTorsions>
[ 6907 6896 6895 6894 ] final  178.41 input  -60.11 | X-H torsion
[ 7974 7965 7964 7962 ] final  -64.72 input  175.53 | X-H torsion
[ 8008 7997 7996 7995 ] final  171.28 input   59.86 | X-H torsion
[ 10167 10162 10161 10158 ] final -163.72 input  -65.29 | X-H torsion
[ 10718 10713 10712 10709 ] final    9.93 input   66.30 | X-H torsion
[ 10763 10752 10751 10750 ] final  152.15 input  -60.55 | X-H torsion
[ 11005 11000 10999 10996 ] final -141.21 input  -57.11 | X-H torsion

> <Gold.Protein.ActiveResidues>
 VAL166  LYS551  ARG553  GLY616  TRP617  ASP618  TYR619  PRO620  LYS621  CYS622 
 ASP623  PHE694  ASN695  SER759  ASP760  ASP761  ALA762  ILE779  LEU786  VAL792 
 PHE793  MET794  SER795  GLU796  ALA797  LYS798  CYS799  TRP800  GLU811  SER814 

> <Gold.Protein.RotatedAtoms>
  151.6883  133.3311  159.3236 H   0  0  0  0  0  0  0  0  0  0  0  0  # atno 6907 bound_to 6896
  150.7790  134.6720  159.6406 H   0  0  0  0  0  0  0  0  0  0  0  0  # atno 6908 bound_to 6896
  152.3842  134.6546  160.0184 H   0  0  0  0  0  0  0  0  0  0  0  0  # atno 6909 bound_to 6896
  145.7632  140.8851  143.0419 H   0  0  0  0  0  0  0  0  0  0  0  0  # atno 7974 bound_to 7965
  156.1286  140.1516  156.9100 H   0  0  0  0  0  0  0  0  0  0  0  0  # atno 8008 bound_to 7997
  154.4891  140.0856  156.7594 H   0  0  0  0  0  0  0  0  0  0  0  0  # atno 8009 bound_to 7997
  155.4298  140.3426  155.4281 H   0  0  0  0  0  0  0  0  0  0  0  0  # atno 8010 bound_to 7997
  139.6301  144.0456  152.2008 H   0  0  0  0  0  0  0  0  0  0  0  0  # atno 10167 bound_to 10162
  156.9735  130.5978  149.5670 H   0  0  0  0  0  0  0  0  0  0  0  0  # atno 10718 bound_to 10713
  154.1153  135.2836  155.3221 H   0  0  0  0  0  0  0  0  0  0  0  0  # atno 10763 bound_to 10752
  154.6461  135.5385  153.7850 H   0  0  0  0  0  0  0  0  0  0  0  0  # atno 10764 bound_to 10752
  153.0331  135.6498  154.1309 H   0  0  0  0  0  0  0  0  0  0  0  0  # atno 10765 bound_to 10752
  140.8346  134.2475  157.4840 H   0  0  0  0  0  0  0  0  0  0  0  0  # atno 11005 bound_to 11000
  144.6826  139.9752  143.7482 LP  0  0  0  0  0  0  0  0  0  0  0  0  # atno 17320 bound_to 7965
  146.0243  139.3279  143.0793 LP  0  0  0  0  0  0  0  0  0  0  0  0  # atno 17321 bound_to 7965
  140.0120  144.6217  150.7639 LP  0  0  0  0  0  0  0  0  0  0  0  0  # atno 17342 bound_to 10162
  140.7434  143.2845  151.3502 LP  0  0  0  0  0  0  0  0  0  0  0  0  # atno 17343 bound_to 10162
  156.0273  130.5366  150.8441 LP  0  0  0  0  0  0  0  0  0  0  0  0  # atno 17370 bound_to 10713
  157.5576  131.0945  150.9606 LP  0  0  0  0  0  0  0  0  0  0  0  0  # atno 17371 bound_to 10713
  139.8704  134.9604  156.4363 LP  0  0  0  0  0  0  0  0  0  0  0  0  # atno 17394 bound_to 11000
  140.8961  133.7813  155.9626 LP  0  0  0  0  0  0  0  0  0  0  0  0  # atno 17395 bound_to 11000

$$$$
