AV-unprocessed.smi:2536|AV-procd|sdf|9979|dock6
  -GOLD-   2272014 23D 1   1.00000     0.00000
 Structure written by MMmdl.
 32 33  0  0  0  0  0  0  0  0  1 V2000
  151.8765  145.5983  159.5816 C   0  0  0  0  0  0  0  0  0  0  0  0
  151.6705  144.1417  159.2117 C   0  0  0  0  0  0  0  0  0  0  0  0
  151.0543  143.7848  157.9931 C   0  0  0  0  0  0  0  0  0  0  0  0
  150.8558  142.4959  157.6424 N   0  0  0  0  0  0  0  0  0  0  0  0
  151.2687  141.5626  158.5022 C   0  0  0  0  0  0  0  0  0  0  0  0
  151.0438  140.2548  158.1108 N   0  0  0  0  0  0  0  0  0  0  0  0
  151.3038  139.7213  156.7794 C   0  0  1  0  0  0  0  0  0  0  0  0
  151.1126  138.1954  156.7311 C   0  0  0  0  0  0  0  0  0  0  0  0
  151.3020  137.6939  155.2956 C   0  0  0  0  0  0  0  0  0  0  0  0
  150.3931  138.4733  154.3324 C   0  0  0  0  0  0  0  0  0  0  0  0
  150.6557  139.8686  154.4402 O   0  0  0  0  0  0  0  0  0  0  0  0
  150.3867  140.3896  155.7381 C   0  0  0  0  0  0  0  0  0  0  0  0
  151.8656  141.7822  159.6792 N   0  0  0  0  0  0  0  0  0  0  0  0
  152.0710  143.0673  160.0434 C   0  0  0  0  0  0  0  0  0  0  0  0
  152.7460  143.2619  161.3892 C   0  0  0  0  0  0  0  0  0  0  0  0
  151.4796  146.2596  158.8108 H   0  0  0  0  0  0  0  0  0  0  0  0
  152.9384  145.8161  159.6975 H   0  0  0  0  0  0  0  0  0  0  0  0
  151.3679  145.8290  160.5179 H   0  0  0  0  0  0  0  0  0  0  0  0
  150.7153  144.5350  157.2941 H   0  0  0  0  0  0  0  0  0  0  0  0
  150.7524  139.6077  158.8287 H   0  0  0  0  0  0  0  0  0  0  0  0
  152.3351  139.9556  156.5123 H   0  0  0  0  0  0  0  0  0  0  0  0
  151.8160  137.6927  157.3953 H   0  0  0  0  0  0  0  0  0  0  0  0
  150.1120  137.9341  157.0787 H   0  0  0  0  0  0  0  0  0  0  0  0
  152.3434  137.8209  154.9976 H   0  0  0  0  0  0  0  0  0  0  0  0
  151.0871  136.6267  155.2376 H   0  0  0  0  0  0  0  0  0  0  0  0
  150.5780  138.1585  153.3052 H   0  0  0  0  0  0  0  0  0  0  0  0
  149.3413  138.2731  154.5425 H   0  0  0  0  0  0  0  0  0  0  0  0
  149.3341  140.2418  155.9866 H   0  0  0  0  0  0  0  0  0  0  0  0
  150.5604  141.4660  155.7200 H   0  0  0  0  0  0  0  0  0  0  0  0
  152.9629  144.3065  161.6066 H   0  0  0  0  0  0  0  0  0  0  0  0
  153.6885  142.7143  161.4181 H   0  0  0  0  0  0  0  0  0  0  0  0
  152.1069  142.8786  162.1850 H   0  0  0  0  0  0  0  0  0  0  0  0
  1  2  1  0  0  0  0
  1 16  1  0  0  0  0
  1 17  1  0  0  0  0
  1 18  1  0  0  0  0
  2 14  1  0  0  0  0
  2  3  2  0  0  0  0
  3  4  1  0  0  0  0
  3 19  1  0  0  0  0
  4  5  2  0  0  0  0
  5  6  1  0  0  0  0
  5 13  1  0  0  0  0
  6  7  1  0  0  0  0
  6 20  1  0  0  0  0
  7 12  1  0  0  0  0
  7  8  1  0  0  0  0
  7 21  1  0  0  0  0
  8  9  1  0  0  0  0
  8 22  1  0  0  0  0
  8 23  1  0  0  0  0
  9 10  1  0  0  0  0
  9 24  1  0  0  0  0
  9 25  1  0  0  0  0
 10 11  1  0  0  0  0
 10 26  1  0  0  0  0
 10 27  1  0  0  0  0
 11 12  1  0  0  0  0
 12 28  1  0  0  0  0
 12 29  1  0  0  0  0
 13 14  2  0  0  0  0
 14 15  1  0  0  0  0
 15 30  1  0  0  0  0
 15 31  1  0  0  0  0
 15 32  1  0  0  0  0
M  END
> <s_m_source_file>
AV-unprocessed.smi

> <i_m_source_file_index>
2536

> <i_lp_mmshare_version>
43012

> <i_f3d_flags>
0

> <s_epik_input>
W0NIM11jMVtjSF1uYyhuYzFbQ0gzXSlbTkhdW0NAQEhdMltDSDJdW0NIMl1bQ0gyXU9bQ0gyXTI=

> <s_epik_cmdline>
J2VwaWtfcHl0aG9uJywgJy1waCcsICc3LjAnLCAnLXRuJywgJzgnLCAnLW1hJywgJzIwMCcsICctbWV0YWxfYmluZGluZycsICctaW1hZScsICc8aW5maWxlLm1hZT4nLCAnLW9tYWUnLCAnPG91dGZpbGUubWFlPic=

> <r_lp_tautomer_probability>
1

> <r_epik_Ionization_Penalty>
0.00982357

> <r_epik_Ionization_Penalty_Charging>
0

> <r_epik_Ionization_Penalty_Neutral>
0.00982357

> <r_epik_State_Penalty>
0.0064698

> <r_epik_Charging_Adjusted_Penalty>
0.0064698

> <i_epik_Tot_Q>
0

> <i_epik_Tot_abs_Q>
0

> <r_epik_Metal_State_Penalty>
-0

> <b_epik_Metal_Only>
0

> <s_lp_Force_Field>
OPLS_2005

> <r_lp_Energy>
1.83983

> <b_lp_Chiralities_Consistent>
1

> <s_lp_Variant>
AV-unprocessed.smi:2536-2

> <Gold.Version>
5.8.1

> <Gold.Id.Protein>
6NUR|6NUR_protein|mol2

> <Gold.PLP.Fitness>
37.8578

> <Gold.PLP.PLP>
-32.7054

> <Gold.PLP.part.hbond>
-1.2060

> <Gold.PLP.part.metal>
0.0000

> <Gold.PLP.part.buried>
-5.1220

> <Gold.PLP.part.nonpolar>
-27.1456

> <Gold.PLP.part.repulsive>
0.3224

> <Gold.PLP.ligand.clash>
0.0000

> <Gold.PLP.ligand.torsion>
0.4122

> <Gold.PLP.Chemscore.Hbond>
0.9913

> <Gold.PLP.Chemscore.CHOScore>
1.0000

> <Gold.PLP.Chemscore.Metal>
0.0000

> <Gold.Chemscore.Hbonds>
donor molecule, donor type, donor heavy atom, donor atom, acceptor molecule, acceptor atom, score
      P1  H  7989  7998       L1    11  1.00
      L1  C     3    19       P1  8028  1.00

> <Gold.PLP.Chemscore.Internal.Correction>
0.0029

> <Gold.Rescore>
     Score         DG    S(hbond)    S(metal)    S(lipo)     H(rot)  DE(clash)    DE(int)     intcor
     14.64     -16.38       0.97        0.00      87.25       1.00       0.00       1.74       ----

> <Gold.Chemscore.Fitness>
14.6435

> <Gold.Chemscore.DG>
-16.3829

> <Gold.Chemscore.ZeroCoef>
-5.4800

> <Gold.Chemscore.Hbond>
0.9743

> <Gold.Chemscore.Metal>
0.0000

> <Gold.Chemscore.Lipo>
87.2542

> <Gold.Chemscore.Internal_Hbond>
0.0000

> <Gold.Chemscore.DEClash>
0.0038

> <Gold.Chemscore.DEInternal>
1.7356

> <Gold.Chemscore.Rot>
1.0000

> <Gold.Chemscore.Internal.Correction>
   9.000000E+99

> <Gold.Chemscore.Hbonds>
donor molecule, donor type, donor heavy atom, donor atom, acceptor molecule, acceptor atom, score
      P1  H  7989  7998       L1    11  0.88

> <Gold.Chemscore.Hbond.Weighted>
-3.2542

> <Gold.Chemscore.Metal.Weighted>
-0.0000

> <Gold.Chemscore.Lipo.Weighted>
-10.2087

> <Gold.Chemscore.Internal_Hbond.Weighted>
0.0000

> <Gold.Chemscore.DEClash.Weighted>
0.0038

> <Gold.Chemscore.DEInternal.Weighted>
1.7356

> <Gold.Chemscore.Rot.Weighted>
2.5600

> <Gold.Chemscore.Internal.Correction.Weighted>
   9.000000E+99

> <Gold.Protein.RotatedTorsions>
[ 6907 6896 6895 6894 ] final  -88.75 input  -60.11 | X-H torsion
[ 7974 7965 7964 7962 ] final  -12.39 input  175.53 | X-H torsion
[ 8008 7997 7996 7995 ] final  -53.58 input   59.86 | X-H torsion
[ 10167 10162 10161 10158 ] final  -99.27 input  -65.29 | X-H torsion
[ 10718 10713 10712 10709 ] final -146.43 input   66.30 | X-H torsion
[ 10763 10752 10751 10750 ] final  145.07 input  -60.55 | X-H torsion
[ 11005 11000 10999 10996 ] final   62.44 input  -57.11 | X-H torsion

> <Gold.Protein.ActiveResidues>
 VAL166  LYS551  ARG553  GLY616  TRP617  ASP618  TYR619  PRO620  LYS621  CYS622 
 ASP623  PHE694  ASN695  SER759  ASP760  ASP761  ALA762  ILE779  LEU786  VAL792 
 PHE793  MET794  SER795  GLU796  ALA797  LYS798  CYS799  TRP800  GLU811  SER814 

> <Gold.Protein.RotatedAtoms>
  150.6870  134.2693  159.4581 H   0  0  0  0  0  0  0  0  0  0  0  0  # atno 6907 bound_to 6896
  152.0616  134.9588  160.0584 H   0  0  0  0  0  0  0  0  0  0  0  0  # atno 6908 bound_to 6896
  152.1012  133.4216  159.4625 H   0  0  0  0  0  0  0  0  0  0  0  0  # atno 6909 bound_to 6896
  146.2153  140.3050  142.8378 H   0  0  0  0  0  0  0  0  0  0  0  0  # atno 7974 bound_to 7965
  154.4137  140.1196  156.5177 H   0  0  0  0  0  0  0  0  0  0  0  0  # atno 8008 bound_to 7997
  155.6734  140.3496  155.4808 H   0  0  0  0  0  0  0  0  0  0  0  0  # atno 8009 bound_to 7997
  155.9613  140.1123  157.0883 H   0  0  0  0  0  0  0  0  0  0  0  0  # atno 8010 bound_to 7997
  140.2642  143.3387  152.0596 H   0  0  0  0  0  0  0  0  0  0  0  0  # atno 10167 bound_to 10162
  156.3948  130.7904  151.2109 H   0  0  0  0  0  0  0  0  0  0  0  0  # atno 10718 bound_to 10713
  153.9994  135.2924  155.3404 H   0  0  0  0  0  0  0  0  0  0  0  0  # atno 10763 bound_to 10752
  154.7168  135.5126  153.8753 H   0  0  0  0  0  0  0  0  0  0  0  0  # atno 10764 bound_to 10752
  153.0773  135.6667  154.0237 H   0  0  0  0  0  0  0  0  0  0  0  0  # atno 10765 bound_to 10752
  140.0092  134.6323  155.9807 H   0  0  0  0  0  0  0  0  0  0  0  0  # atno 11005 bound_to 11000
  144.9029  140.7665  143.5855 LP  0  0  0  0  0  0  0  0  0  0  0  0  # atno 17320 bound_to 7965
  145.2977  139.1861  143.4706 LP  0  0  0  0  0  0  0  0  0  0  0  0  # atno 17321 bound_to 7965
  139.5007  144.6699  151.6268 LP  0  0  0  0  0  0  0  0  0  0  0  0  # atno 17342 bound_to 10162
  140.5941  143.9727  150.6343 LP  0  0  0  0  0  0  0  0  0  0  0  0  # atno 17343 bound_to 10162
  157.7501  131.0305  150.4138 LP  0  0  0  0  0  0  0  0  0  0  0  0  # atno 17370 bound_to 10713
  156.4406  130.3991  149.6699 LP  0  0  0  0  0  0  0  0  0  0  0  0  # atno 17371 bound_to 10713
  141.1699  133.6537  156.4612 LP  0  0  0  0  0  0  0  0  0  0  0  0  # atno 17394 bound_to 11000
  140.4586  134.6863  157.5074 LP  0  0  0  0  0  0  0  0  0  0  0  0  # atno 17395 bound_to 11000

$$$$
