AV-unprocessed.smi:2354|AV-procd|sdf|9384|dock9
  -GOLD-   2272013 13D 1   1.00000     0.00000
 Structure written by MMmdl.
 44 45  0  0  0  0  0  0  0  0  2 V2000
  144.6343  142.9039  155.3461 C   0  0  0  0  0  0  0  0  0  0  0  0
  145.3193  141.5994  155.2111 N   0  3  0  0  0  0  0  0  0  0  0  0
  145.0104  140.7022  156.3477 C   0  0  0  0  0  0  0  0  0  0  0  0
  146.7773  141.7409  154.9493 C   0  0  0  0  0  0  0  0  0  0  0  0
  147.3387  140.6445  154.0031 C   0  0  0  0  0  0  0  0  0  0  0  0
  148.8491  140.8690  153.6927 C   0  0  0  0  0  0  0  0  0  0  0  0
  149.4396  141.9847  154.4307 N   0  0  0  0  0  0  0  0  0  0  0  0
  150.5674  141.9301  155.1544 C   0  0  0  0  0  0  0  0  0  0  0  0
  151.2334  140.9051  155.2985 O   0  0  0  0  0  0  0  0  0  0  0  0
  150.8495  143.1236  155.7044 N   0  0  0  0  0  0  0  0  0  0  0  0
  151.9141  143.4569  156.5825 C   0  0  0  0  0  0  0  0  0  0  0  0
  152.1926  144.8065  156.9122 C   0  0  0  0  0  0  0  0  0  0  0  0
  153.2440  145.0675  157.8073 C   0  0  0  0  0  0  0  0  0  0  0  0
  153.9414  143.9621  158.3229 C   0  0  0  0  0  0  0  0  0  0  0  0
  153.6286  142.6907  157.9930 N   0  0  0  0  0  0  0  0  0  0  0  0
  152.6257  142.4485  157.1423 N   0  0  0  0  0  0  0  0  0  0  0  0
  147.0873  139.2462  154.6041 C   0  0  0  0  0  0  0  0  0  0  0  0
  147.0984  138.2665  153.4267 C   0  0  0  0  0  0  0  0  0  0  0  0
  146.7157  139.0941  152.1939 C   0  0  0  0  0  0  0  0  0  0  0  0
  146.5412  140.5356  152.6893 C   0  0  0  0  0  0  0  0  0  0  0  0
  145.0098  143.4555  156.2089 H   0  0  0  0  0  0  0  0  0  0  0  0
  143.5598  142.7647  155.4694 H   0  0  0  0  0  0  0  0  0  0  0  0
  144.7864  143.5135  154.4549 H   0  0  0  0  0  0  0  0  0  0  0  0
  145.3943  141.1112  157.2832 H   0  0  0  0  0  0  0  0  0  0  0  0
  145.4443  139.7135  156.2050 H   0  0  0  0  0  0  0  0  0  0  0  0
  143.9326  140.5728  156.4519 H   0  0  0  0  0  0  0  0  0  0  0  0
  146.9768  142.7150  154.4998 H   0  0  0  0  0  0  0  0  0  0  0  0
  147.3233  141.7551  155.8943 H   0  0  0  0  0  0  0  0  0  0  0  0
  149.4216  139.9567  153.8661 H   0  0  0  0  0  0  0  0  0  0  0  0
  148.9813  141.0833  152.6320 H   0  0  0  0  0  0  0  0  0  0  0  0
  148.9615  142.8718  154.3733 H   0  0  0  0  0  0  0  0  0  0  0  0
  150.1615  143.8496  155.5706 H   0  0  0  0  0  0  0  0  0  0  0  0
  151.6199  145.6293  156.5120 H   0  0  0  0  0  0  0  0  0  0  0  0
  153.5026  146.0767  158.0916 H   0  0  0  0  0  0  0  0  0  0  0  0
  154.7582  144.0976  159.0161 H   0  0  0  0  0  0  0  0  0  0  0  0
  147.7949  138.9669  155.3837 H   0  0  0  0  0  0  0  0  0  0  0  0
  146.0978  139.2172  155.0632 H   0  0  0  0  0  0  0  0  0  0  0  0
  148.0972  137.8474  153.2966 H   0  0  0  0  0  0  0  0  0  0  0  0
  146.4143  137.4334  153.5917 H   0  0  0  0  0  0  0  0  0  0  0  0
  147.5114  139.0405  151.4498 H   0  0  0  0  0  0  0  0  0  0  0  0
  145.8045  138.7244  151.7221 H   0  0  0  0  0  0  0  0  0  0  0  0
  145.4810  140.7017  152.8857 H   0  0  0  0  0  0  0  0  0  0  0  0
  146.8489  141.2677  151.9416 H   0  0  0  0  0  0  0  0  0  0  0  0
  144.9267  141.1677  154.3866 H   0  0  0  0  0  0  0  0  0  0  0  0
  1  2  1  0  0  0  0
  1 21  1  0  0  0  0
  1 22  1  0  0  0  0
  1 23  1  0  0  0  0
  2  3  1  0  0  0  0
  2  4  1  0  0  0  0
  2 44  1  0  0  0  0
  3 24  1  0  0  0  0
  3 25  1  0  0  0  0
  3 26  1  0  0  0  0
  4  5  1  0  0  0  0
  4 27  1  0  0  0  0
  4 28  1  0  0  0  0
  5 20  1  0  0  0  0
  5  6  1  0  0  0  0
  5 17  1  0  0  0  0
  6  7  1  0  0  0  0
  6 29  1  0  0  0  0
  6 30  1  0  0  0  0
  7  8  1  0  0  0  0
  7 31  1  0  0  0  0
  8  9  2  0  0  0  0
  8 10  1  0  0  0  0
 10 11  1  0  0  0  0
 10 32  1  0  0  0  0
 11 16  1  0  0  0  0
 11 12  2  0  0  0  0
 12 13  1  0  0  0  0
 12 33  1  0  0  0  0
 13 14  2  0  0  0  0
 13 34  1  0  0  0  0
 14 15  1  0  0  0  0
 14 35  1  0  0  0  0
 15 16  2  0  0  0  0
 17 18  1  0  0  0  0
 17 36  1  0  0  0  0
 17 37  1  0  0  0  0
 18 19  1  0  0  0  0
 18 38  1  0  0  0  0
 18 39  1  0  0  0  0
 19 20  1  0  0  0  0
 19 40  1  0  0  0  0
 19 41  1  0  0  0  0
 20 42  1  0  0  0  0
 20 43  1  0  0  0  0
M  CHG  1   2   1
M  END
> <s_m_source_file>
AV-unprocessed.smi

> <i_m_source_file_index>
2354

> <i_lp_mmshare_version>
43012

> <i_f3d_flags>
0

> <s_epik_input>
W0NIMl0xW0NIMl1bQ0gyXVtDSDJdQzEoW0NIMl1OKFtDSDNdKVtDSDNdKVtDSDJdW05IXUMoPU8pW05IXWMyW2NIXVtjSF1bY0hdbm4y

> <s_epik_cmdline>
J2VwaWtfcHl0aG9uJywgJy1waCcsICc3LjAnLCAnLXRuJywgJzgnLCAnLW1hJywgJzIwMCcsICctbWV0YWxfYmluZGluZycsICctaW1hZScsICc8aW5maWxlLm1hZT4nLCAnLW9tYWUnLCAnPG91dGZpbGUubWFlPic=

> <r_lp_tautomer_probability>
1

> <r_epik_Ionization_Penalty>
0.0045793

> <r_epik_Ionization_Penalty_Charging>
0.000516438

> <r_epik_Ionization_Penalty_Neutral>
0.00406287

> <r_epik_State_Penalty>
-0

> <r_epik_Charging_Adjusted_Penalty>
0.000516438

> <i_epik_Tot_Q>
1

> <i_epik_Tot_abs_Q>
1

> <r_epik_Metal_State_Penalty>
-0

> <b_epik_Metal_Only>
0

> <s_lp_Force_Field>
OPLS_2005

> <r_lp_Energy>
45.7912

> <b_lp_Chiralities_Consistent>
1

> <s_lp_Variant>
AV-unprocessed.smi:2354-1

> <Gold.Version>
5.8.1

> <Gold.Id.Protein>
6NUR|6NUR_protein|mol2

> <Gold.PLP.Fitness>
44.9475

> <Gold.PLP.PLP>
-37.6626

> <Gold.PLP.part.hbond>
-3.0000

> <Gold.PLP.part.metal>
0.0000

> <Gold.PLP.part.buried>
-2.1023

> <Gold.PLP.part.nonpolar>
-33.3778

> <Gold.PLP.part.repulsive>
0.3173

> <Gold.PLP.ligand.clash>
0.9681

> <Gold.PLP.ligand.torsion>
1.5741

> <Gold.PLP.Chemscore.Hbond>
3.6614

> <Gold.PLP.Chemscore.CHOScore>
0.0000

> <Gold.PLP.Chemscore.Metal>
0.0000

> <Gold.Chemscore.Hbonds>
donor molecule, donor type, donor heavy atom, donor atom, acceptor molecule, acceptor atom, score
      L1  H     2    44       P1 10175  0.33
      L1  H     7    31       P1  8028  0.36
      L1  H    10    32       P1  8028  1.00
      P1  H  7989  7998       L1     9  0.39

> <Gold.PLP.Chemscore.Internal.Correction>
0.4168

> <Gold.Rescore>
     Score         DG    S(hbond)    S(metal)    S(lipo)     H(rot)  DE(clash)    DE(int)     intcor
     14.52     -20.42       2.63        0.00      92.35       1.81       2.77       3.14       ----

> <Gold.Chemscore.Fitness>
14.5197

> <Gold.Chemscore.DG>
-20.4237

> <Gold.Chemscore.ZeroCoef>
-5.4800

> <Gold.Chemscore.Hbond>
2.6250

> <Gold.Chemscore.Metal>
0.0000

> <Gold.Chemscore.Lipo>
92.3475

> <Gold.Chemscore.Internal_Hbond>
0.0000

> <Gold.Chemscore.DEClash>
2.7661

> <Gold.Chemscore.DEInternal>
3.1379

> <Gold.Chemscore.Rot>
1.8080

> <Gold.Chemscore.Internal.Correction>
   9.000000E+99

> <Gold.Chemscore.Hbonds>
donor molecule, donor type, donor heavy atom, donor atom, acceptor molecule, acceptor atom, score
      L1  H     2    44       P1 10175  0.14
      L1  H     7    31       P1  8028  0.36
      L1  H    10    32       P1  8028  0.93
      P1  H  7989  7998       L1     9  0.02

> <Gold.Chemscore.Hbond.Weighted>
-8.7676

> <Gold.Chemscore.Metal.Weighted>
-0.0000

> <Gold.Chemscore.Lipo.Weighted>
-10.8047

> <Gold.Chemscore.Internal_Hbond.Weighted>
0.0000

> <Gold.Chemscore.DEClash.Weighted>
2.7661

> <Gold.Chemscore.DEInternal.Weighted>
3.1379

> <Gold.Chemscore.Rot.Weighted>
4.6286

> <Gold.Chemscore.Internal.Correction.Weighted>
   9.000000E+99

> <Gold.Protein.RotatedTorsions>
[ 6907 6896 6895 6894 ] final -132.14 input  -60.11 | X-H torsion
[ 7974 7965 7964 7962 ] final    5.67 input  175.53 | X-H torsion
[ 8008 7997 7996 7995 ] final -141.30 input   59.86 | X-H torsion
[ 10167 10162 10161 10158 ] final  122.70 input  -65.29 | X-H torsion
[ 10718 10713 10712 10709 ] final -115.25 input   66.30 | X-H torsion
[ 10763 10752 10751 10750 ] final   82.86 input  -60.55 | X-H torsion
[ 11005 11000 10999 10996 ] final   17.72 input  -57.11 | X-H torsion

> <Gold.Protein.ActiveResidues>
 VAL166  LYS551  ARG553  GLY616  TRP617  ASP618  TYR619  PRO620  LYS621  CYS622 
 ASP623  PHE694  ASN695  SER759  ASP760  ASP761  ALA762  ILE779  LEU786  VAL792 
 PHE793  MET794  SER795  GLU796  ALA797  LYS798  CYS799  TRP800  GLU811  SER814 

> <Gold.Protein.RotatedAtoms>
  150.9589  133.6467  159.2757 H   0  0  0  0  0  0  0  0  0  0  0  0  # atno 6907 bound_to 6896
  151.3796  135.0936  159.9501 H   0  0  0  0  0  0  0  0  0  0  0  0  # atno 6908 bound_to 6896
  152.5140  133.9126  159.7550 H   0  0  0  0  0  0  0  0  0  0  0  0  # atno 6909 bound_to 6896
  146.2439  140.0349  142.8386 H   0  0  0  0  0  0  0  0  0  0  0  0  # atno 7974 bound_to 7965
  155.4756  140.0556  157.2974 H   0  0  0  0  0  0  0  0  0  0  0  0  # atno 8008 bound_to 7997
  154.4681  140.2027  156.0019 H   0  0  0  0  0  0  0  0  0  0  0  0  # atno 8009 bound_to 7997
  156.1009  140.3219  155.7945 H   0  0  0  0  0  0  0  0  0  0  0  0  # atno 8010 bound_to 7997
  139.5843  144.6999  151.3449 H   0  0  0  0  0  0  0  0  0  0  0  0  # atno 10167 bound_to 10162
  156.0883  130.6071  150.8881 H   0  0  0  0  0  0  0  0  0  0  0  0  # atno 10718 bound_to 10713
  153.1239  135.4713  154.9241 H   0  0  0  0  0  0  0  0  0  0  0  0  # atno 10763 bound_to 10752
  154.7602  135.3129  154.8395 H   0  0  0  0  0  0  0  0  0  0  0  0  # atno 10764 bound_to 10752
  153.8953  135.6880  153.4812 H   0  0  0  0  0  0  0  0  0  0  0  0  # atno 10765 bound_to 10752
  140.4328  134.1402  155.7682 H   0  0  0  0  0  0  0  0  0  0  0  0  # atno 11005 bound_to 11000
  145.1121  140.9411  143.4650 LP  0  0  0  0  0  0  0  0  0  0  0  0  # atno 17320 bound_to 7965
  145.0565  139.3139  143.5902 LP  0  0  0  0  0  0  0  0  0  0  0  0  # atno 17321 bound_to 7965
  140.7117  143.7374  150.7579 LP  0  0  0  0  0  0  0  0  0  0  0  0  # atno 17342 bound_to 10162
  140.0914  143.4874  152.2476 LP  0  0  0  0  0  0  0  0  0  0  0  0  # atno 17343 bound_to 10162
  157.6025  131.0940  150.8936 LP  0  0  0  0  0  0  0  0  0  0  0  0  # atno 17370 bound_to 10713
  156.9091  130.5274  149.5281 LP  0  0  0  0  0  0  0  0  0  0  0  0  # atno 17371 bound_to 10713
  141.1738  133.8555  157.1486 LP  0  0  0  0  0  0  0  0  0  0  0  0  # atno 17394 bound_to 11000
  140.0122  134.9983  157.0420 LP  0  0  0  0  0  0  0  0  0  0  0  0  # atno 17395 bound_to 11000

$$$$
