#       Name:                AV-unprocessed.smi:2658
#       Creating user name   scv26
#       Creation time:       Fri Mar 27 14:32:34 2020


#       File generated by GOLD software.
#

@<TRIPOS>MOLECULE
AV-unprocessed.smi:2658
    53    55     1
SMALL
NO_CHARGES


@<TRIPOS>ATOM
      1 ****        -6.5611   2.6429   2.1901 C.3            1 S1                 0.0000
      2 ****        -5.3282   2.2647   1.3882 C.ar           1 S1                 0.0000
      3 ****        -5.4914   1.6580   0.1224 C.ar           1 S1                 0.0000
      4 ****        -4.3710   1.2922  -0.6553 C.ar           1 S1                 0.0000
      5 ****        -4.2991   0.6946  -1.9020 N.2            1 S1                 0.0000
      6 ****        -2.9844   0.6160  -2.0858 C.2            1 S1                 0.0000
      7 ****        -2.1950   1.0910  -1.1035 N.pl3          1 S1                 0.0000
      8 ****        -0.7429   1.1123  -1.0850 C.3            1 S1                 0.0000
      9 ****        -0.1367  -0.2343  -0.6449 C.3            1 S1                 0.0000
     10 ****        -0.5818  -0.5339   0.6638 O.3            1 S1                 0.0000
     11 ****         1.3995  -0.1937  -0.6424 C.3            1 S1                 0.0000
     12 ****         1.8993  -1.5244  -0.7374 O.3            1 S1                 0.0000
     13 ****         3.2657  -1.7114  -0.7700 C.ar           1 S1                 0.0000
     14 ****         3.7707  -3.0211  -0.8767 C.ar           1 S1                 0.0000
     15 ****         5.1681  -3.1851  -0.9115 C.ar           1 S1                 0.0000
     16 ****         5.7843  -4.5666  -1.0267 C.3            1 S1                 0.0000
     17 ****         5.9562  -2.0147  -0.8361 C.ar           1 S1                 0.0000
     18 ****         7.4723  -2.0701  -0.8654 C.3            1 S1                 0.0000
     19 ****         5.4112  -0.7800  -0.7338 N.ar           1 S1                 0.0000
     20 ****         4.0833  -0.6288  -0.7012 N.ar           1 S1                 0.0000
     21 ****        -3.0723   1.5527  -0.1282 C.ar           1 S1                 0.0000
     22 ****        -2.8969   2.1544   1.1304 C.ar           1 S1                 0.0000
     23 ****        -4.0270   2.5140   1.8942 C.ar           1 S1                 0.0000
     24 ****        -3.8269   3.1656   3.2510 C.3            1 S1                 0.0000
     25 ****        -7.4769   2.3628   1.6689 H              1 S1                 0.0000
     26 ****        -6.5890   3.7192   2.3614 H              1 S1                 0.0000
     27 ****        -6.5594   2.1375   3.1559 H              1 S1                 0.0000
     28 ****        -6.4820   1.4681  -0.2638 H              1 S1                 0.0000
     29 ****        -2.5698   0.1870  -2.9863 H              1 S1                 0.0000
     30 ****        -0.3963   1.3716  -2.0862 H              1 S1                 0.0000
     31 ****        -0.4118   1.9153  -0.4252 H              1 S1                 0.0000
     32 ****        -0.4807  -1.0157  -1.3238 H              1 S1                 0.0000
     33 ****        -1.5260  -0.5762   0.6566 H              1 S1                 0.0000
     34 ****         1.7456   0.3647  -1.5142 H              1 S1                 0.0000
     35 ****         1.7741   0.3180   0.2463 H              1 S1                 0.0000
     36 ****         3.1031  -3.8684  -0.9309 H              1 S1                 0.0000
     37 ****         6.3478  -4.6547  -1.9557 H              1 S1                 0.0000
     38 ****         5.0184  -5.3424  -1.0209 H              1 S1                 0.0000
     39 ****         6.4601  -4.7544  -0.1923 H              1 S1                 0.0000
     40 ****         7.8485  -2.6251  -0.0056 H              1 S1                 0.0000
     41 ****         7.9095  -1.0711  -0.8391 H              1 S1                 0.0000
     42 ****         7.8181  -2.5635  -1.7740 H              1 S1                 0.0000
     43 ****        -1.9002   2.3361   1.5047 H              1 S1                 0.0000
     44 ****        -2.7681   3.2811   3.4848 H              1 S1                 0.0000
     45 ****        -4.2784   2.5594   4.0366 H              1 S1                 0.0000
     46 ****        -4.2837   4.1554   3.2702 H              1 S1                 0.0000
     47 ****        -5.0402   0.3998  -2.5052 LP             1 S1                 0.0000
     48 ****        -0.2808   0.1813   1.2946 LP             1 S1                 0.0000
     49 ****        -0.2068  -1.4141   0.9545 LP             1 S1                 0.0000
     50 ****         1.5266  -1.9210  -1.5763 LP             1 S1                 0.0000
     51 ****         1.5508  -2.0282   0.0529 LP             1 S1                 0.0000
     52 ****         6.0048   0.0231  -0.6824 LP             1 S1                 0.0000
     53 ****         3.6894   0.2872  -0.6257 LP             1 S1                 0.0000
@<TRIPOS>BOND
    1    1    2 1     
    2    1   25 1     
    3    1   26 1     
    4    1   27 1     
    5    2   23 ar    
    6    2    3 ar    
    7    3    4 ar    
    8    3   28 1     
    9    4   21 ar    
   10    4    5 1     
   11    5    6 2     
   12    6    7 1     
   13    6   29 1     
   14    7    8 1     
   15    7   21 1     
   16    8    9 1     
   17    8   30 1     
   18    8   31 1     
   19    9   10 1     
   20    9   11 1     
   21    9   32 1     
   22   10   33 1     
   23   11   12 1     
   24   11   34 1     
   25   11   35 1     
   26   12   13 1     
   27   13   20 ar    
   28   13   14 ar    
   29   14   15 ar    
   30   14   36 1     
   31   15   16 1     
   32   15   17 ar    
   33   16   37 1     
   34   16   38 1     
   35   16   39 1     
   36   17   18 1     
   37   17   19 ar    
   38   18   40 1     
   39   18   41 1     
   40   18   42 1     
   41   19   20 ar    
   42   21   22 ar    
   43   22   23 ar    
   44   22   43 1     
   45   23   24 1     
   46   24   44 1     
   47   24   45 1     
   48   24   46 1     
   49    5   47 1     
   50   10   48 1     
   51   10   49 1     
   52   12   50 1     
   53   12   51 1     
   54   19   52 1     
   55   20   53 1     
@<TRIPOS>SUBSTRUCTURE
      1 S1             1
@<TRIPOS>SET
LONE_PAIRS      STATIC     ATOMS    <user>   **** ""
7 47 48 49 50 51 52 53
DONOR_HYDROGENS      STATIC     ATOMS    <user>   **** ""
1 33
ATOM$BLUE        STATIC     ATOMS    COLORGROUP SYSTEM
7 47 48 49 50 51 52 53
ATOM$RED        STATIC     ATOMS    COLORGROUP SYSTEM
1 33
