AV-unprocessed.smi:1019|AV-procd|sdf|4450|dock2
  -GOLD-   22720 2413D 1   1.00000     0.00000
 Structure written by MMmdl.
 45 47  0  0  0  0  0  0  0  0  3 V2000
  147.9569  137.0702  154.5189 C   0  0  0  0  0  0  0  0  0  0  0  0
  148.1578  137.7614  153.2231 N   0  3  2  0  0  0  0  0  0  0  0  0
  149.3514  138.6468  153.2245 C   0  0  0  0  0  0  0  0  0  0  0  0
  149.2352  139.7589  154.2518 C   0  0  0  0  0  0  0  0  0  0  0  0
  150.0704  139.7706  155.3895 C   0  0  0  0  0  0  0  0  0  0  0  0
  149.9616  140.8075  156.3363 C   0  0  0  0  0  0  0  0  0  0  0  0
  149.0164  141.8348  156.1509 C   0  0  0  0  0  0  0  0  0  0  0  0
  148.1789  141.8245  155.0189 C   0  0  0  0  0  0  0  0  0  0  0  0
  148.2871  140.7880  154.0713 C   0  0  0  0  0  0  0  0  0  0  0  0
  146.9226  138.4498  152.7666 C   0  0  0  0  0  0  0  0  0  0  0  0
  146.0080  137.5325  151.9297 C   0  0  1  0  0  0  0  0  0  0  0  0
  146.3428  137.6773  150.5626 O   0  0  0  0  0  0  0  0  0  0  0  0
  146.1617  136.0532  152.3360 C   0  0  0  0  0  0  0  0  0  0  0  0
  145.2638  135.1567  151.5955 N   0  0  0  0  0  0  0  0  0  0  0  0
  144.0866  135.4216  150.9652 C   0  0  0  0  0  0  0  0  0  0  0  0
  143.6399  134.2560  150.4207 N   0  3  0  0  0  0  0  0  0  0  0  0
  144.5448  133.2312  150.7050 C   0  0  0  0  0  0  0  0  0  0  0  0
  144.5292  131.8815  150.3675 C   0  0  0  0  0  0  0  0  0  0  0  0
  145.6170  131.1043  150.8171 C   0  0  0  0  0  0  0  0  0  0  0  0
  146.6642  131.6728  151.5714 C   0  0  0  0  0  0  0  0  0  0  0  0
  146.6695  133.0424  151.9090 C   0  0  0  0  0  0  0  0  0  0  0  0
  145.5910  133.8034  151.4596 C   0  0  0  0  0  0  0  0  0  0  0  0
  147.7457  137.7861  155.3142 H   0  0  0  0  0  0  0  0  0  0  0  0
  148.8356  136.4921  154.8037 H   0  0  0  0  0  0  0  0  0  0  0  0
  147.1217  136.3715  154.4582 H   0  0  0  0  0  0  0  0  0  0  0  0
  150.2511  138.0786  153.4592 H   0  0  0  0  0  0  0  0  0  0  0  0
  149.5074  139.0643  152.2284 H   0  0  0  0  0  0  0  0  0  0  0  0
  150.7997  138.9876  155.5383 H   0  0  0  0  0  0  0  0  0  0  0  0
  150.6035  140.8153  157.2051 H   0  0  0  0  0  0  0  0  0  0  0  0
  148.9334  142.6298  156.8774 H   0  0  0  0  0  0  0  0  0  0  0  0
  147.4531  142.6121  154.8779 H   0  0  0  0  0  0  0  0  0  0  0  0
  147.6419  140.7868  153.2047 H   0  0  0  0  0  0  0  0  0  0  0  0
  146.3547  138.8061  153.6276 H   0  0  0  0  0  0  0  0  0  0  0  0
  147.1985  139.3402  152.1992 H   0  0  0  0  0  0  0  0  0  0  0  0
  144.9649  137.8225  152.0506 H   0  0  0  0  0  0  0  0  0  0  0  0
  145.5632  137.9102  150.0814 H   0  0  0  0  0  0  0  0  0  0  0  0
  147.1826  135.7137  152.1542 H   0  0  0  0  0  0  0  0  0  0  0  0
  145.9783  135.9197  153.4029 H   0  0  0  0  0  0  0  0  0  0  0  0
  143.5947  136.3819  150.9074 H   0  0  0  0  0  0  0  0  0  0  0  0
  143.7288  131.4434  149.7890 H   0  0  0  0  0  0  0  0  0  0  0  0
  145.6492  130.0511  150.5777 H   0  0  0  0  0  0  0  0  0  0  0  0
  147.4811  131.0448  151.8970 H   0  0  0  0  0  0  0  0  0  0  0  0
  147.4764  133.4680  152.4864 H   0  0  0  0  0  0  0  0  0  0  0  0
  148.3359  137.0357  152.5428 H   0  0  0  0  0  0  0  0  0  0  0  0
  142.7809  134.1695  149.8924 H   0  0  0  0  0  0  0  0  0  0  0  0
  1  2  1  0  0  0  0
  1 23  1  0  0  0  0
  1 24  1  0  0  0  0
  1 25  1  0  0  0  0
  2  3  1  0  0  0  0
  2 10  1  0  0  0  0
  2 44  1  0  0  0  0
  3  4  1  0  0  0  0
  3 26  1  0  0  0  0
  3 27  1  0  0  0  0
  4  9  1  0  0  0  0
  4  5  2  0  0  0  0
  5  6  1  0  0  0  0
  5 28  1  0  0  0  0
  6  7  2  0  0  0  0
  6 29  1  0  0  0  0
  7  8  1  0  0  0  0
  7 30  1  0  0  0  0
  8  9  2  0  0  0  0
  8 31  1  0  0  0  0
  9 32  1  0  0  0  0
 10 11  1  0  0  0  0
 10 33  1  0  0  0  0
 10 34  1  0  0  0  0
 11 12  1  0  0  0  0
 11 13  1  0  0  0  0
 11 35  1  0  0  0  0
 12 36  1  0  0  0  0
 13 14  1  0  0  0  0
 13 37  1  0  0  0  0
 13 38  1  0  0  0  0
 14 22  1  0  0  0  0
 14 15  1  0  0  0  0
 15 16  2  0  0  0  0
 15 39  1  0  0  0  0
 16 17  1  0  0  0  0
 16 45  1  0  0  0  0
 17 22  2  0  0  0  0
 17 18  1  0  0  0  0
 18 19  2  0  0  0  0
 18 40  1  0  0  0  0
 19 20  1  0  0  0  0
 19 41  1  0  0  0  0
 20 21  2  0  0  0  0
 20 42  1  0  0  0  0
 21 22  1  0  0  0  0
 21 43  1  0  0  0  0
M  CHG  1   2   1
M  CHG  1  16   1
M  END
> <s_m_source_file>
AV-unprocessed.smi

> <i_m_source_file_index>
1019

> <i_lp_mmshare_version>
43012

> <i_f3d_flags>
0

> <s_epik_input>
W2NIXTFbY0hdW2NIXVtjSF1bY0hdYzFbQ0gyXU4oW0NIM10pW0NIMl1bQ0BIXShbT0hdKVtDSDJdbihbY0hdbjIpYyhjMjMpW2NIXVtjSF1bY0hdW2NIXTM=

> <s_epik_cmdline>
J2VwaWtfcHl0aG9uJywgJy1waCcsICc3LjAnLCAnLXRuJywgJzgnLCAnLW1hJywgJzIwMCcsICctbWV0YWxfYmluZGluZycsICctaW1hZScsICc8aW5maWxlLm1hZT4nLCAnLW9tYWUnLCAnPG91dGZpbGUubWFlPic=

> <r_epik_Ionization_Penalty>
1.5198

> <r_epik_Ionization_Penalty_Charging>
1.5198

> <r_epik_Ionization_Penalty_Neutral>
3.13312e-06

> <r_epik_State_Penalty>
1.624

> <r_epik_Charging_Adjusted_Penalty>
3.1438

> <i_epik_Tot_Q>
2

> <i_epik_Tot_abs_Q>
2

> <r_epik_Metal_State_Penalty>
5.67392

> <b_epik_Metal_Only>
0

> <s_lp_Force_Field>
OPLS_2005

> <r_lp_Energy>
24.6792

> <b_lp_Chiralities_Consistent>
1

> <s_lp_Variant>
AV-unprocessed.smi:1019-8

> <Gold.Version>
5.8.1

> <Gold.Id.Protein>
6NUR|6NUR_protein|mol2

> <Gold.PLP.Fitness>
52.9826

> <Gold.PLP.PLP>
-34.1664

> <Gold.PLP.part.hbond>
-4.8852

> <Gold.PLP.part.metal>
0.0000

> <Gold.PLP.part.buried>
-0.6595

> <Gold.PLP.part.nonpolar>
-29.8509

> <Gold.PLP.part.repulsive>
0.0351

> <Gold.PLP.ligand.clash>
0.0000

> <Gold.PLP.ligand.torsion>
1.2390

> <Gold.PLP.Chemscore.Hbond>
6.0000

> <Gold.PLP.Chemscore.CHOScore>
1.0000

> <Gold.PLP.Chemscore.Metal>
0.0000

> <Gold.Chemscore.Hbonds>
donor molecule, donor type, donor heavy atom, donor atom, acceptor molecule, acceptor atom, score
      L1  H     2    44       P1  7948  0.42
      L1  H    12    36       P1 10171  1.00
      L1  H    16    45       P1 10186  2.00
      P1  H  7954  7966       L1    12  0.94
      L1  C    15    39       P1 10171  1.00

> <Gold.PLP.Chemscore.Internal.Correction>
0.2942

> <Gold.Rescore>
     Score         DG    S(hbond)    S(metal)    S(lipo)     H(rot)  DE(clash)    DE(int)     intcor
     19.33     -22.28       3.43        0.00      99.30       2.46       1.48       1.47       ----

> <Gold.Chemscore.Fitness>
19.3314

> <Gold.Chemscore.DG>
-22.2782

> <Gold.Chemscore.ZeroCoef>
-5.4800

> <Gold.Chemscore.Hbond>
3.4329

> <Gold.Chemscore.Metal>
0.0000

> <Gold.Chemscore.Lipo>
99.2959

> <Gold.Chemscore.Internal_Hbond>
0.0000

> <Gold.Chemscore.DEClash>
1.4784

> <Gold.Chemscore.DEInternal>
1.4684

> <Gold.Chemscore.Rot>
2.4552

> <Gold.Chemscore.Internal.Correction>
   9.000000E+99

> <Gold.Chemscore.Hbonds>
donor molecule, donor type, donor heavy atom, donor atom, acceptor molecule, acceptor atom, score
      L1  H     2    44       P1  7948  0.21
      L1  H    12    36       P1 10171  0.99
      L1  H    16    45       P1 10186  0.97
      P1  H  7954  7966       L1    12  0.90

> <Gold.Chemscore.Hbond.Weighted>
-11.4660

> <Gold.Chemscore.Metal.Weighted>
-0.0000

> <Gold.Chemscore.Lipo.Weighted>
-11.6176

> <Gold.Chemscore.Internal_Hbond.Weighted>
0.0000

> <Gold.Chemscore.DEClash.Weighted>
1.4784

> <Gold.Chemscore.DEInternal.Weighted>
1.4684

> <Gold.Chemscore.Rot.Weighted>
6.2854

> <Gold.Chemscore.Internal.Correction.Weighted>
   9.000000E+99

> <Gold.Protein.RotatedTorsions>
[ 6907 6896 6895 6894 ] final  149.89 input  -60.11 | X-H torsion
[ 7974 7965 7964 7962 ] final  162.18 input  175.53 | X-H torsion
[ 8008 7997 7996 7995 ] final    0.53 input   59.86 | X-H torsion
[ 10167 10162 10161 10158 ] final    4.47 input  -65.29 | X-H torsion
[ 10718 10713 10712 10709 ] final   19.34 input   66.30 | X-H torsion
[ 10763 10752 10751 10750 ] final  -47.41 input  -60.55 | X-H torsion
[ 11005 11000 10999 10996 ] final  -79.44 input  -57.11 | X-H torsion

> <Gold.Protein.ActiveResidues>
 VAL166  LYS551  ARG553  GLY616  TRP617  ASP618  TYR619  PRO620  LYS621  CYS622 
 ASP623  PHE694  ASN695  SER759  ASP760  ASP761  ALA762  ILE779  LEU786  VAL792 
 PHE793  MET794  SER795  GLU796  ALA797  LYS798  CYS799  TRP800  GLU811  SER814 

> <Gold.Protein.RotatedAtoms>
  152.1219  133.4358  159.4679 H   0  0  0  0  0  0  0  0  0  0  0  0  # atno 6907 bound_to 6896
  150.6872  134.2525  159.4525 H   0  0  0  0  0  0  0  0  0  0  0  0  # atno 6908 bound_to 6896
  152.0402  134.9715  160.0624 H   0  0  0  0  0  0  0  0  0  0  0  0  # atno 6909 bound_to 6896
  144.7649  139.8004  143.6319 H   0  0  0  0  0  0  0  0  0  0  0  0  # atno 7974 bound_to 7965
  154.6692  140.2608  155.7025 H   0  0  0  0  0  0  0  0  0  0  0  0  # atno 8008 bound_to 7997
  156.2652  140.2833  156.1116 H   0  0  0  0  0  0  0  0  0  0  0  0  # atno 8009 bound_to 7997
  155.1194  140.0377  157.2736 H   0  0  0  0  0  0  0  0  0  0  0  0  # atno 8010 bound_to 7997
  140.6533  143.7490  150.7611 H   0  0  0  0  0  0  0  0  0  0  0  0  # atno 10167 bound_to 10162
  157.1091  130.6501  149.5892 H   0  0  0  0  0  0  0  0  0  0  0  0  # atno 10718 bound_to 10713
  154.0609  135.6618  153.4812 H   0  0  0  0  0  0  0  0  0  0  0  0  # atno 10763 bound_to 10752
  153.0427  135.5134  154.7660 H   0  0  0  0  0  0  0  0  0  0  0  0  # atno 10764 bound_to 10752
  154.6696  135.3027  154.9727 H   0  0  0  0  0  0  0  0  0  0  0  0  # atno 10765 bound_to 10752
  141.1667  133.7106  156.8123 H   0  0  0  0  0  0  0  0  0  0  0  0  # atno 11005 bound_to 11000
  146.1747  139.4912  142.9905 LP  0  0  0  0  0  0  0  0  0  0  0  0  # atno 17320 bound_to 7965
  145.6502  141.0265  143.1764 LP  0  0  0  0  0  0  0  0  0  0  0  0  # atno 17321 bound_to 7965
  140.1145  143.4668  152.2350 LP  0  0  0  0  0  0  0  0  0  0  0  0  # atno 17342 bound_to 10162
  139.5751  144.7483  151.3786 LP  0  0  0  0  0  0  0  0  0  0  0  0  # atno 17343 bound_to 10162
  155.9855  130.4885  150.7033 LP  0  0  0  0  0  0  0  0  0  0  0  0  # atno 17370 bound_to 10713
  157.4575  131.0879  151.0781 LP  0  0  0  0  0  0  0  0  0  0  0  0  # atno 17371 bound_to 10713
  140.2179  134.8779  157.3345 LP  0  0  0  0  0  0  0  0  0  0  0  0  # atno 17394 bound_to 11000
  140.2019  134.4245  155.7658 LP  0  0  0  0  0  0  0  0  0  0  0  0  # atno 17395 bound_to 11000

$$$$
