AV-unprocessed.smi:148|AV-procd|sdf|1228|dock10
  -GOLD-   2262018433D 1   1.00000     0.00000
 Structure written by MMmdl.
 63 67  0  0  0  0  0  0  0  0  1 V2000
  147.9610  132.4212  154.0901 O   0  0  0  0  0  0  0  0  0  0  0  0
  148.8941  133.3192  154.6549 C   0  0  0  0  0  0  0  0  0  0  0  0
  148.8441  133.2890  156.2023 C   0  0  2  0  0  0  0  0  0  0  0  0
  149.7593  134.3573  156.8512 C   0  0  0  0  0  0  0  0  0  0  0  0
  149.4021  135.7146  156.4769 N   0  0  0  0  0  0  0  0  0  0  0  0
  148.1667  136.3045  156.6180 C   0  0  0  0  0  0  0  0  0  0  0  0
  148.0874  137.5370  156.1961 N   0  0  0  0  0  0  0  0  0  0  0  0
  149.3682  137.8192  155.7360 C   0  0  0  0  0  0  0  0  0  0  0  0
  149.9874  138.9613  155.1531 C   0  0  0  0  0  0  0  0  0  0  0  0
  149.3598  140.1291  154.8953 N   0  0  0  0  0  0  0  0  0  0  0  0
  148.2113  139.8589  154.0267 C   0  0  0  0  0  0  0  0  0  0  0  0
  147.6002  141.1515  153.4790 C   0  0  0  0  0  0  0  0  0  0  0  0
  147.2248  142.0758  154.6371 C   0  0  0  0  0  0  0  0  0  0  0  0
  148.4577  142.3383  155.5103 C   0  0  0  0  0  0  0  0  0  0  0  0
  149.1129  141.0325  156.0401 C   0  0  2  0  0  0  0  0  0  0  0  0
  150.4004  141.3790  156.8673 C   0  0  2  0  0  0  0  0  0  0  0  0
  150.9590  140.2866  157.8052 C   0  0  0  0  0  0  0  0  0  0  0  0
  151.7922  141.0001  158.8795 C   0  0  0  0  0  0  0  0  0  0  0  0
  151.5182  142.4969  158.7099 C   0  0  0  0  0  0  0  0  0  0  0  0
  150.2744  142.5843  157.8239 C   0  0  2  0  0  0  0  0  0  0  0  0
  149.1261  142.4710  158.6464 O   0  0  0  0  0  0  0  0  0  0  0  0
  151.2936  138.8693  154.8013 N   0  0  0  0  0  0  0  0  0  0  0  0
  151.9659  137.7366  155.0268 C   0  0  0  0  0  0  0  0  0  0  0  0
  151.5281  136.5993  155.5718 N   0  0  0  0  0  0  0  0  0  0  0  0
  150.2095  136.6853  155.9106 C   0  0  0  0  0  0  0  0  0  0  0  0
  149.1232  131.8742  156.7701 C   0  0  1  0  0  0  0  0  0  0  0  0
  150.5369  131.3654  156.5486 C   0  0  0  0  0  0  0  0  0  0  0  0
  150.6380  130.2439  157.5757 C   0  0  0  0  0  0  0  0  0  0  0  0
  149.8468  130.6672  158.6799 O   0  0  0  0  0  0  0  0  0  0  0  0
  149.0216  131.7628  158.2959 C   0  0  0  0  0  0  0  0  0  0  0  0
  148.0267  131.5943  154.5427 H   0  0  0  0  0  0  0  0  0  0  0  0
  149.8891  133.0677  154.2880 H   0  0  0  0  0  0  0  0  0  0  0  0
  148.6833  134.3200  154.2788 H   0  0  0  0  0  0  0  0  0  0  0  0
  147.8201  133.5467  156.4774 H   0  0  0  0  0  0  0  0  0  0  0  0
  149.7117  134.2953  157.9383 H   0  0  0  0  0  0  0  0  0  0  0  0
  150.8006  134.1811  156.5795 H   0  0  0  0  0  0  0  0  0  0  0  0
  147.3188  135.7850  157.0406 H   0  0  0  0  0  0  0  0  0  0  0  0
  148.5141  139.2241  153.1920 H   0  0  0  0  0  0  0  0  0  0  0  0
  147.4526  139.3079  154.5843 H   0  0  0  0  0  0  0  0  0  0  0  0
  148.3125  141.6490  152.8194 H   0  0  0  0  0  0  0  0  0  0  0  0
  146.7199  140.9244  152.8772 H   0  0  0  0  0  0  0  0  0  0  0  0
  146.8265  143.0159  154.2543 H   0  0  0  0  0  0  0  0  0  0  0  0
  146.4360  141.6206  155.2373 H   0  0  0  0  0  0  0  0  0  0  0  0
  149.1902  142.9045  154.9329 H   0  0  0  0  0  0  0  0  0  0  0  0
  148.1492  142.9841  156.3310 H   0  0  0  0  0  0  0  0  0  0  0  0
  148.3947  140.5465  156.7013 H   0  0  0  0  0  0  0  0  0  0  0  0
  151.1895  141.6282  156.1553 H   0  0  0  0  0  0  0  0  0  0  0  0
  150.1392  139.7521  158.2864 H   0  0  0  0  0  0  0  0  0  0  0  0
  151.5695  139.5528  157.2811 H   0  0  0  0  0  0  0  0  0  0  0  0
  151.4963  140.6600  159.8725 H   0  0  0  0  0  0  0  0  0  0  0  0
  152.8559  140.7885  158.7658 H   0  0  0  0  0  0  0  0  0  0  0  0
  151.4047  143.0168  159.6622 H   0  0  0  0  0  0  0  0  0  0  0  0
  152.3601  142.9563  158.1899 H   0  0  0  0  0  0  0  0  0  0  0  0
  150.2414  143.5359  157.2925 H   0  0  0  0  0  0  0  0  0  0  0  0
  148.5127  141.8878  158.2263 H   0  0  0  0  0  0  0  0  0  0  0  0
  153.0035  137.7423  154.7271 H   0  0  0  0  0  0  0  0  0  0  0  0
  148.4304  131.1582  156.3243 H   0  0  0  0  0  0  0  0  0  0  0  0
  150.7156  131.0141  155.5321 H   0  0  0  0  0  0  0  0  0  0  0  0
  151.2644  132.1464  156.7750 H   0  0  0  0  0  0  0  0  0  0  0  0
  150.2127  129.3226  157.1760 H   0  0  0  0  0  0  0  0  0  0  0  0
  151.6666  130.0413  157.8746 H   0  0  0  0  0  0  0  0  0  0  0  0
  149.4081  132.6622  158.7774 H   0  0  0  0  0  0  0  0  0  0  0  0
  147.9954  131.6153  158.6334 H   0  0  0  0  0  0  0  0  0  0  0  0
  1  2  1  0  0  0  0
  1 31  1  0  0  0  0
  2  3  1  0  0  0  0
  2 32  1  0  0  0  0
  2 33  1  0  0  0  0
  3  4  1  0  0  0  0
  3 26  1  0  0  0  0
  3 34  1  0  0  0  0
  4  5  1  0  0  0  0
  4 35  1  0  0  0  0
  4 36  1  0  0  0  0
  5 25  1  0  0  0  0
  5  6  1  0  0  0  0
  6  7  2  0  0  0  0
  6 37  1  0  0  0  0
  7  8  1  0  0  0  0
  8 25  2  0  0  0  0
  8  9  1  0  0  0  0
  9 10  1  0  0  0  0
  9 22  2  0  0  0  0
 10 15  1  0  0  0  0
 10 11  1  0  0  0  0
 11 12  1  0  0  0  0
 11 38  1  0  0  0  0
 11 39  1  0  0  0  0
 12 13  1  0  0  0  0
 12 40  1  0  0  0  0
 12 41  1  0  0  0  0
 13 14  1  0  0  0  0
 13 42  1  0  0  0  0
 13 43  1  0  0  0  0
 14 15  1  0  0  0  0
 14 44  1  0  0  0  0
 14 45  1  0  0  0  0
 15 16  1  0  0  0  0
 15 46  1  0  0  0  0
 16 20  1  0  0  0  0
 16 17  1  0  0  0  0
 16 47  1  0  0  0  0
 17 18  1  0  0  0  0
 17 48  1  0  0  0  0
 17 49  1  0  0  0  0
 18 19  1  0  0  0  0
 18 50  1  0  0  0  0
 18 51  1  0  0  0  0
 19 20  1  0  0  0  0
 19 52  1  0  0  0  0
 19 53  1  0  0  0  0
 20 21  1  0  0  0  0
 20 54  1  0  0  0  0
 21 55  1  0  0  0  0
 22 23  1  0  0  0  0
 23 24  2  0  0  0  0
 23 56  1  0  0  0  0
 24 25  1  0  0  0  0
 26 30  1  0  0  0  0
 26 27  1  0  0  0  0
 26 57  1  0  0  0  0
 27 28  1  0  0  0  0
 27 58  1  0  0  0  0
 27 59  1  0  0  0  0
 28 29  1  0  0  0  0
 28 60  1  0  0  0  0
 28 61  1  0  0  0  0
 29 30  1  0  0  0  0
 30 62  1  0  0  0  0
 30 63  1  0  0  0  0
M  END
> <s_m_source_file>
AV-unprocessed.smi

> <i_m_source_file_index>
148

> <i_lp_mmshare_version>
43012

> <i_f3d_flags>
0

> <s_epik_input>
W0NIMl0xT1tDSDJdW0NIMl1bQ0BIXTFbQ0BIXShbQ0gyXVtPSF0pW0NIMl1uKFtjSF1uMiljKGMyMyluW2NIXW5jM040W0NIMl1bQ0gyXVtDSDJdW0NIMl1bQ0BIXTRbQ0BASF01W0NIMl1bQ0gyXVtDSDJdW0NASF01W09IXQ==

> <s_epik_cmdline>
J2VwaWtfcHl0aG9uJywgJy1waCcsICc3LjAnLCAnLXRuJywgJzgnLCAnLW1hJywgJzIwMCcsICctbWV0YWxfYmluZGluZycsICctaW1hZScsICc8aW5maWxlLm1hZT4nLCAnLW9tYWUnLCAnPG91dGZpbGUubWFlPic=

> <r_lp_tautomer_probability>
1

> <r_epik_Ionization_Penalty>
0.00556303

> <r_epik_Ionization_Penalty_Charging>
0

> <r_epik_Ionization_Penalty_Neutral>
0.00556303

> <r_epik_State_Penalty>
0.00401767

> <r_epik_Charging_Adjusted_Penalty>
0.00401767

> <i_epik_Tot_Q>
0

> <i_epik_Tot_abs_Q>
0

> <r_epik_Metal_State_Penalty>
-0

> <b_epik_Metal_Only>
0

> <s_lp_Force_Field>
OPLS_2005

> <r_lp_Energy>
70.1865

> <b_lp_Chiralities_Consistent>
1

> <s_lp_Variant>
AV-unprocessed.smi:148-27

> <Gold.Version>
5.8.1

> <Gold.Id.Protein>
6NUR|6NUR_protein|mol2

> <Gold.PLP.Fitness>
45.1554

> <Gold.PLP.PLP>
-39.7723

> <Gold.PLP.part.hbond>
-2.3403

> <Gold.PLP.part.metal>
0.0000

> <Gold.PLP.part.buried>
-1.3974

> <Gold.PLP.part.nonpolar>
-35.7996

> <Gold.PLP.part.repulsive>
0.3905

> <Gold.PLP.ligand.clash>
0.0000

> <Gold.PLP.ligand.torsion>
0.5514

> <Gold.PLP.Chemscore.Hbond>
1.9920

> <Gold.PLP.Chemscore.CHOScore>
0.0000

> <Gold.PLP.Chemscore.Metal>
0.0000

> <Gold.Chemscore.Hbonds>
donor molecule, donor type, donor heavy atom, donor atom, acceptor molecule, acceptor atom, score
      P1  H  7989  7998       L1    22  0.06
      P1  H 10752 10765       L1    24  0.24

> <Gold.PLP.Chemscore.Internal.Correction>
0.5099

> <Gold.Rescore>
     Score         DG    S(hbond)    S(metal)    S(lipo)     H(rot)  DE(clash)    DE(int)     intcor
     12.10     -14.27       1.91        0.00      93.35       3.32       1.29       0.88       ----

> <Gold.Chemscore.Fitness>
12.1026

> <Gold.Chemscore.DG>
-14.2743

> <Gold.Chemscore.ZeroCoef>
-5.4800

> <Gold.Chemscore.Hbond>
1.9079

> <Gold.Chemscore.Metal>
0.0000

> <Gold.Chemscore.Lipo>
93.3499

> <Gold.Chemscore.Internal_Hbond>
0.0000

> <Gold.Chemscore.DEClash>
1.2897

> <Gold.Chemscore.DEInternal>
0.8820

> <Gold.Chemscore.Rot>
3.3203

> <Gold.Chemscore.Internal.Correction>
   9.000000E+99

> <Gold.Chemscore.Hbonds>
donor molecule, donor type, donor heavy atom, donor atom, acceptor molecule, acceptor atom, score
      P1  H  7989  7998       L1    22  0.04

> <Gold.Chemscore.Hbond.Weighted>
-6.3723

> <Gold.Chemscore.Metal.Weighted>
-0.0000

> <Gold.Chemscore.Lipo.Weighted>
-10.9219

> <Gold.Chemscore.Internal_Hbond.Weighted>
0.0000

> <Gold.Chemscore.DEClash.Weighted>
1.2897

> <Gold.Chemscore.DEInternal.Weighted>
0.8820

> <Gold.Chemscore.Rot.Weighted>
8.5000

> <Gold.Chemscore.Internal.Correction.Weighted>
   9.000000E+99

> <Gold.Protein.RotatedTorsions>
[ 6907 6896 6895 6894 ] final  -38.82 input  -60.11 | X-H torsion
[ 7974 7965 7964 7962 ] final  142.71 input  175.53 | X-H torsion
[ 8008 7997 7996 7995 ] final  120.00 input   59.86 | X-H torsion
[ 10167 10162 10161 10158 ] final -178.41 input  -65.29 | X-H torsion
[ 10718 10713 10712 10709 ] final   67.97 input   66.30 | X-H torsion
[ 10763 10752 10751 10750 ] final  166.02 input  -60.55 | X-H torsion
[ 11005 11000 10999 10996 ] final  175.74 input  -57.11 | X-H torsion

> <Gold.Protein.ActiveResidues>
 VAL166  LYS551  ARG553  GLY616  TRP617  ASP618  TYR619  PRO620  LYS621  CYS622 
 ASP623  PHE694  ASN695  SER759  ASP760  ASP761  ALA762  ILE779  LEU786  VAL792 
 PHE793  MET794  SER795  GLU796  ALA797  LYS798  CYS799  TRP800  GLU811  SER814 

> <Gold.Protein.RotatedAtoms>
  150.9977  134.9297  159.7935 H   0  0  0  0  0  0  0  0  0  0  0  0  # atno 6907 bound_to 6896
  152.5269  134.3196  159.9153 H   0  0  0  0  0  0  0  0  0  0  0  0  # atno 6908 bound_to 6896
  151.3201  133.4002  159.2688 H   0  0  0  0  0  0  0  0  0  0  0  0  # atno 6909 bound_to 6896
  144.8984  139.5458  143.5765 H   0  0  0  0  0  0  0  0  0  0  0  0  # atno 7974 bound_to 7965
  156.2622  140.2840  156.1081 H   0  0  0  0  0  0  0  0  0  0  0  0  # atno 8008 bound_to 7997
  155.1287  140.0393  157.2786 H   0  0  0  0  0  0  0  0  0  0  0  0  # atno 8009 bound_to 7997
  154.6616  140.2567  155.7109 H   0  0  0  0  0  0  0  0  0  0  0  0  # atno 8010 bound_to 7997
  139.5434  144.2302  152.0940 H   0  0  0  0  0  0  0  0  0  0  0  0  # atno 10167 bound_to 10162
  157.6262  130.9349  150.0314 H   0  0  0  0  0  0  0  0  0  0  0  0  # atno 10718 bound_to 10713
  154.3328  135.2754  155.2463 H   0  0  0  0  0  0  0  0  0  0  0  0  # atno 10763 bound_to 10752
  154.4768  135.5869  153.6364 H   0  0  0  0  0  0  0  0  0  0  0  0  # atno 10764 bound_to 10752
  152.9865  135.6101  154.3522 H   0  0  0  0  0  0  0  0  0  0  0  0  # atno 10765 bound_to 10752
  140.3655  134.7076  157.4358 H   0  0  0  0  0  0  0  0  0  0  0  0  # atno 11005 bound_to 11000
  146.3094  139.7693  142.9031 LP  0  0  0  0  0  0  0  0  0  0  0  0  # atno 17320 bound_to 7965
  145.3660  141.0334  143.3258 LP  0  0  0  0  0  0  0  0  0  0  0  0  # atno 17321 bound_to 7965
  140.1784  144.4868  150.6541 LP  0  0  0  0  0  0  0  0  0  0  0  0  # atno 17342 bound_to 10162
  140.6672  143.2272  151.5713 LP  0  0  0  0  0  0  0  0  0  0  0  0  # atno 17343 bound_to 10162
  156.1435  130.3642  149.9546 LP  0  0  0  0  0  0  0  0  0  0  0  0  # atno 17370 bound_to 10713
  156.7581  130.9141  151.3640 LP  0  0  0  0  0  0  0  0  0  0  0  0  # atno 17371 bound_to 10713
  140.0593  134.6019  155.8768 LP  0  0  0  0  0  0  0  0  0  0  0  0  # atno 17394 bound_to 11000
  141.1971  133.6595  156.5724 LP  0  0  0  0  0  0  0  0  0  0  0  0  # atno 17395 bound_to 11000

$$$$
