AV-unprocessed.smi:2514|AV-procd|sdf|9894|dock4
  -GOLD-   2272013533D 1   1.00000     0.00000
 Structure written by MMmdl.
 25 26  0  0  0  0  0  0  0  0  2 V2000
  152.3908  138.4089  156.3022 C   0  0  0  0  0  0  0  0  0  0  0  0
  151.5561  137.9870  155.0866 C   0  0  1  0  0  0  0  0  0  0  0  0
  150.8803  136.7790  155.3719 O   0  0  0  0  0  0  0  0  0  0  0  0
  150.5109  139.0042  154.7208 C   0  0  0  0  0  0  0  0  0  0  0  0
  149.1560  138.8450  154.6457 C   0  0  0  0  0  0  0  0  0  0  0  0
  148.7089  140.0877  154.2491 N   0  0  0  0  0  0  0  0  0  0  0  0
  147.3522  140.5154  154.0773 C   0  0  0  0  0  0  0  0  0  0  0  0
  147.0325  141.9721  153.7486 C   0  0  0  0  0  0  0  0  0  0  0  0
  145.8086  141.8165  154.5254 N   0  3  0  0  0  0  0  0  0  0  0  0
  146.4217  140.7255  155.2725 C   0  0  0  0  0  0  0  0  0  0  0  0
  149.7278  140.9709  154.1310 N   0  0  0  0  0  0  0  0  0  0  0  0
  150.8211  140.3255  154.3880 N   0  0  0  0  0  0  0  0  0  0  0  0
  152.9205  139.3416  156.1068 H   0  0  0  0  0  0  0  0  0  0  0  0
  153.1353  137.6511  156.5479 H   0  0  0  0  0  0  0  0  0  0  0  0
  151.7659  138.5594  157.1833 H   0  0  0  0  0  0  0  0  0  0  0  0
  152.2195  137.8084  154.2395 H   0  0  0  0  0  0  0  0  0  0  0  0
  150.4408  136.4886  154.5874 H   0  0  0  0  0  0  0  0  0  0  0  0
  148.5086  138.0002  154.8292 H   0  0  0  0  0  0  0  0  0  0  0  0
  146.9028  139.8403  153.3453 H   0  0  0  0  0  0  0  0  0  0  0  0
  147.7225  142.6843  154.2056 H   0  0  0  0  0  0  0  0  0  0  0  0
  146.8662  142.1801  152.6914 H   0  0  0  0  0  0  0  0  0  0  0  0
  145.5738  142.6207  155.0899 H   0  0  0  0  0  0  0  0  0  0  0  0
  145.7467  139.8953  155.4827 H   0  0  0  0  0  0  0  0  0  0  0  0
  146.9310  141.0800  156.1709 H   0  0  0  0  0  0  0  0  0  0  0  0
  145.0449  141.4883  153.9515 H   0  0  0  0  0  0  0  0  0  0  0  0
  1  2  1  0  0  0  0
  1 13  1  0  0  0  0
  1 14  1  0  0  0  0
  1 15  1  0  0  0  0
  2  3  1  0  0  0  0
  2  4  1  0  0  0  0
  2 16  1  0  0  0  0
  3 17  1  0  0  0  0
  4 12  1  0  0  0  0
  4  5  2  0  0  0  0
  5  6  1  0  0  0  0
  5 18  1  0  0  0  0
  6  7  1  0  0  0  0
  6 11  1  0  0  0  0
  7 10  1  0  0  0  0
  7  8  1  0  0  0  0
  7 19  1  0  0  0  0
  8  9  1  0  0  0  0
  8 20  1  0  0  0  0
  8 21  1  0  0  0  0
  9 10  1  0  0  0  0
  9 22  1  0  0  0  0
  9 25  1  0  0  0  0
 10 23  1  0  0  0  0
 10 24  1  0  0  0  0
 11 12  2  0  0  0  0
M  CHG  1   9   1
M  END
> <s_m_source_file>
AV-unprocessed.smi

> <i_m_source_file_index>
2514

> <i_lp_mmshare_version>
43012

> <i_f3d_flags>
0

> <s_epik_input>
W0NIM11bQ0BIXShbT0hdKWMxW2NIXW4obm4xKVtDSF0yW0NIMl1bTkhdW0NIMl0y

> <s_epik_cmdline>
J2VwaWtfcHl0aG9uJywgJy1waCcsICc3LjAnLCAnLXRuJywgJzgnLCAnLW1hJywgJzIwMCcsICctbWV0YWxfYmluZGluZycsICctaW1hZScsICc8aW5maWxlLm1hZT4nLCAnLW9tYWUnLCAnPG91dGZpbGUubWFlPic=

> <r_lp_tautomer_probability>
1

> <r_epik_Ionization_Penalty>
0.215039

> <r_epik_Ionization_Penalty_Charging>
0.215038

> <r_epik_Ionization_Penalty_Neutral>
9.39085e-07

> <r_epik_State_Penalty>
0.20523

> <r_epik_Charging_Adjusted_Penalty>
0.420268

> <i_epik_Tot_Q>
1

> <i_epik_Tot_abs_Q>
1

> <r_epik_Metal_State_Penalty>
0.205259

> <b_epik_Metal_Only>
0

> <s_lp_Force_Field>
OPLS_2005

> <r_lp_Energy>
12.9729

> <b_lp_Chiralities_Consistent>
1

> <s_lp_Variant>
AV-unprocessed.smi:2514-2

> <Gold.Version>
5.8.1

> <Gold.Id.Protein>
6NUR|6NUR_protein|mol2

> <Gold.PLP.Fitness>
41.4746

> <Gold.PLP.PLP>
-23.5797

> <Gold.PLP.part.hbond>
-4.8963

> <Gold.PLP.part.metal>
0.0000

> <Gold.PLP.part.buried>
-1.8507

> <Gold.PLP.part.nonpolar>
-17.2840

> <Gold.PLP.part.repulsive>
0.2114

> <Gold.PLP.ligand.clash>
0.0000

> <Gold.PLP.ligand.torsion>
0.1781

> <Gold.PLP.Chemscore.Hbond>
4.9920

> <Gold.PLP.Chemscore.CHOScore>
1.0000

> <Gold.PLP.Chemscore.Metal>
0.0000

> <Gold.Chemscore.Hbonds>
donor molecule, donor type, donor heavy atom, donor atom, acceptor molecule, acceptor atom, score
      L1  H     9    25       P1 10175  1.01
      P1  H  7989  7998       L1    12  0.47
      P1  H  8011  8017       L1    11  0.26

> <Gold.PLP.Chemscore.Internal.Correction>
0.2751

> <Gold.Rescore>
     Score         DG    S(hbond)    S(metal)    S(lipo)     H(rot)  DE(clash)    DE(int)     intcor
     14.69     -14.98       2.70        0.00      44.24       1.83       0.06       0.22       ----

> <Gold.Chemscore.Fitness>
14.6947

> <Gold.Chemscore.DG>
-14.9753

> <Gold.Chemscore.ZeroCoef>
-5.4800

> <Gold.Chemscore.Hbond>
2.6968

> <Gold.Chemscore.Metal>
0.0000

> <Gold.Chemscore.Lipo>
44.2377

> <Gold.Chemscore.Internal_Hbond>
0.0000

> <Gold.Chemscore.DEClash>
0.0626

> <Gold.Chemscore.DEInternal>
0.2180

> <Gold.Chemscore.Rot>
1.8312

> <Gold.Chemscore.Internal.Correction>
   9.000000E+99

> <Gold.Chemscore.Hbonds>
donor molecule, donor type, donor heavy atom, donor atom, acceptor molecule, acceptor atom, score
      L1  H     9    25       P1 10175  0.16
      P1  H  7989  7998       L1    12  0.12
      P1  H  8011  8017       L1    11  0.23

> <Gold.Chemscore.Hbond.Weighted>
-9.0074

> <Gold.Chemscore.Metal.Weighted>
-0.0000

> <Gold.Chemscore.Lipo.Weighted>
-5.1758

> <Gold.Chemscore.Internal_Hbond.Weighted>
0.0000

> <Gold.Chemscore.DEClash.Weighted>
0.0626

> <Gold.Chemscore.DEInternal.Weighted>
0.2180

> <Gold.Chemscore.Rot.Weighted>
4.6879

> <Gold.Chemscore.Internal.Correction.Weighted>
   9.000000E+99

> <Gold.Protein.RotatedTorsions>
[ 6907 6896 6895 6894 ] final  -51.76 input  -60.11 | X-H torsion
[ 7974 7965 7964 7962 ] final   82.18 input  175.53 | X-H torsion
[ 8008 7997 7996 7995 ] final -158.21 input   59.86 | X-H torsion
[ 10167 10162 10161 10158 ] final   37.60 input  -65.29 | X-H torsion
[ 10718 10713 10712 10709 ] final   96.97 input   66.30 | X-H torsion
[ 10763 10752 10751 10750 ] final   45.43 input  -60.55 | X-H torsion
[ 11005 11000 10999 10996 ] final  142.30 input  -57.11 | X-H torsion

> <Gold.Protein.ActiveResidues>
 VAL166  LYS551  ARG553  GLY616  TRP617  ASP618  TYR619  PRO620  LYS621  CYS622 
 ASP623  PHE694  ASN695  SER759  ASP760  ASP761  ALA762  ILE779  LEU786  VAL792 
 PHE793  MET794  SER795  GLU796  ALA797  LYS798  CYS799  TRP800  GLU811  SER814 

> <Gold.Protein.RotatedAtoms>
  150.8581  134.7926  159.7061 H   0  0  0  0  0  0  0  0  0  0  0  0  # atno 6907 bound_to 6896
  152.4627  134.5145  159.9773 H   0  0  0  0  0  0  0  0  0  0  0  0  # atno 6908 bound_to 6896
  151.5253  133.3420  159.2944 H   0  0  0  0  0  0  0  0  0  0  0  0  # atno 6909 bound_to 6896
  145.6284  139.2400  143.2098 H   0  0  0  0  0  0  0  0  0  0  0  0  # atno 7974 bound_to 7965
  155.7441  140.0818  157.2232 H   0  0  0  0  0  0  0  0  0  0  0  0  # atno 8008 bound_to 7997
  154.4019  140.1572  156.2704 H   0  0  0  0  0  0  0  0  0  0  0  0  # atno 8009 bound_to 7997
  155.8993  140.3410  155.6017 H   0  0  0  0  0  0  0  0  0  0  0  0  # atno 8010 bound_to 7997
  140.4017  144.1715  150.6134 H   0  0  0  0  0  0  0  0  0  0  0  0  # atno 10167 bound_to 10162
  157.6919  131.0595  150.4573 H   0  0  0  0  0  0  0  0  0  0  0  0  # atno 10718 bound_to 10713
  152.9825  135.6040  154.3435 H   0  0  0  0  0  0  0  0  0  0  0  0  # atno 10763 bound_to 10752
  154.3130  135.2771  155.2559 H   0  0  0  0  0  0  0  0  0  0  0  0  # atno 10764 bound_to 10752
  154.4759  135.5929  153.6411 H   0  0  0  0  0  0  0  0  0  0  0  0  # atno 10765 bound_to 10752
  140.0467  134.9277  157.0942 H   0  0  0  0  0  0  0  0  0  0  0  0  # atno 11005 bound_to 11000
  146.1376  140.7102  142.9382 LP  0  0  0  0  0  0  0  0  0  0  0  0  # atno 17320 bound_to 7965
  144.7203  140.4350  143.7013 LP  0  0  0  0  0  0  0  0  0  0  0  0  # atno 17321 bound_to 7965
  140.4733  143.2405  151.9058 LP  0  0  0  0  0  0  0  0  0  0  0  0  # atno 17342 bound_to 10162
  139.4784  144.5347  151.8616 LP  0  0  0  0  0  0  0  0  0  0  0  0  # atno 17343 bound_to 10162
  156.4920  130.4097  149.6401 LP  0  0  0  0  0  0  0  0  0  0  0  0  # atno 17370 bound_to 10713
  156.3408  130.7381  151.2326 LP  0  0  0  0  0  0  0  0  0  0  0  0  # atno 17371 bound_to 10713
  140.3983  134.2110  155.7164 LP  0  0  0  0  0  0  0  0  0  0  0  0  # atno 17394 bound_to 11000
  141.1910  133.8204  157.0896 LP  0  0  0  0  0  0  0  0  0  0  0  0  # atno 17395 bound_to 11000

$$$$
