#       Name:                AV-unprocessed.smi:1135
#       Creating user name   scv26
#       Creation time:       Fri Mar 27 03:43:01 2020


#       File generated by GOLD software.
#

@<TRIPOS>MOLECULE
AV-unprocessed.smi:1135
    48    49     1
SMALL
NO_CHARGES


@<TRIPOS>ATOM
      1 ****        -5.9203   1.8906   1.5702 C.3            1 S1                 0.0000
      2 ****        -4.3971   1.7477   1.4427 C.3            1 S1                 0.0000
      3 ****        -3.8588   2.5330   0.2356 C.3            1 S1                 0.0000
      4 ****        -2.3334   2.3863   0.0951 C.3            1 S1                 0.0000
      5 ****        -1.8469   0.9164   0.0234 C.3            1 S1                 0.0000
      6 ****        -2.2280   0.2908  -1.3404 C.3            1 S1                 0.0000
      7 ****        -0.3843   0.9698   0.1540 N.am           1 S1                 0.0000
      8 ****         0.4917  -0.0491   0.1614 C.2            1 S1                 0.0000
      9 ****         0.1869  -1.2370   0.0538 O.2            1 S1                 0.0000
     10 ****         1.7516   0.3874   0.2962 N.am           1 S1                 0.0000
     11 ****         2.9328  -0.4677   0.3155 C.3            1 S1                 0.0000
     12 ****         3.3850  -0.8340  -1.1078 C.3            1 S1                 0.0000
     13 ****         4.6165  -1.7200  -1.1113 C.ar           1 S1                 0.0000
     14 ****         4.5027  -3.1094  -1.3315 C.ar           1 S1                 0.0000
     15 ****         5.6759  -3.8886  -1.3220 C.ar           1 S1                 0.0000
     16 ****         6.9108  -3.2523  -1.0916 C.ar           1 S1                 0.0000
     17 ****         6.9175  -1.8591  -0.8801 C.ar           1 S1                 0.0000
     18 ****         5.7987  -1.1022  -0.8891 N.ar           1 S1                 0.0000
     19 ****        -2.4504   0.1183   1.2114 C.3            1 S1                 0.0000
     20 ****        -3.9758   0.2722   1.3430 C.3            1 S1                 0.0000
     21 ****        -6.4305   1.4882   0.6944 H              1 S1                 0.0000
     22 ****        -6.2089   2.9371   1.6720 H              1 S1                 0.0000
     23 ****        -6.2937   1.3594   2.4461 H              1 S1                 0.0000
     24 ****        -3.9497   2.1663   2.3456 H              1 S1                 0.0000
     25 ****        -4.3514   2.1972  -0.6772 H              1 S1                 0.0000
     26 ****        -4.1099   3.5890   0.3416 H              1 S1                 0.0000
     27 ****        -1.9942   2.9377  -0.7830 H              1 S1                 0.0000
     28 ****        -1.8704   2.8791   0.9520 H              1 S1                 0.0000
     29 ****        -3.3031   0.3106  -1.5135 H              1 S1                 0.0000
     30 ****        -1.9216  -0.7526  -1.4115 H              1 S1                 0.0000
     31 ****        -1.7585   0.8273  -2.1656 H              1 S1                 0.0000
     32 ****         0.0044   1.8965   0.2509 H              1 S1                 0.0000
     33 ****         1.9063   1.3814   0.3811 H              1 S1                 0.0000
     34 ****         3.7287   0.0680   0.8337 H              1 S1                 0.0000
     35 ****         2.7352  -1.3696   0.8975 H              1 S1                 0.0000
     36 ****         2.5800  -1.3441  -1.6386 H              1 S1                 0.0000
     37 ****         3.6002   0.0722  -1.6759 H              1 S1                 0.0000
     38 ****         3.5401  -3.5688  -1.5031 H              1 S1                 0.0000
     39 ****         5.6290  -4.9548  -1.4871 H              1 S1                 0.0000
     40 ****         7.8303  -3.8186  -1.0760 H              1 S1                 0.0000
     41 ****         7.8463  -1.3391  -0.6979 H              1 S1                 0.0000
     42 ****        -2.2084  -0.9413   1.1258 H              1 S1                 0.0000
     43 ****        -1.9922   0.4558   2.1426 H              1 S1                 0.0000
     44 ****        -4.3165  -0.2696   2.2258 H              1 S1                 0.0000
     45 ****        -4.4685  -0.1983   0.4918 H              1 S1                 0.0000
     46 ****        -0.7725  -1.4998  -0.0482 LP             1 S1                 0.0000
     47 ****         0.8988  -1.9392   0.0684 LP             1 S1                 0.0000
     48 ****         5.8434  -0.1150  -0.7361 LP             1 S1                 0.0000
@<TRIPOS>BOND
    1    1    2 1     
    2    1   21 1     
    3    1   22 1     
    4    1   23 1     
    5    2   20 1     
    6    2    3 1     
    7    2   24 1     
    8    3    4 1     
    9    3   25 1     
   10    3   26 1     
   11    4    5 1     
   12    4   27 1     
   13    4   28 1     
   14    5    6 1     
   15    5    7 1     
   16    5   19 1     
   17    6   29 1     
   18    6   30 1     
   19    6   31 1     
   20    7    8 am    
   21    7   32 1     
   22    8    9 2     
   23    8   10 am    
   24   10   11 1     
   25   10   33 1     
   26   11   12 1     
   27   11   34 1     
   28   11   35 1     
   29   12   13 1     
   30   12   36 1     
   31   12   37 1     
   32   13   18 ar    
   33   13   14 ar    
   34   14   15 ar    
   35   14   38 1     
   36   15   16 ar    
   37   15   39 1     
   38   16   17 ar    
   39   16   40 1     
   40   17   18 ar    
   41   17   41 1     
   42   19   20 1     
   43   19   42 1     
   44   19   43 1     
   45   20   44 1     
   46   20   45 1     
   47    9   46 1     
   48    9   47 1     
   49   18   48 1     
@<TRIPOS>SUBSTRUCTURE
      1 S1             1
@<TRIPOS>SET
LONE_PAIRS      STATIC     ATOMS    <user>   **** ""
3 46 47 48
DONOR_HYDROGENS      STATIC     ATOMS    <user>   **** ""
2 32 33
ATOM$BLUE        STATIC     ATOMS    COLORGROUP SYSTEM
3 46 47 48
ATOM$RED        STATIC     ATOMS    COLORGROUP SYSTEM
2 32 33
