AV-unprocessed.smi:1985|AV-procd|sdf|8042|dock8
  -GOLD-   2272010233D 1   1.00000     0.00000
 Structure written by MMmdl.
 50 51  0  0  0  0  0  0  0  0  1 V2000
  148.5615  135.1004  157.9633 C   0  0  0  0  0  0  0  0  0  0  0  0
  149.1980  136.2678  157.1901 C   0  0  0  0  0  0  0  0  0  0  0  0
  148.9468  136.2625  155.6453 C   0  0  1  0  0  0  0  0  0  0  0  0
  149.4327  134.8835  155.1253 C   0  0  0  0  0  0  0  0  0  0  0  0
  147.4067  136.3469  155.3876 C   0  0  0  0  0  0  0  0  0  0  0  0
  147.0729  136.4046  153.9709 N   0  0  0  0  0  0  0  0  0  0  0  0
  145.8462  136.3277  153.4341 C   0  0  0  0  0  0  0  0  0  0  0  0
  144.8285  136.1775  154.1084 O   0  0  0  0  0  0  0  0  0  0  0  0
  145.7338  136.4330  151.9024 C   0  0  0  0  0  0  0  0  0  0  0  0
  145.3160  135.1860  151.2399 N   0  0  0  0  0  0  0  0  0  0  0  0
  144.3249  135.2279  150.2757 C   0  0  0  0  0  0  0  0  0  0  0  0
  143.8355  134.1289  149.6618 C   0  0  0  0  0  0  0  0  0  0  0  0
  144.3400  132.8024  149.9928 C   0  0  0  0  0  0  0  0  0  0  0  0
  143.9158  131.7675  149.4769 O   0  0  0  0  0  0  0  0  0  0  0  0
  145.3612  132.7870  150.9697 N   0  0  0  0  0  0  0  0  0  0  0  0
  145.8792  131.4860  151.3391 C   0  0  0  0  0  0  0  0  0  0  0  0
  145.8701  133.9402  151.6111 C   0  0  0  0  0  0  0  0  0  0  0  0
  146.7456  133.8835  152.4773 O   0  0  0  0  0  0  0  0  0  0  0  0
  149.6501  137.3987  154.9783 N   0  0  0  0  0  0  0  0  0  0  0  0
  149.0784  138.7282  155.2339 C   0  0  0  0  0  0  0  0  0  0  0  0
  149.7758  139.8298  154.4184 C   0  0  0  0  0  0  0  0  0  0  0  0
  151.1684  139.8278  154.7031 O   0  0  0  0  0  0  0  0  0  0  0  0
  151.7762  138.5780  154.4035 C   0  0  0  0  0  0  0  0  0  0  0  0
  151.0986  137.4615  155.2163 C   0  0  0  0  0  0  0  0  0  0  0  0
  148.7408  135.2081  159.0330 H   0  0  0  0  0  0  0  0  0  0  0  0
  148.9790  134.1403  157.6609 H   0  0  0  0  0  0  0  0  0  0  0  0
  147.4826  135.0604  157.8145 H   0  0  0  0  0  0  0  0  0  0  0  0
  148.8609  137.2056  157.6294 H   0  0  0  0  0  0  0  0  0  0  0  0
  150.2670  136.2702  157.4057 H   0  0  0  0  0  0  0  0  0  0  0  0
  148.9291  134.0620  155.6360 H   0  0  0  0  0  0  0  0  0  0  0  0
  150.4996  134.7348  155.2874 H   0  0  0  0  0  0  0  0  0  0  0  0
  149.2383  134.7541  154.0611 H   0  0  0  0  0  0  0  0  0  0  0  0
  146.8934  135.4923  155.8302 H   0  0  0  0  0  0  0  0  0  0  0  0
  146.9879  137.2393  155.8538 H   0  0  0  0  0  0  0  0  0  0  0  0
  147.8487  136.5267  153.3364 H   0  0  0  0  0  0  0  0  0  0  0  0
  145.0222  137.2265  151.6699 H   0  0  0  0  0  0  0  0  0  0  0  0
  146.6900  136.7738  151.5020 H   0  0  0  0  0  0  0  0  0  0  0  0
  143.9115  136.1886  150.0035 H   0  0  0  0  0  0  0  0  0  0  0  0
  143.0561  134.2314  148.9209 H   0  0  0  0  0  0  0  0  0  0  0  0
  146.7386  131.5748  152.0030 H   0  0  0  0  0  0  0  0  0  0  0  0
  146.1876  130.9816  150.4214 H   0  0  0  0  0  0  0  0  0  0  0  0
  145.0691  130.9492  151.8359 H   0  0  0  0  0  0  0  0  0  0  0  0
  148.0225  138.7589  154.9744 H   0  0  0  0  0  0  0  0  0  0  0  0
  149.1540  138.9763  156.2926 H   0  0  0  0  0  0  0  0  0  0  0  0
  149.6138  139.6804  153.3498 H   0  0  0  0  0  0  0  0  0  0  0  0
  149.3624  140.8062  154.6709 H   0  0  0  0  0  0  0  0  0  0  0  0
  151.7018  138.3758  153.3338 H   0  0  0  0  0  0  0  0  0  0  0  0
  152.8376  138.6315  154.6458 H   0  0  0  0  0  0  0  0  0  0  0  0
  151.3010  137.6252  156.2747 H   0  0  0  0  0  0  0  0  0  0  0  0
  151.5825  136.5269  154.9408 H   0  0  0  0  0  0  0  0  0  0  0  0
  1  2  1  0  0  0  0
  1 25  1  0  0  0  0
  1 26  1  0  0  0  0
  1 27  1  0  0  0  0
  2  3  1  0  0  0  0
  2 28  1  0  0  0  0
  2 29  1  0  0  0  0
  3  4  1  0  0  0  0
  3  5  1  0  0  0  0
  3 19  1  0  0  0  0
  4 30  1  0  0  0  0
  4 31  1  0  0  0  0
  4 32  1  0  0  0  0
  5  6  1  0  0  0  0
  5 33  1  0  0  0  0
  5 34  1  0  0  0  0
  6  7  1  0  0  0  0
  6 35  1  0  0  0  0
  7  8  2  0  0  0  0
  7  9  1  0  0  0  0
  9 10  1  0  0  0  0
  9 36  1  0  0  0  0
  9 37  1  0  0  0  0
 10 17  1  0  0  0  0
 10 11  1  0  0  0  0
 11 12  2  0  0  0  0
 11 38  1  0  0  0  0
 12 13  1  0  0  0  0
 12 39  1  0  0  0  0
 13 14  2  0  0  0  0
 13 15  1  0  0  0  0
 15 16  1  0  0  0  0
 15 17  1  0  0  0  0
 16 40  1  0  0  0  0
 16 41  1  0  0  0  0
 16 42  1  0  0  0  0
 17 18  2  0  0  0  0
 19 24  1  0  0  0  0
 19 20  1  0  0  0  0
 20 21  1  0  0  0  0
 20 43  1  0  0  0  0
 20 44  1  0  0  0  0
 21 22  1  0  0  0  0
 21 45  1  0  0  0  0
 21 46  1  0  0  0  0
 22 23  1  0  0  0  0
 23 24  1  0  0  0  0
 23 47  1  0  0  0  0
 23 48  1  0  0  0  0
 24 49  1  0  0  0  0
 24 50  1  0  0  0  0
M  END
> <s_m_source_file>
AV-unprocessed.smi

> <i_m_source_file_index>
1985

> <i_lp_mmshare_version>
43012

> <i_f3d_flags>
0

> <s_epik_input>
W0NIMl0xW0NIMl1PW0NIMl1bQ0gyXU4xW0NAQF0oW0NIM10pKFtDSDJdW0NIM10pW0NIMl1bTkhdQyg9TylbQ0gyXW4yW2NIXVtjSF1jKD1PKW4oW0NIM10pYzI9Tw==

> <s_epik_cmdline>
J2VwaWtfcHl0aG9uJywgJy1waCcsICc3LjAnLCAnLXRuJywgJzgnLCAnLW1hJywgJzIwMCcsICctbWV0YWxfYmluZGluZycsICctaW1hZScsICc8aW5maWxlLm1hZT4nLCAnLW9tYWUnLCAnPG91dGZpbGUubWFlPic=

> <r_lp_tautomer_probability>
1

> <r_epik_Ionization_Penalty>
0.318667

> <r_epik_Ionization_Penalty_Charging>
1.17294e-08

> <r_epik_Ionization_Penalty_Neutral>
0.318667

> <r_epik_State_Penalty>
0.313095

> <r_epik_Charging_Adjusted_Penalty>
0.313095

> <i_epik_Tot_Q>
0

> <i_epik_Tot_abs_Q>
0

> <r_epik_Metal_State_Penalty>
0.313065

> <b_epik_Metal_Only>
0

> <s_lp_Force_Field>
OPLS_2005

> <r_lp_Energy>
50.9195

> <b_lp_Chiralities_Consistent>
1

> <s_lp_Variant>
AV-unprocessed.smi:1985-1

> <Gold.Version>
5.8.1

> <Gold.Id.Protein>
6NUR|6NUR_protein|mol2

> <Gold.PLP.Fitness>
43.3018

> <Gold.PLP.PLP>
-32.9439

> <Gold.PLP.part.hbond>
-3.0000

> <Gold.PLP.part.metal>
0.0000

> <Gold.PLP.part.buried>
-3.2749

> <Gold.PLP.part.nonpolar>
-27.7810

> <Gold.PLP.part.repulsive>
0.5760

> <Gold.PLP.ligand.clash>
0.0000

> <Gold.PLP.ligand.torsion>
0.4124

> <Gold.PLP.Chemscore.Hbond>
2.6660

> <Gold.PLP.Chemscore.CHOScore>
1.0000

> <Gold.PLP.Chemscore.Metal>
0.0000

> <Gold.Chemscore.Hbonds>
donor molecule, donor type, donor heavy atom, donor atom, acceptor molecule, acceptor atom, score
      L1  H     6    35       P1  7948  1.00
      P1  H  7989  7998       L1    22  0.90
      P1  H 10785 10796       L1    14  0.77
      L1  C    11    38       P1 10171  1.00

> <Gold.PLP.Chemscore.Internal.Correction>
0.1846

> <Gold.Rescore>
     Score         DG    S(hbond)    S(metal)    S(lipo)     H(rot)  DE(clash)    DE(int)     intcor
     11.87     -14.82       2.12        0.00      67.30       2.20       1.80       1.15       ----

> <Gold.Chemscore.Fitness>
11.8699

> <Gold.Chemscore.DG>
-14.8216

> <Gold.Chemscore.ZeroCoef>
-5.4800

> <Gold.Chemscore.Hbond>
2.1220

> <Gold.Chemscore.Metal>
0.0000

> <Gold.Chemscore.Lipo>
67.2977

> <Gold.Chemscore.Internal_Hbond>
0.0000

> <Gold.Chemscore.DEClash>
1.7996

> <Gold.Chemscore.DEInternal>
1.1521

> <Gold.Chemscore.Rot>
2.1952

> <Gold.Chemscore.Internal.Correction>
   9.000000E+99

> <Gold.Chemscore.Hbonds>
donor molecule, donor type, donor heavy atom, donor atom, acceptor molecule, acceptor atom, score
      L1  H     6    35       P1  7948  0.99
      P1  H  7989  7998       L1    22  0.10
      P1  H 10785 10796       L1    14  0.76

> <Gold.Chemscore.Hbond.Weighted>
-7.0875

> <Gold.Chemscore.Metal.Weighted>
-0.0000

> <Gold.Chemscore.Lipo.Weighted>
-7.8738

> <Gold.Chemscore.Internal_Hbond.Weighted>
0.0000

> <Gold.Chemscore.DEClash.Weighted>
1.7996

> <Gold.Chemscore.DEInternal.Weighted>
1.1521

> <Gold.Chemscore.Rot.Weighted>
5.6197

> <Gold.Chemscore.Internal.Correction.Weighted>
   9.000000E+99

> <Gold.Protein.RotatedTorsions>
[ 6907 6896 6895 6894 ] final  -50.48 input  -60.11 | X-H torsion
[ 7974 7965 7964 7962 ] final -131.18 input  175.53 | X-H torsion
[ 8008 7997 7996 7995 ] final  -64.11 input   59.86 | X-H torsion
[ 10167 10162 10161 10158 ] final   24.26 input  -65.29 | X-H torsion
[ 10718 10713 10712 10709 ] final    9.59 input   66.30 | X-H torsion
[ 10763 10752 10751 10750 ] final -133.40 input  -60.55 | X-H torsion
[ 11005 11000 10999 10996 ] final  166.57 input  -57.11 | X-H torsion

> <Gold.Protein.ActiveResidues>
 VAL166  LYS551  ARG553  GLY616  TRP617  ASP618  TYR619  PRO620  LYS621  CYS622 
 ASP623  PHE694  ASN695  SER759  ASP760  ASP761  ALA762  ILE779  LEU786  VAL792 
 PHE793  MET794  SER795  GLU796  ALA797  LYS798  CYS799  TRP800  GLU811  SER814 

> <Gold.Protein.RotatedAtoms>
  150.8703  134.8076  159.7149 H   0  0  0  0  0  0  0  0  0  0  0  0  # atno 6907 bound_to 6896
  152.4710  134.4957  159.9719 H   0  0  0  0  0  0  0  0  0  0  0  0  # atno 6908 bound_to 6896
  151.5046  133.3459  159.2910 H   0  0  0  0  0  0  0  0  0  0  0  0  # atno 6909 bound_to 6896
  144.9404  140.7232  143.4850 H   0  0  0  0  0  0  0  0  0  0  0  0  # atno 7974 bound_to 7965
  154.4593  140.0960  156.6846 H   0  0  0  0  0  0  0  0  0  0  0  0  # atno 8008 bound_to 7997
  155.5043  140.3474  155.4358 H   0  0  0  0  0  0  0  0  0  0  0  0  # atno 8009 bound_to 7997
  156.0839  140.1380  156.9667 H   0  0  0  0  0  0  0  0  0  0  0  0  # atno 8010 bound_to 7997
  140.5202  144.0015  150.6413 H   0  0  0  0  0  0  0  0  0  0  0  0  # atno 10167 bound_to 10162
  156.9685  130.5960  149.5667 H   0  0  0  0  0  0  0  0  0  0  0  0  # atno 10718 bound_to 10713
  154.8733  135.3767  154.4567 H   0  0  0  0  0  0  0  0  0  0  0  0  # atno 10763 bound_to 10752
  153.5238  135.7028  153.5723 H   0  0  0  0  0  0  0  0  0  0  0  0  # atno 10764 bound_to 10752
  153.3958  135.3961  155.1919 H   0  0  0  0  0  0  0  0  0  0  0  0  # atno 10765 bound_to 10752
  140.2678  134.7851  157.3648 H   0  0  0  0  0  0  0  0  0  0  0  0  # atno 11005 bound_to 11000
  145.3001  139.1853  143.4694 LP  0  0  0  0  0  0  0  0  0  0  0  0  # atno 17320 bound_to 7965
  146.3283  140.2990  142.8619 LP  0  0  0  0  0  0  0  0  0  0  0  0  # atno 17321 bound_to 7965
  140.3361  143.3047  152.0636 LP  0  0  0  0  0  0  0  0  0  0  0  0  # atno 17342 bound_to 10162
  139.4921  144.6475  151.6747 LP  0  0  0  0  0  0  0  0  0  0  0  0  # atno 17343 bound_to 10162
  156.0292  130.5385  150.8490 LP  0  0  0  0  0  0  0  0  0  0  0  0  # atno 17370 bound_to 10713
  157.5609  131.0946  150.9561 LP  0  0  0  0  0  0  0  0  0  0  0  0  # atno 17371 bound_to 10713
  140.1402  134.4981  155.8037 LP  0  0  0  0  0  0  0  0  0  0  0  0  # atno 17394 bound_to 11000
  141.2182  133.6822  156.7197 LP  0  0  0  0  0  0  0  0  0  0  0  0  # atno 17395 bound_to 11000

$$$$
