AV-unprocessed.smi:3034|AV-procd|sdf|11579|dock3
  -GOLD-   2272016543D 1   1.00000     0.00000
 Structure written by MMmdl.
 31 31  0  0  0  0  0  0  0  0  2 V2000
  150.3177  138.3703  153.7637 C   0  0  0  0  0  0  0  0  0  0  0  0
  150.2155  137.7533  155.1627 C   0  0  0  0  0  0  0  0  0  0  0  0
  151.5243  137.8838  155.9509 C   0  0  0  0  0  0  0  0  0  0  0  0
  152.2686  139.5652  155.7502 S   0  0  0  0  0  0  0  0  0  0  0  0
  153.3447  139.4231  154.7548 O   0  0  0  0  0  0  0  0  0  0  0  0
  151.1455  140.4384  155.3772 O   0  0  0  0  0  0  0  0  0  0  0  0
  152.7996  139.9036  157.2505 N   0  5  0  0  0  0  0  0  0  0  0  0
  152.1350  140.8962  158.0885 C   0  0  0  0  0  0  0  0  0  0  0  0
  153.1719  141.6953  158.9213 C   0  0  2  0  0  0  0  0  0  0  0  0
  153.5643  140.8952  160.0207 O   0  0  0  0  0  0  0  0  0  0  0  0
  152.7040  143.0860  159.3646 C   0  0  0  0  0  0  0  0  0  0  0  0
  152.5088  143.3666  160.7369 C   0  0  0  0  0  0  0  0  0  0  0  0
  152.0904  144.6572  161.1127 C   0  0  0  0  0  0  0  0  0  0  0  0
  151.8717  145.6190  160.1087 C   0  0  0  0  0  0  0  0  0  0  0  0
  152.0777  145.2438  158.7669 C   0  0  0  0  0  0  0  0  0  0  0  0
  152.4778  144.0093  158.3955 N   0  0  0  0  0  0  0  0  0  0  0  0
  149.3775  138.2650  153.2222 H   0  0  0  0  0  0  0  0  0  0  0  0
  151.0975  137.8844  153.1763 H   0  0  0  0  0  0  0  0  0  0  0  0
  150.5534  139.4333  153.8197 H   0  0  0  0  0  0  0  0  0  0  0  0
  149.4079  138.2365  155.7137 H   0  0  0  0  0  0  0  0  0  0  0  0
  149.9432  136.7012  155.0739 H   0  0  0  0  0  0  0  0  0  0  0  0
  151.3476  137.7174  157.0130 H   0  0  0  0  0  0  0  0  0  0  0  0
  152.2448  137.1418  155.6082 H   0  0  0  0  0  0  0  0  0  0  0  0
  151.5344  141.5962  157.5061 H   0  0  0  0  0  0  0  0  0  0  0  0
  151.4341  140.4081  158.7670 H   0  0  0  0  0  0  0  0  0  0  0  0
  154.0707  141.8249  158.3164 H   0  0  0  0  0  0  0  0  0  0  0  0
  152.9014  140.9670  160.6895 H   0  0  0  0  0  0  0  0  0  0  0  0
  152.6937  142.6123  161.4875 H   0  0  0  0  0  0  0  0  0  0  0  0
  151.9432  144.9055  162.1532 H   0  0  0  0  0  0  0  0  0  0  0  0
  151.5536  146.6196  160.3605 H   0  0  0  0  0  0  0  0  0  0  0  0
  151.9167  145.9547  157.9700 H   0  0  0  0  0  0  0  0  0  0  0  0
  1  2  1  0  0  0  0
  1 17  1  0  0  0  0
  1 18  1  0  0  0  0
  1 19  1  0  0  0  0
  2  3  1  0  0  0  0
  2 20  1  0  0  0  0
  2 21  1  0  0  0  0
  3  4  1  0  0  0  0
  3 22  1  0  0  0  0
  3 23  1  0  0  0  0
  4  5  2  0  0  0  0
  4  6  2  0  0  0  0
  4  7  1  0  0  0  0
  7  8  1  0  0  0  0
  8  9  1  0  0  0  0
  8 24  1  0  0  0  0
  8 25  1  0  0  0  0
  9 10  1  0  0  0  0
  9 11  1  0  0  0  0
  9 26  1  0  0  0  0
 10 27  1  0  0  0  0
 11 16  1  0  0  0  0
 11 12  2  0  0  0  0
 12 13  1  0  0  0  0
 12 28  1  0  0  0  0
 13 14  2  0  0  0  0
 13 29  1  0  0  0  0
 14 15  1  0  0  0  0
 14 30  1  0  0  0  0
 15 16  2  0  0  0  0
 15 31  1  0  0  0  0
M  CHG  1   7  -1
M  END
> <s_m_source_file>
AV-unprocessed.smi

> <i_m_source_file_index>
3034

> <i_lp_mmshare_version>
43012

> <i_f3d_flags>
0

> <s_epik_input>
W0NIM11bQ0gyXVtDSDJdUyg9TykoPU8pW05IXVtDSDJdW0NASF0oW09IXSljMVtjSF1bY0hdW2NIXVtjSF1uMQ==

> <s_epik_cmdline>
J2VwaWtfcHl0aG9uJywgJy1waCcsICc3LjAnLCAnLXRuJywgJzgnLCAnLW1hJywgJzIwMCcsICctbWV0YWxfYmluZGluZycsICctaW1hZScsICc8aW5maWxlLm1hZT4nLCAnLW9tYWUnLCAnPG91dGZpbGUubWFlPic=

> <r_epik_Ionization_Penalty>
6.18156

> <r_epik_Ionization_Penalty_Charging>
6.17474

> <r_epik_Ionization_Penalty_Neutral>
0.0068235

> <r_epik_State_Penalty>
6.17598

> <r_epik_Charging_Adjusted_Penalty>
12.3507

> <i_epik_Tot_Q>
-1

> <i_epik_Tot_abs_Q>
1

> <r_epik_Metal_State_Penalty>
2.11803

> <b_epik_Metal_Only>
1

> <s_lp_Force_Field>
OPLS_2005

> <r_lp_Energy>
-0.388479

> <b_lp_Chiralities_Consistent>
1

> <s_lp_Variant>
AV-unprocessed.smi:3034-3

> <Gold.Version>
5.8.1

> <Gold.Id.Protein>
6NUR|6NUR_protein|mol2

> <Gold.PLP.Fitness>
43.3120

> <Gold.PLP.PLP>
-35.6243

> <Gold.PLP.part.hbond>
-3.7821

> <Gold.PLP.part.metal>
0.0000

> <Gold.PLP.part.buried>
-3.2923

> <Gold.PLP.part.nonpolar>
-27.6995

> <Gold.PLP.part.repulsive>
0.0674

> <Gold.PLP.ligand.clash>
0.0000

> <Gold.PLP.ligand.torsion>
1.5077

> <Gold.PLP.Chemscore.Hbond>
3.2162

> <Gold.PLP.Chemscore.CHOScore>
0.0000

> <Gold.PLP.Chemscore.Metal>
0.0000

> <Gold.Chemscore.Hbonds>
donor molecule, donor type, donor heavy atom, donor atom, acceptor molecule, acceptor atom, score
      P1  H  7989  7998       L1     6  0.96
      P1  H  7997  8008       L1     5  0.22
      P1  H  7997  8010       L1     7  1.95

> <Gold.PLP.Chemscore.Internal.Correction>
1.0543

> <Gold.Rescore>
     Score         DG    S(hbond)    S(metal)    S(lipo)     H(rot)  DE(clash)    DE(int)     intcor
     12.48     -15.52       1.33        0.00      97.82       2.29       0.16       2.88       ----

> <Gold.Chemscore.Fitness>
12.4822

> <Gold.Chemscore.DG>
-15.5165

> <Gold.Chemscore.ZeroCoef>
-5.4800

> <Gold.Chemscore.Hbond>
1.3332

> <Gold.Chemscore.Metal>
0.0000

> <Gold.Chemscore.Lipo>
97.8176

> <Gold.Chemscore.Internal_Hbond>
0.0000

> <Gold.Chemscore.DEClash>
0.1587

> <Gold.Chemscore.DEInternal>
2.8757

> <Gold.Chemscore.Rot>
2.2895

> <Gold.Chemscore.Internal.Correction>
   9.000000E+99

> <Gold.Chemscore.Hbonds>
donor molecule, donor type, donor heavy atom, donor atom, acceptor molecule, acceptor atom, score
      P1  H  7989  7998       L1     6  0.23
      P1  H  7997  8008       L1     5  0.19
      P1  H  7997  8010       L1     7  0.23

> <Gold.Chemscore.Hbond.Weighted>
-4.4531

> <Gold.Chemscore.Metal.Weighted>
-0.0000

> <Gold.Chemscore.Lipo.Weighted>
-11.4447

> <Gold.Chemscore.Internal_Hbond.Weighted>
0.0000

> <Gold.Chemscore.DEClash.Weighted>
0.1587

> <Gold.Chemscore.DEInternal.Weighted>
2.8757

> <Gold.Chemscore.Rot.Weighted>
5.8612

> <Gold.Chemscore.Internal.Correction.Weighted>
   9.000000E+99

> <Gold.Protein.RotatedTorsions>
[ 6907 6896 6895 6894 ] final -149.07 input  -60.11 | X-H torsion
[ 7974 7965 7964 7962 ] final  105.55 input  175.53 | X-H torsion
[ 8008 7997 7996 7995 ] final   40.31 input   59.86 | X-H torsion
[ 10167 10162 10161 10158 ] final   76.01 input  -65.29 | X-H torsion
[ 10718 10713 10712 10709 ] final  -86.03 input   66.30 | X-H torsion
[ 10763 10752 10751 10750 ] final -104.28 input  -60.55 | X-H torsion
[ 11005 11000 10999 10996 ] final -161.36 input  -57.11 | X-H torsion

> <Gold.Protein.ActiveResidues>
 VAL166  LYS551  ARG553  GLY616  TRP617  ASP618  TYR619  PRO620  LYS621  CYS622 
 ASP623  PHE694  ASN695  SER759  ASP760  ASP761  ALA762  ILE779  LEU786  VAL792 
 PHE793  MET794  SER795  GLU796  ALA797  LYS798  CYS799  TRP800  GLU811  SER814 

> <Gold.Protein.RotatedAtoms>
  151.1789  133.4737  159.2593 H   0  0  0  0  0  0  0  0  0  0  0  0  # atno 6907 bound_to 6896
  151.1280  135.0115  159.8579 H   0  0  0  0  0  0  0  0  0  0  0  0  # atno 6908 bound_to 6896
  152.5459  134.1694  159.8643 H   0  0  0  0  0  0  0  0  0  0  0  0  # atno 6909 bound_to 6896
  145.3182  139.2520  143.3726 H   0  0  0  0  0  0  0  0  0  0  0  0  # atno 7974 bound_to 7965
  155.2510  140.3352  155.4282 H   0  0  0  0  0  0  0  0  0  0  0  0  # atno 8008 bound_to 7997
  156.2215  140.1811  156.7508 H   0  0  0  0  0  0  0  0  0  0  0  0  # atno 8009 bound_to 7997
  154.5833  140.0650  156.9120 H   0  0  0  0  0  0  0  0  0  0  0  0  # atno 8010 bound_to 7997
  139.9968  144.5716  150.7771 H   0  0  0  0  0  0  0  0  0  0  0  0  # atno 10167 bound_to 10162
  155.9992  130.4751  150.4652 H   0  0  0  0  0  0  0  0  0  0  0  0  # atno 10718 bound_to 10713
  154.7867  135.4792  153.9962 H   0  0  0  0  0  0  0  0  0  0  0  0  # atno 10763 bound_to 10752
  153.1571  135.6802  153.8804 H   0  0  0  0  0  0  0  0  0  0  0  0  # atno 10764 bound_to 10752
  153.8430  135.3177  155.3405 H   0  0  0  0  0  0  0  0  0  0  0  0  # atno 10765 bound_to 10752
  140.6213  134.4747  157.5223 H   0  0  0  0  0  0  0  0  0  0  0  0  # atno 11005 bound_to 11000
  146.3092  140.3734  142.8676 LP  0  0  0  0  0  0  0  0  0  0  0  0  # atno 17320 bound_to 7965
  144.8960  140.7584  143.5897 LP  0  0  0  0  0  0  0  0  0  0  0  0  # atno 17321 bound_to 7965
  140.7434  143.2846  151.3501 LP  0  0  0  0  0  0  0  0  0  0  0  0  # atno 17342 bound_to 10162
  139.6300  144.0739  152.2468 LP  0  0  0  0  0  0  0  0  0  0  0  0  # atno 17343 bound_to 10162
  157.2672  131.0579  151.2283 LP  0  0  0  0  0  0  0  0  0  0  0  0  # atno 17370 bound_to 10713
  157.3376  130.7017  149.6362 LP  0  0  0  0  0  0  0  0  0  0  0  0  # atno 17371 bound_to 10713
  139.9152  134.8261  156.1390 LP  0  0  0  0  0  0  0  0  0  0  0  0  # atno 17394 bound_to 11000
  141.0740  133.6784  156.2199 LP  0  0  0  0  0  0  0  0  0  0  0  0  # atno 17395 bound_to 11000

$$$$
