AV-unprocessed.smi:2181|AV-procd|sdf|8861|dock8
  -GOLD-   2272012 53D 1   1.00000     0.00000
 Structure written by MMmdl.
 38 39  0  0  0  0  0  0  0  0  1 V2000
  149.7891  134.5723  157.1464 C   0  0  0  0  0  0  0  0  0  0  0  0
  150.2065  133.2076  156.6778 C   0  0  0  0  0  0  0  0  0  0  0  0
  150.5609  132.2971  157.5690 N   0  0  0  0  0  0  0  0  0  0  0  0
  150.8774  131.1477  156.8384 O   0  0  0  0  0  0  0  0  0  0  0  0
  150.6974  131.4143  155.5198 C   0  0  0  0  0  0  0  0  0  0  0  0
  150.9756  130.3025  154.5654 C   0  0  0  0  0  0  0  0  0  0  0  0
  150.2736  132.7031  155.3464 C   0  0  0  0  0  0  0  0  0  0  0  0
  149.9478  133.4157  154.0591 C   0  0  0  0  0  0  0  0  0  0  0  0
  148.6492  132.8563  153.4796 C   0  0  0  0  0  0  0  0  0  0  0  0
  148.2650  131.7321  153.8009 O   0  0  0  0  0  0  0  0  0  0  0  0
  147.9831  133.6558  152.6322 N   0  0  0  0  0  0  0  0  0  0  0  0
  146.7029  133.3538  151.9940 C   0  0  2  0  0  0  0  0  0  0  0  0
  146.3611  134.4189  150.9202 C   0  0  0  0  0  0  0  0  0  0  0  0
  144.8633  134.6000  150.5963 C   0  0  0  0  0  0  0  0  0  0  0  0
  144.1062  133.3128  150.2103 C   0  0  0  0  0  0  0  0  0  0  0  0
  144.1752  132.1373  151.2146 C   0  0  0  0  0  0  0  0  0  0  0  0
  144.4484  132.5372  152.5946 N   0  0  0  0  0  0  0  0  0  0  0  0
  145.5966  133.0820  153.0324 C   0  0  0  0  0  0  0  0  0  0  0  0
  145.7569  133.3766  154.2165 O   0  0  0  0  0  0  0  0  0  0  0  0
  148.7226  134.5954  157.3709 H   0  0  0  0  0  0  0  0  0  0  0  0
  149.9836  135.3293  156.3870 H   0  0  0  0  0  0  0  0  0  0  0  0
  150.3259  134.8668  158.0488 H   0  0  0  0  0  0  0  0  0  0  0  0
  150.0468  129.9180  154.1434 H   0  0  0  0  0  0  0  0  0  0  0  0
  151.4902  129.4782  155.0599 H   0  0  0  0  0  0  0  0  0  0  0  0
  151.6034  130.6468  153.7435 H   0  0  0  0  0  0  0  0  0  0  0  0
  149.8482  134.4910  154.2116 H   0  0  0  0  0  0  0  0  0  0  0  0
  150.7422  133.2902  153.3226 H   0  0  0  0  0  0  0  0  0  0  0  0
  148.3765  134.5645  152.4342 H   0  0  0  0  0  0  0  0  0  0  0  0
  146.8450  132.4035  151.4774 H   0  0  0  0  0  0  0  0  0  0  0  0
  146.7446  135.3891  151.2392 H   0  0  0  0  0  0  0  0  0  0  0  0
  146.8998  134.1790  150.0027 H   0  0  0  0  0  0  0  0  0  0  0  0
  144.3638  135.0705  151.4444 H   0  0  0  0  0  0  0  0  0  0  0  0
  144.7678  135.3181  149.7812 H   0  0  0  0  0  0  0  0  0  0  0  0
  143.0586  133.5802  150.0673 H   0  0  0  0  0  0  0  0  0  0  0  0
  144.4520  132.9644  149.2364 H   0  0  0  0  0  0  0  0  0  0  0  0
  143.2332  131.5887  151.1967 H   0  0  0  0  0  0  0  0  0  0  0  0
  144.9304  131.4179  150.8963 H   0  0  0  0  0  0  0  0  0  0  0  0
  143.7167  132.3728  153.2711 H   0  0  0  0  0  0  0  0  0  0  0  0
  1  2  1  0  0  0  0
  1 20  1  0  0  0  0
  1 21  1  0  0  0  0
  1 22  1  0  0  0  0
  2  7  1  0  0  0  0
  2  3  2  0  0  0  0
  3  4  1  0  0  0  0
  4  5  1  0  0  0  0
  5  6  1  0  0  0  0
  5  7  2  0  0  0  0
  6 23  1  0  0  0  0
  6 24  1  0  0  0  0
  6 25  1  0  0  0  0
  7  8  1  0  0  0  0
  8  9  1  0  0  0  0
  8 26  1  0  0  0  0
  8 27  1  0  0  0  0
  9 10  2  0  0  0  0
  9 11  1  0  0  0  0
 11 12  1  0  0  0  0
 11 28  1  0  0  0  0
 12 18  1  0  0  0  0
 12 13  1  0  0  0  0
 12 29  1  0  0  0  0
 13 14  1  0  0  0  0
 13 30  1  0  0  0  0
 13 31  1  0  0  0  0
 14 15  1  0  0  0  0
 14 32  1  0  0  0  0
 14 33  1  0  0  0  0
 15 16  1  0  0  0  0
 15 34  1  0  0  0  0
 15 35  1  0  0  0  0
 16 17  1  0  0  0  0
 16 36  1  0  0  0  0
 16 37  1  0  0  0  0
 17 18  1  0  0  0  0
 17 38  1  0  0  0  0
 18 19  2  0  0  0  0
M  END
> <s_m_source_file>
AV-unprocessed.smi

> <i_m_source_file_index>
2181

> <i_lp_mmshare_version>
43012

> <i_f3d_flags>
0

> <s_epik_input>
W0NIM11jMW5vYyhbQ0gzXSljMVtDSDJdQyg9TylbTkhdW0NAQEhdMltDSDJdW0NIMl1bQ0gyXVtDSDJdW05IXUMyPU8=

> <s_epik_cmdline>
J2VwaWtfcHl0aG9uJywgJy1waCcsICc3LjAnLCAnLXRuJywgJzgnLCAnLW1hJywgJzIwMCcsICctbWV0YWxfYmluZGluZycsICctaW1hZScsICc8aW5maWxlLm1hZT4nLCAnLW9tYWUnLCAnPG91dGZpbGUubWFlPic=

> <r_lp_tautomer_probability>
1

> <r_epik_Ionization_Penalty>
5.91376e-08

> <r_epik_Ionization_Penalty_Charging>
0

> <r_epik_Ionization_Penalty_Neutral>
5.91376e-08

> <r_epik_State_Penalty>
-0

> <r_epik_Charging_Adjusted_Penalty>
0

> <i_epik_Tot_Q>
0

> <i_epik_Tot_abs_Q>
0

> <r_epik_Metal_State_Penalty>
-0

> <b_epik_Metal_Only>
0

> <s_lp_Force_Field>
OPLS_2005

> <r_lp_Energy>
8.47239

> <b_lp_Chiralities_Consistent>
1

> <s_lp_Variant>
AV-unprocessed.smi:2181-1

> <Gold.Version>
5.8.1

> <Gold.Id.Protein>
6NUR|6NUR_protein|mol2

> <Gold.PLP.Fitness>
35.2145

> <Gold.PLP.PLP>
-27.1006

> <Gold.PLP.part.hbond>
-3.0000

> <Gold.PLP.part.metal>
0.0000

> <Gold.PLP.part.buried>
-2.4473

> <Gold.PLP.part.nonpolar>
-21.2108

> <Gold.PLP.part.repulsive>
0.1622

> <Gold.PLP.ligand.clash>
0.0000

> <Gold.PLP.ligand.torsion>
0.4692

> <Gold.PLP.Chemscore.Hbond>
3.0000

> <Gold.PLP.Chemscore.CHOScore>
0.0000

> <Gold.PLP.Chemscore.Metal>
0.0000

> <Gold.Chemscore.Hbonds>
donor molecule, donor type, donor heavy atom, donor atom, acceptor molecule, acceptor atom, score
      L1  H    11    28       P1  7948  0.80
      L1  H    17    38       P1 10957  0.75
      P1  H  6896  6909       L1     3  0.88

> <Gold.PLP.Chemscore.Internal.Correction>
0.0523

> <Gold.Rescore>
     Score         DG    S(hbond)    S(metal)    S(lipo)     H(rot)  DE(clash)    DE(int)     intcor
     14.80     -15.74       2.10        0.00      60.53       1.49       0.20       0.74       ----

> <Gold.Chemscore.Fitness>
14.8026

> <Gold.Chemscore.DG>
-15.7446

> <Gold.Chemscore.ZeroCoef>
-5.4800

> <Gold.Chemscore.Hbond>
2.0986

> <Gold.Chemscore.Metal>
0.0000

> <Gold.Chemscore.Lipo>
60.5332

> <Gold.Chemscore.Internal_Hbond>
0.0000

> <Gold.Chemscore.DEClash>
0.2020

> <Gold.Chemscore.DEInternal>
0.7400

> <Gold.Chemscore.Rot>
1.4949

> <Gold.Chemscore.Internal.Correction>
   9.000000E+99

> <Gold.Chemscore.Hbonds>
donor molecule, donor type, donor heavy atom, donor atom, acceptor molecule, acceptor atom, score
      L1  H    11    28       P1  7948  0.12
      L1  H    17    38       P1 10957  0.09
      P1  H  6896  6909       L1     3  0.38

> <Gold.Chemscore.Hbond.Weighted>
-7.0092

> <Gold.Chemscore.Metal.Weighted>
-0.0000

> <Gold.Chemscore.Lipo.Weighted>
-7.0824

> <Gold.Chemscore.Internal_Hbond.Weighted>
0.0000

> <Gold.Chemscore.DEClash.Weighted>
0.2020

> <Gold.Chemscore.DEInternal.Weighted>
0.7400

> <Gold.Chemscore.Rot.Weighted>
3.8269

> <Gold.Chemscore.Internal.Correction.Weighted>
   9.000000E+99

> <Gold.Protein.RotatedTorsions>
[ 6907 6896 6895 6894 ] final  -32.81 input  -60.11 | X-H torsion
[ 7974 7965 7964 7962 ] final  141.27 input  175.53 | X-H torsion
[ 8008 7997 7996 7995 ] final  -36.32 input   59.86 | X-H torsion
[ 10167 10162 10161 10158 ] final   64.23 input  -65.29 | X-H torsion
[ 10718 10713 10712 10709 ] final  134.91 input   66.30 | X-H torsion
[ 10763 10752 10751 10750 ] final   50.23 input  -60.55 | X-H torsion
[ 11005 11000 10999 10996 ] final  118.52 input  -57.11 | X-H torsion

> <Gold.Protein.ActiveResidues>
 VAL166  LYS551  ARG553  GLY616  TRP617  ASP618  TYR619  PRO620  LYS621  CYS622 
 ASP623  PHE694  ASN695  SER759  ASP760  ASP761  ALA762  ILE779  LEU786  VAL792 
 PHE793  MET794  SER795  GLU796  ALA797  LYS798  CYS799  TRP800  GLU811  SER814 

> <Gold.Protein.RotatedAtoms>
  151.0739  134.9816  159.8321 H   0  0  0  0  0  0  0  0  0  0  0  0  # atno 6907 bound_to 6896
  152.5412  134.2265  159.8818 H   0  0  0  0  0  0  0  0  0  0  0  0  # atno 6908 bound_to 6896
  151.2291  133.4416  159.2637 H   0  0  0  0  0  0  0  0  0  0  0  0  # atno 6909 bound_to 6896
  144.9112  139.5291  143.5708 H   0  0  0  0  0  0  0  0  0  0  0  0  # atno 7974 bound_to 7965
  154.4076  140.1634  156.2355 H   0  0  0  0  0  0  0  0  0  0  0  0  # atno 8008 bound_to 7997
  155.9246  140.3419  155.6177 H   0  0  0  0  0  0  0  0  0  0  0  0  # atno 8009 bound_to 7997
  155.7180  140.0765  157.2333 H   0  0  0  0  0  0  0  0  0  0  0  0  # atno 8010 bound_to 7997
  140.1244  144.4701  150.6901 H   0  0  0  0  0  0  0  0  0  0  0  0  # atno 10167 bound_to 10162
  157.4624  131.1074  150.9903 H   0  0  0  0  0  0  0  0  0  0  0  0  # atno 10718 bound_to 10713
  152.9785  135.5886  154.4218 H   0  0  0  0  0  0  0  0  0  0  0  0  # atno 10763 bound_to 10752
  154.3841  135.2767  155.2195 H   0  0  0  0  0  0  0  0  0  0  0  0  # atno 10764 bound_to 10752
  154.4096  135.6084  153.5999 H   0  0  0  0  0  0  0  0  0  0  0  0  # atno 10765 bound_to 10752
  139.9112  134.9621  156.7516 H   0  0  0  0  0  0  0  0  0  0  0  0  # atno 11005 bound_to 11000
  146.3159  139.7919  142.8984 LP  0  0  0  0  0  0  0  0  0  0  0  0  # atno 17320 bound_to 7965
  145.3452  141.0296  143.3370 LP  0  0  0  0  0  0  0  0  0  0  0  0  # atno 17321 bound_to 7965
  140.6853  143.2347  151.5276 LP  0  0  0  0  0  0  0  0  0  0  0  0  # atno 17342 bound_to 10162
  139.5552  144.2294  152.1599 LP  0  0  0  0  0  0  0  0  0  0  0  0  # atno 17343 bound_to 10162
  157.0696  130.5858  149.5400 LP  0  0  0  0  0  0  0  0  0  0  0  0  # atno 17370 bound_to 10713
  156.0035  130.5118  150.7747 LP  0  0  0  0  0  0  0  0  0  0  0  0  # atno 17371 bound_to 10713
  140.6769  133.9509  155.7888 LP  0  0  0  0  0  0  0  0  0  0  0  0  # atno 17394 bound_to 11000
  141.0538  134.0446  157.3749 LP  0  0  0  0  0  0  0  0  0  0  0  0  # atno 17395 bound_to 11000

$$$$
