AV-unprocessed.smi:827|AV-procd|sdf|3856|dock9
  -GOLD-   22720 1303D 1   1.00000     0.00000
 Structure written by MMmdl.
 46 47  0  0  0  0  0  0  0  0  1 V2000
  148.7494  144.7470  160.6871 C   0  0  0  0  0  0  0  0  0  0  0  0
  149.2919  144.1682  159.5050 O   0  0  0  0  0  0  0  0  0  0  0  0
  150.5444  143.5877  159.5693 C   0  0  0  0  0  0  0  0  0  0  0  0
  151.2760  143.7558  160.6995 N   0  0  0  0  0  0  0  0  0  0  0  0
  152.5003  143.1933  160.7628 C   0  0  0  0  0  0  0  0  0  0  0  0
  153.0604  142.4467  159.7098 C   0  0  0  0  0  0  0  0  0  0  0  0
  152.3036  142.2703  158.5367 C   0  0  0  0  0  0  0  0  0  0  0  0
  151.0095  142.8404  158.4619 C   0  0  0  0  0  0  0  0  0  0  0  0
  150.1707  142.7372  157.3180 N   0  0  0  0  0  0  0  0  0  0  0  0
  149.9861  141.6782  156.5119 C   0  0  0  0  0  0  0  0  0  0  0  0
  150.5349  140.5833  156.6378 O   0  0  0  0  0  0  0  0  0  0  0  0
  149.0967  141.9519  155.5471 N   0  0  0  0  0  0  0  0  0  0  0  0
  148.6491  141.0044  154.5336 C   0  0  0  0  0  0  0  0  0  0  0  0
  147.4773  141.5816  153.7157 C   0  0  0  0  0  0  0  0  0  0  0  0
  146.7454  142.6162  154.4447 N   0  0  0  0  0  0  0  0  0  0  0  0
  145.7968  143.3134  153.5663 C   0  0  0  0  0  0  0  0  0  0  0  0
  145.0119  144.3758  154.3605 C   0  0  0  0  0  0  0  0  0  0  0  0
  144.2975  143.7172  155.4585 N   0  0  0  0  0  0  0  0  0  0  0  0
  142.9529  143.6314  155.5953 C   0  0  0  0  0  0  0  0  0  0  0  0
  142.0516  144.3082  154.5604 C   0  0  0  0  0  0  0  0  0  0  0  0
  142.4159  143.0259  156.5230 O   0  0  0  0  0  0  0  0  0  0  0  0
  145.2421  143.0496  156.3575 C   0  0  0  0  0  0  0  0  0  0  0  0
  146.0239  141.9897  155.5577 C   0  0  0  0  0  0  0  0  0  0  0  0
  147.7620  145.1533  160.4690 H   0  0  0  0  0  0  0  0  0  0  0  0
  149.3711  145.5663  161.0509 H   0  0  0  0  0  0  0  0  0  0  0  0
  148.6339  144.0056  161.4790 H   0  0  0  0  0  0  0  0  0  0  0  0
  153.0524  143.3481  161.6778 H   0  0  0  0  0  0  0  0  0  0  0  0
  154.0498  142.0230  159.7981 H   0  0  0  0  0  0  0  0  0  0  0  0
  152.7338  141.7167  157.7166 H   0  0  0  0  0  0  0  0  0  0  0  0
  149.5827  143.5386  157.1414 H   0  0  0  0  0  0  0  0  0  0  0  0
  148.6922  142.8764  155.5183 H   0  0  0  0  0  0  0  0  0  0  0  0
  149.4916  140.7893  153.8757 H   0  0  0  0  0  0  0  0  0  0  0  0
  148.3833  140.0644  155.0178 H   0  0  0  0  0  0  0  0  0  0  0  0
  147.8236  141.9730  152.7577 H   0  0  0  0  0  0  0  0  0  0  0  0
  146.7940  140.7620  153.4883 H   0  0  0  0  0  0  0  0  0  0  0  0
  146.3261  143.8069  152.7522 H   0  0  0  0  0  0  0  0  0  0  0  0
  145.1078  142.5983  153.1136 H   0  0  0  0  0  0  0  0  0  0  0  0
  145.6963  145.1189  154.7729 H   0  0  0  0  0  0  0  0  0  0  0  0
  144.3590  144.9232  153.6827 H   0  0  0  0  0  0  0  0  0  0  0  0
  142.2345  143.9035  153.5646 H   0  0  0  0  0  0  0  0  0  0  0  0
  142.2228  145.3847  154.5437 H   0  0  0  0  0  0  0  0  0  0  0  0
  141.0005  144.1420  154.7990 H   0  0  0  0  0  0  0  0  0  0  0  0
  145.9256  143.7872  156.7812 H   0  0  0  0  0  0  0  0  0  0  0  0
  144.7504  142.5740  157.2069 H   0  0  0  0  0  0  0  0  0  0  0  0
  145.3422  141.2251  155.1805 H   0  0  0  0  0  0  0  0  0  0  0  0
  146.7333  141.4896  156.2182 H   0  0  0  0  0  0  0  0  0  0  0  0
  1  2  1  0  0  0  0
  1 24  1  0  0  0  0
  1 25  1  0  0  0  0
  1 26  1  0  0  0  0
  2  3  1  0  0  0  0
  3  8  1  0  0  0  0
  3  4  2  0  0  0  0
  4  5  1  0  0  0  0
  5  6  2  0  0  0  0
  5 27  1  0  0  0  0
  6  7  1  0  0  0  0
  6 28  1  0  0  0  0
  7  8  2  0  0  0  0
  7 29  1  0  0  0  0
  8  9  1  0  0  0  0
  9 10  1  0  0  0  0
  9 30  1  0  0  0  0
 10 11  2  0  0  0  0
 10 12  1  0  0  0  0
 12 13  1  0  0  0  0
 12 31  1  0  0  0  0
 13 14  1  0  0  0  0
 13 32  1  0  0  0  0
 13 33  1  0  0  0  0
 14 15  1  0  0  0  0
 14 34  1  0  0  0  0
 14 35  1  0  0  0  0
 15 23  1  0  0  0  0
 15 16  1  0  0  0  0
 16 17  1  0  0  0  0
 16 36  1  0  0  0  0
 16 37  1  0  0  0  0
 17 18  1  0  0  0  0
 17 38  1  0  0  0  0
 17 39  1  0  0  0  0
 18 19  1  0  0  0  0
 18 22  1  0  0  0  0
 19 20  1  0  0  0  0
 19 21  2  0  0  0  0
 20 40  1  0  0  0  0
 20 41  1  0  0  0  0
 20 42  1  0  0  0  0
 22 23  1  0  0  0  0
 22 43  1  0  0  0  0
 22 44  1  0  0  0  0
 23 45  1  0  0  0  0
 23 46  1  0  0  0  0
M  END
> <s_m_source_file>
AV-unprocessed.smi

> <i_m_source_file_index>
827

> <i_lp_mmshare_version>
43012

> <i_f3d_flags>
0

> <s_epik_input>
W0NIM11PYzFuW2NIXVtjSF1bY0hdYzFbTkhdQyg9TylbTkhdW0NIMl1bQ0gyXU4yW0NIMl1bQ0gyXU4oQyg9TylbQ0gzXSlbQ0gyXVtDSDJdMg==

> <s_epik_cmdline>
J2VwaWtfcHl0aG9uJywgJy1waCcsICc3LjAnLCAnLXRuJywgJzgnLCAnLW1hJywgJzIwMCcsICctbWV0YWxfYmluZGluZycsICctaW1hZScsICc8aW5maWxlLm1hZT4nLCAnLW9tYWUnLCAnPG91dGZpbGUubWFlPic=

> <r_lp_tautomer_probability>
1

> <r_epik_Ionization_Penalty>
0.251055

> <r_epik_Ionization_Penalty_Charging>
0

> <r_epik_Ionization_Penalty_Neutral>
0.251055

> <r_epik_State_Penalty>
0.242297

> <r_epik_Charging_Adjusted_Penalty>
0.242297

> <i_epik_Tot_Q>
0

> <i_epik_Tot_abs_Q>
0

> <r_epik_Metal_State_Penalty>
0.242294

> <b_epik_Metal_Only>
0

> <s_lp_Force_Field>
OPLS_2005

> <r_lp_Energy>
35.7173

> <b_lp_Chiralities_Consistent>
1

> <s_lp_Variant>
AV-unprocessed.smi:827-1

> <Gold.Version>
5.8.1

> <Gold.Id.Protein>
6NUR|6NUR_protein|mol2

> <Gold.PLP.Fitness>
42.1537

> <Gold.PLP.PLP>
-37.6265

> <Gold.PLP.part.hbond>
-2.0000

> <Gold.PLP.part.metal>
0.0000

> <Gold.PLP.part.buried>
-9.5303

> <Gold.PLP.part.nonpolar>
-26.9255

> <Gold.PLP.part.repulsive>
1.4317

> <Gold.PLP.ligand.clash>
0.0000

> <Gold.PLP.ligand.torsion>
0.7027

> <Gold.PLP.Chemscore.Hbond>
1.9600

> <Gold.PLP.Chemscore.CHOScore>
0.0000

> <Gold.PLP.Chemscore.Metal>
0.0000

> <Gold.Chemscore.Hbonds>
donor molecule, donor type, donor heavy atom, donor atom, acceptor molecule, acceptor atom, score
      L1  H     9    30       P1  8028  0.86
      L1  H    12    31       P1  8028  1.00

> <Gold.PLP.Chemscore.Internal.Correction>
0.0526

> <Gold.Rescore>
     Score         DG    S(hbond)    S(metal)    S(lipo)     H(rot)  DE(clash)    DE(int)     intcor
     15.53     -16.84       1.86        0.00      83.95       1.83       0.11       1.20       ----

> <Gold.Chemscore.Fitness>
15.5329

> <Gold.Chemscore.DG>
-16.8450

> <Gold.Chemscore.ZeroCoef>
-5.4800

> <Gold.Chemscore.Hbond>
1.8632

> <Gold.Chemscore.Metal>
0.0000

> <Gold.Chemscore.Lipo>
83.9452

> <Gold.Chemscore.Internal_Hbond>
0.0000

> <Gold.Chemscore.DEClash>
0.1073

> <Gold.Chemscore.DEInternal>
1.2048

> <Gold.Chemscore.Rot>
1.8280

> <Gold.Chemscore.Internal.Correction>
   9.000000E+99

> <Gold.Chemscore.Hbonds>
donor molecule, donor type, donor heavy atom, donor atom, acceptor molecule, acceptor atom, score
      L1  H     9    30       P1  8028  0.75
      L1  H    12    31       P1  8028  0.95

> <Gold.Chemscore.Hbond.Weighted>
-6.2230

> <Gold.Chemscore.Metal.Weighted>
-0.0000

> <Gold.Chemscore.Lipo.Weighted>
-9.8216

> <Gold.Chemscore.Internal_Hbond.Weighted>
0.0000

> <Gold.Chemscore.DEClash.Weighted>
0.1073

> <Gold.Chemscore.DEInternal.Weighted>
1.2048

> <Gold.Chemscore.Rot.Weighted>
4.6796

> <Gold.Chemscore.Internal.Correction.Weighted>
   9.000000E+99

> <Gold.Protein.RotatedTorsions>
[ 6907 6896 6895 6894 ] final -128.20 input  -60.11 | X-H torsion
[ 7974 7965 7964 7962 ] final  -35.24 input  175.53 | X-H torsion
[ 8008 7997 7996 7995 ] final   41.12 input   59.86 | X-H torsion
[ 10167 10162 10161 10158 ] final -148.16 input  -65.29 | X-H torsion
[ 10718 10713 10712 10709 ] final   69.42 input   66.30 | X-H torsion
[ 10763 10752 10751 10750 ] final  161.82 input  -60.55 | X-H torsion
[ 11005 11000 10999 10996 ] final  -39.23 input  -57.11 | X-H torsion

> <Gold.Protein.ActiveResidues>
 VAL166  LYS551  ARG553  GLY616  TRP617  ASP618  TYR619  PRO620  LYS621  CYS622 
 ASP623  PHE694  ASN695  SER759  ASP760  ASP761  ALA762  ILE779  LEU786  VAL792 
 PHE793  MET794  SER795  GLU796  ALA797  LYS798  CYS799  TRP800  GLU811  SER814 

> <Gold.Protein.RotatedAtoms>
  150.9154  133.6946  159.2844 H   0  0  0  0  0  0  0  0  0  0  0  0  # atno 6907 bound_to 6896
  151.4419  135.1020  159.9682 H   0  0  0  0  0  0  0  0  0  0  0  0  # atno 6908 bound_to 6896
  152.4952  133.8560  159.7281 H   0  0  0  0  0  0  0  0  0  0  0  0  # atno 6909 bound_to 6896
  146.0763  140.6136  142.8929 H   0  0  0  0  0  0  0  0  0  0  0  0  # atno 7974 bound_to 7965
  155.2644  140.3361  155.4270 H   0  0  0  0  0  0  0  0  0  0  0  0  # atno 8008 bound_to 7997
  156.2160  140.1789  156.7629 H   0  0  0  0  0  0  0  0  0  0  0  0  # atno 8009 bound_to 7997
  154.5755  140.0662  156.9012 H   0  0  0  0  0  0  0  0  0  0  0  0  # atno 8010 bound_to 7997
  139.7556  143.8453  152.2596 H   0  0  0  0  0  0  0  0  0  0  0  0  # atno 10167 bound_to 10162
  157.6345  130.9425  150.0511 H   0  0  0  0  0  0  0  0  0  0  0  0  # atno 10718 bound_to 10713
  154.2689  135.2766  155.2747 H   0  0  0  0  0  0  0  0  0  0  0  0  # atno 10763 bound_to 10752
  154.5319  135.5727  153.6769 H   0  0  0  0  0  0  0  0  0  0  0  0  # atno 10764 bound_to 10752
  152.9949  135.6230  154.2842 H   0  0  0  0  0  0  0  0  0  0  0  0  # atno 10765 bound_to 10752
  141.0086  133.6919  156.2158 H   0  0  0  0  0  0  0  0  0  0  0  0  # atno 11005 bound_to 11000
  144.7263  140.4536  143.6970 LP  0  0  0  0  0  0  0  0  0  0  0  0  # atno 17320 bound_to 7965
  145.6300  139.1535  143.2974 LP  0  0  0  0  0  0  0  0  0  0  0  0  # atno 17321 bound_to 7965
  139.8444  144.7195  150.9291 LP  0  0  0  0  0  0  0  0  0  0  0  0  # atno 17342 bound_to 10162
  140.7802  143.3955  151.1237 LP  0  0  0  0  0  0  0  0  0  0  0  0  # atno 17343 bound_to 10162
  156.1573  130.3643  149.9350 LP  0  0  0  0  0  0  0  0  0  0  0  0  # atno 17370 bound_to 10713
  156.7357  130.9060  151.3629 LP  0  0  0  0  0  0  0  0  0  0  0  0  # atno 17371 bound_to 10713
  140.6771  134.4806  157.5588 LP  0  0  0  0  0  0  0  0  0  0  0  0  # atno 17394 bound_to 11000
  139.9077  134.8412  156.1643 LP  0  0  0  0  0  0  0  0  0  0  0  0  # atno 17395 bound_to 11000

$$$$
