AV-unprocessed.smi:814|AV-procd|sdf|3824|dock1
  -GOLD-   22720 1263D 1   1.00000     0.00000
 Structure written by MMmdl.
 36 37  0  0  0  0  0  0  0  0  1 V2000
  147.1305  142.6227  153.8548 C   0  0  0  0  0  0  0  0  0  0  0  0
  147.6740  141.2779  153.8417 N   0  0  0  0  0  0  0  0  0  0  0  0
  147.0989  140.1707  153.2322 C   0  0  0  0  0  0  0  0  0  0  0  0
  147.9376  139.1091  153.4724 C   0  0  0  0  0  0  0  0  0  0  0  0
  149.0261  139.5410  154.2228 N   0  0  0  0  0  0  0  0  0  0  0  0
  148.8183  140.8420  154.4032 C   0  0  0  0  0  0  0  0  0  0  0  0
  149.7379  141.7320  155.1791 C   0  0  0  0  0  0  0  0  0  0  0  0
  150.8405  140.9464  155.9078 C   0  0  0  0  0  0  0  0  0  0  0  0
  151.0397  141.4397  157.2654 N   0  0  0  0  0  0  0  0  0  0  0  0
  151.9937  141.0086  158.1053 C   0  0  0  0  0  0  0  0  0  0  0  0
  152.8193  140.1468  157.8008 O   0  0  0  0  0  0  0  0  0  0  0  0
  152.0185  141.6434  159.5021 C   0  0  1  0  0  0  0  0  0  0  0  0
  153.1955  141.0944  160.3414 C   0  0  0  0  0  0  0  0  0  0  0  0
  153.4096  141.8865  161.6189 C   0  0  0  0  0  0  0  0  0  0  0  0
  152.8790  143.1027  161.8324 C   0  0  0  0  0  0  0  0  0  0  0  0
  152.0084  143.8244  160.8191 C   0  0  0  0  0  0  0  0  0  0  0  0
  152.0846  143.1818  159.4211 C   0  0  0  0  0  0  0  0  0  0  0  0
  146.1181  142.6228  153.4507 H   0  0  0  0  0  0  0  0  0  0  0  0
  147.7545  143.2774  153.2465 H   0  0  0  0  0  0  0  0  0  0  0  0
  147.1001  143.0029  154.8762 H   0  0  0  0  0  0  0  0  0  0  0  0
  146.1641  140.2271  152.6944 H   0  0  0  0  0  0  0  0  0  0  0  0
  147.8423  138.0776  153.1669 H   0  0  0  0  0  0  0  0  0  0  0  0
  150.1895  142.4459  154.4892 H   0  0  0  0  0  0  0  0  0  0  0  0
  149.1550  142.3240  155.8854 H   0  0  0  0  0  0  0  0  0  0  0  0
  150.6013  139.8818  155.9313 H   0  0  0  0  0  0  0  0  0  0  0  0
  151.7829  141.0396  155.3676 H   0  0  0  0  0  0  0  0  0  0  0  0
  150.4039  142.1531  157.5917 H   0  0  0  0  0  0  0  0  0  0  0  0
  151.0895  141.3813  160.0123 H   0  0  0  0  0  0  0  0  0  0  0  0
  153.0042  140.0538  160.6062 H   0  0  0  0  0  0  0  0  0  0  0  0
  154.1291  141.1119  159.7773 H   0  0  0  0  0  0  0  0  0  0  0  0
  154.0352  141.4336  162.3740 H   0  0  0  0  0  0  0  0  0  0  0  0
  153.0588  143.6098  162.7691 H   0  0  0  0  0  0  0  0  0  0  0  0
  150.9818  143.8092  161.1860 H   0  0  0  0  0  0  0  0  0  0  0  0
  152.3111  144.8703  160.7638 H   0  0  0  0  0  0  0  0  0  0  0  0
  153.0186  143.4812  158.9424 H   0  0  0  0  0  0  0  0  0  0  0  0
  151.2804  143.5713  158.7952 H   0  0  0  0  0  0  0  0  0  0  0  0
  1  2  1  0  0  0  0
  1 18  1  0  0  0  0
  1 19  1  0  0  0  0
  1 20  1  0  0  0  0
  2  6  1  0  0  0  0
  2  3  1  0  0  0  0
  3  4  2  0  0  0  0
  3 21  1  0  0  0  0
  4  5  1  0  0  0  0
  4 22  1  0  0  0  0
  5  6  2  0  0  0  0
  6  7  1  0  0  0  0
  7  8  1  0  0  0  0
  7 23  1  0  0  0  0
  7 24  1  0  0  0  0
  8  9  1  0  0  0  0
  8 25  1  0  0  0  0
  8 26  1  0  0  0  0
  9 10  1  0  0  0  0
  9 27  1  0  0  0  0
 10 11  2  0  0  0  0
 10 12  1  0  0  0  0
 12 17  1  0  0  0  0
 12 13  1  0  0  0  0
 12 28  1  0  0  0  0
 13 14  1  0  0  0  0
 13 29  1  0  0  0  0
 13 30  1  0  0  0  0
 14 15  2  0  0  0  0
 14 31  1  0  0  0  0
 15 16  1  0  0  0  0
 15 32  1  0  0  0  0
 16 17  1  0  0  0  0
 16 33  1  0  0  0  0
 16 34  1  0  0  0  0
 17 35  1  0  0  0  0
 17 36  1  0  0  0  0
M  END
> <s_m_source_file>
AV-unprocessed.smi

> <i_m_source_file_index>
814

> <i_lp_mmshare_version>
43012

> <i_f3d_flags>
0

> <s_epik_input>
W0NIM11uMVtjSF1bY0hdbmMxW0NIMl1bQ0gyXVtOSF1DKD1PKVtDQEBIXTJbQ0gyXVtDSF09W0NIXVtDSDJdW0NIMl0y

> <s_epik_cmdline>
J2VwaWtfcHl0aG9uJywgJy1waCcsICc3LjAnLCAnLXRuJywgJzgnLCAnLW1hJywgJzIwMCcsICctbWV0YWxfYmluZGluZycsICctaW1hZScsICc8aW5maWxlLm1hZT4nLCAnLW9tYWUnLCAnPG91dGZpbGUubWFlPic=

> <r_lp_tautomer_probability>
1

> <r_epik_Ionization_Penalty>
1.21249

> <r_epik_Ionization_Penalty_Charging>
1.21249

> <r_epik_Ionization_Penalty_Neutral>
1.60917e-08

> <r_epik_State_Penalty>
1.27906

> <r_epik_Charging_Adjusted_Penalty>
2.49154

> <i_epik_Tot_Q>
0

> <i_epik_Tot_abs_Q>
0

> <r_epik_Metal_State_Penalty>
0.409603

> <b_epik_Metal_Only>
0

> <s_lp_Force_Field>
OPLS_2005

> <r_lp_Energy>
6.01065

> <b_lp_Chiralities_Consistent>
1

> <s_lp_Variant>
AV-unprocessed.smi:814-4

> <Gold.Version>
5.8.1

> <Gold.Id.Protein>
6NUR|6NUR_protein|mol2

> <Gold.PLP.Fitness>
49.5769

> <Gold.PLP.PLP>
-41.4364

> <Gold.PLP.part.hbond>
-1.0000

> <Gold.PLP.part.metal>
0.0000

> <Gold.PLP.part.buried>
-2.5107

> <Gold.PLP.part.nonpolar>
-36.5165

> <Gold.PLP.part.repulsive>
0.2056

> <Gold.PLP.ligand.clash>
0.0000

> <Gold.PLP.ligand.torsion>
0.4317

> <Gold.PLP.Chemscore.Hbond>
0.9920

> <Gold.PLP.Chemscore.CHOScore>
2.0000

> <Gold.PLP.Chemscore.Metal>
0.0000

> <Gold.Chemscore.Hbonds>
donor molecule, donor type, donor heavy atom, donor atom, acceptor molecule, acceptor atom, score
      P1  H  7997  8010       L1    11  1.00
      L1  C     3    21       P1 10175  1.00
      L1  C     4    22       P1  7948  1.00

> <Gold.PLP.Chemscore.Internal.Correction>
0.0279

> <Gold.Rescore>
     Score         DG    S(hbond)    S(metal)    S(lipo)     H(rot)  DE(clash)    DE(int)     intcor
     15.80     -16.29       0.96        0.00      99.53       1.58       0.06       0.43       ----

> <Gold.Chemscore.Fitness>
15.7992

> <Gold.Chemscore.DG>
-16.2876

> <Gold.Chemscore.ZeroCoef>
-5.4800

> <Gold.Chemscore.Hbond>
0.9609

> <Gold.Chemscore.Metal>
0.0000

> <Gold.Chemscore.Lipo>
99.5323

> <Gold.Chemscore.Internal_Hbond>
0.0000

> <Gold.Chemscore.DEClash>
0.0578

> <Gold.Chemscore.DEInternal>
0.4306

> <Gold.Chemscore.Rot>
1.5809

> <Gold.Chemscore.Internal.Correction>
   9.000000E+99

> <Gold.Chemscore.Hbonds>
donor molecule, donor type, donor heavy atom, donor atom, acceptor molecule, acceptor atom, score
      P1  H  7997  8010       L1    11  0.95

> <Gold.Chemscore.Hbond.Weighted>
-3.2095

> <Gold.Chemscore.Metal.Weighted>
-0.0000

> <Gold.Chemscore.Lipo.Weighted>
-11.6453

> <Gold.Chemscore.Internal_Hbond.Weighted>
0.0000

> <Gold.Chemscore.DEClash.Weighted>
0.0578

> <Gold.Chemscore.DEInternal.Weighted>
0.4306

> <Gold.Chemscore.Rot.Weighted>
4.0472

> <Gold.Chemscore.Internal.Correction.Weighted>
   9.000000E+99

> <Gold.Protein.RotatedTorsions>
[ 6907 6896 6895 6894 ] final   40.14 input  -60.11 | X-H torsion
[ 7974 7965 7964 7962 ] final  -56.10 input  175.53 | X-H torsion
[ 8008 7997 7996 7995 ] final   50.98 input   59.86 | X-H torsion
[ 10167 10162 10161 10158 ] final  175.12 input  -65.29 | X-H torsion
[ 10718 10713 10712 10709 ] final -139.15 input   66.30 | X-H torsion
[ 10763 10752 10751 10750 ] final  -61.95 input  -60.55 | X-H torsion
[ 11005 11000 10999 10996 ] final  151.48 input  -57.11 | X-H torsion

> <Gold.Protein.ActiveResidues>
 VAL166  LYS551  ARG553  GLY616  TRP617  ASP618  TYR619  PRO620  LYS621  CYS622 
 ASP623  PHE694  ASN695  SER759  ASP760  ASP761  ALA762  ILE779  LEU786  VAL792 
 PHE793  MET794  SER795  GLU796  ALA797  LYS798  CYS799  TRP800  GLU811  SER814 

> <Gold.Protein.RotatedAtoms>
  152.1786  134.8773  160.0528 H   0  0  0  0  0  0  0  0  0  0  0  0  # atno 6907 bound_to 6896
  151.9706  133.3719  159.4078 H   0  0  0  0  0  0  0  0  0  0  0  0  # atno 6908 bound_to 6896
  150.6913  134.4067  159.5187 H   0  0  0  0  0  0  0  0  0  0  0  0  # atno 6909 bound_to 6896
  145.8666  140.8247  142.9909 H   0  0  0  0  0  0  0  0  0  0  0  0  # atno 7974 bound_to 7965
  155.4278  140.3449  155.4277 H   0  0  0  0  0  0  0  0  0  0  0  0  # atno 8008 bound_to 7997
  156.1355  140.1526  156.9032 H   0  0  0  0  0  0  0  0  0  0  0  0  # atno 8009 bound_to 7997
  154.4928  140.0836  156.7612 H   0  0  0  0  0  0  0  0  0  0  0  0  # atno 8010 bound_to 7997
  139.5166  144.3068  152.0329 H   0  0  0  0  0  0  0  0  0  0  0  0  # atno 10167 bound_to 10162
  156.3075  130.7463  151.1530 H   0  0  0  0  0  0  0  0  0  0  0  0  # atno 10718 bound_to 10713
  154.2925  135.6250  153.5391 H   0  0  0  0  0  0  0  0  0  0  0  0  # atno 10763 bound_to 10752
  152.9851  135.5659  154.5375 H   0  0  0  0  0  0  0  0  0  0  0  0  # atno 10764 bound_to 10752
  154.4988  135.2871  155.1413 H   0  0  0  0  0  0  0  0  0  0  0  0  # atno 10765 bound_to 10752
  140.1223  134.8856  157.2089 H   0  0  0  0  0  0  0  0  0  0  0  0  # atno 11005 bound_to 11000
  144.6726  140.1176  143.7452 LP  0  0  0  0  0  0  0  0  0  0  0  0  # atno 17320 bound_to 7965
  145.9186  139.2531  143.1395 LP  0  0  0  0  0  0  0  0  0  0  0  0  # atno 17321 bound_to 7965
  140.2513  144.4165  150.6220 LP  0  0  0  0  0  0  0  0  0  0  0  0  # atno 17342 bound_to 10162
  140.6222  143.2177  151.6670 LP  0  0  0  0  0  0  0  0  0  0  0  0  # atno 17343 bound_to 10162
  157.7383  131.0542  150.5303 LP  0  0  0  0  0  0  0  0  0  0  0  0  # atno 17370 bound_to 10713
  156.5438  130.4214  149.6141 LP  0  0  0  0  0  0  0  0  0  0  0  0  # atno 17371 bound_to 10713
  140.2949  134.3198  155.7305 LP  0  0  0  0  0  0  0  0  0  0  0  0  # atno 17394 bound_to 11000
  141.2154  133.7557  156.9557 LP  0  0  0  0  0  0  0  0  0  0  0  0  # atno 17395 bound_to 11000

$$$$
