AV-unprocessed.smi:486|AV-procd|sdf|2696|dock3
  -GOLD-   2262023133D 1   1.00000     0.00000
 Structure written by MMmdl.
 43 45  0  0  0  0  0  0  0  0  1 V2000
  155.9777  144.5833  167.6333 C   0  0  0  0  0  0  0  0  0  0  0  0
  157.1805  143.8850  167.3459 O   0  0  0  0  0  0  0  0  0  0  0  0
  157.0918  142.7021  166.6437 C   0  0  0  0  0  0  0  0  0  0  0  0
  158.2971  142.0265  166.3699 C   0  0  0  0  0  0  0  0  0  0  0  0
  158.2970  140.8124  165.6580 C   0  0  0  0  0  0  0  0  0  0  0  0
  157.0918  140.2435  165.2028 C   0  0  0  0  0  0  0  0  0  0  0  0
  157.1823  139.0532  164.5133 O   0  0  0  0  0  0  0  0  0  0  0  0
  155.9941  138.5081  163.9554 C   0  0  0  0  0  0  0  0  0  0  0  0
  155.4826  139.4539  162.8534 C   0  0  1  0  0  0  0  0  0  0  0  0
  156.5607  139.7545  161.9919 O   0  0  0  0  0  0  0  0  0  0  0  0
  154.3624  138.8532  161.9773 C   0  0  0  0  0  0  0  0  0  0  0  0
  153.9801  139.7083  160.8617 N   0  0  0  0  0  0  0  0  0  0  0  0
  153.8840  139.3760  159.5508 C   0  0  0  0  0  0  0  0  0  0  0  0
  154.1749  137.9924  159.0620 C   0  0  0  0  0  0  0  0  0  0  0  0
  153.5123  140.3566  158.7277 N   0  0  0  0  0  0  0  0  0  0  0  0
  153.3455  141.4261  159.5862 C   0  0  0  0  0  0  0  0  0  0  0  0
  152.9598  142.7607  159.3269 C   0  0  0  0  0  0  0  0  0  0  0  0
  152.8589  143.6925  160.3808 C   0  0  0  0  0  0  0  0  0  0  0  0
  153.1391  143.3038  161.7068 C   0  0  0  0  0  0  0  0  0  0  0  0
  153.5241  141.9788  161.9874 C   0  0  0  0  0  0  0  0  0  0  0  0
  153.6259  141.0530  160.9313 C   0  0  0  0  0  0  0  0  0  0  0  0
  155.8765  140.9192  165.4753 C   0  0  0  0  0  0  0  0  0  0  0  0
  155.8765  142.1345  166.1876 C   0  0  0  0  0  0  0  0  0  0  0  0
  156.2136  145.4924  168.1863 H   0  0  0  0  0  0  0  0  0  0  0  0
  155.3076  143.9852  168.2524 H   0  0  0  0  0  0  0  0  0  0  0  0
  155.4591  144.8786  166.7202 H   0  0  0  0  0  0  0  0  0  0  0  0
  159.2337  142.4438  166.7098 H   0  0  0  0  0  0  0  0  0  0  0  0
  159.2336  140.3121  165.4595 H   0  0  0  0  0  0  0  0  0  0  0  0
  156.1578  137.5040  163.5598 H   0  0  0  0  0  0  0  0  0  0  0  0
  155.2576  138.4376  164.7553 H   0  0  0  0  0  0  0  0  0  0  0  0
  155.1298  140.3810  163.3051 H   0  0  0  0  0  0  0  0  0  0  0  0
  157.3642  139.5052  162.4230 H   0  0  0  0  0  0  0  0  0  0  0  0
  154.6688  137.8837  161.5836 H   0  0  0  0  0  0  0  0  0  0  0  0
  153.4754  138.6629  162.5831 H   0  0  0  0  0  0  0  0  0  0  0  0
  154.0207  137.9279  157.9845 H   0  0  0  0  0  0  0  0  0  0  0  0
  153.5132  137.2730  159.5446 H   0  0  0  0  0  0  0  0  0  0  0  0
  155.2088  137.7227  159.2748 H   0  0  0  0  0  0  0  0  0  0  0  0
  152.7422  143.0681  158.3146 H   0  0  0  0  0  0  0  0  0  0  0  0
  152.5655  144.7105  160.1706 H   0  0  0  0  0  0  0  0  0  0  0  0
  153.0594  144.0237  162.5083 H   0  0  0  0  0  0  0  0  0  0  0  0
  153.7430  141.6795  163.0015 H   0  0  0  0  0  0  0  0  0  0  0  0
  154.9261  140.5267  165.1475 H   0  0  0  0  0  0  0  0  0  0  0  0
  154.9267  142.6132  166.3709 H   0  0  0  0  0  0  0  0  0  0  0  0
  1  2  1  0  0  0  0
  1 24  1  0  0  0  0
  1 25  1  0  0  0  0
  1 26  1  0  0  0  0
  2  3  1  0  0  0  0
  3 23  1  0  0  0  0
  3  4  2  0  0  0  0
  4  5  1  0  0  0  0
  4 27  1  0  0  0  0
  5  6  2  0  0  0  0
  5 28  1  0  0  0  0
  6  7  1  0  0  0  0
  6 22  1  0  0  0  0
  7  8  1  0  0  0  0
  8  9  1  0  0  0  0
  8 29  1  0  0  0  0
  8 30  1  0  0  0  0
  9 10  1  0  0  0  0
  9 11  1  0  0  0  0
  9 31  1  0  0  0  0
 10 32  1  0  0  0  0
 11 12  1  0  0  0  0
 11 33  1  0  0  0  0
 11 34  1  0  0  0  0
 12 21  1  0  0  0  0
 12 13  1  0  0  0  0
 13 14  1  0  0  0  0
 13 15  2  0  0  0  0
 14 35  1  0  0  0  0
 14 36  1  0  0  0  0
 14 37  1  0  0  0  0
 15 16  1  0  0  0  0
 16 21  2  0  0  0  0
 16 17  1  0  0  0  0
 17 18  2  0  0  0  0
 17 38  1  0  0  0  0
 18 19  1  0  0  0  0
 18 39  1  0  0  0  0
 19 20  2  0  0  0  0
 19 40  1  0  0  0  0
 20 21  1  0  0  0  0
 20 41  1  0  0  0  0
 22 23  2  0  0  0  0
 22 42  1  0  0  0  0
 23 43  1  0  0  0  0
M  END
> <s_m_source_file>
AV-unprocessed.smi

> <i_m_source_file_index>
486

> <i_lp_mmshare_version>
43012

> <i_f3d_flags>
0

> <s_epik_input>
W0NIM11PYzFbY0hdW2NIXWMoW2NIXVtjSF0xKU9bQ0gyXVtDQEhdKFtPSF0pW0NIMl1uKGMobjIpW0NIM10pYyhjMjMpW2NIXVtjSF1bY0hdW2NIXTM=

> <s_epik_cmdline>
J2VwaWtfcHl0aG9uJywgJy1waCcsICc3LjAnLCAnLXRuJywgJzgnLCAnLW1hJywgJzIwMCcsICctbWV0YWxfYmluZGluZycsICctaW1hZScsICc8aW5maWxlLm1hZT4nLCAnLW9tYWUnLCAnPG91dGZpbGUubWFlPic=

> <r_lp_tautomer_probability>
1

> <r_epik_Ionization_Penalty>
0.114052

> <r_epik_Ionization_Penalty_Charging>
0

> <r_epik_Ionization_Penalty_Neutral>
0.114052

> <r_epik_State_Penalty>
0.103717

> <r_epik_Charging_Adjusted_Penalty>
0.103717

> <i_epik_Tot_Q>
0

> <i_epik_Tot_abs_Q>
0

> <r_epik_Metal_State_Penalty>
0.000113338

> <b_epik_Metal_Only>
0

> <s_lp_Force_Field>
OPLS_2005

> <r_lp_Energy>
20.3049

> <b_lp_Chiralities_Consistent>
1

> <s_lp_Variant>
AV-unprocessed.smi:486-2

> <Gold.Version>
5.8.1

> <Gold.Id.Protein>
6NUR|6NUR_protein|mol2

> <Gold.PLP.Fitness>
44.7742

> <Gold.PLP.PLP>
-42.5191

> <Gold.PLP.part.hbond>
-3.0000

> <Gold.PLP.part.metal>
0.0000

> <Gold.PLP.part.buried>
-4.7122

> <Gold.PLP.part.nonpolar>
-34.0200

> <Gold.PLP.part.repulsive>
0.0096

> <Gold.PLP.ligand.clash>
0.0000

> <Gold.PLP.ligand.torsion>
0.1703

> <Gold.PLP.Chemscore.Hbond>
0.8320

> <Gold.PLP.Chemscore.CHOScore>
0.0000

> <Gold.PLP.Chemscore.Metal>
0.0000

> <Gold.Chemscore.Hbonds>
donor molecule, donor type, donor heavy atom, donor atom, acceptor molecule, acceptor atom, score
      P1  H  7997  8009       L1    15  0.86

> <Gold.PLP.Chemscore.Internal.Correction>
0.0997

> <Gold.Rescore>
     Score         DG    S(hbond)    S(metal)    S(lipo)     H(rot)  DE(clash)    DE(int)     intcor
     14.92     -16.87       0.95        0.00     120.51       2.30       1.65       0.31       ----

> <Gold.Chemscore.Fitness>
14.9195

> <Gold.Chemscore.DG>
-16.8735

> <Gold.Chemscore.ZeroCoef>
-5.4800

> <Gold.Chemscore.Hbond>
0.9544

> <Gold.Chemscore.Metal>
0.0000

> <Gold.Chemscore.Lipo>
120.5112

> <Gold.Chemscore.Internal_Hbond>
0.0000

> <Gold.Chemscore.DEClash>
1.6450

> <Gold.Chemscore.DEInternal>
0.3089

> <Gold.Chemscore.Rot>
2.3023

> <Gold.Chemscore.Internal.Correction>
   9.000000E+99

> <Gold.Chemscore.Hbonds>
donor molecule, donor type, donor heavy atom, donor atom, acceptor molecule, acceptor atom, score
      P1  H  7997  8009       L1    15  0.28

> <Gold.Chemscore.Hbond.Weighted>
-3.1877

> <Gold.Chemscore.Metal.Weighted>
-0.0000

> <Gold.Chemscore.Lipo.Weighted>
-14.0998

> <Gold.Chemscore.Internal_Hbond.Weighted>
0.0000

> <Gold.Chemscore.DEClash.Weighted>
1.6450

> <Gold.Chemscore.DEInternal.Weighted>
0.3089

> <Gold.Chemscore.Rot.Weighted>
5.8940

> <Gold.Chemscore.Internal.Correction.Weighted>
   9.000000E+99

> <Gold.Protein.RotatedTorsions>
[ 6907 6896 6895 6894 ] final  121.36 input  -60.11 | X-H torsion
[ 7974 7965 7964 7962 ] final  124.13 input  175.53 | X-H torsion
[ 8008 7997 7996 7995 ] final  143.49 input   59.86 | X-H torsion
[ 10167 10162 10161 10158 ] final  -73.12 input  -65.29 | X-H torsion
[ 10718 10713 10712 10709 ] final   55.81 input   66.30 | X-H torsion
[ 10763 10752 10751 10750 ] final  -12.11 input  -60.55 | X-H torsion
[ 11005 11000 10999 10996 ] final -145.82 input  -57.11 | X-H torsion

> <Gold.Protein.ActiveResidues>
 VAL166  LYS551  ARG553  GLY616  TRP617  ASP618  TYR619  PRO620  LYS621  CYS622 
 ASP623  PHE694  ASN695  SER759  ASP760  ASP761  ALA762  ILE779  LEU786  VAL792 
 PHE793  MET794  SER795  GLU796  ALA797  LYS798  CYS799  TRP800  GLU811  SER814 

> <Gold.Protein.RotatedAtoms>
  152.4328  133.7307  159.6585 H   0  0  0  0  0  0  0  0  0  0  0  0  # atno 6907 bound_to 6896
  150.8208  133.8245  159.3146 H   0  0  0  0  0  0  0  0  0  0  0  0  # atno 6908 bound_to 6896
  151.5928  135.1054  160.0094 H   0  0  0  0  0  0  0  0  0  0  0  0  # atno 6909 bound_to 6896
  145.0879  139.3608  143.4875 H   0  0  0  0  0  0  0  0  0  0  0  0  # atno 7974 bound_to 7965
  156.2929  140.2261  156.4900 H   0  0  0  0  0  0  0  0  0  0  0  0  # atno 8008 bound_to 7997
  154.7779  140.0462  157.1125 H   0  0  0  0  0  0  0  0  0  0  0  0  # atno 8009 bound_to 7997
  154.9794  140.3076  155.4956 H   0  0  0  0  0  0  0  0  0  0  0  0  # atno 8010 bound_to 7997
  140.5137  143.2341  151.7550 H   0  0  0  0  0  0  0  0  0  0  0  0  # atno 10167 bound_to 10162
  157.5377  130.8675  149.8777 H   0  0  0  0  0  0  0  0  0  0  0  0  # atno 10718 bound_to 10713
  153.4936  135.7017  153.5871 H   0  0  0  0  0  0  0  0  0  0  0  0  # atno 10763 bound_to 10752
  153.4032  135.3867  155.2002 H   0  0  0  0  0  0  0  0  0  0  0  0  # atno 10764 bound_to 10752
  154.8715  135.3886  154.4399 H   0  0  0  0  0  0  0  0  0  0  0  0  # atno 10765 bound_to 10752
  140.7883  134.2998  157.5022 H   0  0  0  0  0  0  0  0  0  0  0  0  # atno 11005 bound_to 11000
  146.3531  140.0700  142.8624 LP  0  0  0  0  0  0  0  0  0  0  0  0  # atno 17320 bound_to 7965
  145.1100  140.9399  143.4662 LP  0  0  0  0  0  0  0  0  0  0  0  0  # atno 17321 bound_to 7965
  139.4903  144.4355  151.9824 LP  0  0  0  0  0  0  0  0  0  0  0  0  # atno 17342 bound_to 10162
  140.3448  144.3160  150.5960 LP  0  0  0  0  0  0  0  0  0  0  0  0  # atno 17343 bound_to 10162
  156.0471  130.3725  150.1290 LP  0  0  0  0  0  0  0  0  0  0  0  0  # atno 17370 bound_to 10713
  156.9471  130.9763  151.3505 LP  0  0  0  0  0  0  0  0  0  0  0  0  # atno 17371 bound_to 10713
  139.8734  134.9360  156.3648 LP  0  0  0  0  0  0  0  0  0  0  0  0  # atno 17394 bound_to 11000
  140.9414  133.7512  156.0152 LP  0  0  0  0  0  0  0  0  0  0  0  0  # atno 17395 bound_to 11000

$$$$
