AV-unprocessed.smi:1897|AV-procd|sdf|7692|dock6
  -GOLD-   22720 9433D 1   1.00000     0.00000
 Structure written by MMmdl.
 38 40  0  0  0  0  0  0  0  0  3 V2000
  152.3729  130.3089  157.5508 C   0  0  0  0  0  0  0  0  0  0  0  0
  151.8263  131.6068  157.0636 C   0  0  0  0  0  0  0  0  0  0  0  0
  152.0174  132.7589  157.7106 N   0  0  0  0  0  0  0  0  0  0  0  0
  151.4139  133.8275  157.0645 N   0  0  0  0  0  0  0  0  0  0  0  0
  150.7644  133.4682  155.9482 C   0  0  0  0  0  0  0  0  0  0  0  0
  150.1014  134.3530  155.1805 N   0  5  0  0  0  0  0  0  0  0  0  0
  149.9008  135.6424  155.5582 C   0  0  0  0  0  0  0  0  0  0  0  0
  150.1634  136.0675  156.6824 O   0  0  0  0  0  0  0  0  0  0  0  0
  149.3870  136.4894  154.6468 N   0  0  0  0  0  0  0  0  0  0  0  0
  149.0993  137.9023  154.8601 C   0  0  2  0  0  0  0  0  0  0  0  0
  147.7473  138.3531  154.2878 C   0  0  0  0  0  0  0  0  0  0  0  0
  147.9931  139.7701  153.7327 C   0  0  0  0  0  0  0  0  0  0  0  0
  149.4075  140.1045  154.0221 N   0  3  1  0  0  0  0  0  0  0  0  0
  149.5426  140.9662  155.2287 C   0  0  0  0  0  0  0  0  0  0  0  0
  151.0035  141.1177  155.6714 C   0  0  0  0  0  0  0  0  0  0  0  0
  151.6114  139.7427  155.9585 C   0  0  0  0  0  0  0  0  0  0  0  0
  151.5230  138.8738  154.6997 C   0  0  0  0  0  0  0  0  0  0  0  0
  150.0946  138.7938  154.1154 C   0  0  1  0  0  0  0  0  0  0  0  0
  150.8711  131.7435  155.5971 S   0  0  0  0  0  0  0  0  0  0  0  0
  151.7325  129.9066  158.3357 H   0  0  0  0  0  0  0  0  0  0  0  0
  153.3770  130.4482  157.9524 H   0  0  0  0  0  0  0  0  0  0  0  0
  152.4221  129.5887  156.7340 H   0  0  0  0  0  0  0  0  0  0  0  0
  149.1777  136.1135  153.7336 H   0  0  0  0  0  0  0  0  0  0  0  0
  149.1358  138.1295  155.9271 H   0  0  0  0  0  0  0  0  0  0  0  0
  147.4193  137.6939  153.4824 H   0  0  0  0  0  0  0  0  0  0  0  0
  146.9724  138.3430  155.0549 H   0  0  0  0  0  0  0  0  0  0  0  0
  147.8530  139.7689  152.6512 H   0  0  0  0  0  0  0  0  0  0  0  0
  147.2988  140.5028  154.1465 H   0  0  0  0  0  0  0  0  0  0  0  0
  149.1179  141.9472  155.0131 H   0  0  0  0  0  0  0  0  0  0  0  0
  148.9588  140.5483  156.0505 H   0  0  0  0  0  0  0  0  0  0  0  0
  151.5784  141.6280  154.8974 H   0  0  0  0  0  0  0  0  0  0  0  0
  151.0584  141.7421  156.5636 H   0  0  0  0  0  0  0  0  0  0  0  0
  152.6512  139.8471  156.2696 H   0  0  0  0  0  0  0  0  0  0  0  0
  151.0852  139.2645  156.7853 H   0  0  0  0  0  0  0  0  0  0  0  0
  152.1857  139.2951  153.9427 H   0  0  0  0  0  0  0  0  0  0  0  0
  151.9028  137.8726  154.9061 H   0  0  0  0  0  0  0  0  0  0  0  0
  150.1803  138.4152  153.0945 H   0  0  0  0  0  0  0  0  0  0  0  0
  149.7960  140.6168  153.2433 H   0  0  0  0  0  0  0  0  0  0  0  0
  1  2  1  0  0  0  0
  1 20  1  0  0  0  0
  1 21  1  0  0  0  0
  1 22  1  0  0  0  0
  2 19  1  0  0  0  0
  2  3  2  0  0  0  0
  3  4  1  0  0  0  0
  4  5  2  0  0  0  0
  5  6  1  0  0  0  0
  5 19  1  0  0  0  0
  6  7  1  0  0  0  0
  7  8  2  0  0  0  0
  7  9  1  0  0  0  0
  9 10  1  0  0  0  0
  9 23  1  0  0  0  0
 10 18  1  0  0  0  0
 10 11  1  0  0  0  0
 10 24  1  0  0  0  0
 11 12  1  0  0  0  0
 11 25  1  0  0  0  0
 11 26  1  0  0  0  0
 12 13  1  0  0  0  0
 12 27  1  0  0  0  0
 12 28  1  0  0  0  0
 13 18  1  0  0  0  0
 13 14  1  0  0  0  0
 13 38  1  0  0  0  0
 14 15  1  0  0  0  0
 14 29  1  0  0  0  0
 14 30  1  0  0  0  0
 15 16  1  0  0  0  0
 15 31  1  0  0  0  0
 15 32  1  0  0  0  0
 16 17  1  0  0  0  0
 16 33  1  0  0  0  0
 16 34  1  0  0  0  0
 17 18  1  0  0  0  0
 17 35  1  0  0  0  0
 17 36  1  0  0  0  0
 18 37  1  0  0  0  0
M  CHG  1   6  -1
M  CHG  1  13   1
M  END
> <s_m_source_file>
AV-unprocessed.smi

> <i_m_source_file_index>
1897

> <i_lp_mmshare_version>
43012

> <i_f3d_flags>
0

> <s_epik_input>
W0NIM11jMW5uYyhzMSlbTkhdQyg9TylbTkhdW0NASF0oW0NIMl1bQ0gyXTIpW0NAQEhdKE4yMylbQ0gyXVtDSDJdW0NIMl1bQ0gyXTM=

> <s_epik_cmdline>
J2VwaWtfcHl0aG9uJywgJy1waCcsICc3LjAnLCAnLXRuJywgJzgnLCAnLW1hJywgJzIwMCcsICctbWV0YWxfYmluZGluZycsICctaW1hZScsICc8aW5maWxlLm1hZT4nLCAnLW9tYWUnLCAnPG91dGZpbGUubWFlPic=

> <r_lp_tautomer_probability>
1

> <r_epik_Ionization_Penalty>
3.77712

> <r_epik_Ionization_Penalty_Charging>
3.67739

> <r_epik_Ionization_Penalty_Neutral>
0.0997294

> <r_epik_State_Penalty>
3.67514

> <r_epik_Charging_Adjusted_Penalty>
7.35254

> <i_epik_Tot_Q>
0

> <i_epik_Tot_abs_Q>
2

> <r_epik_Metal_State_Penalty>
0.540795

> <b_epik_Metal_Only>
1

> <s_lp_Force_Field>
OPLS_2005

> <r_lp_Energy>
31.3184

> <b_lp_Chiralities_Consistent>
1

> <s_lp_Variant>
AV-unprocessed.smi:1897-9

> <Gold.Version>
5.8.1

> <Gold.Id.Protein>
6NUR|6NUR_protein|mol2

> <Gold.PLP.Fitness>
34.4993

> <Gold.PLP.PLP>
-28.3151

> <Gold.PLP.part.hbond>
-4.0000

> <Gold.PLP.part.metal>
0.0000

> <Gold.PLP.part.buried>
-1.7987

> <Gold.PLP.part.nonpolar>
-21.8946

> <Gold.PLP.part.repulsive>
0.2738

> <Gold.PLP.ligand.clash>
0.0000

> <Gold.PLP.ligand.torsion>
0.2020

> <Gold.PLP.Chemscore.Hbond>
2.1923

> <Gold.PLP.Chemscore.CHOScore>
0.0000

> <Gold.PLP.Chemscore.Metal>
0.0000

> <Gold.Chemscore.Hbonds>
donor molecule, donor type, donor heavy atom, donor atom, acceptor molecule, acceptor atom, score
      L1  H     9    23       P1  7948  1.00
      L1  H    13    38       P1  7957  0.34
      P1  H  6896  6909       L1     3  0.84

> <Gold.PLP.Chemscore.Internal.Correction>
0.0111

> <Gold.Rescore>
     Score         DG    S(hbond)    S(metal)    S(lipo)     H(rot)  DE(clash)    DE(int)     intcor
     14.46     -16.55       1.92        0.00      61.77       1.00       0.19       1.91       ----

> <Gold.Chemscore.Fitness>
14.4572

> <Gold.Chemscore.DG>
-16.5548

> <Gold.Chemscore.ZeroCoef>
-5.4800

> <Gold.Chemscore.Hbond>
1.9185

> <Gold.Chemscore.Metal>
0.0000

> <Gold.Chemscore.Lipo>
61.7686

> <Gold.Chemscore.Internal_Hbond>
0.0000

> <Gold.Chemscore.DEClash>
0.1886

> <Gold.Chemscore.DEInternal>
1.9090

> <Gold.Chemscore.Rot>
1.0000

> <Gold.Chemscore.Internal.Correction>
   9.000000E+99

> <Gold.Chemscore.Hbonds>
donor molecule, donor type, donor heavy atom, donor atom, acceptor molecule, acceptor atom, score
      L1  H     9    23       P1  7948  0.88
      L1  H    13    38       P1  7957  0.35
      P1  H  6896  6909       L1     3  0.19

> <Gold.Chemscore.Hbond.Weighted>
-6.4078

> <Gold.Chemscore.Metal.Weighted>
-0.0000

> <Gold.Chemscore.Lipo.Weighted>
-7.2269

> <Gold.Chemscore.Internal_Hbond.Weighted>
0.0000

> <Gold.Chemscore.DEClash.Weighted>
0.1886

> <Gold.Chemscore.DEInternal.Weighted>
1.9090

> <Gold.Chemscore.Rot.Weighted>
2.5600

> <Gold.Chemscore.Internal.Correction.Weighted>
   9.000000E+99

> <Gold.Protein.RotatedTorsions>
[ 6907 6896 6895 6894 ] final  -74.62 input  -60.11 | X-H torsion
[ 7974 7965 7964 7962 ] final -123.37 input  175.53 | X-H torsion
[ 8008 7997 7996 7995 ] final  119.08 input   59.86 | X-H torsion
[ 10167 10162 10161 10158 ] final  -90.57 input  -65.29 | X-H torsion
[ 10718 10713 10712 10709 ] final  -71.48 input   66.30 | X-H torsion
[ 10763 10752 10751 10750 ] final  167.71 input  -60.55 | X-H torsion
[ 11005 11000 10999 10996 ] final  -62.47 input  -57.11 | X-H torsion

> <Gold.Protein.ActiveResidues>
 VAL166  LYS551  ARG553  GLY616  TRP617  ASP618  TYR619  PRO620  LYS621  CYS622 
 ASP623  PHE694  ASN695  SER759  ASP760  ASP761  ALA762  ILE779  LEU786  VAL792 
 PHE793  MET794  SER795  GLU796  ALA797  LYS798  CYS799  TRP800  GLU811  SER814 

> <Gold.Protein.RotatedAtoms>
  150.7087  134.4842  159.5484 H   0  0  0  0  0  0  0  0  0  0  0  0  # atno 6907 bound_to 6896
  152.2473  134.8165  160.0460 H   0  0  0  0  0  0  0  0  0  0  0  0  # atno 6908 bound_to 6896
  151.8925  133.3484  159.3840 H   0  0  0  0  0  0  0  0  0  0  0  0  # atno 6909 bound_to 6896
  145.0194  140.7975  143.4390 H   0  0  0  0  0  0  0  0  0  0  0  0  # atno 7974 bound_to 7965
  156.2578  140.2861  156.0935 H   0  0  0  0  0  0  0  0  0  0  0  0  # atno 8008 bound_to 7997
  155.1437  140.0396  157.2822 H   0  0  0  0  0  0  0  0  0  0  0  0  # atno 8009 bound_to 7997
  154.6511  140.2545  155.7219 H   0  0  0  0  0  0  0  0  0  0  0  0  # atno 8010 bound_to 7997
  140.3535  143.2878  151.9698 H   0  0  0  0  0  0  0  0  0  0  0  0  # atno 10167 bound_to 10162
  156.0361  130.4352  150.2449 H   0  0  0  0  0  0  0  0  0  0  0  0  # atno 10718 bound_to 10713
  154.3579  135.2753  155.2336 H   0  0  0  0  0  0  0  0  0  0  0  0  # atno 10763 bound_to 10752
  154.4537  135.5924  153.6212 H   0  0  0  0  0  0  0  0  0  0  0  0  # atno 10764 bound_to 10752
  152.9845  135.6048  154.3796 H   0  0  0  0  0  0  0  0  0  0  0  0  # atno 10765 bound_to 10752
  141.1361  133.6640  156.5533 H   0  0  0  0  0  0  0  0  0  0  0  0  # atno 11005 bound_to 11000
  145.1916  139.2298  143.5240 LP  0  0  0  0  0  0  0  0  0  0  0  0  # atno 17320 bound_to 7965
  146.3483  140.1713  142.8589 LP  0  0  0  0  0  0  0  0  0  0  0  0  # atno 17321 bound_to 7965
  139.4823  144.6055  151.7529 LP  0  0  0  0  0  0  0  0  0  0  0  0  # atno 17342 bound_to 10162
  140.5196  144.0900  150.6018 LP  0  0  0  0  0  0  0  0  0  0  0  0  # atno 17343 bound_to 10162
  157.0549  131.0073  151.3242 LP  0  0  0  0  0  0  0  0  0  0  0  0  # atno 17370 bound_to 10713
  157.5113  130.7940  149.7708 LP  0  0  0  0  0  0  0  0  0  0  0  0  # atno 17371 bound_to 10713
  140.4046  134.7326  157.4800 LP  0  0  0  0  0  0  0  0  0  0  0  0  # atno 17394 bound_to 11000
  140.0471  134.6184  155.8908 LP  0  0  0  0  0  0  0  0  0  0  0  0  # atno 17395 bound_to 11000

$$$$
