AV-unprocessed.smi:2605|AV-procd|sdf|10195|dock10
  -GOLD-   2272014203D 1   1.00000     0.00000
 Structure written by MMmdl.
 26 27  0  0  0  0  0  0  0  0  2 V2000
  140.8445  135.8088  153.7092 C   0  0  0  0  0  0  0  0  0  0  0  0
  141.7610  134.8833  153.1706 C   0  0  0  0  0  0  0  0  0  0  0  0
  142.9807  135.3646  152.6495 C   0  0  0  0  0  0  0  0  0  0  0  0
  143.9929  134.4029  152.0468 C   0  0  2  0  0  0  0  0  0  0  0  0
  144.3257  134.7226  150.5708 C   0  0  0  0  0  0  0  0  0  0  0  0
  145.3211  133.7801  150.0678 N   0  0  0  0  0  0  0  0  0  0  0  0
  144.7643  132.4318  150.1206 C   0  0  0  0  0  0  0  0  0  0  0  0
  144.4545  132.0521  151.5808 C   0  0  0  0  0  0  0  0  0  0  0  0
  143.4985  133.0148  152.1641 N   0  3  0  0  0  0  0  0  0  0  0  0
  143.2211  136.7559  152.6853 C   0  0  0  0  0  0  0  0  0  0  0  0
  142.2380  137.5959  153.2462 C   0  0  0  0  0  0  0  0  0  0  0  0
  141.0717  137.1389  153.7489 N   0  0  0  0  0  0  0  0  0  0  0  0
  139.9035  135.4709  154.1173 H   0  0  0  0  0  0  0  0  0  0  0  0
  141.5268  133.8288  153.1629 H   0  0  0  0  0  0  0  0  0  0  0  0
  144.9130  134.4754  152.6301 H   0  0  0  0  0  0  0  0  0  0  0  0
  143.4363  134.6809  149.9410 H   0  0  0  0  0  0  0  0  0  0  0  0
  144.7290  135.7323  150.4888 H   0  0  0  0  0  0  0  0  0  0  0  0
  145.5539  134.0125  149.1119 H   0  0  0  0  0  0  0  0  0  0  0  0
  143.8664  132.3737  149.5036 H   0  0  0  0  0  0  0  0  0  0  0  0
  145.4880  131.7341  149.6986 H   0  0  0  0  0  0  0  0  0  0  0  0
  144.0261  131.0510  151.6303 H   0  0  0  0  0  0  0  0  0  0  0  0
  145.3685  132.0389  152.1764 H   0  0  0  0  0  0  0  0  0  0  0  0
  143.3476  132.7939  153.1379 H   0  0  0  0  0  0  0  0  0  0  0  0
  144.1332  137.1793  152.2918 H   0  0  0  0  0  0  0  0  0  0  0  0
  142.3919  138.6640  153.2885 H   0  0  0  0  0  0  0  0  0  0  0  0
  142.6214  132.9442  151.6685 H   0  0  0  0  0  0  0  0  0  0  0  0
  1 12  1  0  0  0  0
  1  2  2  0  0  0  0
  1 13  1  0  0  0  0
  2  3  1  0  0  0  0
  2 14  1  0  0  0  0
  3  4  1  0  0  0  0
  3 10  2  0  0  0  0
  4  9  1  0  0  0  0
  4  5  1  0  0  0  0
  4 15  1  0  0  0  0
  5  6  1  0  0  0  0
  5 16  1  0  0  0  0
  5 17  1  0  0  0  0
  6  7  1  0  0  0  0
  6 18  1  0  0  0  0
  7  8  1  0  0  0  0
  7 19  1  0  0  0  0
  7 20  1  0  0  0  0
  8  9  1  0  0  0  0
  8 21  1  0  0  0  0
  8 22  1  0  0  0  0
  9 23  1  0  0  0  0
  9 26  1  0  0  0  0
 10 11  1  0  0  0  0
 10 24  1  0  0  0  0
 11 12  2  0  0  0  0
 11 25  1  0  0  0  0
M  CHG  1   9   1
M  END
> <s_m_source_file>
AV-unprocessed.smi

> <i_m_source_file_index>
2605

> <i_lp_mmshare_version>
43012

> <i_f3d_flags>
0

> <s_epik_input>
W2NIXTFbY0hdbltjSF1bY0hdYzFbQ0BASF0yW0NIMl1bTkhdW0NIMl1bQ0gyXVtOSF0y

> <s_epik_cmdline>
J2VwaWtfcHl0aG9uJywgJy1waCcsICc3LjAnLCAnLXRuJywgJzgnLCAnLW1hJywgJzIwMCcsICctbWV0YWxfYmluZGluZycsICctaW1hZScsICc8aW5maWxlLm1hZT4nLCAnLW9tYWUnLCAnPG91dGZpbGUubWFlPic=

> <r_epik_Ionization_Penalty>
0.0246915

> <r_epik_Ionization_Penalty_Charging>
0.015072

> <r_epik_Ionization_Penalty_Neutral>
0.00961942

> <r_epik_State_Penalty>
0.518662

> <r_epik_Charging_Adjusted_Penalty>
0.533734

> <i_epik_Tot_Q>
1

> <i_epik_Tot_abs_Q>
1

> <r_epik_Metal_State_Penalty>
0.520249

> <b_epik_Metal_Only>
0

> <s_lp_Force_Field>
OPLS_2005

> <r_lp_Energy>
7.08803

> <b_lp_Chiralities_Consistent>
1

> <s_lp_Variant>
AV-unprocessed.smi:2605-3

> <Gold.Version>
5.8.1

> <Gold.Id.Protein>
6NUR|6NUR_protein|mol2

> <Gold.PLP.Fitness>
35.9556

> <Gold.PLP.PLP>
-24.2675

> <Gold.PLP.part.hbond>
-2.0000

> <Gold.PLP.part.metal>
0.0000

> <Gold.PLP.part.buried>
-5.3947

> <Gold.PLP.part.nonpolar>
-19.1210

> <Gold.PLP.part.repulsive>
0.1059

> <Gold.PLP.ligand.clash>
0.2594

> <Gold.PLP.ligand.torsion>
0.0060

> <Gold.PLP.Chemscore.Hbond>
2.9825

> <Gold.PLP.Chemscore.CHOScore>
1.0000

> <Gold.PLP.Chemscore.Metal>
0.0000

> <Gold.Chemscore.Hbonds>
donor molecule, donor type, donor heavy atom, donor atom, acceptor molecule, acceptor atom, score
      L1  H     6    18       P1  7921  1.00
      L1  H     9    23       P1 10957  1.95
      L1  C    11    25       P1 10175  1.00

> <Gold.PLP.Chemscore.Internal.Correction>
0.0118

> <Gold.Rescore>
     Score         DG    S(hbond)    S(metal)    S(lipo)     H(rot)  DE(clash)    DE(int)     intcor
     15.19     -15.23       1.76        0.00      54.89       1.00       0.03       0.01       ----

> <Gold.Chemscore.Fitness>
15.1940

> <Gold.Chemscore.DG>
-15.2328

> <Gold.Chemscore.ZeroCoef>
-5.4800

> <Gold.Chemscore.Hbond>
1.7638

> <Gold.Chemscore.Metal>
0.0000

> <Gold.Chemscore.Lipo>
54.8854

> <Gold.Chemscore.Internal_Hbond>
0.0000

> <Gold.Chemscore.DEClash>
0.0306

> <Gold.Chemscore.DEInternal>
0.0082

> <Gold.Chemscore.Rot>
1.0000

> <Gold.Chemscore.Internal.Correction>
   9.000000E+99

> <Gold.Chemscore.Hbonds>
donor molecule, donor type, donor heavy atom, donor atom, acceptor molecule, acceptor atom, score
      L1  H     6    18       P1  7921  0.70
      L1  H     9    23       P1 10957  0.36

> <Gold.Chemscore.Hbond.Weighted>
-5.8912

> <Gold.Chemscore.Metal.Weighted>
-0.0000

> <Gold.Chemscore.Lipo.Weighted>
-6.4216

> <Gold.Chemscore.Internal_Hbond.Weighted>
0.0000

> <Gold.Chemscore.DEClash.Weighted>
0.0306

> <Gold.Chemscore.DEInternal.Weighted>
0.0082

> <Gold.Chemscore.Rot.Weighted>
2.5600

> <Gold.Chemscore.Internal.Correction.Weighted>
   9.000000E+99

> <Gold.Protein.RotatedTorsions>
[ 6907 6896 6895 6894 ] final -176.27 input  -60.11 | X-H torsion
[ 7974 7965 7964 7962 ] final   -1.62 input  175.53 | X-H torsion
[ 8008 7997 7996 7995 ] final  -18.35 input   59.86 | X-H torsion
[ 10167 10162 10161 10158 ] final   -9.45 input  -65.29 | X-H torsion
[ 10718 10713 10712 10709 ] final -136.17 input   66.30 | X-H torsion
[ 10763 10752 10751 10750 ] final   69.95 input  -60.55 | X-H torsion
[ 11005 11000 10999 10996 ] final   -9.70 input  -57.11 | X-H torsion

> <Gold.Protein.ActiveResidues>
 VAL166  LYS551  ARG553  GLY616  TRP617  ASP618  TYR619  PRO620  LYS621  CYS622 
 ASP623  PHE694  ASN695  SER759  ASP760  ASP761  ALA762  ILE779  LEU786  VAL792 
 PHE793  MET794  SER795  GLU796  ALA797  LYS798  CYS799  TRP800  GLU811  SER814 

> <Gold.Protein.RotatedAtoms>
  151.6021  133.3355  159.3049 H   0  0  0  0  0  0  0  0  0  0  0  0  # atno 6907 bound_to 6896
  150.8202  134.7409  159.6777 H   0  0  0  0  0  0  0  0  0  0  0  0  # atno 6908 bound_to 6896
  152.4296  134.5808  159.9999 H   0  0  0  0  0  0  0  0  0  0  0  0  # atno 6909 bound_to 6896
  146.2415  140.1447  142.8335 H   0  0  0  0  0  0  0  0  0  0  0  0  # atno 7974 bound_to 7965
  154.4912  140.2118  155.9544 H   0  0  0  0  0  0  0  0  0  0  0  0  # atno 8008 bound_to 7997
  156.1308  140.3197  155.8315 H   0  0  0  0  0  0  0  0  0  0  0  0  # atno 8009 bound_to 7997
  155.4300  140.0503  157.3010 H   0  0  0  0  0  0  0  0  0  0  0  0  # atno 8010 bound_to 7997
  140.7087  143.5856  150.8946 H   0  0  0  0  0  0  0  0  0  0  0  0  # atno 10167 bound_to 10162
  156.2741  130.7283  151.1259 H   0  0  0  0  0  0  0  0  0  0  0  0  # atno 10718 bound_to 10713
  153.0314  135.5192  154.7366 H   0  0  0  0  0  0  0  0  0  0  0  0  # atno 10763 bound_to 10752
  154.6378  135.2908  155.0142 H   0  0  0  0  0  0  0  0  0  0  0  0  # atno 10764 bound_to 10752
  154.1071  135.6627  153.4931 H   0  0  0  0  0  0  0  0  0  0  0  0  # atno 10765 bound_to 10752
  140.7369  133.8702  155.8937 H   0  0  0  0  0  0  0  0  0  0  0  0  # atno 11005 bound_to 11000
  145.0217  140.8799  143.5163 LP  0  0  0  0  0  0  0  0  0  0  0  0  # atno 17320 bound_to 7965
  145.1497  139.2522  143.5447 LP  0  0  0  0  0  0  0  0  0  0  0  0  # atno 17321 bound_to 7965
  139.9582  143.6194  152.3010 LP  0  0  0  0  0  0  0  0  0  0  0  0  # atno 17342 bound_to 10162
  139.6737  144.7659  151.1736 LP  0  0  0  0  0  0  0  0  0  0  0  0  # atno 17343 bound_to 10162
  157.7293  131.0625  150.5778 LP  0  0  0  0  0  0  0  0  0  0  0  0  # atno 17370 bound_to 10713
  156.5877  130.4321  149.5950 LP  0  0  0  0  0  0  0  0  0  0  0  0  # atno 17371 bound_to 10713
  140.9871  134.1328  157.4442 LP  0  0  0  0  0  0  0  0  0  0  0  0  # atno 17394 bound_to 11000
  139.8814  135.0029  156.6153 LP  0  0  0  0  0  0  0  0  0  0  0  0  # atno 17395 bound_to 11000

$$$$
