AV-unprocessed.smi:1643|AV-procd|sdf|6576|dock5
  -GOLD-   22720 7263D 1   1.00000     0.00000
 Structure written by MMmdl.
 53 55  0  0  0  0  0  0  0  0  1 V2000
  148.9730  133.1647  152.9203 C   0  0  0  0  0  0  0  0  0  0  0  0
  148.1795  133.5409  154.1740 C   0  0  0  0  0  0  0  0  0  0  0  0
  146.9503  133.4906  154.1220 O   0  0  0  0  0  0  0  0  0  0  0  0
  148.8500  133.9170  155.2894 N   0  0  0  0  0  0  0  0  0  0  0  0
  148.1599  134.3474  156.5106 C   0  0  0  0  0  0  0  0  0  0  0  0
  147.9580  135.8715  156.5046 C   0  0  0  0  0  0  0  0  0  0  0  0
  149.2524  136.6922  156.3223 C   0  0  0  0  0  0  0  0  0  0  0  0
  149.8547  136.5615  154.9880 N   0  0  0  0  0  0  0  0  0  0  0  0
  150.5150  137.7928  154.5477 C   0  0  0  0  0  0  0  0  0  0  0  0
  149.7317  139.0932  154.8231 C   0  0  2  0  0  0  0  0  0  0  0  0
  148.8620  139.3347  153.7340 O   0  0  0  0  0  0  0  0  0  0  0  0
  150.6777  140.2978  154.9832 C   0  0  0  0  0  0  0  0  0  0  0  0
  151.4809  140.2124  156.1894 N   0  0  0  0  0  0  0  0  0  0  0  0
  152.3014  139.2088  156.5555 C   0  0  0  0  0  0  0  0  0  0  0  0
  152.9483  139.3429  157.7100 N   0  0  0  0  0  0  0  0  0  0  0  0
  152.4908  140.5752  158.1453 C   0  0  0  0  0  0  0  0  0  0  0  0
  152.7914  141.3050  159.3162 C   0  0  0  0  0  0  0  0  0  0  0  0
  152.1945  142.5626  159.5598 C   0  0  0  0  0  0  0  0  0  0  0  0
  152.5422  143.3109  160.8347 C   0  0  0  0  0  0  0  0  0  0  0  0
  151.2831  143.1106  158.6215 C   0  0  0  0  0  0  0  0  0  0  0  0
  150.6265  144.4583  158.8633 C   0  0  0  0  0  0  0  0  0  0  0  0
  150.9742  142.3962  157.4452 C   0  0  0  0  0  0  0  0  0  0  0  0
  151.5717  141.1444  157.2164 C   0  0  0  0  0  0  0  0  0  0  0  0
  150.8064  135.4422  154.9171 C   0  0  0  0  0  0  0  0  0  0  0  0
  150.3086  134.0521  155.3735 C   0  0  0  0  0  0  0  0  0  0  0  0
  149.6268  133.9803  152.6121 H   0  0  0  0  0  0  0  0  0  0  0  0
  148.2991  132.9494  152.0905 H   0  0  0  0  0  0  0  0  0  0  0  0
  149.5765  132.2745  153.0979 H   0  0  0  0  0  0  0  0  0  0  0  0
  147.1954  133.8478  156.6144 H   0  0  0  0  0  0  0  0  0  0  0  0
  148.7221  134.0533  157.3974 H   0  0  0  0  0  0  0  0  0  0  0  0
  147.2498  136.1431  155.7204 H   0  0  0  0  0  0  0  0  0  0  0  0
  147.4862  136.1619  157.4435 H   0  0  0  0  0  0  0  0  0  0  0  0
  148.9904  137.7302  156.5184 H   0  0  0  0  0  0  0  0  0  0  0  0
  149.9803  136.4371  157.0939 H   0  0  0  0  0  0  0  0  0  0  0  0
  151.4973  137.8528  155.0188 H   0  0  0  0  0  0  0  0  0  0  0  0
  150.7072  137.7447  153.4746 H   0  0  0  0  0  0  0  0  0  0  0  0
  149.1257  139.0051  155.7238 H   0  0  0  0  0  0  0  0  0  0  0  0
  149.3798  139.6068  152.9919 H   0  0  0  0  0  0  0  0  0  0  0  0
  151.3551  140.3606  154.1305 H   0  0  0  0  0  0  0  0  0  0  0  0
  150.1128  141.2312  155.0015 H   0  0  0  0  0  0  0  0  0  0  0  0
  152.4348  138.3329  155.9371 H   0  0  0  0  0  0  0  0  0  0  0  0
  153.4863  140.8876  160.0301 H   0  0  0  0  0  0  0  0  0  0  0  0
  151.6452  143.4975  161.4255 H   0  0  0  0  0  0  0  0  0  0  0  0
  153.0089  144.2680  160.6002 H   0  0  0  0  0  0  0  0  0  0  0  0
  153.2371  142.7426  161.4532 H   0  0  0  0  0  0  0  0  0  0  0  0
  149.9891  144.7459  158.0263 H   0  0  0  0  0  0  0  0  0  0  0  0
  151.3805  145.2355  158.9911 H   0  0  0  0  0  0  0  0  0  0  0  0
  150.0071  144.4242  159.7599 H   0  0  0  0  0  0  0  0  0  0  0  0
  150.2822  142.8011  156.7216 H   0  0  0  0  0  0  0  0  0  0  0  0
  151.1374  135.3462  153.8825 H   0  0  0  0  0  0  0  0  0  0  0  0
  151.7051  135.6880  155.4848 H   0  0  0  0  0  0  0  0  0  0  0  0
  150.6324  133.8938  156.4025 H   0  0  0  0  0  0  0  0  0  0  0  0
  150.8190  133.2669  154.8153 H   0  0  0  0  0  0  0  0  0  0  0  0
  1  2  1  0  0  0  0
  1 26  1  0  0  0  0
  1 27  1  0  0  0  0
  1 28  1  0  0  0  0
  2  3  2  0  0  0  0
  2  4  1  0  0  0  0
  4 25  1  0  0  0  0
  4  5  1  0  0  0  0
  5  6  1  0  0  0  0
  5 29  1  0  0  0  0
  5 30  1  0  0  0  0
  6  7  1  0  0  0  0
  6 31  1  0  0  0  0
  6 32  1  0  0  0  0
  7  8  1  0  0  0  0
  7 33  1  0  0  0  0
  7 34  1  0  0  0  0
  8  9  1  0  0  0  0
  8 24  1  0  0  0  0
  9 10  1  0  0  0  0
  9 35  1  0  0  0  0
  9 36  1  0  0  0  0
 10 11  1  0  0  0  0
 10 12  1  0  0  0  0
 10 37  1  0  0  0  0
 11 38  1  0  0  0  0
 12 13  1  0  0  0  0
 12 39  1  0  0  0  0
 12 40  1  0  0  0  0
 13 23  1  0  0  0  0
 13 14  1  0  0  0  0
 14 15  2  0  0  0  0
 14 41  1  0  0  0  0
 15 16  1  0  0  0  0
 16 23  2  0  0  0  0
 16 17  1  0  0  0  0
 17 18  2  0  0  0  0
 17 42  1  0  0  0  0
 18 19  1  0  0  0  0
 18 20  1  0  0  0  0
 19 43  1  0  0  0  0
 19 44  1  0  0  0  0
 19 45  1  0  0  0  0
 20 21  1  0  0  0  0
 20 22  2  0  0  0  0
 21 46  1  0  0  0  0
 21 47  1  0  0  0  0
 21 48  1  0  0  0  0
 22 23  1  0  0  0  0
 22 49  1  0  0  0  0
 24 25  1  0  0  0  0
 24 50  1  0  0  0  0
 24 51  1  0  0  0  0
 25 52  1  0  0  0  0
 25 53  1  0  0  0  0
M  END
> <s_m_source_file>
AV-unprocessed.smi

> <i_m_source_file_index>
1643

> <i_lp_mmshare_version>
43012

> <i_f3d_flags>
0

> <s_epik_input>
W0NIM11DKD1PKU4xW0NIMl1bQ0gyXVtDSDJdTihbQ0gyXVtDSDJdMSlbQ0gyXVtDQEhdKFtPSF0pW0NIMl1uKFtjSF1uMiljKGMyMylbY0hdYyhbQ0gzXSljKFtjSF0zKVtDSDNd

> <s_epik_cmdline>
J2VwaWtfcHl0aG9uJywgJy1waCcsICc3LjAnLCAnLXRuJywgJzgnLCAnLW1hJywgJzIwMCcsICctbWV0YWxfYmluZGluZycsICctaW1hZScsICc8aW5maWxlLm1hZT4nLCAnLW9tYWUnLCAnPG91dGZpbGUubWFlPic=

> <r_epik_Ionization_Penalty>
1.17666

> <r_epik_Ionization_Penalty_Charging>
0

> <r_epik_Ionization_Penalty_Neutral>
1.17666

> <r_epik_State_Penalty>
1.20405

> <r_epik_Charging_Adjusted_Penalty>
1.20405

> <i_epik_Tot_Q>
0

> <i_epik_Tot_abs_Q>
0

> <r_epik_Metal_State_Penalty>
1.13307

> <b_epik_Metal_Only>
0

> <s_lp_Force_Field>
OPLS_2005

> <r_lp_Energy>
48.9616

> <b_lp_Chiralities_Consistent>
1

> <s_lp_Variant>
AV-unprocessed.smi:1643-5

> <Gold.Version>
5.8.1

> <Gold.Id.Protein>
6NUR|6NUR_protein|mol2

> <Gold.PLP.Fitness>
45.1551

> <Gold.PLP.PLP>
-40.9839

> <Gold.PLP.part.hbond>
-2.0000

> <Gold.PLP.part.metal>
0.0000

> <Gold.PLP.part.buried>
-1.8223

> <Gold.PLP.part.nonpolar>
-36.8013

> <Gold.PLP.part.repulsive>
0.2174

> <Gold.PLP.ligand.clash>
0.0000

> <Gold.PLP.ligand.torsion>
0.4769

> <Gold.PLP.Chemscore.Hbond>
1.7000

> <Gold.PLP.Chemscore.CHOScore>
0.0000

> <Gold.PLP.Chemscore.Metal>
0.0000

> <Gold.Chemscore.Hbonds>
donor molecule, donor type, donor heavy atom, donor atom, acceptor molecule, acceptor atom, score
      L1  H    11    38       P1  7957  1.00
      P1  H  7997  8008       L1    15  0.75

> <Gold.PLP.Chemscore.Internal.Correction>
0.0250

> <Gold.Rescore>
     Score         DG    S(hbond)    S(metal)    S(lipo)     H(rot)  DE(clash)    DE(int)     intcor
     15.82     -17.58       0.97        0.00     120.93       2.07       1.33       0.43       ----

> <Gold.Chemscore.Fitness>
15.8165

> <Gold.Chemscore.DG>
-17.5769

> <Gold.Chemscore.ZeroCoef>
-5.4800

> <Gold.Chemscore.Hbond>
0.9684

> <Gold.Chemscore.Metal>
0.0000

> <Gold.Chemscore.Lipo>
120.9318

> <Gold.Chemscore.Internal_Hbond>
0.0000

> <Gold.Chemscore.DEClash>
1.3259

> <Gold.Chemscore.DEInternal>
0.4346

> <Gold.Chemscore.Rot>
2.0650

> <Gold.Chemscore.Internal.Correction>
   9.000000E+99

> <Gold.Chemscore.Hbonds>
donor molecule, donor type, donor heavy atom, donor atom, acceptor molecule, acceptor atom, score
      L1  H    11    38       P1  7957  0.97
      P1  H  7997  8008       L1    15  0.03

> <Gold.Chemscore.Hbond.Weighted>
-3.2344

> <Gold.Chemscore.Metal.Weighted>
-0.0000

> <Gold.Chemscore.Lipo.Weighted>
-14.1490

> <Gold.Chemscore.Internal_Hbond.Weighted>
0.0000

> <Gold.Chemscore.DEClash.Weighted>
1.3259

> <Gold.Chemscore.DEInternal.Weighted>
0.4346

> <Gold.Chemscore.Rot.Weighted>
5.2865

> <Gold.Chemscore.Internal.Correction.Weighted>
   9.000000E+99

> <Gold.Protein.RotatedTorsions>
[ 6907 6896 6895 6894 ] final  -55.61 input  -60.11 | X-H torsion
[ 7974 7965 7964 7962 ] final -114.01 input  175.53 | X-H torsion
[ 8008 7997 7996 7995 ] final  -95.07 input   59.86 | X-H torsion
[ 10167 10162 10161 10158 ] final  -38.11 input  -65.29 | X-H torsion
[ 10718 10713 10712 10709 ] final -157.37 input   66.30 | X-H torsion
[ 10763 10752 10751 10750 ] final  102.87 input  -60.55 | X-H torsion
[ 11005 11000 10999 10996 ] final   30.81 input  -57.11 | X-H torsion

> <Gold.Protein.ActiveResidues>
 VAL166  LYS551  ARG553  GLY616  TRP617  ASP618  TYR619  PRO620  LYS621  CYS622 
 ASP623  PHE694  ASN695  SER759  ASP760  ASP761  ALA762  ILE779  LEU786  VAL792 
 PHE793  MET794  SER795  GLU796  ALA797  LYS798  CYS799  TRP800  GLU811  SER814 

> <Gold.Protein.RotatedAtoms>
  150.8237  134.7457  159.6794 H   0  0  0  0  0  0  0  0  0  0  0  0  # atno 6907 bound_to 6896
  152.4350  134.5700  159.9928 H   0  0  0  0  0  0  0  0  0  0  0  0  # atno 6908 bound_to 6896
  151.5878  133.3332  159.3057 H   0  0  0  0  0  0  0  0  0  0  0  0  # atno 6909 bound_to 6896
  145.1252  140.8693  143.3790 H   0  0  0  0  0  0  0  0  0  0  0  0  # atno 7974 bound_to 7965
  154.7565  140.0483  157.0938 H   0  0  0  0  0  0  0  0  0  0  0  0  # atno 8008 bound_to 7997
  154.9991  140.3122  155.4855 H   0  0  0  0  0  0  0  0  0  0  0  0  # atno 8009 bound_to 7997
  156.2896  140.2205  156.5100 H   0  0  0  0  0  0  0  0  0  0  0  0  # atno 8010 bound_to 7997
  140.7101  143.3298  151.2594 H   0  0  0  0  0  0  0  0  0  0  0  0  # atno 10167 bound_to 10162
  156.5393  130.8556  151.2743 H   0  0  0  0  0  0  0  0  0  0  0  0  # atno 10718 bound_to 10713
  153.3452  135.3996  155.1603 H   0  0  0  0  0  0  0  0  0  0  0  0  # atno 10763 bound_to 10752
  154.8651  135.3643  154.5293 H   0  0  0  0  0  0  0  0  0  0  0  0  # atno 10764 bound_to 10752
  153.5741  135.7078  153.5551 H   0  0  0  0  0  0  0  0  0  0  0  0  # atno 10765 bound_to 10752
  140.2904  134.2871  155.7777 H   0  0  0  0  0  0  0  0  0  0  0  0  # atno 11005 bound_to 11000
  145.0696  139.3042  143.5839 LP  0  0  0  0  0  0  0  0  0  0  0  0  # atno 17320 bound_to 7965
  146.3518  140.0165  142.8662 LP  0  0  0  0  0  0  0  0  0  0  0  0  # atno 17321 bound_to 7965
  139.6777  143.9908  152.2791 LP  0  0  0  0  0  0  0  0  0  0  0  0  # atno 17342 bound_to 10162
  139.9528  144.6609  150.8155 LP  0  0  0  0  0  0  0  0  0  0  0  0  # atno 17343 bound_to 10162
  157.7408  130.9857  150.2402 LP  0  0  0  0  0  0  0  0  0  0  0  0  # atno 17370 bound_to 10713
  156.2986  130.3755  149.7772 LP  0  0  0  0  0  0  0  0  0  0  0  0  # atno 17371 bound_to 10713
  141.2147  133.7582  156.9616 LP  0  0  0  0  0  0  0  0  0  0  0  0  # atno 17394 bound_to 11000
  140.1200  134.9423  157.2190 LP  0  0  0  0  0  0  0  0  0  0  0  0  # atno 17395 bound_to 11000

$$$$
