AV-unprocessed.smi:2375|AV-procd|sdf|9443|dock7
  -GOLD-   2272013 73D 1   1.00000     0.00000
 Structure written by MMmdl.
 37 38  0  0  0  0  0  0  0  0  1 V2000
  145.4986  145.2173  152.4616 C   0  0  0  0  0  0  0  0  0  0  0  0
  145.9496  144.0571  153.2820 C   0  0  0  0  0  0  0  0  0  0  0  0
  145.6474  143.7875  154.5936 C   0  0  0  0  0  0  0  0  0  0  0  0
  146.2151  142.6047  155.0717 N   0  0  0  0  0  0  0  0  0  0  0  0
  146.9381  141.9727  154.1428 C   0  0  0  0  0  0  0  0  0  0  0  0
  147.6231  140.6586  154.3705 C   0  0  1  0  0  0  0  0  0  0  0  0
  147.2248  139.6073  153.3255 C   0  0  0  0  0  0  0  0  0  0  0  0
  149.1528  140.7941  154.5354 C   0  0  0  0  0  0  0  0  0  0  0  0
  149.5265  141.9564  155.3351 N   0  0  0  0  0  0  0  0  0  0  0  0
  150.1986  141.9171  156.4969 C   0  0  0  0  0  0  0  0  0  0  0  0
  150.6562  140.8835  156.9809 O   0  0  0  0  0  0  0  0  0  0  0  0
  150.3359  143.1102  157.1026 N   0  0  0  0  0  0  0  0  0  0  0  0
  151.0106  143.3996  158.3697 C   0  0  0  0  0  0  0  0  0  0  0  0
  150.1771  144.3502  159.2625 C   0  0  0  0  0  0  0  0  0  0  0  0
  151.1921  145.3338  159.7798 C   0  0  0  0  0  0  0  0  0  0  0  0
  152.3807  145.1912  159.1969 C   0  0  0  0  0  0  0  0  0  0  0  0
  152.3877  144.0863  158.1774 C   0  0  0  0  0  0  0  0  0  0  0  0
  146.9803  142.8250  152.6034 S   0  0  0  0  0  0  0  0  0  0  0  0
  144.9589  145.9428  153.0709 H   0  0  0  0  0  0  0  0  0  0  0  0
  144.8344  144.8881  151.6624 H   0  0  0  0  0  0  0  0  0  0  0  0
  146.3496  145.7254  152.0080 H   0  0  0  0  0  0  0  0  0  0  0  0
  145.0315  144.3763  155.2571 H   0  0  0  0  0  0  0  0  0  0  0  0
  147.2459  140.2888  155.3248 H   0  0  0  0  0  0  0  0  0  0  0  0
  146.1441  139.4634  153.3064 H   0  0  0  0  0  0  0  0  0  0  0  0
  147.6832  138.6430  153.5463 H   0  0  0  0  0  0  0  0  0  0  0  0
  147.5402  139.9041  152.3249 H   0  0  0  0  0  0  0  0  0  0  0  0
  149.5779  139.8833  154.9602 H   0  0  0  0  0  0  0  0  0  0  0  0
  149.6142  140.9201  153.5555 H   0  0  0  0  0  0  0  0  0  0  0  0
  149.1990  142.8543  155.0100 H   0  0  0  0  0  0  0  0  0  0  0  0
  149.9814  143.9121  156.6019 H   0  0  0  0  0  0  0  0  0  0  0  0
  151.1562  142.4718  158.9263 H   0  0  0  0  0  0  0  0  0  0  0  0
  149.4125  144.8885  158.7005 H   0  0  0  0  0  0  0  0  0  0  0  0
  149.6944  143.8175  160.0825 H   0  0  0  0  0  0  0  0  0  0  0  0
  150.9481  146.0771  160.5243 H   0  0  0  0  0  0  0  0  0  0  0  0
  153.2511  145.8003  159.3928 H   0  0  0  0  0  0  0  0  0  0  0  0
  153.2145  143.3963  158.3484 H   0  0  0  0  0  0  0  0  0  0  0  0
  152.4986  144.5243  157.1851 H   0  0  0  0  0  0  0  0  0  0  0  0
  1  2  1  0  0  0  0
  1 19  1  0  0  0  0
  1 20  1  0  0  0  0
  1 21  1  0  0  0  0
  2 18  1  0  0  0  0
  2  3  2  0  0  0  0
  3  4  1  0  0  0  0
  3 22  1  0  0  0  0
  4  5  2  0  0  0  0
  5  6  1  0  0  0  0
  5 18  1  0  0  0  0
  6  7  1  0  0  0  0
  6  8  1  0  0  0  0
  6 23  1  0  0  0  0
  7 24  1  0  0  0  0
  7 25  1  0  0  0  0
  7 26  1  0  0  0  0
  8  9  1  0  0  0  0
  8 27  1  0  0  0  0
  8 28  1  0  0  0  0
  9 10  1  0  0  0  0
  9 29  1  0  0  0  0
 10 11  2  0  0  0  0
 10 12  1  0  0  0  0
 12 13  1  0  0  0  0
 12 30  1  0  0  0  0
 13 17  1  0  0  0  0
 13 14  1  0  0  0  0
 13 31  1  0  0  0  0
 14 15  1  0  0  0  0
 14 32  1  0  0  0  0
 14 33  1  0  0  0  0
 15 16  2  0  0  0  0
 15 34  1  0  0  0  0
 16 17  1  0  0  0  0
 16 35  1  0  0  0  0
 17 36  1  0  0  0  0
 17 37  1  0  0  0  0
M  END
> <s_m_source_file>
AV-unprocessed.smi

> <i_m_source_file_index>
2375

> <i_lp_mmshare_version>
43012

> <i_f3d_flags>
0

> <s_epik_input>
W0NIM11jMVtjSF1uYyhzMSlbQ0BIXShbQ0gzXSlbQ0gyXVtOSF1DKD1PKVtOSF1bQ0hdMltDSDJdW0NIXT1bQ0hdW0NIMl0y

> <s_epik_cmdline>
J2VwaWtfcHl0aG9uJywgJy1waCcsICc3LjAnLCAnLXRuJywgJzgnLCAnLW1hJywgJzIwMCcsICctbWV0YWxfYmluZGluZycsICctaW1hZScsICc8aW5maWxlLm1hZT4nLCAnLW9tYWUnLCAnPG91dGZpbGUubWFlPic=

> <r_epik_Ionization_Penalty>
0.000644205

> <r_epik_Ionization_Penalty_Charging>
0

> <r_epik_Ionization_Penalty_Neutral>
0.000644205

> <r_epik_State_Penalty>
0.000370883

> <r_epik_Charging_Adjusted_Penalty>
0.000370883

> <i_epik_Tot_Q>
0

> <i_epik_Tot_abs_Q>
0

> <r_epik_Metal_State_Penalty>
-0

> <b_epik_Metal_Only>
0

> <s_lp_Force_Field>
OPLS_2005

> <r_lp_Energy>
15.8173

> <b_lp_Chiralities_Consistent>
1

> <s_lp_Variant>
AV-unprocessed.smi:2375-2

> <Gold.Version>
5.8.1

> <Gold.Id.Protein>
6NUR|6NUR_protein|mol2

> <Gold.PLP.Fitness>
46.1267

> <Gold.PLP.PLP>
-41.5610

> <Gold.PLP.part.hbond>
-1.9205

> <Gold.PLP.part.metal>
0.0000

> <Gold.PLP.part.buried>
-6.6130

> <Gold.PLP.part.nonpolar>
-33.0549

> <Gold.PLP.part.repulsive>
0.3810

> <Gold.PLP.ligand.clash>
0.0000

> <Gold.PLP.ligand.torsion>
0.5434

> <Gold.PLP.Chemscore.Hbond>
1.8480

> <Gold.PLP.Chemscore.CHOScore>
0.0000

> <Gold.PLP.Chemscore.Metal>
0.0000

> <Gold.Chemscore.Hbonds>
donor molecule, donor type, donor heavy atom, donor atom, acceptor molecule, acceptor atom, score
      L1  H     9    29       P1  8028  0.83
      L1  H    12    30       P1  8028  1.00

> <Gold.PLP.Chemscore.Internal.Correction>
0.1084

> <Gold.Rescore>
     Score         DG    S(hbond)    S(metal)    S(lipo)     H(rot)  DE(clash)    DE(int)     intcor
     18.47     -20.42       1.80        0.00     109.13       1.50       1.42       0.53       ----

> <Gold.Chemscore.Fitness>
18.4714

> <Gold.Chemscore.DG>
-20.4196

> <Gold.Chemscore.ZeroCoef>
-5.4800

> <Gold.Chemscore.Hbond>
1.8006

> <Gold.Chemscore.Metal>
0.0000

> <Gold.Chemscore.Lipo>
109.1316

> <Gold.Chemscore.Internal_Hbond>
0.0000

> <Gold.Chemscore.DEClash>
1.4163

> <Gold.Chemscore.DEInternal>
0.5318

> <Gold.Chemscore.Rot>
1.5012

> <Gold.Chemscore.Internal.Correction>
   9.000000E+99

> <Gold.Chemscore.Hbonds>
donor molecule, donor type, donor heavy atom, donor atom, acceptor molecule, acceptor atom, score
      L1  H     9    29       P1  8028  0.80
      L1  H    12    30       P1  8028  0.98

> <Gold.Chemscore.Hbond.Weighted>
-6.0142

> <Gold.Chemscore.Metal.Weighted>
-0.0000

> <Gold.Chemscore.Lipo.Weighted>
-12.7684

> <Gold.Chemscore.Internal_Hbond.Weighted>
0.0000

> <Gold.Chemscore.DEClash.Weighted>
1.4163

> <Gold.Chemscore.DEInternal.Weighted>
0.5318

> <Gold.Chemscore.Rot.Weighted>
3.8429

> <Gold.Chemscore.Internal.Correction.Weighted>
   9.000000E+99

> <Gold.Protein.RotatedTorsions>
[ 6907 6896 6895 6894 ] final  159.20 input  -60.11 | X-H torsion
[ 7974 7965 7964 7962 ] final  -71.51 input  175.53 | X-H torsion
[ 8008 7997 7996 7995 ] final  -36.41 input   59.86 | X-H torsion
[ 10167 10162 10161 10158 ] final -173.08 input  -65.29 | X-H torsion
[ 10718 10713 10712 10709 ] final  -58.71 input   66.30 | X-H torsion
[ 10763 10752 10751 10750 ] final -174.08 input  -60.55 | X-H torsion
[ 11005 11000 10999 10996 ] final -107.86 input  -57.11 | X-H torsion

> <Gold.Protein.ActiveResidues>
 VAL166  LYS551  ARG553  GLY616  TRP617  ASP618  TYR619  PRO620  LYS621  CYS622 
 ASP623  PHE694  ASN695  SER759  ASP760  ASP761  ALA762  ILE779  LEU786  VAL792 
 PHE793  MET794  SER795  GLU796  ALA797  LYS798  CYS799  TRP800  GLU811  SER814 

> <Gold.Protein.RotatedAtoms>
  151.9891  133.3784  159.4137 H   0  0  0  0  0  0  0  0  0  0  0  0  # atno 6907 bound_to 6896
  150.6924  134.3956  159.5105 H   0  0  0  0  0  0  0  0  0  0  0  0  # atno 6908 bound_to 6896
  152.1686  134.8852  160.0587 H   0  0  0  0  0  0  0  0  0  0  0  0  # atno 6909 bound_to 6896
  145.6772  140.9200  143.0851 H   0  0  0  0  0  0  0  0  0  0  0  0  # atno 7974 bound_to 7965
  154.4074  140.1631  156.2369 H   0  0  0  0  0  0  0  0  0  0  0  0  # atno 8008 bound_to 7997
  155.9235  140.3419  155.6169 H   0  0  0  0  0  0  0  0  0  0  0  0  # atno 8009 bound_to 7997
  155.7194  140.0766  157.2328 H   0  0  0  0  0  0  0  0  0  0  0  0  # atno 8010 bound_to 7997
  139.5708  144.1646  152.1381 H   0  0  0  0  0  0  0  0  0  0  0  0  # atno 10167 bound_to 10162
  156.1115  130.4174  150.0614 H   0  0  0  0  0  0  0  0  0  0  0  0  # atno 10718 bound_to 10713
  154.6004  135.2854  155.0541 H   0  0  0  0  0  0  0  0  0  0  0  0  # atno 10763 bound_to 10752
  154.1808  135.6457  153.5037 H   0  0  0  0  0  0  0  0  0  0  0  0  # atno 10764 bound_to 10752
  153.0155  135.5423  154.6721 H   0  0  0  0  0  0  0  0  0  0  0  0  # atno 10765 bound_to 10752
  141.0932  133.9018  157.2026 H   0  0  0  0  0  0  0  0  0  0  0  0  # atno 11005 bound_to 11000
  144.7037  139.8649  143.7436 LP  0  0  0  0  0  0  0  0  0  0  0  0  # atno 17320 bound_to 7965
  146.0995  139.3990  143.0355 LP  0  0  0  0  0  0  0  0  0  0  0  0  # atno 17321 bound_to 7965
  140.1179  144.5400  150.6882 LP  0  0  0  0  0  0  0  0  0  0  0  0  # atno 17342 bound_to 10162
  140.6992  143.2424  151.4912 LP  0  0  0  0  0  0  0  0  0  0  0  0  # atno 17343 bound_to 10162
  156.8576  130.9480  151.3620 LP  0  0  0  0  0  0  0  0  0  0  0  0  # atno 17370 bound_to 10713
  157.6296  130.8719  149.9251 LP  0  0  0  0  0  0  0  0  0  0  0  0  # atno 17371 bound_to 10713
  139.9762  135.0113  156.9637 LP  0  0  0  0  0  0  0  0  0  0  0  0  # atno 17394 bound_to 11000
  140.5203  134.0914  155.7290 LP  0  0  0  0  0  0  0  0  0  0  0  0  # atno 17395 bound_to 11000

$$$$
