AV-unprocessed.smi:276|AV-procd|sdf|2077|dock8
  -GOLD-   2262021343D 1   1.00000     0.00000
 Structure written by MMmdl.
 57 61  0  0  0  0  0  0  0  0  1 V2000
  151.8601  141.5293  157.9040 C   0  0  0  0  0  0  0  0  0  0  0  0
  151.7268  140.5302  156.9088 O   0  0  0  0  0  0  0  0  0  0  0  0
  150.4184  140.4776  156.3624 C   0  0  1  0  0  0  0  0  0  0  0  0
  150.1191  141.5660  155.3243 C   0  0  0  0  0  0  0  0  0  0  0  0
  149.3902  140.5012  154.4807 C   0  0  2  0  0  0  0  0  0  0  0  0
  147.9505  140.4712  154.7769 N   0  0  0  0  0  0  0  0  0  0  0  0
  147.1578  141.5654  154.2242 C   0  0  0  0  0  0  0  0  0  0  0  0
  147.3218  139.2939  154.5624 C   0  0  0  0  0  0  0  0  0  0  0  0
  147.0981  138.5113  155.6473 N   0  0  0  0  0  0  0  0  0  0  0  0
  146.4892  137.3301  155.5063 C   0  0  0  0  0  0  0  0  0  0  0  0
  146.0289  136.7557  154.3930 N   0  0  0  0  0  0  0  0  0  0  0  0
  146.2381  137.5479  153.3028 C   0  0  0  0  0  0  0  0  0  0  0  0
  146.8673  138.8248  153.2959 C   0  0  0  0  0  0  0  0  0  0  0  0
  146.8940  139.3302  152.0010 N   0  0  0  0  0  0  0  0  0  0  0  0
  146.3259  138.4007  151.2827 C   0  0  0  0  0  0  0  0  0  0  0  0
  145.9047  137.2946  151.9843 N   0  0  0  0  0  0  0  0  0  0  0  0
  145.2520  136.1188  151.4361 C   0  0  0  0  0  0  0  0  0  0  0  0
  146.0466  134.8270  151.7089 C   0  0  1  0  0  0  0  0  0  0  0  0
  145.8776  134.4511  153.0626 O   0  0  0  0  0  0  0  0  0  0  0  0
  145.5909  133.6632  150.8101 C   0  0  2  0  0  0  0  0  0  0  0  0
  144.1331  133.2424  151.0050 C   0  0  0  0  0  0  0  0  0  0  0  0
  144.1157  131.7911  150.5518 C   0  0  0  0  0  0  0  0  0  0  0  0
  145.5927  131.3879  150.5363 C   0  0  0  0  0  0  0  0  0  0  0  0
  146.2807  132.4698  151.1482 O   0  0  0  0  0  0  0  0  0  0  0  0
  150.2544  139.4492  155.2288 C   0  0  0  0  0  0  0  0  0  0  0  0
  151.5001  138.8668  154.5358 C   0  0  0  0  0  0  0  0  0  0  0  0
  151.3219  137.6096  155.3915 C   0  0  0  0  0  0  0  0  0  0  0  0
  149.8469  137.9940  155.5305 C   0  0  0  0  0  0  0  0  0  0  0  0
  152.8791  141.5270  158.2903 H   0  0  0  0  0  0  0  0  0  0  0  0
  151.1829  141.3448  158.7388 H   0  0  0  0  0  0  0  0  0  0  0  0
  151.6558  142.5220  157.5007 H   0  0  0  0  0  0  0  0  0  0  0  0
  149.6331  140.3800  157.1151 H   0  0  0  0  0  0  0  0  0  0  0  0
  149.5152  142.3899  155.7031 H   0  0  0  0  0  0  0  0  0  0  0  0
  151.0213  141.9359  154.8342 H   0  0  0  0  0  0  0  0  0  0  0  0
  149.6254  140.5890  153.4202 H   0  0  0  0  0  0  0  0  0  0  0  0
  146.0916  141.3329  154.1949 H   0  0  0  0  0  0  0  0  0  0  0  0
  147.4796  141.7974  153.2081 H   0  0  0  0  0  0  0  0  0  0  0  0
  147.2738  142.4624  154.8318 H   0  0  0  0  0  0  0  0  0  0  0  0
  146.3528  136.7639  156.4156 H   0  0  0  0  0  0  0  0  0  0  0  0
  146.2000  138.4954  150.2139 H   0  0  0  0  0  0  0  0  0  0  0  0
  144.2462  136.0467  151.8520 H   0  0  0  0  0  0  0  0  0  0  0  0
  145.1331  136.2696  150.3625 H   0  0  0  0  0  0  0  0  0  0  0  0
  147.1082  135.0163  151.5430 H   0  0  0  0  0  0  0  0  0  0  0  0
  145.8297  133.5082  153.1085 H   0  0  0  0  0  0  0  0  0  0  0  0
  145.7761  133.8938  149.7590 H   0  0  0  0  0  0  0  0  0  0  0  0
  143.8626  133.2970  152.0605 H   0  0  0  0  0  0  0  0  0  0  0  0
  143.4363  133.8692  150.4477 H   0  0  0  0  0  0  0  0  0  0  0  0
  143.5336  131.1749  151.2378 H   0  0  0  0  0  0  0  0  0  0  0  0
  143.6809  131.6898  149.5569 H   0  0  0  0  0  0  0  0  0  0  0  0
  145.7782  130.4552  151.0697 H   0  0  0  0  0  0  0  0  0  0  0  0
  145.9469  131.2700  149.5112 H   0  0  0  0  0  0  0  0  0  0  0  0
  151.3373  138.6751  153.4737 H   0  0  0  0  0  0  0  0  0  0  0  0
  152.4312  139.4088  154.7031 H   0  0  0  0  0  0  0  0  0  0  0  0
  151.5035  136.6702  154.8687 H   0  0  0  0  0  0  0  0  0  0  0  0
  151.8638  137.6607  156.3374 H   0  0  0  0  0  0  0  0  0  0  0  0
  149.4223  137.8300  156.5211 H   0  0  0  0  0  0  0  0  0  0  0  0
  149.2446  137.5275  154.7516 H   0  0  0  0  0  0  0  0  0  0  0  0
  1  2  1  0  0  0  0
  1 29  1  0  0  0  0
  1 30  1  0  0  0  0
  1 31  1  0  0  0  0
  2  3  1  0  0  0  0
  3 25  1  0  0  0  0
  3  4  1  0  0  0  0
  3 32  1  0  0  0  0
  4  5  1  0  0  0  0
  4 33  1  0  0  0  0
  4 34  1  0  0  0  0
  5  6  1  0  0  0  0
  5 25  1  0  0  0  0
  5 35  1  0  0  0  0
  6  7  1  0  0  0  0
  6  8  1  0  0  0  0
  7 36  1  0  0  0  0
  7 37  1  0  0  0  0
  7 38  1  0  0  0  0
  8 13  1  0  0  0  0
  8  9  2  0  0  0  0
  9 10  1  0  0  0  0
 10 11  2  0  0  0  0
 10 39  1  0  0  0  0
 11 12  1  0  0  0  0
 12 16  1  0  0  0  0
 12 13  2  0  0  0  0
 13 14  1  0  0  0  0
 14 15  2  0  0  0  0
 15 16  1  0  0  0  0
 15 40  1  0  0  0  0
 16 17  1  0  0  0  0
 17 18  1  0  0  0  0
 17 41  1  0  0  0  0
 17 42  1  0  0  0  0
 18 19  1  0  0  0  0
 18 20  1  0  0  0  0
 18 43  1  0  0  0  0
 19 44  1  0  0  0  0
 20 24  1  0  0  0  0
 20 21  1  0  0  0  0
 20 45  1  0  0  0  0
 21 22  1  0  0  0  0
 21 46  1  0  0  0  0
 21 47  1  0  0  0  0
 22 23  1  0  0  0  0
 22 48  1  0  0  0  0
 22 49  1  0  0  0  0
 23 24  1  0  0  0  0
 23 50  1  0  0  0  0
 23 51  1  0  0  0  0
 25 28  1  0  0  0  0
 25 26  1  0  0  0  0
 26 27  1  0  0  0  0
 26 52  1  0  0  0  0
 26 53  1  0  0  0  0
 27 28  1  0  0  0  0
 27 54  1  0  0  0  0
 27 55  1  0  0  0  0
 28 56  1  0  0  0  0
 28 57  1  0  0  0  0
M  END
> <s_m_source_file>
AV-unprocessed.smi

> <i_m_source_file_index>
276

> <i_lp_mmshare_version>
43012

> <i_f3d_flags>
0

> <s_epik_input>
W0NIMl0xW0NIMl1bQ0gyXUMxMltDQEhdKE9bQ0gzXSlbQ0gyXVtDQEhdMk4oW0NIM10pYyhuW2NIXW4zKWMoYzM0KW5bY0hdbjRbQ0gyXVtDQEhdKFtPSF0pW0NAQEhdNVtDSDJdW0NIMl1bQ0gyXU81

> <s_epik_cmdline>
J2VwaWtfcHl0aG9uJywgJy1waCcsICc3LjAnLCAnLXRuJywgJzgnLCAnLW1hJywgJzIwMCcsICctbWV0YWxfYmluZGluZycsICctaW1hZScsICc8aW5maWxlLm1hZT4nLCAnLW9tYWUnLCAnPG91dGZpbGUubWFlPic=

> <r_lp_tautomer_probability>
1

> <r_epik_Ionization_Penalty>
0.00204117

> <r_epik_Ionization_Penalty_Charging>
0

> <r_epik_Ionization_Penalty_Neutral>
0.00204117

> <r_epik_State_Penalty>
0.00127401

> <r_epik_Charging_Adjusted_Penalty>
0.00127401

> <i_epik_Tot_Q>
0

> <i_epik_Tot_abs_Q>
0

> <r_epik_Metal_State_Penalty>
-0

> <b_epik_Metal_Only>
0

> <s_lp_Force_Field>
OPLS_2005

> <r_lp_Energy>
57.0409

> <b_lp_Chiralities_Consistent>
1

> <s_lp_Variant>
AV-unprocessed.smi:276-8

> <Gold.Version>
5.8.1

> <Gold.Id.Protein>
6NUR|6NUR_protein|mol2

> <Gold.PLP.Fitness>
42.1137

> <Gold.PLP.PLP>
-41.2782

> <Gold.PLP.part.hbond>
0.0000

> <Gold.PLP.part.metal>
0.0000

> <Gold.PLP.part.buried>
-3.0138

> <Gold.PLP.part.nonpolar>
-39.7230

> <Gold.PLP.part.repulsive>
2.0306

> <Gold.PLP.ligand.clash>
0.0000

> <Gold.PLP.ligand.torsion>
0.7785

> <Gold.PLP.Chemscore.Hbond>
0.0000

> <Gold.PLP.Chemscore.CHOScore>
0.5661

> <Gold.PLP.Chemscore.Metal>
0.0000

> <Gold.Chemscore.Hbonds>
donor molecule, donor type, donor heavy atom, donor atom, acceptor molecule, acceptor atom, score
      L1  C    15    40       P1 10171  0.56

> <Gold.PLP.Chemscore.Internal.Correction>
0.6941

> <Gold.Rescore>
     Score         DG    S(hbond)    S(metal)    S(lipo)     H(rot)  DE(clash)    DE(int)     intcor
      6.57     -11.18       0.04        0.00     106.99       2.72       1.40       3.20       ----

> <Gold.Chemscore.Fitness>
6.5745

> <Gold.Chemscore.DG>
-11.1791

> <Gold.Chemscore.ZeroCoef>
-5.4800

> <Gold.Chemscore.Hbond>
0.0410

> <Gold.Chemscore.Metal>
0.0000

> <Gold.Chemscore.Lipo>
106.9929

> <Gold.Chemscore.Internal_Hbond>
0.0000

> <Gold.Chemscore.DEClash>
1.4034

> <Gold.Chemscore.DEInternal>
3.2012

> <Gold.Chemscore.Rot>
2.7172

> <Gold.Chemscore.Internal.Correction>
   9.000000E+99

> <Gold.Chemscore.Hbond.Weighted>
-0.1369

> <Gold.Chemscore.Metal.Weighted>
-0.0000

> <Gold.Chemscore.Lipo.Weighted>
-12.5182

> <Gold.Chemscore.Internal_Hbond.Weighted>
0.0000

> <Gold.Chemscore.DEClash.Weighted>
1.4034

> <Gold.Chemscore.DEInternal.Weighted>
3.2012

> <Gold.Chemscore.Rot.Weighted>
6.9560

> <Gold.Chemscore.Internal.Correction.Weighted>
   9.000000E+99

> <Gold.Protein.RotatedTorsions>
[ 6907 6896 6895 6894 ] final    3.07 input  -60.11 | X-H torsion
[ 7974 7965 7964 7962 ] final -120.17 input  175.53 | X-H torsion
[ 8008 7997 7996 7995 ] final   77.43 input   59.86 | X-H torsion
[ 10167 10162 10161 10158 ] final    2.12 input  -65.29 | X-H torsion
[ 10718 10713 10712 10709 ] final  -85.35 input   66.30 | X-H torsion
[ 10763 10752 10751 10750 ] final  -67.48 input  -60.55 | X-H torsion
[ 11005 11000 10999 10996 ] final  131.54 input  -57.11 | X-H torsion

> <Gold.Protein.ActiveResidues>
 VAL166  LYS551  ARG553  GLY616  TRP617  ASP618  TYR619  PRO620  LYS621  CYS622 
 ASP623  PHE694  ASN695  SER759  ASP760  ASP761  ALA762  ILE779  LEU786  VAL792 
 PHE793  MET794  SER795  GLU796  ALA797  LYS798  CYS799  TRP800  GLU811  SER814 

> <Gold.Protein.RotatedAtoms>
  151.6192  135.1033  160.0097 H   0  0  0  0  0  0  0  0  0  0  0  0  # atno 6907 bound_to 6896
  152.4167  133.7045  159.6454 H   0  0  0  0  0  0  0  0  0  0  0  0  # atno 6908 bound_to 6896
  150.8055  133.8444  159.3229 H   0  0  0  0  0  0  0  0  0  0  0  0  # atno 6909 bound_to 6896
  145.0544  140.8243  143.4190 H   0  0  0  0  0  0  0  0  0  0  0  0  # atno 7974 bound_to 7965
  155.8415  140.3462  155.5635 H   0  0  0  0  0  0  0  0  0  0  0  0  # atno 8008 bound_to 7997
  155.8135  140.0902  157.1910 H   0  0  0  0  0  0  0  0  0  0  0  0  # atno 8009 bound_to 7997
  154.4005  140.1443  156.3403 H   0  0  0  0  0  0  0  0  0  0  0  0  # atno 8010 bound_to 7997
  140.6650  143.7202  150.7811 H   0  0  0  0  0  0  0  0  0  0  0  0  # atno 10167 bound_to 10162
  155.9997  130.4728  150.4549 H   0  0  0  0  0  0  0  0  0  0  0  0  # atno 10718 bound_to 10713
  154.3750  135.6087  153.5760 H   0  0  0  0  0  0  0  0  0  0  0  0  # atno 10763 bound_to 10752
  152.9789  135.5847  154.4477 H   0  0  0  0  0  0  0  0  0  0  0  0  # atno 10764 bound_to 10752
  154.4237  135.2846  155.1936 H   0  0  0  0  0  0  0  0  0  0  0  0  # atno 10765 bound_to 10752
  139.9736  134.9570  156.9452 H   0  0  0  0  0  0  0  0  0  0  0  0  # atno 11005 bound_to 11000
  145.1487  139.2527  143.5452 LP  0  0  0  0  0  0  0  0  0  0  0  0  # atno 17320 bound_to 7965
  146.3520  140.1184  142.8601 LP  0  0  0  0  0  0  0  0  0  0  0  0  # atno 17321 bound_to 7965
  140.0878  143.4907  152.2495 LP  0  0  0  0  0  0  0  0  0  0  0  0  # atno 17342 bound_to 10162
  139.5896  144.7545  151.3433 LP  0  0  0  0  0  0  0  0  0  0  0  0  # atno 17343 bound_to 10162
  157.2579  131.0560  151.2339 LP  0  0  0  0  0  0  0  0  0  0  0  0  # atno 17370 bound_to 10713
  157.3464  130.7059  149.6413 LP  0  0  0  0  0  0  0  0  0  0  0  0  # atno 17371 bound_to 10713
  140.5241  134.0878  155.7299 LP  0  0  0  0  0  0  0  0  0  0  0  0  # atno 17394 bound_to 11000
  141.1414  133.9131  157.2316 LP  0  0  0  0  0  0  0  0  0  0  0  0  # atno 17395 bound_to 11000

$$$$
