AV-unprocessed.smi:1802|AV-procd|sdf|7276|dock1
  -GOLD-   22720 8533D 1   1.00000     0.00000
 Structure written by MMmdl.
 40 41  0  0  0  0  0  0  0  0  3 V2000
  154.3782  141.4946  159.6955 C   0  0  0  0  0  0  0  0  0  0  0  0
  152.8810  141.4748  160.0510 C   0  0  1  0  0  0  0  0  0  0  0  0
  152.2983  142.8840  160.2657 C   0  0  0  0  0  0  0  0  0  0  0  0
  152.1228  143.6232  158.9318 C   0  0  0  0  0  0  0  0  0  0  0  0
  151.3068  142.7819  157.9372 C   0  0  0  0  0  0  0  0  0  0  0  0
  151.9238  141.4464  157.7309 N   0  3  2  0  0  0  0  0  0  0  0  0
  151.2426  140.6722  156.6629 C   0  0  0  0  0  0  0  0  0  0  0  0
  149.9986  139.9323  157.1801 C   0  0  0  0  0  0  0  0  0  0  0  0
  150.3307  138.5233  157.6976 C   0  0  0  0  0  0  0  0  0  0  0  0
  149.4815  138.1544  158.8246 N   0  0  0  0  0  0  0  0  0  0  0  0
  149.4180  136.9406  159.3911 C   0  0  0  0  0  0  0  0  0  0  0  0
  150.1267  136.0256  158.9647 O   0  0  0  0  0  0  0  0  0  0  0  0
  148.5332  136.8603  160.4100 N   0  5  0  0  0  0  0  0  0  0  0  0
  148.2904  135.6751  160.9940 C   0  0  0  0  0  0  0  0  0  0  0  0
  148.2066  134.5323  160.2943 N   0  0  0  0  0  0  0  0  0  0  0  0
  147.9491  133.4233  161.0889 N   0  0  0  0  0  0  0  0  0  0  0  0
  147.8546  133.7587  162.3754 C   0  0  0  0  0  0  0  0  0  0  0  0
  148.0747  135.4585  162.7333 S   0  0  0  0  0  0  0  0  0  0  0  0
  152.0469  140.6977  159.0119 C   0  0  0  0  0  0  0  0  0  0  0  0
  154.5655  141.9913  158.7435 H   0  0  0  0  0  0  0  0  0  0  0  0
  154.7747  140.4817  159.6196 H   0  0  0  0  0  0  0  0  0  0  0  0
  154.9555  142.0143  160.4604 H   0  0  0  0  0  0  0  0  0  0  0  0
  152.7986  140.9423  160.9994 H   0  0  0  0  0  0  0  0  0  0  0  0
  151.3272  142.7995  160.7553 H   0  0  0  0  0  0  0  0  0  0  0  0
  152.9304  143.4629  160.9401 H   0  0  0  0  0  0  0  0  0  0  0  0
  151.6277  144.5799  159.1020 H   0  0  0  0  0  0  0  0  0  0  0  0
  153.0978  143.8575  158.5033 H   0  0  0  0  0  0  0  0  0  0  0  0
  150.2835  142.6598  158.2957 H   0  0  0  0  0  0  0  0  0  0  0  0
  151.2488  143.3147  156.9872 H   0  0  0  0  0  0  0  0  0  0  0  0
  150.9857  141.3312  155.8321 H   0  0  0  0  0  0  0  0  0  0  0  0
  151.9323  139.9271  156.2637 H   0  0  0  0  0  0  0  0  0  0  0  0
  149.5360  140.5115  157.9804 H   0  0  0  0  0  0  0  0  0  0  0  0
  149.2539  139.8530  156.3889 H   0  0  0  0  0  0  0  0  0  0  0  0
  150.2302  137.7861  156.8993 H   0  0  0  0  0  0  0  0  0  0  0  0
  151.3685  138.4821  158.0291 H   0  0  0  0  0  0  0  0  0  0  0  0
  148.8890  138.8763  159.2086 H   0  0  0  0  0  0  0  0  0  0  0  0
  147.6570  133.0006  163.1183 H   0  0  0  0  0  0  0  0  0  0  0  0
  152.5024  139.7219  158.8480 H   0  0  0  0  0  0  0  0  0  0  0  0
  151.0483  140.5074  159.4087 H   0  0  0  0  0  0  0  0  0  0  0  0
  152.8624  141.6187  157.4000 H   0  0  0  0  0  0  0  0  0  0  0  0
  1  2  1  0  0  0  0
  1 20  1  0  0  0  0
  1 21  1  0  0  0  0
  1 22  1  0  0  0  0
  2 19  1  0  0  0  0
  2  3  1  0  0  0  0
  2 23  1  0  0  0  0
  3  4  1  0  0  0  0
  3 24  1  0  0  0  0
  3 25  1  0  0  0  0
  4  5  1  0  0  0  0
  4 26  1  0  0  0  0
  4 27  1  0  0  0  0
  5  6  1  0  0  0  0
  5 28  1  0  0  0  0
  5 29  1  0  0  0  0
  6  7  1  0  0  0  0
  6 19  1  0  0  0  0
  6 40  1  0  0  0  0
  7  8  1  0  0  0  0
  7 30  1  0  0  0  0
  7 31  1  0  0  0  0
  8  9  1  0  0  0  0
  8 32  1  0  0  0  0
  8 33  1  0  0  0  0
  9 10  1  0  0  0  0
  9 34  1  0  0  0  0
  9 35  1  0  0  0  0
 10 11  1  0  0  0  0
 10 36  1  0  0  0  0
 11 12  2  0  0  0  0
 11 13  1  0  0  0  0
 13 14  1  0  0  0  0
 14 18  1  0  0  0  0
 14 15  2  0  0  0  0
 15 16  1  0  0  0  0
 16 17  2  0  0  0  0
 17 18  1  0  0  0  0
 17 37  1  0  0  0  0
 19 38  1  0  0  0  0
 19 39  1  0  0  0  0
M  CHG  1   6   1
M  CHG  1  13  -1
M  END
> <s_m_source_file>
AV-unprocessed.smi

> <i_m_source_file_index>
1802

> <i_lp_mmshare_version>
43012

> <i_f3d_flags>
0

> <s_epik_input>
W0NIM11bQ0BASF0xW0NIMl1bQ0gyXVtDSDJdTihbQ0gyXTEpW0NIMl1bQ0gyXVtDSDJdW05IXUMoPU8pW05IXWMybm5bY0hdczI=

> <s_epik_cmdline>
J2VwaWtfcHl0aG9uJywgJy1waCcsICc3LjAnLCAnLXRuJywgJzgnLCAnLW1hJywgJzIwMCcsICctbWV0YWxfYmluZGluZycsICctaW1hZScsICc8aW5maWxlLm1hZT4nLCAnLW9tYWUnLCAnPG91dGZpbGUubWFlPic=

> <r_lp_tautomer_probability>
1

> <r_epik_Ionization_Penalty>
3.29702

> <r_epik_Ionization_Penalty_Charging>
3.26059

> <r_epik_Ionization_Penalty_Neutral>
0.0364294

> <r_epik_State_Penalty>
3.25788

> <r_epik_Charging_Adjusted_Penalty>
6.51847

> <i_epik_Tot_Q>
0

> <i_epik_Tot_abs_Q>
2

> <r_epik_Metal_State_Penalty>
0.477639

> <b_epik_Metal_Only>
1

> <s_lp_Force_Field>
OPLS_2005

> <r_lp_Energy>
11.8287

> <b_lp_Chiralities_Consistent>
1

> <s_lp_Variant>
AV-unprocessed.smi:1802-6

> <Gold.Version>
5.8.1

> <Gold.Id.Protein>
6NUR|6NUR_protein|mol2

> <Gold.PLP.Fitness>
48.6411

> <Gold.PLP.PLP>
-38.9558

> <Gold.PLP.part.hbond>
-3.0000

> <Gold.PLP.part.metal>
0.0000

> <Gold.PLP.part.buried>
-4.3662

> <Gold.PLP.part.nonpolar>
-32.2918

> <Gold.PLP.part.repulsive>
0.3045

> <Gold.PLP.ligand.clash>
0.0000

> <Gold.PLP.ligand.torsion>
0.9447

> <Gold.PLP.Chemscore.Hbond>
3.7824

> <Gold.PLP.Chemscore.CHOScore>
0.0000

> <Gold.PLP.Chemscore.Metal>
0.0000

> <Gold.Chemscore.Hbonds>
donor molecule, donor type, donor heavy atom, donor atom, acceptor molecule, acceptor atom, score
      P1  H  6896  6909       L1    12  1.00
      P1  H  6931  6943       L1    13  1.38

> <Gold.PLP.Chemscore.Internal.Correction>
0.2274

> <Gold.Rescore>
     Score         DG    S(hbond)    S(metal)    S(lipo)     H(rot)  DE(clash)    DE(int)     intcor
     14.57     -17.37       1.79        0.00      92.86       1.94       0.46       2.34       ----

> <Gold.Chemscore.Fitness>
14.5715

> <Gold.Chemscore.DG>
-17.3745

> <Gold.Chemscore.ZeroCoef>
-5.4800

> <Gold.Chemscore.Hbond>
1.7941

> <Gold.Chemscore.Metal>
0.0000

> <Gold.Chemscore.Lipo>
92.8568

> <Gold.Chemscore.Internal_Hbond>
0.0000

> <Gold.Chemscore.DEClash>
0.4585

> <Gold.Chemscore.DEInternal>
2.3445

> <Gold.Chemscore.Rot>
1.9383

> <Gold.Chemscore.Internal.Correction>
   9.000000E+99

> <Gold.Chemscore.Hbonds>
donor molecule, donor type, donor heavy atom, donor atom, acceptor molecule, acceptor atom, score
      P1  H  6896  6909       L1    12  0.94
      P1  H  6931  6943       L1    13  0.33

> <Gold.Chemscore.Hbond.Weighted>
-5.9923

> <Gold.Chemscore.Metal.Weighted>
-0.0000

> <Gold.Chemscore.Lipo.Weighted>
-10.8642

> <Gold.Chemscore.Internal_Hbond.Weighted>
0.0000

> <Gold.Chemscore.DEClash.Weighted>
0.4585

> <Gold.Chemscore.DEInternal.Weighted>
2.3445

> <Gold.Chemscore.Rot.Weighted>
4.9620

> <Gold.Chemscore.Internal.Correction.Weighted>
   9.000000E+99

> <Gold.Protein.RotatedTorsions>
[ 6907 6896 6895 6894 ] final   75.81 input  -60.11 | X-H torsion
[ 7974 7965 7964 7962 ] final   77.85 input  175.53 | X-H torsion
[ 8008 7997 7996 7995 ] final  115.82 input   59.86 | X-H torsion
[ 10167 10162 10161 10158 ] final   -3.41 input  -65.29 | X-H torsion
[ 10718 10713 10712 10709 ] final  -76.26 input   66.30 | X-H torsion
[ 10763 10752 10751 10750 ] final -158.08 input  -60.55 | X-H torsion
[ 11005 11000 10999 10996 ] final   38.06 input  -57.11 | X-H torsion

> <Gold.Protein.ActiveResidues>
 VAL166  LYS551  ARG553  GLY616  TRP617  ASP618  TYR619  PRO620  LYS621  CYS622 
 ASP623  PHE694  ASN695  SER759  ASP760  ASP761  ALA762  ILE779  LEU786  VAL792 
 PHE793  MET794  SER795  GLU796  ALA797  LYS798  CYS799  TRP800  GLU811  SER814 

> <Gold.Protein.RotatedAtoms>
  152.5044  134.4064  159.9433 H   0  0  0  0  0  0  0  0  0  0  0  0  # atno 6907 bound_to 6896
  151.4030  133.3745  159.2742 H   0  0  0  0  0  0  0  0  0  0  0  0  # atno 6908 bound_to 6896
  150.9348  134.8782  159.7633 H   0  0  0  0  0  0  0  0  0  0  0  0  # atno 6909 bound_to 6896
  145.6847  139.2534  143.1794 H   0  0  0  0  0  0  0  0  0  0  0  0  # atno 7974 bound_to 7965
  156.2403  140.2930  156.0427 H   0  0  0  0  0  0  0  0  0  0  0  0  # atno 8008 bound_to 7997
  155.1969  140.0408  157.2928 H   0  0  0  0  0  0  0  0  0  0  0  0  # atno 8009 bound_to 7997
  154.6156  140.2463  155.7620 H   0  0  0  0  0  0  0  0  0  0  0  0  # atno 8010 bound_to 7997
  140.6889  143.6543  150.8323 H   0  0  0  0  0  0  0  0  0  0  0  0  # atno 10167 bound_to 10162
  156.0180  130.4461  150.3167 H   0  0  0  0  0  0  0  0  0  0  0  0  # atno 10718 bound_to 10713
  154.7585  135.3111  154.8424 H   0  0  0  0  0  0  0  0  0  0  0  0  # atno 10763 bound_to 10752
  153.9191  135.6797  153.4752 H   0  0  0  0  0  0  0  0  0  0  0  0  # atno 10764 bound_to 10752
  153.1184  135.4834  154.9085 H   0  0  0  0  0  0  0  0  0  0  0  0  # atno 10765 bound_to 10752
  140.2163  134.3694  155.8025 H   0  0  0  0  0  0  0  0  0  0  0  0  # atno 11005 bound_to 11000
  146.0934  140.7629  142.9584 LP  0  0  0  0  0  0  0  0  0  0  0  0  # atno 17320 bound_to 7965
  144.7015  140.3673  143.7152 LP  0  0  0  0  0  0  0  0  0  0  0  0  # atno 17321 bound_to 7965
  140.0253  143.5500  152.2783 LP  0  0  0  0  0  0  0  0  0  0  0  0  # atno 17342 bound_to 10162
  139.6273  144.7639  151.2612 LP  0  0  0  0  0  0  0  0  0  0  0  0  # atno 17343 bound_to 10162
  157.1268  131.0261  151.2986 LP  0  0  0  0  0  0  0  0  0  0  0  0  # atno 17370 bound_to 10713
  157.4583  130.7638  149.7213 LP  0  0  0  0  0  0  0  0  0  0  0  0  # atno 17371 bound_to 10713
  141.2225  133.7170  156.8502 LP  0  0  0  0  0  0  0  0  0  0  0  0  # atno 17394 bound_to 11000
  140.1897  134.8974  157.3046 LP  0  0  0  0  0  0  0  0  0  0  0  0  # atno 17395 bound_to 11000

$$$$
