AV-unprocessed.smi:3031|AV-procd|sdf|11551|dock9
  -GOLD-   2272016513D 1   1.00000     0.00000
 Structure written by MMmdl.
 48 49  0  0  0  0  0  0  0  0  3 V2000
  151.5660  142.4092  158.9354 C   0  0  0  0  0  0  0  0  0  0  0  0
  151.3604  141.5633  157.7117 C   0  0  0  0  0  0  0  0  0  0  0  0
  152.1232  140.4366  157.2944 C   0  0  0  0  0  0  0  0  0  0  0  0
  151.6864  139.9129  156.1611 N   0  0  0  0  0  0  0  0  0  0  0  0
  150.6252  140.6767  155.8187 N   0  0  0  0  0  0  0  0  0  0  0  0
  149.8954  140.4153  154.5864 C   0  0  0  0  0  0  0  0  0  0  0  0
  149.4070  138.9569  154.4565 C   0  0  2  0  0  0  0  0  0  0  0  0
  150.5798  137.9697  154.5600 C   0  0  0  0  0  0  0  0  0  0  0  0
  148.6825  138.7746  153.1787 N   0  3  0  0  0  0  0  0  0  0  0  0
  147.3517  139.4144  153.1189 C   0  0  0  0  0  0  0  0  0  0  0  0
  146.4547  138.7375  152.0662 C   0  0  1  0  0  0  0  0  0  0  0  0
  147.2930  138.0956  151.1268 O   0  0  0  0  0  0  0  0  0  0  0  0
  145.5212  137.6672  152.6720 C   0  0  0  0  0  0  0  0  0  0  0  0
  145.9133  136.2778  152.3173 N   0  3  0  0  0  0  0  0  0  0  0  0
  145.7762  135.3135  153.4377 C   0  0  0  0  0  0  0  0  0  0  0  0
  146.2264  133.9093  152.9994 C   0  0  0  0  0  0  0  0  0  0  0  0
  145.4720  133.4969  151.8671 O   0  0  0  0  0  0  0  0  0  0  0  0
  145.6666  134.3614  150.7555 C   0  0  0  0  0  0  0  0  0  0  0  0
  145.1967  135.7805  151.1181 C   0  0  0  0  0  0  0  0  0  0  0  0
  150.4166  141.6890  156.7317 C   0  0  0  0  0  0  0  0  0  0  0  0
  152.6055  142.7212  159.0374 H   0  0  0  0  0  0  0  0  0  0  0  0
  151.3009  141.8708  159.8453 H   0  0  0  0  0  0  0  0  0  0  0  0
  150.9609  143.3158  158.9097 H   0  0  0  0  0  0  0  0  0  0  0  0
  152.9794  139.9890  157.7778 H   0  0  0  0  0  0  0  0  0  0  0  0
  149.0479  141.1010  154.5363 H   0  0  0  0  0  0  0  0  0  0  0  0
  150.5504  140.6682  153.7516 H   0  0  0  0  0  0  0  0  0  0  0  0
  148.7224  138.7540  155.2817 H   0  0  0  0  0  0  0  0  0  0  0  0
  151.1154  138.0982  155.5011 H   0  0  0  0  0  0  0  0  0  0  0  0
  151.2955  138.1160  153.7503 H   0  0  0  0  0  0  0  0  0  0  0  0
  150.2394  136.9349  154.5201 H   0  0  0  0  0  0  0  0  0  0  0  0
  149.2461  139.1903  152.4508 H   0  0  0  0  0  0  0  0  0  0  0  0
  146.8760  139.3931  154.1002 H   0  0  0  0  0  0  0  0  0  0  0  0
  147.4957  140.4635  152.8578 H   0  0  0  0  0  0  0  0  0  0  0  0
  145.8752  139.4873  151.5282 H   0  0  0  0  0  0  0  0  0  0  0  0
  147.6680  137.3249  151.5269 H   0  0  0  0  0  0  0  0  0  0  0  0
  145.4887  137.7571  153.7592 H   0  0  0  0  0  0  0  0  0  0  0  0
  144.5052  137.8573  152.3214 H   0  0  0  0  0  0  0  0  0  0  0  0
  146.3744  135.6280  154.2919 H   0  0  0  0  0  0  0  0  0  0  0  0
  144.7370  135.2824  153.7690 H   0  0  0  0  0  0  0  0  0  0  0  0
  147.2925  133.8967  152.7667 H   0  0  0  0  0  0  0  0  0  0  0  0
  146.0686  133.1950  153.8076 H   0  0  0  0  0  0  0  0  0  0  0  0
  146.7162  134.3618  150.4573 H   0  0  0  0  0  0  0  0  0  0  0  0
  145.0949  133.9810  149.9085 H   0  0  0  0  0  0  0  0  0  0  0  0
  144.1219  135.7804  151.3068 H   0  0  0  0  0  0  0  0  0  0  0  0
  145.3744  136.4497  150.2752 H   0  0  0  0  0  0  0  0  0  0  0  0
  149.6214  142.4103  156.6104 H   0  0  0  0  0  0  0  0  0  0  0  0
  148.5914  137.7868  152.9875 H   0  0  0  0  0  0  0  0  0  0  0  0
  146.8913  136.3035  152.0666 H   0  0  0  0  0  0  0  0  0  0  0  0
  1  2  1  0  0  0  0
  1 21  1  0  0  0  0
  1 22  1  0  0  0  0
  1 23  1  0  0  0  0
  2 20  2  0  0  0  0
  2  3  1  0  0  0  0
  3  4  2  0  0  0  0
  3 24  1  0  0  0  0
  4  5  1  0  0  0  0
  5  6  1  0  0  0  0
  5 20  1  0  0  0  0
  6  7  1  0  0  0  0
  6 25  1  0  0  0  0
  6 26  1  0  0  0  0
  7  8  1  0  0  0  0
  7  9  1  0  0  0  0
  7 27  1  0  0  0  0
  8 28  1  0  0  0  0
  8 29  1  0  0  0  0
  8 30  1  0  0  0  0
  9 10  1  0  0  0  0
  9 31  1  0  0  0  0
  9 47  1  0  0  0  0
 10 11  1  0  0  0  0
 10 32  1  0  0  0  0
 10 33  1  0  0  0  0
 11 12  1  0  0  0  0
 11 13  1  0  0  0  0
 11 34  1  0  0  0  0
 12 35  1  0  0  0  0
 13 14  1  0  0  0  0
 13 36  1  0  0  0  0
 13 37  1  0  0  0  0
 14 19  1  0  0  0  0
 14 15  1  0  0  0  0
 14 48  1  0  0  0  0
 15 16  1  0  0  0  0
 15 38  1  0  0  0  0
 15 39  1  0  0  0  0
 16 17  1  0  0  0  0
 16 40  1  0  0  0  0
 16 41  1  0  0  0  0
 17 18  1  0  0  0  0
 18 19  1  0  0  0  0
 18 42  1  0  0  0  0
 18 43  1  0  0  0  0
 19 44  1  0  0  0  0
 19 45  1  0  0  0  0
 20 46  1  0  0  0  0
M  CHG  1   9   1
M  CHG  1  14   1
M  END
> <s_m_source_file>
AV-unprocessed.smi

> <i_m_source_file_index>
3031

> <i_lp_mmshare_version>
43012

> <i_f3d_flags>
0

> <s_epik_input>
W0NIM11jMVtjSF1ubihbY0hdMSlbQ0gyXVtDQEhdKFtDSDNdKVtOSF1bQ0gyXVtDQEhdKFtPSF0pW0NIMl1OMltDSDJdW0NIMl1PW0NIMl1bQ0gyXTI=

> <s_epik_cmdline>
J2VwaWtfcHl0aG9uJywgJy1waCcsICc3LjAnLCAnLXRuJywgJzgnLCAnLW1hJywgJzIwMCcsICctbWV0YWxfYmluZGluZycsICctaW1hZScsICc8aW5maWxlLm1hZT4nLCAnLW9tYWUnLCAnPG91dGZpbGUubWFlPic=

> <r_lp_tautomer_probability>
1

> <r_epik_Ionization_Penalty>
1.76542

> <r_epik_Ionization_Penalty_Charging>
1.76348

> <r_epik_Ionization_Penalty_Neutral>
0.00194017

> <r_epik_State_Penalty>
1.49348

> <r_epik_Charging_Adjusted_Penalty>
3.25696

> <i_epik_Tot_Q>
2

> <i_epik_Tot_abs_Q>
2

> <r_epik_Metal_State_Penalty>
1.49349

> <b_epik_Metal_Only>
0

> <s_lp_Force_Field>
OPLS_2005

> <r_lp_Energy>
28.4562

> <b_lp_Chiralities_Consistent>
1

> <s_lp_Variant>
AV-unprocessed.smi:3031-11

> <Gold.Version>
5.8.1

> <Gold.Id.Protein>
6NUR|6NUR_protein|mol2

> <Gold.PLP.Fitness>
58.2348

> <Gold.PLP.PLP>
-39.3222

> <Gold.PLP.part.hbond>
-5.7259

> <Gold.PLP.part.metal>
0.0000

> <Gold.PLP.part.buried>
-3.4759

> <Gold.PLP.part.nonpolar>
-30.0837

> <Gold.PLP.part.repulsive>
0.2192

> <Gold.PLP.ligand.clash>
0.0000

> <Gold.PLP.ligand.torsion>
1.9652

> <Gold.PLP.Chemscore.Hbond>
6.5655

> <Gold.PLP.Chemscore.CHOScore>
1.0000

> <Gold.PLP.Chemscore.Metal>
0.0000

> <Gold.Chemscore.Hbonds>
donor molecule, donor type, donor heavy atom, donor atom, acceptor molecule, acceptor atom, score
      L1  H     9    31       P1  7957  1.00
      L1  H     9    47       P1  7948  1.98
      L1  H    12    35       P1  7948  1.00
      L1  H    14    48       P1  7948  1.89
      P1  H  7954  7966       L1    12  0.50
      L1  C    20    46       P1  8028  0.82

> <Gold.PLP.Chemscore.Internal.Correction>
0.1465

> <Gold.Rescore>
     Score         DG    S(hbond)    S(metal)    S(lipo)     H(rot)  DE(clash)    DE(int)     intcor
     18.27     -22.20       4.08        0.00      86.44       2.74       0.36       3.57       ----

> <Gold.Chemscore.Fitness>
18.2681

> <Gold.Chemscore.DG>
-22.2026

> <Gold.Chemscore.ZeroCoef>
-5.4800

> <Gold.Chemscore.Hbond>
4.0816

> <Gold.Chemscore.Metal>
0.0000

> <Gold.Chemscore.Lipo>
86.4382

> <Gold.Chemscore.Internal_Hbond>
0.0000

> <Gold.Chemscore.DEClash>
0.3597

> <Gold.Chemscore.DEInternal>
3.5748

> <Gold.Chemscore.Rot>
2.7434

> <Gold.Chemscore.Internal.Correction>
   9.000000E+99

> <Gold.Chemscore.Hbonds>
donor molecule, donor type, donor heavy atom, donor atom, acceptor molecule, acceptor atom, score
      L1  H     9    31       P1  7957  0.96
      L1  H     9    47       P1  7948  0.93
      L1  H    12    35       P1  7948  0.96
      L1  H    14    48       P1  7948  0.90
      P1  H  7954  7966       L1    12  0.02

> <Gold.Chemscore.Hbond.Weighted>
-13.6324

> <Gold.Chemscore.Metal.Weighted>
-0.0000

> <Gold.Chemscore.Lipo.Weighted>
-10.1133

> <Gold.Chemscore.Internal_Hbond.Weighted>
0.0000

> <Gold.Chemscore.DEClash.Weighted>
0.3597

> <Gold.Chemscore.DEInternal.Weighted>
3.5748

> <Gold.Chemscore.Rot.Weighted>
7.0231

> <Gold.Chemscore.Internal.Correction.Weighted>
   9.000000E+99

> <Gold.Protein.RotatedTorsions>
[ 6907 6896 6895 6894 ] final  -55.19 input  -60.11 | X-H torsion
[ 7974 7965 7964 7962 ] final   10.31 input  175.53 | X-H torsion
[ 8008 7997 7996 7995 ] final   27.31 input   59.86 | X-H torsion
[ 10167 10162 10161 10158 ] final -127.45 input  -65.29 | X-H torsion
[ 10718 10713 10712 10709 ] final  -28.83 input   66.30 | X-H torsion
[ 10763 10752 10751 10750 ] final   22.29 input  -60.55 | X-H torsion
[ 11005 11000 10999 10996 ] final   13.61 input  -57.11 | X-H torsion

> <Gold.Protein.ActiveResidues>
 VAL166  LYS551  ARG553  GLY616  TRP617  ASP618  TYR619  PRO620  LYS621  CYS622 
 ASP623  PHE694  ASN695  SER759  ASP760  ASP761  ALA762  ILE779  LEU786  VAL792 
 PHE793  MET794  SER795  GLU796  ALA797  LYS798  CYS799  TRP800  GLU811  SER814 

> <Gold.Protein.RotatedAtoms>
  150.8273  134.7510  159.6823 H   0  0  0  0  0  0  0  0  0  0  0  0  # atno 6907 bound_to 6896
  152.4382  134.5640  159.9912 H   0  0  0  0  0  0  0  0  0  0  0  0  # atno 6908 bound_to 6896
  151.5809  133.3340  159.3044 H   0  0  0  0  0  0  0  0  0  0  0  0  # atno 6909 bound_to 6896
  146.2390  139.9653  142.8453 H   0  0  0  0  0  0  0  0  0  0  0  0  # atno 7974 bound_to 7965
  155.0410  140.3169  155.4725 H   0  0  0  0  0  0  0  0  0  0  0  0  # atno 8008 bound_to 7997
  156.2855  140.2163  156.5476 H   0  0  0  0  0  0  0  0  0  0  0  0  # atno 8009 bound_to 7997
  154.7290  140.0483  157.0697 H   0  0  0  0  0  0  0  0  0  0  0  0  # atno 8010 bound_to 7997
  139.9607  143.5953  152.2446 H   0  0  0  0  0  0  0  0  0  0  0  0  # atno 10167 bound_to 10162
  156.4202  130.4425  149.7189 H   0  0  0  0  0  0  0  0  0  0  0  0  # atno 10718 bound_to 10713
  153.0927  135.6651  153.9822 H   0  0  0  0  0  0  0  0  0  0  0  0  # atno 10763 bound_to 10752
  153.9414  135.2993  155.3444 H   0  0  0  0  0  0  0  0  0  0  0  0  # atno 10764 bound_to 10752
  154.7343  135.5108  153.9090 H   0  0  0  0  0  0  0  0  0  0  0  0  # atno 10765 bound_to 10752
  140.4788  134.0956  155.7747 H   0  0  0  0  0  0  0  0  0  0  0  0  # atno 11005 bound_to 11000
  145.1732  140.9731  143.4309 LP  0  0  0  0  0  0  0  0  0  0  0  0  # atno 17320 bound_to 7965
  145.0010  139.3599  143.6168 LP  0  0  0  0  0  0  0  0  0  0  0  0  # atno 17321 bound_to 7965
  139.6556  144.7662  151.2062 LP  0  0  0  0  0  0  0  0  0  0  0  0  # atno 17342 bound_to 10162
  140.7554  143.6091  150.8623 LP  0  0  0  0  0  0  0  0  0  0  0  0  # atno 17343 bound_to 10162
  156.4133  130.7733  151.2747 LP  0  0  0  0  0  0  0  0  0  0  0  0  # atno 17370 bound_to 10713
  157.7508  131.0205  150.3710 LP  0  0  0  0  0  0  0  0  0  0  0  0  # atno 17371 bound_to 10713
  141.1541  133.8915  157.2022 LP  0  0  0  0  0  0  0  0  0  0  0  0  # atno 17394 bound_to 11000
  139.9839  135.0089  156.9816 LP  0  0  0  0  0  0  0  0  0  0  0  0  # atno 17395 bound_to 11000

$$$$
