AV-unprocessed.smi:2287|AV-procd|sdf|9205|dock2
  -GOLD-   2272012423D 1   1.00000     0.00000
 Structure written by MMmdl.
 38 39  0  0  0  0  0  0  0  0  2 V2000
  143.6922  138.0731  153.5427 C   0  0  0  0  0  0  0  0  0  0  0  0
  144.8193  139.0339  153.5476 N   0  3  0  0  0  0  0  0  0  0  0  0
  144.8692  139.8044  154.8099 C   0  0  0  0  0  0  0  0  0  0  0  0
  146.1272  138.4104  153.2229 C   0  0  0  0  0  0  0  0  0  0  0  0
  147.2996  139.3964  153.3529 C   0  0  0  0  0  0  0  0  0  0  0  0
  147.8376  139.3767  154.7070 N   0  0  0  0  0  0  0  0  0  0  0  0
  148.8437  140.1537  155.1299 C   0  0  0  0  0  0  0  0  0  0  0  0
  149.4288  140.9549  154.4022 O   0  0  0  0  0  0  0  0  0  0  0  0
  149.1249  139.9260  156.4241 N   0  0  0  0  0  0  0  0  0  0  0  0
  150.0650  140.5908  157.2573 C   0  0  0  0  0  0  0  0  0  0  0  0
  150.3292  140.2713  158.6126 C   0  0  0  0  0  0  0  0  0  0  0  0
  151.2615  140.9354  159.3297 N   0  0  0  0  0  0  0  0  0  0  0  0
  151.9215  141.9158  158.7074 C   0  0  0  0  0  0  0  0  0  0  0  0
  152.9892  142.6117  159.4937 C   0  0  0  0  0  0  0  0  0  0  0  0
  153.2990  142.1984  160.9179 C   0  0  0  0  0  0  0  0  0  0  0  0
  152.6344  143.5206  160.6528 C   0  0  0  0  0  0  0  0  0  0  0  0
  151.7707  142.2930  157.4348 N   0  0  0  0  0  0  0  0  0  0  0  0
  150.8418  141.6336  156.7099 C   0  0  0  0  0  0  0  0  0  0  0  0
  143.8393  137.2931  154.2911 H   0  0  0  0  0  0  0  0  0  0  0  0
  143.5754  137.5968  152.5699 H   0  0  0  0  0  0  0  0  0  0  0  0
  142.7542  138.5829  153.7654 H   0  0  0  0  0  0  0  0  0  0  0  0
  145.0948  139.1537  155.6558 H   0  0  0  0  0  0  0  0  0  0  0  0
  143.9145  140.2955  155.0014 H   0  0  0  0  0  0  0  0  0  0  0  0
  145.6335  140.5806  154.7606 H   0  0  0  0  0  0  0  0  0  0  0  0
  146.3041  137.5820  153.9110 H   0  0  0  0  0  0  0  0  0  0  0  0
  146.0925  137.9785  152.2212 H   0  0  0  0  0  0  0  0  0  0  0  0
  148.1051  139.1443  152.6629 H   0  0  0  0  0  0  0  0  0  0  0  0
  146.9637  140.4048  153.1046 H   0  0  0  0  0  0  0  0  0  0  0  0
  147.4146  138.7385  155.3650 H   0  0  0  0  0  0  0  0  0  0  0  0
  148.6101  139.1790  156.8670 H   0  0  0  0  0  0  0  0  0  0  0  0
  149.8257  139.4745  159.1366 H   0  0  0  0  0  0  0  0  0  0  0  0
  153.8224  142.9023  158.8567 H   0  0  0  0  0  0  0  0  0  0  0  0
  152.6911  141.4133  161.3636 H   0  0  0  0  0  0  0  0  0  0  0  0
  154.3422  142.2120  161.2268 H   0  0  0  0  0  0  0  0  0  0  0  0
  153.2324  144.4200  160.7846 H   0  0  0  0  0  0  0  0  0  0  0  0
  151.5841  143.6153  160.9224 H   0  0  0  0  0  0  0  0  0  0  0  0
  150.7216  141.9403  155.6811 H   0  0  0  0  0  0  0  0  0  0  0  0
  144.6330  139.7076  152.8181 H   0  0  0  0  0  0  0  0  0  0  0  0
  1  2  1  0  0  0  0
  1 19  1  0  0  0  0
  1 20  1  0  0  0  0
  1 21  1  0  0  0  0
  2  3  1  0  0  0  0
  2  4  1  0  0  0  0
  2 38  1  0  0  0  0
  3 22  1  0  0  0  0
  3 23  1  0  0  0  0
  3 24  1  0  0  0  0
  4  5  1  0  0  0  0
  4 25  1  0  0  0  0
  4 26  1  0  0  0  0
  5  6  1  0  0  0  0
  5 27  1  0  0  0  0
  5 28  1  0  0  0  0
  6  7  1  0  0  0  0
  6 29  1  0  0  0  0
  7  8  2  0  0  0  0
  7  9  1  0  0  0  0
  9 10  1  0  0  0  0
  9 30  1  0  0  0  0
 10 18  1  0  0  0  0
 10 11  2  0  0  0  0
 11 12  1  0  0  0  0
 11 31  1  0  0  0  0
 12 13  2  0  0  0  0
 13 14  1  0  0  0  0
 13 17  1  0  0  0  0
 14 16  1  0  0  0  0
 14 15  1  0  0  0  0
 14 32  1  0  0  0  0
 15 16  1  0  0  0  0
 15 33  1  0  0  0  0
 15 34  1  0  0  0  0
 16 35  1  0  0  0  0
 16 36  1  0  0  0  0
 17 18  2  0  0  0  0
 18 37  1  0  0  0  0
M  CHG  1   2   1
M  END
> <s_m_source_file>
AV-unprocessed.smi

> <i_m_source_file_index>
2287

> <i_lp_mmshare_version>
43012

> <i_f3d_flags>
0

> <s_epik_input>
W0NIM11OKFtDSDNdKVtDSDJdW0NIMl1bTkhdQyg9TylbTkhdYzFbY0hdbmMobltjSF0xKVtDSF0yW0NIMl1bQ0gyXTI=

> <s_epik_cmdline>
J2VwaWtfcHl0aG9uJywgJy1waCcsICc3LjAnLCAnLXRuJywgJzgnLCAnLW1hJywgJzIwMCcsICctbWV0YWxfYmluZGluZycsICctaW1hZScsICc8aW5maWxlLm1hZT4nLCAnLW9tYWUnLCAnPG91dGZpbGUubWFlPic=

> <r_lp_tautomer_probability>
1

> <r_epik_Ionization_Penalty>
0.00435795

> <r_epik_Ionization_Penalty_Charging>
0.00433655

> <r_epik_Ionization_Penalty_Neutral>
2.14019e-05

> <r_epik_State_Penalty>
0.00312208

> <r_epik_Charging_Adjusted_Penalty>
0.00745864

> <i_epik_Tot_Q>
1

> <i_epik_Tot_abs_Q>
1

> <r_epik_Metal_State_Penalty>
-0

> <b_epik_Metal_Only>
0

> <s_lp_Force_Field>
OPLS_2005

> <r_lp_Energy>
7.96618

> <b_lp_Chiralities_Consistent>
1

> <s_lp_Variant>
AV-unprocessed.smi:2287-1

> <Gold.Version>
5.8.1

> <Gold.Id.Protein>
6NUR|6NUR_protein|mol2

> <Gold.PLP.Fitness>
42.7450

> <Gold.PLP.PLP>
-32.8201

> <Gold.PLP.part.hbond>
-3.2361

> <Gold.PLP.part.metal>
0.0000

> <Gold.PLP.part.buried>
2.2024

> <Gold.PLP.part.nonpolar>
-31.0701

> <Gold.PLP.part.repulsive>
0.4529

> <Gold.PLP.ligand.clash>
0.0000

> <Gold.PLP.ligand.torsion>
0.3074

> <Gold.PLP.Chemscore.Hbond>
2.4410

> <Gold.PLP.Chemscore.CHOScore>
1.0000

> <Gold.PLP.Chemscore.Metal>
0.0000

> <Gold.Chemscore.Hbonds>
donor molecule, donor type, donor heavy atom, donor atom, acceptor molecule, acceptor atom, score
      L1  H     2    38       P1 10175  0.51
      P1  H  7989  7998       L1     8  0.10

> <Gold.PLP.Chemscore.Internal.Correction>
0.2168

> <Gold.Rescore>
     Score         DG    S(hbond)    S(metal)    S(lipo)     H(rot)  DE(clash)    DE(int)     intcor
     10.55     -13.30       0.99        0.00      76.45       1.73       0.22       2.53       ----

> <Gold.Chemscore.Fitness>
10.5505

> <Gold.Chemscore.DG>
-13.2957

> <Gold.Chemscore.ZeroCoef>
-5.4800

> <Gold.Chemscore.Hbond>
0.9850

> <Gold.Chemscore.Metal>
0.0000

> <Gold.Chemscore.Lipo>
76.4463

> <Gold.Chemscore.Internal_Hbond>
0.0000

> <Gold.Chemscore.DEClash>
0.2151

> <Gold.Chemscore.DEInternal>
2.5301

> <Gold.Chemscore.Rot>
1.7260

> <Gold.Chemscore.Internal.Correction>
   9.000000E+99

> <Gold.Chemscore.Hbonds>
donor molecule, donor type, donor heavy atom, donor atom, acceptor molecule, acceptor atom, score
      L1  H     2    38       P1 10175  0.27
      P1  H  7989  7998       L1     8  0.11

> <Gold.Chemscore.Hbond.Weighted>
-3.2900

> <Gold.Chemscore.Metal.Weighted>
-0.0000

> <Gold.Chemscore.Lipo.Weighted>
-8.9442

> <Gold.Chemscore.Internal_Hbond.Weighted>
0.0000

> <Gold.Chemscore.DEClash.Weighted>
0.2151

> <Gold.Chemscore.DEInternal.Weighted>
2.5301

> <Gold.Chemscore.Rot.Weighted>
4.4186

> <Gold.Chemscore.Internal.Correction.Weighted>
   9.000000E+99

> <Gold.Protein.RotatedTorsions>
[ 6907 6896 6895 6894 ] final  -58.37 input  -60.11 | X-H torsion
[ 7974 7965 7964 7962 ] final   54.50 input  175.53 | X-H torsion
[ 8008 7997 7996 7995 ] final  -85.05 input   59.86 | X-H torsion
[ 10167 10162 10161 10158 ] final -131.97 input  -65.29 | X-H torsion
[ 10718 10713 10712 10709 ] final  -54.92 input   66.30 | X-H torsion
[ 10763 10752 10751 10750 ] final   70.69 input  -60.55 | X-H torsion
[ 11005 11000 10999 10996 ] final  -74.12 input  -57.11 | X-H torsion

> <Gold.Protein.ActiveResidues>
 VAL166  LYS551  ARG553  GLY616  TRP617  ASP618  TYR619  PRO620  LYS621  CYS622 
 ASP623  PHE694  ASN695  SER759  ASP760  ASP761  ALA762  ILE779  LEU786  VAL792 
 PHE793  MET794  SER795  GLU796  ALA797  LYS798  CYS799  TRP800  GLU811  SER814 

> <Gold.Protein.RotatedAtoms>
  150.8012  134.7107  159.6601 H   0  0  0  0  0  0  0  0  0  0  0  0  # atno 6907 bound_to 6896
  152.4129  134.6089  160.0030 H   0  0  0  0  0  0  0  0  0  0  0  0  # atno 6908 bound_to 6896
  151.6327  133.3294  159.3148 H   0  0  0  0  0  0  0  0  0  0  0  0  # atno 6909 bound_to 6896
  145.9602  139.4052  143.0253 H   0  0  0  0  0  0  0  0  0  0  0  0  # atno 7974 bound_to 7965
  154.6365  140.0597  156.9794 H   0  0  0  0  0  0  0  0  0  0  0  0  # atno 8008 bound_to 7997
  155.1584  140.3280  155.4398 H   0  0  0  0  0  0  0  0  0  0  0  0  # atno 8009 bound_to 7997
  156.2509  140.1935  156.6692 H   0  0  0  0  0  0  0  0  0  0  0  0  # atno 8010 bound_to 7997
  139.9134  143.6468  152.2570 H   0  0  0  0  0  0  0  0  0  0  0  0  # atno 10167 bound_to 10162
  156.1411  130.4154  150.0101 H   0  0  0  0  0  0  0  0  0  0  0  0  # atno 10718 bound_to 10713
  153.0356  135.5164  154.7479 H   0  0  0  0  0  0  0  0  0  0  0  0  # atno 10763 bound_to 10752
  154.6458  135.2918  155.0050 H   0  0  0  0  0  0  0  0  0  0  0  0  # atno 10764 bound_to 10752
  154.0951  135.6644  153.4911 H   0  0  0  0  0  0  0  0  0  0  0  0  # atno 10765 bound_to 10752
  141.1631  133.6901  156.7317 H   0  0  0  0  0  0  0  0  0  0  0  0  # atno 11005 bound_to 11000
  145.8051  140.9753  143.0978 LP  0  0  0  0  0  0  0  0  0  0  0  0  # atno 17320 bound_to 7965
  144.6813  139.9850  143.7484 LP  0  0  0  0  0  0  0  0  0  0  0  0  # atno 17321 bound_to 7965
  139.6923  144.7645  151.1416 LP  0  0  0  0  0  0  0  0  0  0  0  0  # atno 17342 bound_to 10162
  140.7680  143.5571  150.9139 LP  0  0  0  0  0  0  0  0  0  0  0  0  # atno 17343 bound_to 10162
  156.7986  130.9282  151.3646 LP  0  0  0  0  0  0  0  0  0  0  0  0  # atno 17370 bound_to 10713
  157.6576  130.8938  149.9762 LP  0  0  0  0  0  0  0  0  0  0  0  0  # atno 17371 bound_to 10713
  140.2740  134.8369  157.3873 LP  0  0  0  0  0  0  0  0  0  0  0  0  # atno 17394 bound_to 11000
  140.1494  134.4869  155.7972 LP  0  0  0  0  0  0  0  0  0  0  0  0  # atno 17395 bound_to 11000

$$$$
