AV-unprocessed.smi:1464|AV-procd|sdf|5946|dock8
  -GOLD-   22720 6 33D 1   1.00000     0.00000
 Structure written by MMmdl.
 41 42  0  0  0  0  0  0  0  0  1 V2000
  152.2201  144.1123  161.0766 C   0  0  0  0  0  0  0  0  0  0  0  0
  152.8792  143.6924  159.7466 C   0  0  1  0  0  0  0  0  0  0  0  0
  153.5371  142.3015  159.8530 C   0  0  0  0  0  0  0  0  0  0  0  0
  152.4981  141.1703  159.8976 C   0  0  0  0  0  0  0  0  0  0  0  0
  151.5631  141.2296  158.6821 C   0  0  0  0  0  0  0  0  0  0  0  0
  150.8814  142.6074  158.5453 C   0  0  2  0  0  0  0  0  0  0  0  0
  150.0711  142.6329  157.3291 N   0  0  0  0  0  0  0  0  0  0  0  0
  148.9494  141.9254  157.1259 C   0  0  0  0  0  0  0  0  0  0  0  0
  148.4831  141.1450  157.9574 O   0  0  0  0  0  0  0  0  0  0  0  0
  148.2712  142.1223  155.7623 C   0  0  0  0  0  0  0  0  0  0  0  0
  148.0242  140.8629  155.0454 N   0  0  0  0  0  0  0  0  0  0  0  0
  146.6813  140.5583  154.8814 N   0  0  0  0  0  0  0  0  0  0  0  0
  146.3354  139.4863  154.2524 C   0  0  0  0  0  0  0  0  0  0  0  0
  144.9948  139.2250  154.1085 O   0  0  0  0  0  0  0  0  0  0  0  0
  147.3273  138.5820  153.7127 C   0  0  0  0  0  0  0  0  0  0  0  0
  148.6331  138.8842  153.8829 C   0  0  0  0  0  0  0  0  0  0  0  0
  149.0601  140.0928  154.5905 C   0  0  0  0  0  0  0  0  0  0  0  0
  150.2420  140.3920  154.7609 O   0  0  0  0  0  0  0  0  0  0  0  0
  151.9293  143.7506  158.5197 C   0  0  1  0  0  0  0  0  0  0  0  0
  151.2943  145.1434  158.3346 C   0  0  0  0  0  0  0  0  0  0  0  0
  144.7511  139.6072  153.2797 H   0  0  0  0  0  0  0  0  0  0  0  0
  151.3557  143.4960  161.3217 H   0  0  0  0  0  0  0  0  0  0  0  0
  151.8887  145.1502  161.0494 H   0  0  0  0  0  0  0  0  0  0  0  0
  152.9265  144.0280  161.9028 H   0  0  0  0  0  0  0  0  0  0  0  0
  153.6846  144.4064  159.5683 H   0  0  0  0  0  0  0  0  0  0  0  0
  154.1916  142.1476  158.9939 H   0  0  0  0  0  0  0  0  0  0  0  0
  154.1801  142.2523  160.7325 H   0  0  0  0  0  0  0  0  0  0  0  0
  153.0042  140.2050  159.9256 H   0  0  0  0  0  0  0  0  0  0  0  0
  151.9134  141.2341  160.8156 H   0  0  0  0  0  0  0  0  0  0  0  0
  152.1359  141.0119  157.7794 H   0  0  0  0  0  0  0  0  0  0  0  0
  150.8113  140.4437  158.7652 H   0  0  0  0  0  0  0  0  0  0  0  0
  150.2265  142.7622  159.4042 H   0  0  0  0  0  0  0  0  0  0  0  0
  150.3840  143.2444  156.5891 H   0  0  0  0  0  0  0  0  0  0  0  0
  147.3324  142.6636  155.8959 H   0  0  0  0  0  0  0  0  0  0  0  0
  148.9048  142.7791  155.1635 H   0  0  0  0  0  0  0  0  0  0  0  0
  147.0227  137.6883  153.1882 H   0  0  0  0  0  0  0  0  0  0  0  0
  149.3845  138.2178  153.4855 H   0  0  0  0  0  0  0  0  0  0  0  0
  152.5564  143.5864  157.6416 H   0  0  0  0  0  0  0  0  0  0  0  0
  150.5512  145.3514  159.1045 H   0  0  0  0  0  0  0  0  0  0  0  0
  150.7956  145.2309  157.3691 H   0  0  0  0  0  0  0  0  0  0  0  0
  152.0500  145.9280  158.3772 H   0  0  0  0  0  0  0  0  0  0  0  0
  1  2  1  0  0  0  0
  1 22  1  0  0  0  0
  1 23  1  0  0  0  0
  1 24  1  0  0  0  0
  2 19  1  0  0  0  0
  2  3  1  0  0  0  0
  2 25  1  0  0  0  0
  3  4  1  0  0  0  0
  3 26  1  0  0  0  0
  3 27  1  0  0  0  0
  4  5  1  0  0  0  0
  4 28  1  0  0  0  0
  4 29  1  0  0  0  0
  5  6  1  0  0  0  0
  5 30  1  0  0  0  0
  5 31  1  0  0  0  0
  6  7  1  0  0  0  0
  6 19  1  0  0  0  0
  6 32  1  0  0  0  0
  7  8  1  0  0  0  0
  7 33  1  0  0  0  0
  8  9  2  0  0  0  0
  8 10  1  0  0  0  0
 10 34  1  0  0  0  0
 10 35  1  0  0  0  0
 10 11  1  0  0  0  0
 11 12  1  0  0  0  0
 11 17  1  0  0  0  0
 12 13  2  0  0  0  0
 13 14  1  0  0  0  0
 13 15  1  0  0  0  0
 14 21  1  0  0  0  0
 15 36  1  0  0  0  0
 15 16  2  0  0  0  0
 16 37  1  0  0  0  0
 16 17  1  0  0  0  0
 17 18  2  0  0  0  0
 19 20  1  0  0  0  0
 19 38  1  0  0  0  0
 20 39  1  0  0  0  0
 20 40  1  0  0  0  0
 20 41  1  0  0  0  0
M  END
> <s_m_source_file>
AV-unprocessed.smi

> <i_m_source_file_index>
1464

> <i_lp_mmshare_version>
43012

> <i_f3d_flags>
0

> <s_epik_input>
W0NIM11bQ0BASF0xW0NIMl1bQ0gyXVtDSDJdW0NASF0oW0NASF0xW0NIM10pW05IXUMoPU8pW0NIMl1uMltuSF1jKD1PKVtjSF1bY0hdYzI9Tw==

> <s_epik_cmdline>
J2VwaWtfcHl0aG9uJywgJy1waCcsICc3LjAnLCAnLXRuJywgJzgnLCAnLW1hJywgJzIwMCcsICctbWV0YWxfYmluZGluZycsICctaW1hZScsICc8aW5maWxlLm1hZT4nLCAnLW9tYWUnLCAnPG91dGZpbGUubWFlPic=

> <r_lp_tautomer_probability>
0.9996

> <r_epik_Ionization_Penalty>
2.10335

> <r_epik_Ionization_Penalty_Charging>
3.98079e-08

> <r_epik_Ionization_Penalty_Neutral>
2.10335

> <r_epik_State_Penalty>
1.67957

> <r_epik_Charging_Adjusted_Penalty>
1.67957

> <i_epik_Tot_Q>
0

> <i_epik_Tot_abs_Q>
0

> <r_epik_Metal_State_Penalty>
1.67957

> <b_epik_Metal_Only>
0

> <s_lp_Force_Field>
OPLS_2005

> <r_lp_Energy>
23.4663

> <b_lp_Chiralities_Consistent>
1

> <s_lp_Variant>
AV-unprocessed.smi:1464-12

> <Gold.Version>
5.8.1

> <Gold.Id.Protein>
6NUR|6NUR_protein|mol2

> <Gold.PLP.Fitness>
41.2644

> <Gold.PLP.PLP>
-34.8210

> <Gold.PLP.part.hbond>
-3.0691

> <Gold.PLP.part.metal>
0.0000

> <Gold.PLP.part.buried>
-0.7191

> <Gold.PLP.part.nonpolar>
-31.3273

> <Gold.PLP.part.repulsive>
0.2207

> <Gold.PLP.ligand.clash>
0.0000

> <Gold.PLP.ligand.torsion>
0.1797

> <Gold.PLP.Chemscore.Hbond>
2.2647

> <Gold.PLP.Chemscore.CHOScore>
0.0000

> <Gold.PLP.Chemscore.Metal>
0.0000

> <Gold.Chemscore.Hbonds>
donor molecule, donor type, donor heavy atom, donor atom, acceptor molecule, acceptor atom, score
      L1  H     7    33       P1  8028  0.13
      L1  H    14    21       P1 10175  0.93
      P1  H  7989  7998       L1    18  1.00

> <Gold.PLP.Chemscore.Internal.Correction>
0.0087

> <Gold.Rescore>
     Score         DG    S(hbond)    S(metal)    S(lipo)     H(rot)  DE(clash)    DE(int)     intcor
     18.11     -19.75       2.48        0.00      99.69       2.22       1.37       0.27       ----

> <Gold.Chemscore.Fitness>
18.1120

> <Gold.Chemscore.DG>
-19.7527

> <Gold.Chemscore.ZeroCoef>
-5.4800

> <Gold.Chemscore.Hbond>
2.4846

> <Gold.Chemscore.Metal>
0.0000

> <Gold.Chemscore.Lipo>
99.6890

> <Gold.Chemscore.Internal_Hbond>
0.0000

> <Gold.Chemscore.DEClash>
1.3685

> <Gold.Chemscore.DEInternal>
0.2722

> <Gold.Chemscore.Rot>
2.2224

> <Gold.Chemscore.Internal.Correction>
   9.000000E+99

> <Gold.Chemscore.Hbonds>
donor molecule, donor type, donor heavy atom, donor atom, acceptor molecule, acceptor atom, score
      L1  H     7    33       P1  8028  0.13
      L1  H    14    21       P1 10175  0.88
      P1  H  7989  7998       L1    18  0.95

> <Gold.Chemscore.Hbond.Weighted>
-8.2984

> <Gold.Chemscore.Metal.Weighted>
-0.0000

> <Gold.Chemscore.Lipo.Weighted>
-11.6636

> <Gold.Chemscore.Internal_Hbond.Weighted>
0.0000

> <Gold.Chemscore.DEClash.Weighted>
1.3685

> <Gold.Chemscore.DEInternal.Weighted>
0.2722

> <Gold.Chemscore.Rot.Weighted>
5.6893

> <Gold.Chemscore.Internal.Correction.Weighted>
   9.000000E+99

> <Gold.Protein.RotatedTorsions>
[ 6907 6896 6895 6894 ] final  166.83 input  -60.11 | X-H torsion
[ 7974 7965 7964 7962 ] final   -5.71 input  175.53 | X-H torsion
[ 8008 7997 7996 7995 ] final    1.27 input   59.86 | X-H torsion
[ 10167 10162 10161 10158 ] final  158.49 input  -65.29 | X-H torsion
[ 10718 10713 10712 10709 ] final  176.95 input   66.30 | X-H torsion
[ 10763 10752 10751 10750 ] final  150.52 input  -60.55 | X-H torsion
[ 11005 11000 10999 10996 ] final  -81.05 input  -57.11 | X-H torsion

> <Gold.Protein.ActiveResidues>
 VAL166  LYS551  ARG553  GLY616  TRP617  ASP618  TYR619  PRO620  LYS621  CYS622 
 ASP623  PHE694  ASN695  SER759  ASP760  ASP761  ALA762  ILE779  LEU786  VAL792 
 PHE793  MET794  SER795  GLU796  ALA797  LYS798  CYS799  TRP800  GLU811  SER814 

> <Gold.Protein.RotatedAtoms>
  151.8728  133.3479  159.3740 H   0  0  0  0  0  0  0  0  0  0  0  0  # atno 6907 bound_to 6896
  150.7148  134.5095  159.5610 H   0  0  0  0  0  0  0  0  0  0  0  0  # atno 6908 bound_to 6896
  152.2632  134.8013  160.0478 H   0  0  0  0  0  0  0  0  0  0  0  0  # atno 6909 bound_to 6896
  146.2347  140.2061  142.8334 H   0  0  0  0  0  0  0  0  0  0  0  0  # atno 7974 bound_to 7965
  154.6777  140.2626  155.6940 H   0  0  0  0  0  0  0  0  0  0  0  0  # atno 8008 bound_to 7997
  156.2684  140.2816  156.1232 H   0  0  0  0  0  0  0  0  0  0  0  0  # atno 8009 bound_to 7997
  155.1076  140.0375  157.2705 H   0  0  0  0  0  0  0  0  0  0  0  0  # atno 8010 bound_to 7997
  139.4827  144.4819  151.8432 H   0  0  0  0  0  0  0  0  0  0  0  0  # atno 10167 bound_to 10162
  156.9126  130.9915  151.3018 H   0  0  0  0  0  0  0  0  0  0  0  0  # atno 10718 bound_to 10713
  154.0889  135.2854  155.3275 H   0  0  0  0  0  0  0  0  0  0  0  0  # atno 10763 bound_to 10752
  154.6633  135.5326  153.8049 H   0  0  0  0  0  0  0  0  0  0  0  0  # atno 10764 bound_to 10752
  153.0421  135.6539  154.1059 H   0  0  0  0  0  0  0  0  0  0  0  0  # atno 10765 bound_to 10752
  141.1667  133.7178  156.8365 H   0  0  0  0  0  0  0  0  0  0  0  0  # atno 11005 bound_to 11000
  144.9743  140.8399  143.5436 LP  0  0  0  0  0  0  0  0  0  0  0  0  # atno 17320 bound_to 7965
  145.2046  139.2234  143.5175 LP  0  0  0  0  0  0  0  0  0  0  0  0  # atno 17321 bound_to 7965
  140.4296  144.2134  150.5888 LP  0  0  0  0  0  0  0  0  0  0  0  0  # atno 17342 bound_to 10162
  140.4793  143.2385  151.8979 LP  0  0  0  0  0  0  0  0  0  0  0  0  # atno 17343 bound_to 10162
  157.5958  130.8476  149.8727 LP  0  0  0  0  0  0  0  0  0  0  0  0  # atno 17370 bound_to 10713
  156.0528  130.3714  150.1160 LP  0  0  0  0  0  0  0  0  0  0  0  0  # atno 17371 bound_to 10713
  140.2014  134.8894  157.3173 LP  0  0  0  0  0  0  0  0  0  0  0  0  # atno 17394 bound_to 11000
  140.2183  134.4054  155.7578 LP  0  0  0  0  0  0  0  0  0  0  0  0  # atno 17395 bound_to 11000

$$$$
