#       Name:                AV-unprocessed.smi:1878
#       Creating user name   scv26
#       Creation time:       Fri Mar 27 09:35:28 2020


#       File generated by GOLD software.
#

@<TRIPOS>MOLECULE
AV-unprocessed.smi:1878
    39    40     1
SMALL
NO_CHARGES


@<TRIPOS>ATOM
      1 ****         3.4677  -0.7909  -0.2256 O.2            1 S1                 0.0000
      2 ****         2.8860  -1.8614  -0.0152 C.2            1 S1                 0.0000
      3 ****         3.4353  -3.1017   0.0679 N.pl3          1 S1                -1.0000
      4 ****         4.8666  -3.3870  -0.0703 C.3            1 S1                 0.0000
      5 ****         5.1499  -4.8841   0.1543 C.3            1 S1                 0.0000
      6 ****         6.4577  -5.1063   0.0219 F              1 S1                 0.0000
      7 ****         4.7801  -5.2555   1.3812 F              1 S1                 0.0000
      8 ****         4.5018  -5.6279  -0.7438 F              1 S1                 0.0000
      9 ****         1.5498  -1.8910   0.1379 N.am           1 S1                 0.0000
     10 ****         0.6227  -0.8147   0.1333 C.ar           1 S1                 0.0000
     11 ****        -0.7147  -1.0996  -0.2137 C.ar           1 S1                 0.0000
     12 ****        -1.6720  -0.0646  -0.2178 C.ar           1 S1                 0.0000
     13 ****        -1.2782   1.2453   0.1427 C.ar           1 S1                 0.0000
     14 ****        -2.1456   2.3463   0.1610 N.3            1 S1                 0.0000
     15 ****        -3.3461   2.1962   0.9664 C.3            1 S1                 0.0000
     16 ****        -4.2781   3.3231   0.5148 C.3            1 S1                 0.0000
     17 ****        -3.8002   3.6851  -0.8969 C.3            1 S1                 0.0000
     18 ****        -2.5966   2.7734  -1.1522 C.3            1 S1                 0.0000
     19 ****         0.0085   1.4742   0.4838 N.pl3          1 S1                 1.0000
     20 ****         0.9561   0.5118   0.4989 C.ar           1 S1                 0.0000
     21 ****         5.2338  -3.1044  -1.0581 H              1 S1                 0.0000
     22 ****         5.4584  -2.8075   0.6399 H              1 S1                 0.0000
     23 ****         1.1474  -2.8143   0.2068 H              1 S1                 0.0000
     24 ****        -1.0058  -2.1039  -0.4853 H              1 S1                 0.0000
     25 ****        -2.6915  -0.2812  -0.5003 H              1 S1                 0.0000
     26 ****        -3.8169   1.2291   0.7875 H              1 S1                 0.0000
     27 ****        -3.1171   2.2674   2.0301 H              1 S1                 0.0000
     28 ****        -5.3239   3.0155   0.5352 H              1 S1                 0.0000
     29 ****        -4.1729   4.1863   1.1732 H              1 S1                 0.0000
     30 ****        -4.5777   3.5398  -1.6476 H              1 S1                 0.0000
     31 ****        -3.4983   4.7326  -0.9301 H              1 S1                 0.0000
     32 ****        -1.8041   3.2952  -1.6896 H              1 S1                 0.0000
     33 ****        -2.8971   1.9107  -1.7488 H              1 S1                 0.0000
     34 ****         1.9355   0.8410   0.8126 H              1 S1                 0.0000
     35 ****         0.2792   2.4218   0.7473 H              1 S1                 0.0000
     36 ****         4.4589  -0.7779  -0.3575 LP             1 S1                 0.0000
     37 ****         2.9470   0.0620  -0.2640 LP             1 S1                 0.0000
     38 ****         2.8209  -3.8728   0.2348 LP             1 S1                 0.0000
     39 ****        -1.5492   3.0315   0.5791 LP             1 S1                 0.0000
@<TRIPOS>BOND
    1    1    2 2     
    2    2    3 1     
    3    2    9 am    
    4    3    4 1     
    5    4    5 1     
    6    4   21 1     
    7    4   22 1     
    8    5    6 1     
    9    5    7 1     
   10    5    8 1     
   11    9   10 1     
   12    9   23 1     
   13   10   20 ar    
   14   10   11 ar    
   15   11   12 ar    
   16   11   24 1     
   17   12   13 ar    
   18   12   25 1     
   19   13   14 1     
   20   13   19 ar    
   21   14   18 1     
   22   14   15 1     
   23   15   16 1     
   24   15   26 1     
   25   15   27 1     
   26   16   17 1     
   27   16   28 1     
   28   16   29 1     
   29   17   18 1     
   30   17   30 1     
   31   17   31 1     
   32   18   32 1     
   33   18   33 1     
   34   19   20 ar    
   35   19   35 1     
   36   20   34 1     
   37    1   36 1     
   38    1   37 1     
   39    3   38 1     
   40   14   39 1     
@<TRIPOS>SUBSTRUCTURE
      1 S1             1
@<TRIPOS>SET
LONE_PAIRS      STATIC     ATOMS    <user>   **** ""
4 36 37 38 39
DONOR_HYDROGENS      STATIC     ATOMS    <user>   **** ""
2 23 35
ATOM$BLUE        STATIC     ATOMS    COLORGROUP SYSTEM
4 36 37 38 39
ATOM$RED        STATIC     ATOMS    COLORGROUP SYSTEM
2 23 35
