AV-unprocessed.smi:2567|AV-procd|sdf|10083|dock6
  -GOLD-   2272014113D 1   1.00000     0.00000
 Structure written by MMmdl.
 33 34  0  0  0  0  0  0  0  0  1 V2000
  150.1429  144.3493  159.5324 C   0  0  0  0  0  0  0  0  0  0  0  0
  151.6388  144.0031  159.6393 C   0  0  0  0  0  0  0  0  0  0  0  0
  152.4608  144.9797  158.7701 C   0  0  0  0  0  0  0  0  0  0  0  0
  152.1180  144.1946  161.0955 C   0  0  0  0  0  0  0  0  0  0  0  0
  151.8631  142.5796  159.1840 C   0  0  0  0  0  0  0  0  0  0  0  0
  152.1834  141.6149  160.0502 N   0  0  0  0  0  0  0  0  0  0  0  0
  152.1512  140.5084  159.2792 N   0  0  0  0  0  0  0  0  0  0  0  0
  151.7710  140.8414  158.0458 C   0  0  0  0  0  0  0  0  0  0  0  0
  151.6041  139.8233  156.9622 C   0  0  1  0  0  0  0  0  0  0  0  0
  151.1964  140.4589  155.6187 C   0  0  0  0  0  0  0  0  0  0  0  0
  151.1340  139.4384  154.5737 N   0  0  0  0  0  0  0  0  0  0  0  0
  152.3958  138.7062  154.4751 C   0  0  0  0  0  0  0  0  0  0  0  0
  152.7826  138.1183  155.8442 C   0  0  0  0  0  0  0  0  0  0  0  0
  152.8576  139.1623  156.8092 O   0  0  0  0  0  0  0  0  0  0  0  0
  151.5358  142.1440  157.9264 N   0  0  0  0  0  0  0  0  0  0  0  0
  152.3635  139.5850  159.6290 H   0  0  0  0  0  0  0  0  0  0  0  0
  149.9489  145.3747  159.8487 H   0  0  0  0  0  0  0  0  0  0  0  0
  149.5379  143.6918  160.1579 H   0  0  0  0  0  0  0  0  0  0  0  0
  149.7857  144.2474  158.5069 H   0  0  0  0  0  0  0  0  0  0  0  0
  152.1522  144.9486  157.7245 H   0  0  0  0  0  0  0  0  0  0  0  0
  153.5254  144.7456  158.8066 H   0  0  0  0  0  0  0  0  0  0  0  0
  152.3397  146.0099  159.1070 H   0  0  0  0  0  0  0  0  0  0  0  0
  151.9963  145.2286  161.4202 H   0  0  0  0  0  0  0  0  0  0  0  0
  153.1730  143.9392  161.2044 H   0  0  0  0  0  0  0  0  0  0  0  0
  151.5541  143.5746  161.7932 H   0  0  0  0  0  0  0  0  0  0  0  0
  150.8503  139.1003  157.2807 H   0  0  0  0  0  0  0  0  0  0  0  0
  150.2303  140.9552  155.7153 H   0  0  0  0  0  0  0  0  0  0  0  0
  151.9182  141.2278  155.3404 H   0  0  0  0  0  0  0  0  0  0  0  0
  150.9262  139.8775  153.6823 H   0  0  0  0  0  0  0  0  0  0  0  0
  152.3102  137.9099  153.7357 H   0  0  0  0  0  0  0  0  0  0  0  0
  153.1854  139.3733  154.1277 H   0  0  0  0  0  0  0  0  0  0  0  0
  152.0634  137.3614  156.1622 H   0  0  0  0  0  0  0  0  0  0  0  0
  153.7533  137.6270  155.7800 H   0  0  0  0  0  0  0  0  0  0  0  0
  1  2  1  0  0  0  0
  1 17  1  0  0  0  0
  1 18  1  0  0  0  0
  1 19  1  0  0  0  0
  2  3  1  0  0  0  0
  2  4  1  0  0  0  0
  2  5  1  0  0  0  0
  3 20  1  0  0  0  0
  3 21  1  0  0  0  0
  3 22  1  0  0  0  0
  4 23  1  0  0  0  0
  4 24  1  0  0  0  0
  4 25  1  0  0  0  0
  5 15  1  0  0  0  0
  5  6  2  0  0  0  0
  6  7  1  0  0  0  0
  7 16  1  0  0  0  0
  7  8  1  0  0  0  0
  8  9  1  0  0  0  0
  8 15  2  0  0  0  0
  9 14  1  0  0  0  0
  9 10  1  0  0  0  0
  9 26  1  0  0  0  0
 10 11  1  0  0  0  0
 10 27  1  0  0  0  0
 10 28  1  0  0  0  0
 11 12  1  0  0  0  0
 11 29  1  0  0  0  0
 12 13  1  0  0  0  0
 12 30  1  0  0  0  0
 12 31  1  0  0  0  0
 13 14  1  0  0  0  0
 13 32  1  0  0  0  0
 13 33  1  0  0  0  0
M  END
> <s_m_source_file>
AV-unprocessed.smi

> <i_m_source_file_index>
2567

> <i_lp_mmshare_version>
43012

> <i_f3d_flags>
0

> <s_epik_input>
W0NIM11DKFtDSDNdKShbQ0gzXSljMW5bbkhdYyhuMSlbQ0BASF0yW0NIMl1bTkhdW0NIMl1bQ0gyXU8y

> <s_epik_cmdline>
J2VwaWtfcHl0aG9uJywgJy1waCcsICc3LjAnLCAnLXRuJywgJzgnLCAnLW1hJywgJzIwMCcsICctbWV0YWxfYmluZGluZycsICctaW1hZScsICc8aW5maWxlLm1hZT4nLCAnLW9tYWUnLCAnPG91dGZpbGUubWFlPic=

> <r_epik_Ionization_Penalty>
0.981987

> <r_epik_Ionization_Penalty_Charging>
0

> <r_epik_Ionization_Penalty_Neutral>
0.981987

> <r_epik_State_Penalty>
2.09479

> <r_epik_Charging_Adjusted_Penalty>
2.09479

> <i_epik_Tot_Q>
0

> <i_epik_Tot_abs_Q>
0

> <r_epik_Metal_State_Penalty>
2.40362

> <b_epik_Metal_Only>
0

> <s_lp_Force_Field>
OPLS_2005

> <r_lp_Energy>
12.9727

> <b_lp_Chiralities_Consistent>
1

> <s_lp_Variant>
AV-unprocessed.smi:2567-8

> <Gold.Version>
5.8.1

> <Gold.Id.Protein>
6NUR|6NUR_protein|mol2

> <Gold.PLP.Fitness>
34.6267

> <Gold.PLP.PLP>
-31.7856

> <Gold.PLP.part.hbond>
-2.0000

> <Gold.PLP.part.metal>
0.0000

> <Gold.PLP.part.buried>
-5.1933

> <Gold.PLP.part.nonpolar>
-24.2628

> <Gold.PLP.part.repulsive>
0.1740

> <Gold.PLP.ligand.clash>
0.0000

> <Gold.PLP.ligand.torsion>
0.1813

> <Gold.PLP.Chemscore.Hbond>
1.0000

> <Gold.PLP.Chemscore.CHOScore>
0.0000

> <Gold.PLP.Chemscore.Metal>
0.0000

> <Gold.Chemscore.Hbonds>
donor molecule, donor type, donor heavy atom, donor atom, acceptor molecule, acceptor atom, score
      P1  H  7997  8008       L1    14  1.00

> <Gold.PLP.Chemscore.Internal.Correction>
0.2036

> <Gold.Rescore>
     Score         DG    S(hbond)    S(metal)    S(lipo)     H(rot)  DE(clash)    DE(int)     intcor
     13.96     -14.11       0.96        0.00      73.59       1.25       0.03       0.11       ----

> <Gold.Chemscore.Fitness>
13.9628

> <Gold.Chemscore.DG>
-14.1066

> <Gold.Chemscore.ZeroCoef>
-5.4800

> <Gold.Chemscore.Hbond>
0.9592

> <Gold.Chemscore.Metal>
0.0000

> <Gold.Chemscore.Lipo>
73.5920

> <Gold.Chemscore.Internal_Hbond>
0.0000

> <Gold.Chemscore.DEClash>
0.0340

> <Gold.Chemscore.DEInternal>
0.1098

> <Gold.Chemscore.Rot>
1.2450

> <Gold.Chemscore.Internal.Correction>
   9.000000E+99

> <Gold.Chemscore.Hbonds>
donor molecule, donor type, donor heavy atom, donor atom, acceptor molecule, acceptor atom, score
      P1  H  7997  8008       L1    14  0.81

> <Gold.Chemscore.Hbond.Weighted>
-3.2036

> <Gold.Chemscore.Metal.Weighted>
-0.0000

> <Gold.Chemscore.Lipo.Weighted>
-8.6103

> <Gold.Chemscore.Internal_Hbond.Weighted>
0.0000

> <Gold.Chemscore.DEClash.Weighted>
0.0340

> <Gold.Chemscore.DEInternal.Weighted>
0.1098

> <Gold.Chemscore.Rot.Weighted>
3.1872

> <Gold.Chemscore.Internal.Correction.Weighted>
   9.000000E+99

> <Gold.Protein.RotatedTorsions>
[ 6907 6896 6895 6894 ] final -115.81 input  -60.11 | X-H torsion
[ 7974 7965 7964 7962 ] final   15.10 input  175.53 | X-H torsion
[ 8008 7997 7996 7995 ] final  -64.28 input   59.86 | X-H torsion
[ 10167 10162 10161 10158 ] final -161.87 input  -65.29 | X-H torsion
[ 10718 10713 10712 10709 ] final   20.25 input   66.30 | X-H torsion
[ 10763 10752 10751 10750 ] final  -27.29 input  -60.55 | X-H torsion
[ 11005 11000 10999 10996 ] final  128.61 input  -57.11 | X-H torsion

> <Gold.Protein.ActiveResidues>
 VAL166  LYS551  ARG553  GLY616  TRP617  ASP618  TYR619  PRO620  LYS621  CYS622 
 ASP623  PHE694  ASN695  SER759  ASP760  ASP761  ALA762  ILE779  LEU786  VAL792 
 PHE793  MET794  SER795  GLU796  ALA797  LYS798  CYS799  TRP800  GLU811  SER814 

> <Gold.Protein.RotatedAtoms>
  150.8007  133.8605  159.3230 H   0  0  0  0  0  0  0  0  0  0  0  0  # atno 6907 bound_to 6896
  151.6418  135.1010  160.0152 H   0  0  0  0  0  0  0  0  0  0  0  0  # atno 6908 bound_to 6896
  152.4094  133.6900  159.6419 H   0  0  0  0  0  0  0  0  0  0  0  0  # atno 6909 bound_to 6896
  146.2287  139.8944  142.8549 H   0  0  0  0  0  0  0  0  0  0  0  0  # atno 7974 bound_to 7965
  154.4602  140.0957  156.6872 H   0  0  0  0  0  0  0  0  0  0  0  0  # atno 8008 bound_to 7997
  155.5016  140.3474  155.4354 H   0  0  0  0  0  0  0  0  0  0  0  0  # atno 8009 bound_to 7997
  156.0856  140.1384  156.9646 H   0  0  0  0  0  0  0  0  0  0  0  0  # atno 8010 bound_to 7997
  139.6433  144.0219  152.2108 H   0  0  0  0  0  0  0  0  0  0  0  0  # atno 10167 bound_to 10162
  157.1219  130.6553  149.5926 H   0  0  0  0  0  0  0  0  0  0  0  0  # atno 10718 bound_to 10713
  153.7297  135.6939  153.4992 H   0  0  0  0  0  0  0  0  0  0  0  0  # atno 10763 bound_to 10752
  153.2144  135.4391  155.0416 H   0  0  0  0  0  0  0  0  0  0  0  0  # atno 10764 bound_to 10752
  154.8257  135.3445  154.6828 H   0  0  0  0  0  0  0  0  0  0  0  0  # atno 10765 bound_to 10752
  139.9570  134.9611  156.9027 H   0  0  0  0  0  0  0  0  0  0  0  0  # atno 11005 bound_to 11000
  145.2386  141.0000  143.3949 LP  0  0  0  0  0  0  0  0  0  0  0  0  # atno 17320 bound_to 7965
  144.9471  139.4124  143.6421 LP  0  0  0  0  0  0  0  0  0  0  0  0  # atno 17321 bound_to 7965
  139.9914  144.6359  150.7811 LP  0  0  0  0  0  0  0  0  0  0  0  0  # atno 17342 bound_to 10162
  140.7502  143.2951  151.3226 LP  0  0  0  0  0  0  0  0  0  0  0  0  # atno 17343 bound_to 10162
  155.9827  130.4842  150.6893 LP  0  0  0  0  0  0  0  0  0  0  0  0  # atno 17370 bound_to 10713
  157.4469  131.0868  151.0886 LP  0  0  0  0  0  0  0  0  0  0  0  0  # atno 17371 bound_to 10713
  140.5587  134.0556  155.7392 LP  0  0  0  0  0  0  0  0  0  0  0  0  # atno 17394 bound_to 11000
  141.1243  133.9410  157.2668 LP  0  0  0  0  0  0  0  0  0  0  0  0  # atno 17395 bound_to 11000

$$$$
