AV-unprocessed.smi:3110|AV-procd|sdf|11829|dock6
  -GOLD-   2272017203D 1   1.00000     0.00000
 Structure written by MMmdl.
 34 35  0  0  0  0  0  0  0  0  2 V2000
  153.2084  140.1758  158.3894 O   0  0  0  0  0  0  0  0  0  0  0  0
  152.4477  140.8326  159.1008 C   0  0  0  0  0  0  0  0  0  0  0  0
  152.9498  141.4492  160.4105 C   0  0  0  0  0  0  0  0  0  0  0  0
  153.0994  142.9832  160.3412 C   0  0  1  0  0  0  0  0  0  0  0  0
  153.1401  143.4899  158.9228 C   0  0  0  0  0  0  0  0  0  0  0  0
  152.2811  144.4836  158.7060 C   0  0  0  0  0  0  0  0  0  0  0  0
  151.4916  144.8398  159.9349 C   0  0  0  0  0  0  0  0  0  0  0  0
  151.9198  143.7747  160.9683 C   0  0  0  0  0  0  0  0  0  0  0  0
  151.1594  141.0481  158.7936 N   0  0  0  0  0  0  0  0  0  0  0  0
  150.4895  140.5309  157.6069 C   0  0  0  0  0  0  0  0  0  0  0  0
  149.7633  141.6479  156.8389 C   0  0  0  0  0  0  0  0  0  0  0  0
  149.2729  141.1824  155.5412 N   0  0  0  0  0  0  0  0  0  0  0  0
  148.2276  141.6906  154.8141 C   0  0  0  0  0  0  0  0  0  0  0  0
  148.1450  140.9377  153.6710 C   0  0  0  0  0  0  0  0  0  0  0  0
  149.1437  140.0039  153.7485 N   0  3  0  0  0  0  0  0  0  0  0  0
  149.8284  140.1545  154.8870 C   0  0  0  0  0  0  0  0  0  0  0  0
  152.2430  141.1838  161.1973 H   0  0  0  0  0  0  0  0  0  0  0  0
  153.9041  140.9981  160.6882 H   0  0  0  0  0  0  0  0  0  0  0  0
  154.0369  143.2861  160.8099 H   0  0  0  0  0  0  0  0  0  0  0  0
  153.8175  143.0837  158.1862 H   0  0  0  0  0  0  0  0  0  0  0  0
  152.1548  145.0050  157.7686 H   0  0  0  0  0  0  0  0  0  0  0  0
  151.7529  145.8469  160.2614 H   0  0  0  0  0  0  0  0  0  0  0  0
  150.4206  144.8039  159.7330 H   0  0  0  0  0  0  0  0  0  0  0  0
  151.0757  143.1139  161.1699 H   0  0  0  0  0  0  0  0  0  0  0  0
  152.2034  144.2279  161.9186 H   0  0  0  0  0  0  0  0  0  0  0  0
  150.6051  141.6032  159.4297 H   0  0  0  0  0  0  0  0  0  0  0  0
  151.2399  140.0660  156.9669 H   0  0  0  0  0  0  0  0  0  0  0  0
  149.7912  139.7412  157.8903 H   0  0  0  0  0  0  0  0  0  0  0  0
  148.9104  142.0259  157.4049 H   0  0  0  0  0  0  0  0  0  0  0  0
  150.4309  142.4927  156.6635 H   0  0  0  0  0  0  0  0  0  0  0  0
  147.6359  142.5281  155.1549 H   0  0  0  0  0  0  0  0  0  0  0  0
  147.4692  140.9954  152.8300 H   0  0  0  0  0  0  0  0  0  0  0  0
  150.6658  139.5632  155.2132 H   0  0  0  0  0  0  0  0  0  0  0  0
  149.3381  139.3000  153.0474 H   0  0  0  0  0  0  0  0  0  0  0  0
  1  2  2  0  0  0  0
  2  3  1  0  0  0  0
  2  9  1  0  0  0  0
  3  4  1  0  0  0  0
  3 17  1  0  0  0  0
  3 18  1  0  0  0  0
  4  8  1  0  0  0  0
  4  5  1  0  0  0  0
  4 19  1  0  0  0  0
  5  6  2  0  0  0  0
  5 20  1  0  0  0  0
  6  7  1  0  0  0  0
  6 21  1  0  0  0  0
  7  8  1  0  0  0  0
  7 22  1  0  0  0  0
  7 23  1  0  0  0  0
  8 24  1  0  0  0  0
  8 25  1  0  0  0  0
  9 10  1  0  0  0  0
  9 26  1  0  0  0  0
 10 11  1  0  0  0  0
 10 27  1  0  0  0  0
 10 28  1  0  0  0  0
 11 12  1  0  0  0  0
 11 29  1  0  0  0  0
 11 30  1  0  0  0  0
 12 16  1  0  0  0  0
 12 13  1  0  0  0  0
 13 14  2  0  0  0  0
 13 31  1  0  0  0  0
 14 15  1  0  0  0  0
 14 32  1  0  0  0  0
 15 16  2  0  0  0  0
 15 34  1  0  0  0  0
 16 33  1  0  0  0  0
M  CHG  1  15   1
M  END
> <s_m_source_file>
AV-unprocessed.smi

> <i_m_source_file_index>
3110

> <i_lp_mmshare_version>
43012

> <i_f3d_flags>
0

> <s_epik_input>
W0NIMl0xW0NIMl1bQ0hdPVtDSF1bQ0BIXTFbQ0gyXUMoPU8pW05IXVtDSDJdW0NIMl1uMltjSF1bY0hdbltjSF0y

> <s_epik_cmdline>
J2VwaWtfcHl0aG9uJywgJy1waCcsICc3LjAnLCAnLXRuJywgJzgnLCAnLW1hJywgJzIwMCcsICctbWV0YWxfYmluZGluZycsICctaW1hZScsICc8aW5maWxlLm1hZT4nLCAnLW9tYWUnLCAnPG91dGZpbGUubWFlPic=

> <r_lp_tautomer_probability>
1

> <r_epik_Ionization_Penalty>
0.271094

> <r_epik_Ionization_Penalty_Charging>
0

> <r_epik_Ionization_Penalty_Neutral>
0.271094

> <r_epik_State_Penalty>
0.263241

> <r_epik_Charging_Adjusted_Penalty>
0.263241

> <i_epik_Tot_Q>
1

> <i_epik_Tot_abs_Q>
1

> <r_epik_Metal_State_Penalty>
0.547832

> <b_epik_Metal_Only>
0

> <s_lp_Force_Field>
OPLS_2005

> <r_lp_Energy>
18.3702

> <b_lp_Chiralities_Consistent>
1

> <s_lp_Variant>
AV-unprocessed.smi:3110-2

> <Gold.Version>
5.8.1

> <Gold.Id.Protein>
6NUR|6NUR_protein|mol2

> <Gold.PLP.Fitness>
44.6853

> <Gold.PLP.PLP>
-40.6034

> <Gold.PLP.part.hbond>
-2.0000

> <Gold.PLP.part.metal>
0.0000

> <Gold.PLP.part.buried>
-2.5744

> <Gold.PLP.part.nonpolar>
-36.1918

> <Gold.PLP.part.repulsive>
0.3146

> <Gold.PLP.ligand.clash>
0.0000

> <Gold.PLP.ligand.torsion>
1.1119

> <Gold.PLP.Chemscore.Hbond>
1.3760

> <Gold.PLP.Chemscore.CHOScore>
0.7134

> <Gold.PLP.Chemscore.Metal>
0.0000

> <Gold.Chemscore.Hbonds>
donor molecule, donor type, donor heavy atom, donor atom, acceptor molecule, acceptor atom, score
      L1  H    15    34       P1  7957  0.30
      P1  H  7997  8008       L1     1  0.98
      L1  C    13    31       P1  8028  0.74

> <Gold.PLP.Chemscore.Internal.Correction>
0.0376

> <Gold.Rescore>
     Score         DG    S(hbond)    S(metal)    S(lipo)     H(rot)  DE(clash)    DE(int)     intcor
     13.97     -14.90       0.93        0.00      99.73       2.10       0.06       0.87       ----

> <Gold.Chemscore.Fitness>
13.9664

> <Gold.Chemscore.DG>
-14.8992

> <Gold.Chemscore.ZeroCoef>
-5.4800

> <Gold.Chemscore.Hbond>
0.9335

> <Gold.Chemscore.Metal>
0.0000

> <Gold.Chemscore.Lipo>
99.7258

> <Gold.Chemscore.Internal_Hbond>
0.0000

> <Gold.Chemscore.DEClash>
0.0604

> <Gold.Chemscore.DEInternal>
0.8724

> <Gold.Chemscore.Rot>
2.0963

> <Gold.Chemscore.Internal.Correction>
   9.000000E+99

> <Gold.Chemscore.Hbonds>
donor molecule, donor type, donor heavy atom, donor atom, acceptor molecule, acceptor atom, score
      L1  H    15    34       P1  7957  0.27
      P1  H  7997  8008       L1     1  0.93

> <Gold.Chemscore.Hbond.Weighted>
-3.1178

> <Gold.Chemscore.Metal.Weighted>
-0.0000

> <Gold.Chemscore.Lipo.Weighted>
-11.6679

> <Gold.Chemscore.Internal_Hbond.Weighted>
0.0000

> <Gold.Chemscore.DEClash.Weighted>
0.0604

> <Gold.Chemscore.DEInternal.Weighted>
0.8724

> <Gold.Chemscore.Rot.Weighted>
5.3665

> <Gold.Chemscore.Internal.Correction.Weighted>
   9.000000E+99

> <Gold.Protein.RotatedTorsions>
[ 6907 6896 6895 6894 ] final  -15.43 input  -60.11 | X-H torsion
[ 7974 7965 7964 7962 ] final  -73.36 input  175.53 | X-H torsion
[ 8008 7997 7996 7995 ] final  -86.29 input   59.86 | X-H torsion
[ 10167 10162 10161 10158 ] final -145.18 input  -65.29 | X-H torsion
[ 10718 10713 10712 10709 ] final    4.08 input   66.30 | X-H torsion
[ 10763 10752 10751 10750 ] final   79.78 input  -60.55 | X-H torsion
[ 11005 11000 10999 10996 ] final  158.87 input  -57.11 | X-H torsion

> <Gold.Protein.ActiveResidues>
 VAL166  LYS551  ARG553  GLY616  TRP617  ASP618  TYR619  PRO620  LYS621  CYS622 
 ASP623  PHE694  ASN695  SER759  ASP760  ASP761  ALA762  ILE779  LEU786  VAL792 
 PHE793  MET794  SER795  GLU796  ALA797  LYS798  CYS799  TRP800  GLU811  SER814 

> <Gold.Protein.RotatedAtoms>
  151.3241  135.0826  159.9315 H   0  0  0  0  0  0  0  0  0  0  0  0  # atno 6907 bound_to 6896
  152.5250  133.9609  159.7727 H   0  0  0  0  0  0  0  0  0  0  0  0  # atno 6908 bound_to 6896
  150.9935  133.6073  159.2735 H   0  0  0  0  0  0  0  0  0  0  0  0  # atno 6909 bound_to 6896
  145.6531  140.9276  143.0974 H   0  0  0  0  0  0  0  0  0  0  0  0  # atno 7974 bound_to 7965
  154.6502  140.0580  156.9947 H   0  0  0  0  0  0  0  0  0  0  0  0  # atno 8008 bound_to 7997
  155.1382  140.3263  155.4439 H   0  0  0  0  0  0  0  0  0  0  0  0  # atno 8009 bound_to 7997
  156.2572  140.1969  156.6499 H   0  0  0  0  0  0  0  0  0  0  0  0  # atno 8010 bound_to 7997
  139.7830  143.8074  152.2641 H   0  0  0  0  0  0  0  0  0  0  0  0  # atno 10167 bound_to 10162
  156.8873  130.5675  149.5651 H   0  0  0  0  0  0  0  0  0  0  0  0  # atno 10718 bound_to 10713
  153.0980  135.4827  154.8815 H   0  0  0  0  0  0  0  0  0  0  0  0  # atno 10763 bound_to 10752
  154.7347  135.3068  154.8834 H   0  0  0  0  0  0  0  0  0  0  0  0  # atno 10764 bound_to 10752
  153.9460  135.6829  153.4797 H   0  0  0  0  0  0  0  0  0  0  0  0  # atno 10765 bound_to 10752
  140.1907  134.8409  157.2908 H   0  0  0  0  0  0  0  0  0  0  0  0  # atno 11005 bound_to 11000
  144.7115  139.8352  143.7413 LP  0  0  0  0  0  0  0  0  0  0  0  0  # atno 17320 bound_to 7965
  146.1187  139.4202  143.0242 LP  0  0  0  0  0  0  0  0  0  0  0  0  # atno 17321 bound_to 7965
  139.8142  144.7323  150.9657 LP  0  0  0  0  0  0  0  0  0  0  0  0  # atno 17342 bound_to 10162
  140.7819  143.4221  151.0825 LP  0  0  0  0  0  0  0  0  0  0  0  0  # atno 17343 bound_to 10162
  156.0646  130.5692  150.9263 LP  0  0  0  0  0  0  0  0  0  0  0  0  # atno 17370 bound_to 10713
  157.6104  131.0936  150.8804 LP  0  0  0  0  0  0  0  0  0  0  0  0  # atno 17371 bound_to 10713
  140.2163  134.4077  155.7587 LP  0  0  0  0  0  0  0  0  0  0  0  0  # atno 17394 bound_to 11000
  141.2226  133.7143  156.8419 LP  0  0  0  0  0  0  0  0  0  0  0  0  # atno 17395 bound_to 11000

$$$$
