AV-unprocessed.smi:1060|AV-procd|sdf|4657|dock5
  -GOLD-   22720 3163D 1   1.00000     0.00000
 Structure written by MMmdl.
 37 38  0  0  0  0  0  0  0  0  1 V2000
  151.0330  137.7581  159.9829 O   0  0  0  0  0  0  0  0  0  0  0  0
  150.6343  138.1402  158.8834 C   0  0  0  0  0  0  0  0  0  0  0  0
  149.7039  137.2370  158.0747 C   0  0  0  0  0  0  0  0  0  0  0  0
  148.4753  137.0931  158.7704 O   0  0  0  0  0  0  0  0  0  0  0  0
  148.3934  135.8759  159.4920 C   0  0  0  0  0  0  0  0  0  0  0  0
  147.3611  136.0330  160.6153 C   0  0  1  0  0  0  0  0  0  0  0  0
  147.2435  134.8048  161.5156 C   0  0  0  0  0  0  0  0  0  0  0  0
  146.6891  135.4111  162.7845 C   0  0  0  0  0  0  0  0  0  0  0  0
  147.4347  136.7412  162.8468 C   0  0  0  0  0  0  0  0  0  0  0  0
  147.7407  137.0867  161.4976 O   0  0  0  0  0  0  0  0  0  0  0  0
  150.9768  139.3014  158.2906 N   0  0  0  0  0  0  0  0  0  0  0  0
  151.7826  140.3473  158.7712 C   0  0  0  0  0  0  0  0  0  0  0  0
  151.5101  141.6702  158.6221 C   0  0  0  0  0  0  0  0  0  0  0  0
  152.3952  142.7029  159.1346 C   0  0  0  0  0  0  0  0  0  0  0  0
  152.1079  144.1800  158.9120 C   0  0  0  0  0  0  0  0  0  0  0  0
  153.0488  144.7481  158.1565 F   0  0  0  0  0  0  0  0  0  0  0  0
  150.9296  144.3531  158.3128 F   0  0  0  0  0  0  0  0  0  0  0  0
  152.0751  144.8164  160.0822 F   0  0  0  0  0  0  0  0  0  0  0  0
  153.5203  142.2818  159.7413 C   0  0  0  0  0  0  0  0  0  0  0  0
  153.8079  140.9242  159.8988 N   0  0  0  0  0  0  0  0  0  0  0  0
  153.0169  139.9229  159.4524 C   0  0  0  0  0  0  0  0  0  0  0  0
  153.3440  138.7492  159.6252 O   0  0  0  0  0  0  0  0  0  0  0  0
  154.6681  140.6892  160.3726 H   0  0  0  0  0  0  0  0  0  0  0  0
  149.5392  137.6822  157.0923 H   0  0  0  0  0  0  0  0  0  0  0  0
  150.1720  136.2621  157.9271 H   0  0  0  0  0  0  0  0  0  0  0  0
  148.0809  135.0802  158.8140 H   0  0  0  0  0  0  0  0  0  0  0  0
  149.3660  135.5981  159.9015 H   0  0  0  0  0  0  0  0  0  0  0  0
  146.3788  136.2643  160.2003 H   0  0  0  0  0  0  0  0  0  0  0  0
  146.6029  134.0288  161.0960 H   0  0  0  0  0  0  0  0  0  0  0  0
  148.2263  134.3722  161.7080 H   0  0  0  0  0  0  0  0  0  0  0  0
  145.6172  135.5845  162.6785 H   0  0  0  0  0  0  0  0  0  0  0  0
  146.8502  134.7894  163.6656 H   0  0  0  0  0  0  0  0  0  0  0  0
  146.8497  137.5212  163.3344 H   0  0  0  0  0  0  0  0  0  0  0  0
  148.3711  136.6286  163.3943 H   0  0  0  0  0  0  0  0  0  0  0  0
  150.6261  139.4390  157.3533 H   0  0  0  0  0  0  0  0  0  0  0  0
  150.6267  141.9998  158.1005 H   0  0  0  0  0  0  0  0  0  0  0  0
  154.2780  142.9386  160.1424 H   0  0  0  0  0  0  0  0  0  0  0  0
  1  2  2  0  0  0  0
  2  3  1  0  0  0  0
  2 11  1  0  0  0  0
  3  4  1  0  0  0  0
  3 24  1  0  0  0  0
  3 25  1  0  0  0  0
  4  5  1  0  0  0  0
  5  6  1  0  0  0  0
  5 26  1  0  0  0  0
  5 27  1  0  0  0  0
  6 10  1  0  0  0  0
  6  7  1  0  0  0  0
  6 28  1  0  0  0  0
  7  8  1  0  0  0  0
  7 29  1  0  0  0  0
  7 30  1  0  0  0  0
  8  9  1  0  0  0  0
  8 31  1  0  0  0  0
  8 32  1  0  0  0  0
  9 10  1  0  0  0  0
  9 33  1  0  0  0  0
  9 34  1  0  0  0  0
 11 12  1  0  0  0  0
 11 35  1  0  0  0  0
 12 21  1  0  0  0  0
 12 13  2  0  0  0  0
 13 14  1  0  0  0  0
 13 36  1  0  0  0  0
 14 15  1  0  0  0  0
 14 19  2  0  0  0  0
 15 16  1  0  0  0  0
 15 17  1  0  0  0  0
 15 18  1  0  0  0  0
 19 20  1  0  0  0  0
 19 37  1  0  0  0  0
 20 23  1  0  0  0  0
 20 21  1  0  0  0  0
 21 22  2  0  0  0  0
M  END
> <s_m_source_file>
AV-unprocessed.smi

> <i_m_source_file_index>
1060

> <i_lp_mmshare_version>
43012

> <i_f3d_flags>
0

> <s_epik_input>
Tz1jMVtuSF1bY0hdYyhDKEYpKEYpRilbY0hdYzFbTkhdQyg9TylbQ0gyXU9bQ0gyXVtDQEBIXTJbQ0gyXVtDSDJdW0NIMl1PMg==

> <s_epik_cmdline>
J2VwaWtfcHl0aG9uJywgJy1waCcsICc3LjAnLCAnLXRuJywgJzgnLCAnLW1hJywgJzIwMCcsICctbWV0YWxfYmluZGluZycsICctaW1hZScsICc8aW5maWxlLm1hZT4nLCAnLW9tYWUnLCAnPG91dGZpbGUubWFlPic=

> <r_lp_tautomer_probability>
0.999

> <r_epik_Ionization_Penalty>
0.00950091

> <r_epik_Ionization_Penalty_Charging>
0.00950081

> <r_epik_Ionization_Penalty_Neutral>
1.00143e-07

> <r_epik_State_Penalty>
0.00721819

> <r_epik_Charging_Adjusted_Penalty>
0.016719

> <i_epik_Tot_Q>
0

> <i_epik_Tot_abs_Q>
0

> <r_epik_Metal_State_Penalty>
0.323303

> <b_epik_Metal_Only>
0

> <s_lp_Force_Field>
OPLS_2005

> <r_lp_Energy>
32.1884

> <b_lp_Chiralities_Consistent>
1

> <s_lp_Variant>
AV-unprocessed.smi:1060-2

> <Gold.Version>
5.8.1

> <Gold.Id.Protein>
6NUR|6NUR_protein|mol2

> <Gold.PLP.Fitness>
50.7965

> <Gold.PLP.PLP>
-49.0054

> <Gold.PLP.part.hbond>
-2.5731

> <Gold.PLP.part.metal>
0.0000

> <Gold.PLP.part.buried>
-6.3752

> <Gold.PLP.part.nonpolar>
-40.9288

> <Gold.PLP.part.repulsive>
0.1839

> <Gold.PLP.ligand.clash>
0.0000

> <Gold.PLP.ligand.torsion>
0.7920

> <Gold.PLP.Chemscore.Hbond>
1.0904

> <Gold.PLP.Chemscore.CHOScore>
0.0000

> <Gold.PLP.Chemscore.Metal>
0.0000

> <Gold.Chemscore.Hbonds>
donor molecule, donor type, donor heavy atom, donor atom, acceptor molecule, acceptor atom, score
      P1  H  6931  6943       L1    10  0.75
      P1  H  6934  6947       L1    10  0.66

> <Gold.PLP.Chemscore.Internal.Correction>
0.1039

> <Gold.Rescore>
     Score         DG    S(hbond)    S(metal)    S(lipo)     H(rot)  DE(clash)    DE(int)     intcor
     10.91     -14.08       1.13        0.00      83.95       1.95       0.05       3.13       ----

> <Gold.Chemscore.Fitness>
10.9053

> <Gold.Chemscore.DG>
-14.0758

> <Gold.Chemscore.ZeroCoef>
-5.4800

> <Gold.Chemscore.Hbond>
1.1295

> <Gold.Chemscore.Metal>
0.0000

> <Gold.Chemscore.Lipo>
83.9518

> <Gold.Chemscore.Internal_Hbond>
0.0000

> <Gold.Chemscore.DEClash>
0.0451

> <Gold.Chemscore.DEInternal>
3.1253

> <Gold.Chemscore.Rot>
1.9527

> <Gold.Chemscore.Internal.Correction>
   9.000000E+99

> <Gold.Chemscore.Hbonds>
donor molecule, donor type, donor heavy atom, donor atom, acceptor molecule, acceptor atom, score
      P1  H  6931  6943       L1    10  0.09
      P1  H  6934  6947       L1    10  0.56

> <Gold.Chemscore.Hbond.Weighted>
-3.7724

> <Gold.Chemscore.Metal.Weighted>
-0.0000

> <Gold.Chemscore.Lipo.Weighted>
-9.8224

> <Gold.Chemscore.Internal_Hbond.Weighted>
0.0000

> <Gold.Chemscore.DEClash.Weighted>
0.0451

> <Gold.Chemscore.DEInternal.Weighted>
3.1253

> <Gold.Chemscore.Rot.Weighted>
4.9990

> <Gold.Chemscore.Internal.Correction.Weighted>
   9.000000E+99

> <Gold.Protein.RotatedTorsions>
[ 6907 6896 6895 6894 ] final  -16.40 input  -60.11 | X-H torsion
[ 7974 7965 7964 7962 ] final   55.76 input  175.53 | X-H torsion
[ 8008 7997 7996 7995 ] final  -10.41 input   59.86 | X-H torsion
[ 10167 10162 10161 10158 ] final   28.67 input  -65.29 | X-H torsion
[ 10718 10713 10712 10709 ] final  -26.12 input   66.30 | X-H torsion
[ 10763 10752 10751 10750 ] final  125.59 input  -60.55 | X-H torsion
[ 11005 11000 10999 10996 ] final    0.37 input  -57.11 | X-H torsion

> <Gold.Protein.ActiveResidues>
 VAL166  LYS551  ARG553  GLY616  TRP617  ASP618  TYR619  PRO620  LYS621  CYS622 
 ASP623  PHE694  ASN695  SER759  ASP760  ASP761  ALA762  ILE779  LEU786  VAL792 
 PHE793  MET794  SER795  GLU796  ALA797  LYS798  CYS799  TRP800  GLU811  SER814 

> <Gold.Protein.RotatedAtoms>
  151.3091  135.0789  159.9265 H   0  0  0  0  0  0  0  0  0  0  0  0  # atno 6907 bound_to 6896
  152.5281  133.9754  159.7792 H   0  0  0  0  0  0  0  0  0  0  0  0  # atno 6908 bound_to 6896
  151.0054  133.5964  159.2720 H   0  0  0  0  0  0  0  0  0  0  0  0  # atno 6909 bound_to 6896
  145.9469  139.3938  143.0329 H   0  0  0  0  0  0  0  0  0  0  0  0  # atno 7974 bound_to 7965
  154.5557  140.2329  155.8414 H   0  0  0  0  0  0  0  0  0  0  0  0  # atno 8008 bound_to 7997
  156.1986  140.3058  155.9440 H   0  0  0  0  0  0  0  0  0  0  0  0  # atno 8009 bound_to 7997
  155.2984  140.0430  157.3018 H   0  0  0  0  0  0  0  0  0  0  0  0  # atno 8010 bound_to 7997
  140.4833  144.0582  150.6272 H   0  0  0  0  0  0  0  0  0  0  0  0  # atno 10167 bound_to 10162
  156.4553  130.4492  149.6963 H   0  0  0  0  0  0  0  0  0  0  0  0  # atno 10718 bound_to 10713
  153.6797  135.3316  155.3175 H   0  0  0  0  0  0  0  0  0  0  0  0  # atno 10763 bound_to 10752
  154.8469  135.4406  154.1619 H   0  0  0  0  0  0  0  0  0  0  0  0  # atno 10764 bound_to 10752
  153.2632  135.6993  153.7634 H   0  0  0  0  0  0  0  0  0  0  0  0  # atno 10765 bound_to 10752
  140.6273  133.9606  155.8256 H   0  0  0  0  0  0  0  0  0  0  0  0  # atno 11005 bound_to 11000
  145.8223  140.9672  143.0892 LP  0  0  0  0  0  0  0  0  0  0  0  0  # atno 17320 bound_to 7965
  144.6789  140.0057  143.7484 LP  0  0  0  0  0  0  0  0  0  0  0  0  # atno 17321 bound_to 7965
  140.3830  143.2792  152.0148 LP  0  0  0  0  0  0  0  0  0  0  0  0  # atno 17342 bound_to 10162
  139.4837  144.6139  151.7382 LP  0  0  0  0  0  0  0  0  0  0  0  0  # atno 17343 bound_to 10162
  156.3773  130.7561  151.2550 LP  0  0  0  0  0  0  0  0  0  0  0  0  # atno 17370 bound_to 10713
  157.7501  131.0306  150.4143 LP  0  0  0  0  0  0  0  0  0  0  0  0  # atno 17371 bound_to 10713
  141.0700  134.0220  157.3540 LP  0  0  0  0  0  0  0  0  0  0  0  0  # atno 17394 bound_to 11000
  139.9129  135.0193  156.7767 LP  0  0  0  0  0  0  0  0  0  0  0  0  # atno 17395 bound_to 11000

$$$$
