#       Name:                AV-unprocessed.smi:3340
#       Creating user name   scv26
#       Creation time:       Fri Mar 27 19:28:24 2020


#       File generated by GOLD software.
#

@<TRIPOS>MOLECULE
AV-unprocessed.smi:3340
    46    47     1
SMALL
NO_CHARGES


@<TRIPOS>ATOM
      1 ****        -5.5569   1.6744   0.0492 C.3            1 S1                 0.0000
      2 ****        -4.8078   0.3607  -0.1849 C.2            1 S1                 0.0000
      3 ****        -5.4116  -0.6920   0.0224 O.2            1 S1                 0.0000
      4 ****        -3.5204   0.3958  -0.6059 N.am           1 S1                 0.0000
      5 ****        -2.7153  -0.8192  -0.8048 C.3            1 S1                 0.0000
      6 ****        -1.5306  -0.8056   0.1822 C.3            1 S1                 0.0000
      7 ****        -0.7319   0.4136  -0.0475 N.am           1 S1                 0.0000
      8 ****         0.5154   0.4682  -0.5784 C.2            1 S1                 0.0000
      9 ****         1.0453   1.5181  -0.9429 O.2            1 S1                 0.0000
     10 ****         1.1553  -0.7152  -0.6240 N.am           1 S1                 0.0000
     11 ****         2.5090  -0.9872  -1.1170 C.3            1 S1                 0.0000
     12 ****         2.6071  -0.7587  -2.6348 C.3            1 S1                 0.0000
     13 ****         3.6045  -0.2206  -0.3403 C.3            1 S1                 0.0000
     14 ****         3.5698  -0.4807   1.1022 N.pl3          1 S1                 0.0000
     15 ****         3.0843   0.3446   2.0838 C.2            1 S1                 0.0000
     16 ****         3.2614  -0.3159   3.2722 C.2            1 S1                 0.0000
     17 ****         3.8492  -1.5141   2.9660 N.pl3          1 S1                 1.0000
     18 ****         4.0383  -1.6112   1.6459 C.2            1 S1                 0.0000
     19 ****        -1.5428   1.6217   0.1670 C.3            1 S1                 0.0000
     20 ****        -2.7256   1.6155  -0.8217 C.3            1 S1                 0.0000
     21 ****        -5.0629   2.2698   0.8173 H              1 S1                 0.0000
     22 ****        -6.5765   1.4805   0.3841 H              1 S1                 0.0000
     23 ****        -5.6150   2.2565  -0.8708 H              1 S1                 0.0000
     24 ****        -3.2912  -1.7354  -0.6674 H              1 S1                 0.0000
     25 ****        -2.3516  -0.8452  -1.8332 H              1 S1                 0.0000
     26 ****        -1.8997  -0.8012   1.2090 H              1 S1                 0.0000
     27 ****        -0.9678  -1.7328   0.0787 H              1 S1                 0.0000
     28 ****         0.6416  -1.5175  -0.2890 H              1 S1                 0.0000
     29 ****         2.6696  -2.0523  -0.9470 H              1 S1                 0.0000
     30 ****         3.5773  -1.0797  -3.0144 H              1 S1                 0.0000
     31 ****         2.4859   0.2930  -2.8954 H              1 S1                 0.0000
     32 ****         1.8429  -1.3249  -3.1683 H              1 S1                 0.0000
     33 ****         4.5927  -0.5094  -0.7015 H              1 S1                 0.0000
     34 ****         3.5265   0.8562  -0.4922 H              1 S1                 0.0000
     35 ****         2.6578   1.3139   1.8679 H              1 S1                 0.0000
     36 ****         3.0201  -0.0304   4.2858 H              1 S1                 0.0000
     37 ****         4.4796  -2.4404   1.1221 H              1 S1                 0.0000
     38 ****        -1.9104   1.6309   1.1941 H              1 S1                 0.0000
     39 ****        -0.9690   2.5419   0.0502 H              1 S1                 0.0000
     40 ****        -2.3573   1.6236  -1.8488 H              1 S1                 0.0000
     41 ****        -3.2957   2.5360  -0.7073 H              1 S1                 0.0000
     42 ****         4.1064  -2.2251   3.6394 H              1 S1                 0.0000
     43 ****        -6.3616  -0.6705   0.3337 LP             1 S1                 0.0000
     44 ****        -4.9520  -1.5685  -0.1207 LP             1 S1                 0.0000
     45 ****         0.5531   2.3839  -0.8535 LP             1 S1                 0.0000
     46 ****         1.9679   1.5050  -1.3284 LP             1 S1                 0.0000
@<TRIPOS>BOND
    1    1    2 1     
    2    1   21 1     
    3    1   22 1     
    4    1   23 1     
    5    2    3 2     
    6    2    4 am    
    7    4   20 1     
    8    4    5 1     
    9    5    6 1     
   10    5   24 1     
   11    5   25 1     
   12    6    7 1     
   13    6   26 1     
   14    6   27 1     
   15    7    8 am    
   16    7   19 1     
   17    8    9 2     
   18    8   10 am    
   19   10   11 1     
   20   10   28 1     
   21   11   12 1     
   22   11   13 1     
   23   11   29 1     
   24   12   30 1     
   25   12   31 1     
   26   12   32 1     
   27   13   14 1     
   28   13   33 1     
   29   13   34 1     
   30   14   18 1     
   31   14   15 1     
   32   15   16 2     
   33   15   35 1     
   34   16   17 1     
   35   16   36 1     
   36   17   18 2     
   37   17   42 1     
   38   18   37 1     
   39   19   20 1     
   40   19   38 1     
   41   19   39 1     
   42   20   40 1     
   43   20   41 1     
   44    3   43 1     
   45    3   44 1     
   46    9   45 1     
   47    9   46 1     
@<TRIPOS>SUBSTRUCTURE
      1 S1             1
@<TRIPOS>SET
LONE_PAIRS      STATIC     ATOMS    <user>   **** ""
4 43 44 45 46
DONOR_HYDROGENS      STATIC     ATOMS    <user>   **** ""
2 28 42
ATOM$BLUE        STATIC     ATOMS    COLORGROUP SYSTEM
4 43 44 45 46
ATOM$RED        STATIC     ATOMS    COLORGROUP SYSTEM
2 28 42
