AV-unprocessed.smi:1445|AV-procd|sdf|5887|dock6
  -GOLD-   22720 5563D 1   1.00000     0.00000
 Structure written by MMmdl.
 46 47  0  0  0  0  0  0  0  0  2 V2000
  151.7548  138.2801  154.6272 C   0  0  0  0  0  0  0  0  0  0  0  0
  150.3797  138.2618  154.2586 O   0  0  0  0  0  0  0  0  0  0  0  0
  149.6465  139.4263  154.3878 C   0  0  0  0  0  0  0  0  0  0  0  0
  150.2558  140.5148  154.9213 N   0  0  0  0  0  0  0  0  0  0  0  0
  149.5454  141.6545  155.0425 C   0  0  0  0  0  0  0  0  0  0  0  0
  148.2035  141.7714  154.6378 C   0  0  0  0  0  0  0  0  0  0  0  0
  147.5689  140.6442  154.0843 C   0  0  0  0  0  0  0  0  0  0  0  0
  148.2972  139.4351  153.9611 C   0  0  0  0  0  0  0  0  0  0  0  0
  147.7674  138.2358  153.4057 N   0  0  0  0  0  0  0  0  0  0  0  0
  146.5154  137.7501  153.4647 C   0  0  0  0  0  0  0  0  0  0  0  0
  145.5692  138.2735  154.0521 O   0  0  0  0  0  0  0  0  0  0  0  0
  146.4152  136.5882  152.8032 N   0  0  0  0  0  0  0  0  0  0  0  0
  145.1866  135.8160  152.6574 C   0  0  0  0  0  0  0  0  0  0  0  0
  145.3334  134.3946  153.2355 C   0  0  0  0  0  0  0  0  0  0  0  0
  145.0967  133.3429  152.2150 N   0  3  1  0  0  0  0  0  0  0  0  0
  143.9052  133.6310  151.3757 C   0  0  0  0  0  0  0  0  0  0  0  0
  143.5886  132.4520  150.4420 C   0  0  0  0  0  0  0  0  0  0  0  0
  144.8020  132.0951  149.5715 C   0  0  0  0  0  0  0  0  0  0  0  0
  146.0583  131.8620  150.4311 C   0  0  2  0  0  0  0  0  0  0  0  0
  146.0264  130.5207  151.1849 C   0  0  0  0  0  0  0  0  0  0  0  0
  146.2946  133.0564  151.3787 C   0  0  0  0  0  0  0  0  0  0  0  0
  152.1859  137.2930  154.4623 H   0  0  0  0  0  0  0  0  0  0  0  0
  151.8813  138.5237  155.6830 H   0  0  0  0  0  0  0  0  0  0  0  0
  152.3208  138.9924  154.0251 H   0  0  0  0  0  0  0  0  0  0  0  0
  150.0638  142.4999  155.4699 H   0  0  0  0  0  0  0  0  0  0  0  0
  147.6738  142.7063  154.7454 H   0  0  0  0  0  0  0  0  0  0  0  0
  146.5459  140.7402  153.7578 H   0  0  0  0  0  0  0  0  0  0  0  0
  148.4438  137.6533  152.9339 H   0  0  0  0  0  0  0  0  0  0  0  0
  147.2419  136.2239  152.3517 H   0  0  0  0  0  0  0  0  0  0  0  0
  144.3700  136.3612  153.1312 H   0  0  0  0  0  0  0  0  0  0  0  0
  144.9461  135.7611  151.5952 H   0  0  0  0  0  0  0  0  0  0  0  0
  146.3469  134.2962  153.6273 H   0  0  0  0  0  0  0  0  0  0  0  0
  144.6615  134.2376  154.0807 H   0  0  0  0  0  0  0  0  0  0  0  0
  143.0402  133.8218  152.0120 H   0  0  0  0  0  0  0  0  0  0  0  0
  144.0780  134.5383  150.7945 H   0  0  0  0  0  0  0  0  0  0  0  0
  143.2853  131.5869  151.0323 H   0  0  0  0  0  0  0  0  0  0  0  0
  142.7379  132.7002  149.8065 H   0  0  0  0  0  0  0  0  0  0  0  0
  144.5862  131.2181  148.9601 H   0  0  0  0  0  0  0  0  0  0  0  0
  144.9918  132.9128  148.8746 H   0  0  0  0  0  0  0  0  0  0  0  0
  146.9101  131.8107  149.7514 H   0  0  0  0  0  0  0  0  0  0  0  0
  145.2142  130.4791  151.9106 H   0  0  0  0  0  0  0  0  0  0  0  0
  146.9586  130.3550  151.7259 H   0  0  0  0  0  0  0  0  0  0  0  0
  145.8977  129.6865  150.4947 H   0  0  0  0  0  0  0  0  0  0  0  0
  146.5401  133.9455  150.7956 H   0  0  0  0  0  0  0  0  0  0  0  0
  147.1629  132.8506  152.0032 H   0  0  0  0  0  0  0  0  0  0  0  0
  144.8825  132.4966  152.7231 H   0  0  0  0  0  0  0  0  0  0  0  0
  1  2  1  0  0  0  0
  1 22  1  0  0  0  0
  1 23  1  0  0  0  0
  1 24  1  0  0  0  0
  2  3  1  0  0  0  0
  3  8  1  0  0  0  0
  3  4  2  0  0  0  0
  4  5  1  0  0  0  0
  5  6  2  0  0  0  0
  5 25  1  0  0  0  0
  6  7  1  0  0  0  0
  6 26  1  0  0  0  0
  7  8  2  0  0  0  0
  7 27  1  0  0  0  0
  8  9  1  0  0  0  0
  9 10  1  0  0  0  0
  9 28  1  0  0  0  0
 10 11  2  0  0  0  0
 10 12  1  0  0  0  0
 12 13  1  0  0  0  0
 12 29  1  0  0  0  0
 13 14  1  0  0  0  0
 13 30  1  0  0  0  0
 13 31  1  0  0  0  0
 14 15  1  0  0  0  0
 14 32  1  0  0  0  0
 14 33  1  0  0  0  0
 15 21  1  0  0  0  0
 15 16  1  0  0  0  0
 15 46  1  0  0  0  0
 16 17  1  0  0  0  0
 16 34  1  0  0  0  0
 16 35  1  0  0  0  0
 17 18  1  0  0  0  0
 17 36  1  0  0  0  0
 17 37  1  0  0  0  0
 18 19  1  0  0  0  0
 18 38  1  0  0  0  0
 18 39  1  0  0  0  0
 19 20  1  0  0  0  0
 19 21  1  0  0  0  0
 19 40  1  0  0  0  0
 20 41  1  0  0  0  0
 20 42  1  0  0  0  0
 20 43  1  0  0  0  0
 21 44  1  0  0  0  0
 21 45  1  0  0  0  0
M  CHG  1  15   1
M  END
> <s_m_source_file>
AV-unprocessed.smi

> <i_m_source_file_index>
1445

> <i_lp_mmshare_version>
43012

> <i_f3d_flags>
0

> <s_epik_input>
W0NIM11PYzFuW2NIXVtjSF1bY0hdYzFbTkhdQyg9TylbTkhdW0NIMl1bQ0gyXU4yW0NIMl1bQ0gyXVtDSDJdW0NAQEhdKFtDSDNdKVtDSDJdMg==

> <s_epik_cmdline>
J2VwaWtfcHl0aG9uJywgJy1waCcsICc3LjAnLCAnLXRuJywgJzgnLCAnLW1hJywgJzIwMCcsICctbWV0YWxfYmluZGluZycsICctaW1hZScsICc8aW5maWxlLm1hZT4nLCAnLW9tYWUnLCAnPG91dGZpbGUubWFlPic=

> <r_lp_tautomer_probability>
1

> <r_epik_Ionization_Penalty>
0.00179544

> <r_epik_Ionization_Penalty_Charging>
0.00171832

> <r_epik_Ionization_Penalty_Neutral>
7.71118e-05

> <r_epik_State_Penalty>
0.0011618

> <r_epik_Charging_Adjusted_Penalty>
0.00288012

> <i_epik_Tot_Q>
1

> <i_epik_Tot_abs_Q>
1

> <r_epik_Metal_State_Penalty>
-0

> <b_epik_Metal_Only>
0

> <s_lp_Force_Field>
OPLS_2005

> <r_lp_Energy>
21.8859

> <b_lp_Chiralities_Consistent>
1

> <s_lp_Variant>
AV-unprocessed.smi:1445-3

> <Gold.Version>
5.8.1

> <Gold.Id.Protein>
6NUR|6NUR_protein|mol2

> <Gold.PLP.Fitness>
46.9355

> <Gold.PLP.PLP>
-37.1911

> <Gold.PLP.part.hbond>
-3.0000

> <Gold.PLP.part.metal>
0.0000

> <Gold.PLP.part.buried>
-2.1967

> <Gold.PLP.part.nonpolar>
-31.8644

> <Gold.PLP.part.repulsive>
0.5172

> <Gold.PLP.ligand.clash>
0.0000

> <Gold.PLP.ligand.torsion>
0.7874

> <Gold.PLP.Chemscore.Hbond>
2.9600

> <Gold.PLP.Chemscore.CHOScore>
0.7979

> <Gold.PLP.Chemscore.Metal>
0.0000

> <Gold.Chemscore.Hbonds>
donor molecule, donor type, donor heavy atom, donor atom, acceptor molecule, acceptor atom, score
      L1  H     9    28       P1  7948  1.00
      L1  H    12    29       P1  7948  1.00
      P1  H  7989  7998       L1     4  0.96
      L1  C     5    25       P1  8028  0.79

> <Gold.PLP.Chemscore.Internal.Correction>
0.0457

> <Gold.Rescore>
     Score         DG    S(hbond)    S(metal)    S(lipo)     H(rot)  DE(clash)    DE(int)     intcor
     18.87     -19.78       2.13        0.00      98.73       1.71       0.06       0.85       ----

> <Gold.Chemscore.Fitness>
18.8718

> <Gold.Chemscore.DG>
-19.7832

> <Gold.Chemscore.ZeroCoef>
-5.4800

> <Gold.Chemscore.Hbond>
2.1350

> <Gold.Chemscore.Metal>
0.0000

> <Gold.Chemscore.Lipo>
98.7340

> <Gold.Chemscore.Internal_Hbond>
0.0000

> <Gold.Chemscore.DEClash>
0.0584

> <Gold.Chemscore.DEInternal>
0.8530

> <Gold.Chemscore.Rot>
1.7107

> <Gold.Chemscore.Internal.Correction>
   9.000000E+99

> <Gold.Chemscore.Hbonds>
donor molecule, donor type, donor heavy atom, donor atom, acceptor molecule, acceptor atom, score
      L1  H     9    28       P1  7948  0.98
      L1  H    12    29       P1  7948  0.99
      P1  H  7989  7998       L1     4  0.11

> <Gold.Chemscore.Hbond.Weighted>
-7.1308

> <Gold.Chemscore.Metal.Weighted>
-0.0000

> <Gold.Chemscore.Lipo.Weighted>
-11.5519

> <Gold.Chemscore.Internal_Hbond.Weighted>
0.0000

> <Gold.Chemscore.DEClash.Weighted>
0.0584

> <Gold.Chemscore.DEInternal.Weighted>
0.8530

> <Gold.Chemscore.Rot.Weighted>
4.3794

> <Gold.Chemscore.Internal.Correction.Weighted>
   9.000000E+99

> <Gold.Protein.RotatedTorsions>
[ 6907 6896 6895 6894 ] final  -10.62 input  -60.11 | X-H torsion
[ 7974 7965 7964 7962 ] final -160.87 input  175.53 | X-H torsion
[ 8008 7997 7996 7995 ] final  100.13 input   59.86 | X-H torsion
[ 10167 10162 10161 10158 ] final  -38.80 input  -65.29 | X-H torsion
[ 10718 10713 10712 10709 ] final  174.78 input   66.30 | X-H torsion
[ 10763 10752 10751 10750 ] final -102.41 input  -60.55 | X-H torsion
[ 11005 11000 10999 10996 ] final   67.26 input  -57.11 | X-H torsion

> <Gold.Protein.ActiveResidues>
 VAL166  LYS551  ARG553  GLY616  TRP617  ASP618  TYR619  PRO620  LYS621  CYS622 
 ASP623  PHE694  ASN695  SER759  ASP760  ASP761  ALA762  ILE779  LEU786  VAL792 
 PHE793  MET794  SER795  GLU796  ALA797  LYS798  CYS799  TRP800  GLU811  SER814 

> <Gold.Protein.RotatedAtoms>
  151.3991  135.0968  159.9549 H   0  0  0  0  0  0  0  0  0  0  0  0  # atno 6907 bound_to 6896
  152.5056  133.8906  159.7402 H   0  0  0  0  0  0  0  0  0  0  0  0  # atno 6908 bound_to 6896
  150.9376  133.6637  159.2826 H   0  0  0  0  0  0  0  0  0  0  0  0  # atno 6909 bound_to 6896
  144.7411  140.3479  143.6121 H   0  0  0  0  0  0  0  0  0  0  0  0  # atno 7974 bound_to 7965
  156.1173  140.3218  155.8157 H   0  0  0  0  0  0  0  0  0  0  0  0  # atno 8008 bound_to 7997
  155.4567  140.0536  157.3012 H   0  0  0  0  0  0  0  0  0  0  0  0  # atno 8009 bound_to 7997
  154.4802  140.2049  155.9796 H   0  0  0  0  0  0  0  0  0  0  0  0  # atno 8010 bound_to 7997
  140.7082  143.3254  151.2693 H   0  0  0  0  0  0  0  0  0  0  0  0  # atno 10167 bound_to 10162
  156.9445  131.0012  151.2961 H   0  0  0  0  0  0  0  0  0  0  0  0  # atno 10718 bound_to 10713
  154.7731  135.4862  153.9689 H   0  0  0  0  0  0  0  0  0  0  0  0  # atno 10763 bound_to 10752
  153.1394  135.6769  153.9059 H   0  0  0  0  0  0  0  0  0  0  0  0  # atno 10764 bound_to 10752
  153.8738  135.3140  155.3421 H   0  0  0  0  0  0  0  0  0  0  0  0  # atno 10765 bound_to 10752
  139.9782  134.6788  156.0313 H   0  0  0  0  0  0  0  0  0  0  0  0  # atno 11005 bound_to 11000
  145.7307  139.1735  143.2432 LP  0  0  0  0  0  0  0  0  0  0  0  0  # atno 17320 bound_to 7965
  146.1208  140.7311  142.9458 LP  0  0  0  0  0  0  0  0  0  0  0  0  # atno 17321 bound_to 7965
  139.6720  144.0003  152.2759 LP  0  0  0  0  0  0  0  0  0  0  0  0  # atno 17342 bound_to 10162
  139.9604  144.6561  150.8085 LP  0  0  0  0  0  0  0  0  0  0  0  0  # atno 17343 bound_to 10162
  157.5763  130.8345  149.8460 LP  0  0  0  0  0  0  0  0  0  0  0  0  # atno 17370 bound_to 10713
  156.0390  130.3744  150.1486 LP  0  0  0  0  0  0  0  0  0  0  0  0  # atno 17371 bound_to 10713
  141.1457  133.6556  156.3860 LP  0  0  0  0  0  0  0  0  0  0  0  0  # atno 17394 bound_to 11000
  140.5151  134.6358  157.5298 LP  0  0  0  0  0  0  0  0  0  0  0  0  # atno 17395 bound_to 11000

$$$$
