AV-unprocessed.smi:3250|AV-procd|sdf|12434|dock7
  -GOLD-   2272018323D 1   1.00000     0.00000
 Structure written by MMmdl.
 40 41  0  0  0  0  0  0  0  0  3 V2000
  144.5028  132.4555  149.4059 C   0  0  0  0  0  0  0  0  0  0  0  0
  145.9178  131.8696  149.3007 C   0  0  0  0  0  0  0  0  0  0  0  0
  146.4848  131.5048  150.6231 N   0  3  2  0  0  0  0  0  0  0  0  0
  145.8447  130.2948  151.1909 C   0  0  0  0  0  0  0  0  0  0  0  0
  146.4848  129.9286  152.5388 C   0  0  0  0  0  0  0  0  0  0  0  0
  146.3831  131.0351  153.4259 O   0  0  0  0  0  0  0  0  0  0  0  0
  147.0865  132.1771  152.9474 C   0  0  2  0  0  0  0  0  0  0  0  0
  146.9848  133.2815  154.0095 C   0  0  0  0  0  0  0  0  0  0  0  0
  148.0244  134.2869  153.8448 N   0  0  0  0  0  0  0  0  0  0  0  0
  149.0273  134.5093  154.7701 C   0  0  0  0  0  0  0  0  0  0  0  0
  149.9256  135.4664  154.4940 N   0  3  0  0  0  0  0  0  0  0  0  0
  150.9323  135.7175  155.3667 C   0  0  0  0  0  0  0  0  0  0  0  0
  151.0375  134.9815  156.5606 C   0  0  0  0  0  0  0  0  0  0  0  0
  150.0618  133.9975  156.7902 C   0  0  0  0  0  0  0  0  0  0  0  0
  150.1116  133.2486  157.9476 O   0  0  0  0  0  0  0  0  0  0  0  0
  149.1061  132.2635  158.1587 C   0  0  0  0  0  0  0  0  0  0  0  0
  149.0730  133.7753  155.8915 N   0  0  0  0  0  0  0  0  0  0  0  0
  146.4585  132.6153  151.6084 C   0  0  0  0  0  0  0  0  0  0  0  0
  144.1582  132.7999  148.4304 H   0  0  0  0  0  0  0  0  0  0  0  0
  144.4782  133.3091  150.0838 H   0  0  0  0  0  0  0  0  0  0  0  0
  143.7811  131.7203  149.7604 H   0  0  0  0  0  0  0  0  0  0  0  0
  145.9275  131.0042  148.6365 H   0  0  0  0  0  0  0  0  0  0  0  0
  146.5568  132.6222  148.8366 H   0  0  0  0  0  0  0  0  0  0  0  0
  144.7759  130.4724  151.3210 H   0  0  0  0  0  0  0  0  0  0  0  0
  145.9495  129.4590  150.4981 H   0  0  0  0  0  0  0  0  0  0  0  0
  145.9711  129.0739  152.9792 H   0  0  0  0  0  0  0  0  0  0  0  0
  147.5297  129.6413  152.4109 H   0  0  0  0  0  0  0  0  0  0  0  0
  148.1373  131.9243  152.7914 H   0  0  0  0  0  0  0  0  0  0  0  0
  146.0151  133.7754  153.9352 H   0  0  0  0  0  0  0  0  0  0  0  0
  147.0499  132.8509  155.0095 H   0  0  0  0  0  0  0  0  0  0  0  0
  148.1074  134.7460  152.9495 H   0  0  0  0  0  0  0  0  0  0  0  0
  151.6204  136.4995  155.0807 H   0  0  0  0  0  0  0  0  0  0  0  0
  151.8312  135.1659  157.2698 H   0  0  0  0  0  0  0  0  0  0  0  0
  149.2837  131.7658  159.1120 H   0  0  0  0  0  0  0  0  0  0  0  0
  149.1231  131.5007  157.3790 H   0  0  0  0  0  0  0  0  0  0  0  0
  148.1121  132.7111  158.2002 H   0  0  0  0  0  0  0  0  0  0  0  0
  147.0054  133.4744  151.2209 H   0  0  0  0  0  0  0  0  0  0  0  0
  145.4273  132.9371  151.7648 H   0  0  0  0  0  0  0  0  0  0  0  0
  147.4537  131.2664  150.4660 H   0  0  0  0  0  0  0  0  0  0  0  0
  149.8654  136.0096  153.6326 H   0  0  0  0  0  0  0  0  0  0  0  0
  1  2  1  0  0  0  0
  1 19  1  0  0  0  0
  1 20  1  0  0  0  0
  1 21  1  0  0  0  0
  2  3  1  0  0  0  0
  2 22  1  0  0  0  0
  2 23  1  0  0  0  0
  3 18  1  0  0  0  0
  3  4  1  0  0  0  0
  3 39  1  0  0  0  0
  4  5  1  0  0  0  0
  4 24  1  0  0  0  0
  4 25  1  0  0  0  0
  5  6  1  0  0  0  0
  5 26  1  0  0  0  0
  5 27  1  0  0  0  0
  6  7  1  0  0  0  0
  7  8  1  0  0  0  0
  7 18  1  0  0  0  0
  7 28  1  0  0  0  0
  8  9  1  0  0  0  0
  8 29  1  0  0  0  0
  8 30  1  0  0  0  0
  9 10  1  0  0  0  0
  9 31  1  0  0  0  0
 10 17  1  0  0  0  0
 10 11  2  0  0  0  0
 11 12  1  0  0  0  0
 11 40  1  0  0  0  0
 12 13  2  0  0  0  0
 12 32  1  0  0  0  0
 13 14  1  0  0  0  0
 13 33  1  0  0  0  0
 14 15  1  0  0  0  0
 14 17  2  0  0  0  0
 15 16  1  0  0  0  0
 16 34  1  0  0  0  0
 16 35  1  0  0  0  0
 16 36  1  0  0  0  0
 18 37  1  0  0  0  0
 18 38  1  0  0  0  0
M  CHG  1   3   1
M  CHG  1  11   1
M  END
> <s_m_source_file>
AV-unprocessed.smi

> <i_m_source_file_index>
3250

> <i_lp_mmshare_version>
43012

> <i_f3d_flags>
0

> <s_epik_input>
W0NIM11bQ0gyXU4xW0NIMl1bQ0gyXU9bQ0BIXShbQ0gyXTEpW0NIMl1bTkhdYzJuW2NIXVtjSF1jKG4yKU9bQ0gzXQ==

> <s_epik_cmdline>
J2VwaWtfcHl0aG9uJywgJy1waCcsICc3LjAnLCAnLXRuJywgJzgnLCAnLW1hJywgJzIwMCcsICctbWV0YWxfYmluZGluZycsICctaW1hZScsICc8aW5maWxlLm1hZT4nLCAnLW9tYWUnLCAnPG91dGZpbGUubWFlPic=

> <r_lp_tautomer_probability>
0.999985

> <r_epik_Ionization_Penalty>
2.24691

> <r_epik_Ionization_Penalty_Charging>
2.24686

> <r_epik_Ionization_Penalty_Neutral>
4.52111e-05

> <r_epik_State_Penalty>
2.24709

> <r_epik_Charging_Adjusted_Penalty>
4.49395

> <i_epik_Tot_Q>
2

> <i_epik_Tot_abs_Q>
2

> <r_epik_Metal_State_Penalty>
2.26327

> <b_epik_Metal_Only>
0

> <s_lp_Force_Field>
OPLS_2005

> <r_lp_Energy>
18.1158

> <b_lp_Chiralities_Consistent>
1

> <s_lp_Variant>
AV-unprocessed.smi:3250-10

> <Gold.Version>
5.8.1

> <Gold.Id.Protein>
6NUR|6NUR_protein|mol2

> <Gold.PLP.Fitness>
44.5467

> <Gold.PLP.PLP>
-27.8139

> <Gold.PLP.part.hbond>
-4.1468

> <Gold.PLP.part.metal>
0.0000

> <Gold.PLP.part.buried>
-4.2456

> <Gold.PLP.part.nonpolar>
-20.5599

> <Gold.PLP.part.repulsive>
0.3156

> <Gold.PLP.ligand.clash>
0.0000

> <Gold.PLP.ligand.torsion>
0.2567

> <Gold.PLP.Chemscore.Hbond>
5.7440

> <Gold.PLP.Chemscore.CHOScore>
0.0000

> <Gold.PLP.Chemscore.Metal>
0.0000

> <Gold.Chemscore.Hbonds>
donor molecule, donor type, donor heavy atom, donor atom, acceptor molecule, acceptor atom, score
      L1  H     3    39       P1 10747  1.00
      L1  H     9    31       P1  7948  1.92
      L1  H    11    40       P1  7948  1.51
      P1  H  6896  6909       L1    15  1.00

> <Gold.PLP.Chemscore.Internal.Correction>
0.0141

> <Gold.Rescore>
     Score         DG    S(hbond)    S(metal)    S(lipo)     H(rot)  DE(clash)    DE(int)     intcor
     19.89     -20.18       3.29        0.00      69.98       1.75       0.03       0.26       ----

> <Gold.Chemscore.Fitness>
19.8918

> <Gold.Chemscore.DG>
-20.1778

> <Gold.Chemscore.ZeroCoef>
-5.4800

> <Gold.Chemscore.Hbond>
3.2928

> <Gold.Chemscore.Metal>
0.0000

> <Gold.Chemscore.Lipo>
69.9782

> <Gold.Chemscore.Internal_Hbond>
0.0000

> <Gold.Chemscore.DEClash>
0.0292

> <Gold.Chemscore.DEInternal>
0.2569

> <Gold.Chemscore.Rot>
1.7530

> <Gold.Chemscore.Internal.Correction>
   9.000000E+99

> <Gold.Chemscore.Hbonds>
donor molecule, donor type, donor heavy atom, donor atom, acceptor molecule, acceptor atom, score
      L1  H     3    39       P1 10747  0.98
      L1  H     9    31       P1  7948  0.70
      L1  H    11    40       P1  7948  0.11
      P1  H  6896  6909       L1    15  0.85

> <Gold.Chemscore.Hbond.Weighted>
-10.9980

> <Gold.Chemscore.Metal.Weighted>
-0.0000

> <Gold.Chemscore.Lipo.Weighted>
-8.1874

> <Gold.Chemscore.Internal_Hbond.Weighted>
0.0000

> <Gold.Chemscore.DEClash.Weighted>
0.0292

> <Gold.Chemscore.DEInternal.Weighted>
0.2569

> <Gold.Chemscore.Rot.Weighted>
4.4876

> <Gold.Chemscore.Internal.Correction.Weighted>
   9.000000E+99

> <Gold.Protein.RotatedTorsions>
[ 6907 6896 6895 6894 ] final  -20.00 input  -60.11 | X-H torsion
[ 7974 7965 7964 7962 ] final   51.37 input  175.53 | X-H torsion
[ 8008 7997 7996 7995 ] final  151.62 input   59.86 | X-H torsion
[ 10167 10162 10161 10158 ] final  -70.64 input  -65.29 | X-H torsion
[ 10718 10713 10712 10709 ] final  -88.07 input   66.30 | X-H torsion
[ 10763 10752 10751 10750 ] final  -82.57 input  -60.55 | X-H torsion
[ 11005 11000 10999 10996 ] final -155.30 input  -57.11 | X-H torsion

> <Gold.Protein.ActiveResidues>
 VAL166  LYS551  ARG553  GLY616  TRP617  ASP618  TYR619  PRO620  LYS621  CYS622 
 ASP623  PHE694  ASN695  SER759  ASP760  ASP761  ALA762  ILE779  LEU786  VAL792 
 PHE793  MET794  SER795  GLU796  ALA797  LYS798  CYS799  TRP800  GLU811  SER814 

> <Gold.Protein.RotatedAtoms>
  151.2546  135.0634  159.9074 H   0  0  0  0  0  0  0  0  0  0  0  0  # atno 6907 bound_to 6896
  152.5375  134.0295  159.8028 H   0  0  0  0  0  0  0  0  0  0  0  0  # atno 6908 bound_to 6896
  151.0509  133.5576  159.2673 H   0  0  0  0  0  0  0  0  0  0  0  0  # atno 6909 bound_to 6896
  145.9920  139.4349  143.0067 H   0  0  0  0  0  0  0  0  0  0  0  0  # atno 7974 bound_to 7965
  156.2666  140.2043  156.6204 H   0  0  0  0  0  0  0  0  0  0  0  0  # atno 8008 bound_to 7997
  154.6761  140.0545  157.0241 H   0  0  0  0  0  0  0  0  0  0  0  0  # atno 8009 bound_to 7997
  155.1067  140.3211  155.4535 H   0  0  0  0  0  0  0  0  0  0  0  0  # atno 8010 bound_to 7997
  140.5336  143.2319  151.7217 H   0  0  0  0  0  0  0  0  0  0  0  0  # atno 10167 bound_to 10162
  155.9984  130.4822  150.4963 H   0  0  0  0  0  0  0  0  0  0  0  0  # atno 10718 bound_to 10713
  154.5773  135.5587  153.7151 H   0  0  0  0  0  0  0  0  0  0  0  0  # atno 10763 bound_to 10752
  153.0069  135.6311  154.2031 H   0  0  0  0  0  0  0  0  0  0  0  0  # atno 10764 bound_to 10752
  154.1972  135.2879  155.2983 H   0  0  0  0  0  0  0  0  0  0  0  0  # atno 10765 bound_to 10752
  140.6880  134.4072  157.5221 H   0  0  0  0  0  0  0  0  0  0  0  0  # atno 11005 bound_to 11000
  145.7615  140.9933  143.1197 LP  0  0  0  0  0  0  0  0  0  0  0  0  # atno 17320 bound_to 7965
  144.6892  139.9336  143.7472 LP  0  0  0  0  0  0  0  0  0  0  0  0  # atno 17321 bound_to 7965
  139.4963  144.4076  152.0115 LP  0  0  0  0  0  0  0  0  0  0  0  0  # atno 17342 bound_to 10162
  140.3180  144.3461  150.6016 LP  0  0  0  0  0  0  0  0  0  0  0  0  # atno 17343 bound_to 10162
  157.2953  131.0634  151.2106 LP  0  0  0  0  0  0  0  0  0  0  0  0  # atno 17370 bound_to 10713
  157.3104  130.6887  149.6213 LP  0  0  0  0  0  0  0  0  0  0  0  0  # atno 17371 bound_to 10713
  139.8932  134.8737  156.2236 LP  0  0  0  0  0  0  0  0  0  0  0  0  # atno 17394 bound_to 11000
  141.0264  133.7012  156.1355 LP  0  0  0  0  0  0  0  0  0  0  0  0  # atno 17395 bound_to 11000

$$$$
