#       Name:                AV-unprocessed.smi:1590
#       Creating user name   scv26
#       Creation time:       Fri Mar 27 07:03:12 2020


#       File generated by GOLD software.
#

@<TRIPOS>MOLECULE
AV-unprocessed.smi:1590
    39    40     1
SMALL
NO_CHARGES


@<TRIPOS>ATOM
      1 ****        -5.8384  -0.0036   1.9143 C.3            1 S1                 0.0000
      2 ****        -5.2692   0.6225   0.6326 C.3            1 S1                 0.0000
      3 ****        -5.8362  -0.0264  -0.6380 C.3            1 S1                 0.0000
      4 ****        -3.7713   0.6341   0.6317 C.2            1 S1                 0.0000
      5 ****        -3.0605   1.7662   0.5468 N.2            1 S1                 0.0000
      6 ****        -1.6924   1.5346   0.5613 N.2            1 S1                 0.0000
      7 ****        -1.4071   0.2287   0.6523 C.2            1 S1                 0.0000
      8 ****        -0.0856  -0.2888   0.6976 N.am           1 S1                 0.0000
      9 ****         1.0760   0.3853   0.6309 C.2            1 S1                 0.0000
     10 ****         1.1858   1.6018   0.4756 O.2            1 S1                 0.0000
     11 ****         2.1243  -0.4417   0.7511 N.am           1 S1                 0.0000
     12 ****         3.5227  -0.0293   0.7218 C.3            1 S1                 0.0000
     13 ****         4.0293   0.1273  -0.7095 C.3            1 S1                 0.0000
     14 ****         4.1592  -1.1068  -1.6158 C.3            1 S1                 0.0000
     15 ****         5.4068  -0.4684  -2.2318 C.3            1 S1                 0.0000
     16 ****         5.5245   0.3732  -0.9583 C.3            1 S1                 0.0000
     17 ****        -2.8012  -0.8347   0.7248 S.3            1 S1                 0.0000
     18 ****        -5.4723   0.5163   2.8001 H              1 S1                 0.0000
     19 ****        -5.5598  -1.0539   2.0042 H              1 S1                 0.0000
     20 ****        -6.9271   0.0511   1.9270 H              1 S1                 0.0000
     21 ****        -5.5946   1.6640   0.6240 H              1 S1                 0.0000
     22 ****        -5.4724   0.4807  -1.5323 H              1 S1                 0.0000
     23 ****        -6.9252   0.0239  -0.6513 H              1 S1                 0.0000
     24 ****        -5.5522  -1.0767  -0.7105 H              1 S1                 0.0000
     25 ****        -0.0169  -1.2897   0.8073 H              1 S1                 0.0000
     26 ****         1.9439  -1.4275   0.8727 H              1 S1                 0.0000
     27 ****         3.6524   0.8995   1.2796 H              1 S1                 0.0000
     28 ****         4.1059  -0.7838   1.2504 H              1 S1                 0.0000
     29 ****         3.4623   0.8944  -1.2416 H              1 S1                 0.0000
     30 ****         4.3846  -2.0193  -1.0614 H              1 S1                 0.0000
     31 ****         3.3298  -1.2518  -2.3087 H              1 S1                 0.0000
     32 ****         6.2351  -1.1564  -2.4029 H              1 S1                 0.0000
     33 ****         5.1846   0.1300  -3.1168 H              1 S1                 0.0000
     34 ****         5.7927   1.4172  -1.1227 H              1 S1                 0.0000
     35 ****         6.1622  -0.0919  -0.2046 H              1 S1                 0.0000
     36 ****        -3.4698   2.6762   0.4804 LP             1 S1                 0.0000
     37 ****        -1.0019   2.2562   0.5100 LP             1 S1                 0.0000
     38 ****         0.3680   2.1705   0.3877 LP             1 S1                 0.0000
     39 ****         2.0928   2.0211   0.4374 LP             1 S1                 0.0000
@<TRIPOS>BOND
    1    1    2 1     
    2    1   18 1     
    3    1   19 1     
    4    1   20 1     
    5    2    3 1     
    6    2    4 1     
    7    2   21 1     
    8    3   22 1     
    9    3   23 1     
   10    3   24 1     
   11    4   17 1     
   12    4    5 2     
   13    5    6 1     
   14    6    7 2     
   15    7    8 1     
   16    7   17 1     
   17    8    9 am    
   18    8   25 1     
   19    9   10 2     
   20    9   11 am    
   21   11   12 1     
   22   11   26 1     
   23   12   13 1     
   24   12   27 1     
   25   12   28 1     
   26   13   16 1     
   27   13   14 1     
   28   13   29 1     
   29   14   15 1     
   30   14   30 1     
   31   14   31 1     
   32   15   16 1     
   33   15   32 1     
   34   15   33 1     
   35   16   34 1     
   36   16   35 1     
   37    5   36 1     
   38    6   37 1     
   39   10   38 1     
   40   10   39 1     
@<TRIPOS>SUBSTRUCTURE
      1 S1             1
@<TRIPOS>SET
LONE_PAIRS      STATIC     ATOMS    <user>   **** ""
4 36 37 38 39
DONOR_HYDROGENS      STATIC     ATOMS    <user>   **** ""
2 25 26
ATOM$BLUE        STATIC     ATOMS    COLORGROUP SYSTEM
4 36 37 38 39
ATOM$RED        STATIC     ATOMS    COLORGROUP SYSTEM
2 25 26
