AV-unprocessed.smi:3017|AV-procd|sdf|11476|dock1
  -GOLD-   2272016413D 1   1.00000     0.00000
 Structure written by MMmdl.
 37 38  0  0  0  0  0  0  0  0  1 V2000
  153.6002  141.5699  160.4186 C   0  0  0  0  0  0  0  0  0  0  0  0
  152.5579  142.4625  159.7302 C   0  0  1  0  0  0  0  0  0  0  0  0
  153.1287  143.8593  159.4188 C   0  0  0  0  0  0  0  0  0  0  0  0
  152.0843  144.7524  158.7308 C   0  0  0  0  0  0  0  0  0  0  0  0
  151.5371  144.0906  157.4567 C   0  0  0  0  0  0  0  0  0  0  0  0
  150.9587  142.6927  157.7556 C   0  0  1  0  0  0  0  0  0  0  0  0
  150.5793  142.0445  156.5486 O   0  0  0  0  0  0  0  0  0  0  0  0
  149.9419  140.7860  156.7355 C   0  0  0  0  0  0  0  0  0  0  0  0
  149.3943  140.2719  155.4017 C   0  0  0  0  0  0  0  0  0  0  0  0
  150.1008  140.3563  154.3975 O   0  0  0  0  0  0  0  0  0  0  0  0
  148.1464  139.7650  155.4139 N   0  0  0  0  0  0  0  0  0  0  0  0
  147.4148  139.2093  154.3314 C   0  0  0  0  0  0  0  0  0  0  0  0
  146.4716  138.2117  154.6738 C   0  0  0  0  0  0  0  0  0  0  0  0
  145.7041  137.5863  153.7535 N   0  0  0  0  0  0  0  0  0  0  0  0
  145.8779  137.9601  152.4678 C   0  0  0  0  0  0  0  0  0  0  0  0
  146.8112  138.9527  152.1080 C   0  0  0  0  0  0  0  0  0  0  0  0
  147.5748  139.5738  153.0332 N   0  0  0  0  0  0  0  0  0  0  0  0
  152.0119  141.8076  158.4459 C   0  0  0  0  0  0  0  0  0  0  0  0
  154.4627  141.3963  159.7743 H   0  0  0  0  0  0  0  0  0  0  0  0
  153.1761  140.5991  160.6764 H   0  0  0  0  0  0  0  0  0  0  0  0
  153.9601  142.0269  161.3409 H   0  0  0  0  0  0  0  0  0  0  0  0
  151.7253  142.5869  160.4241 H   0  0  0  0  0  0  0  0  0  0  0  0
  153.4692  144.3379  160.3377 H   0  0  0  0  0  0  0  0  0  0  0  0
  154.0059  143.7655  158.7767 H   0  0  0  0  0  0  0  0  0  0  0  0
  151.2632  144.9526  159.4205 H   0  0  0  0  0  0  0  0  0  0  0  0
  152.5256  145.7192  158.4870 H   0  0  0  0  0  0  0  0  0  0  0  0
  150.7788  144.7360  157.0141 H   0  0  0  0  0  0  0  0  0  0  0  0
  152.3372  144.0046  156.7204 H   0  0  0  0  0  0  0  0  0  0  0  0
  150.0972  142.7814  158.4205 H   0  0  0  0  0  0  0  0  0  0  0  0
  150.6521  140.0584  157.1304 H   0  0  0  0  0  0  0  0  0  0  0  0
  149.1184  140.8666  157.4455 H   0  0  0  0  0  0  0  0  0  0  0  0
  147.6774  139.7606  156.3081 H   0  0  0  0  0  0  0  0  0  0  0  0
  146.3301  137.9070  155.7007 H   0  0  0  0  0  0  0  0  0  0  0  0
  145.2716  137.4656  151.7234 H   0  0  0  0  0  0  0  0  0  0  0  0
  146.9466  139.2477  151.0780 H   0  0  0  0  0  0  0  0  0  0  0  0
  152.8343  141.6121  157.7560 H   0  0  0  0  0  0  0  0  0  0  0  0
  151.5717  140.8383  158.6828 H   0  0  0  0  0  0  0  0  0  0  0  0
  1  2  1  0  0  0  0
  1 19  1  0  0  0  0
  1 20  1  0  0  0  0
  1 21  1  0  0  0  0
  2 18  1  0  0  0  0
  2  3  1  0  0  0  0
  2 22  1  0  0  0  0
  3  4  1  0  0  0  0
  3 23  1  0  0  0  0
  3 24  1  0  0  0  0
  4  5  1  0  0  0  0
  4 25  1  0  0  0  0
  4 26  1  0  0  0  0
  5  6  1  0  0  0  0
  5 27  1  0  0  0  0
  5 28  1  0  0  0  0
  6  7  1  0  0  0  0
  6 18  1  0  0  0  0
  6 29  1  0  0  0  0
  7  8  1  0  0  0  0
  8  9  1  0  0  0  0
  8 30  1  0  0  0  0
  8 31  1  0  0  0  0
  9 10  2  0  0  0  0
  9 11  1  0  0  0  0
 11 12  1  0  0  0  0
 11 32  1  0  0  0  0
 12 17  1  0  0  0  0
 12 13  2  0  0  0  0
 13 14  1  0  0  0  0
 13 33  1  0  0  0  0
 14 15  2  0  0  0  0
 15 16  1  0  0  0  0
 15 34  1  0  0  0  0
 16 17  2  0  0  0  0
 16 35  1  0  0  0  0
 18 36  1  0  0  0  0
 18 37  1  0  0  0  0
M  END
> <s_m_source_file>
AV-unprocessed.smi

> <i_m_source_file_index>
3017

> <i_lp_mmshare_version>
43012

> <i_f3d_flags>
0

> <s_epik_input>
W0NIM11bQ0BASF0xW0NIMl1bQ0gyXVtDSDJdW0NASF0oW0NIMl0xKU9bQ0gyXUMoPU8pW05IXWMyW2NIXW5bY0hdW2NIXW4y

> <s_epik_cmdline>
J2VwaWtfcHl0aG9uJywgJy1waCcsICc3LjAnLCAnLXRuJywgJzgnLCAnLW1hJywgJzIwMCcsICctbWV0YWxfYmluZGluZycsICctaW1hZScsICc8aW5maWxlLm1hZT4nLCAnLW9tYWUnLCAnPG91dGZpbGUubWFlPic=

> <r_lp_tautomer_probability>
1

> <r_epik_Ionization_Penalty>
2.89243e-06

> <r_epik_Ionization_Penalty_Charging>
0

> <r_epik_Ionization_Penalty_Neutral>
2.89243e-06

> <r_epik_State_Penalty>
-0

> <r_epik_Charging_Adjusted_Penalty>
0

> <i_epik_Tot_Q>
0

> <i_epik_Tot_abs_Q>
0

> <r_epik_Metal_State_Penalty>
-0

> <b_epik_Metal_Only>
0

> <s_lp_Force_Field>
OPLS_2005

> <r_lp_Energy>
20.2083

> <b_lp_Chiralities_Consistent>
1

> <s_lp_Variant>
AV-unprocessed.smi:3017-2

> <Gold.Version>
5.8.1

> <Gold.Id.Protein>
6NUR|6NUR_protein|mol2

> <Gold.PLP.Fitness>
39.2342

> <Gold.PLP.PLP>
-33.1504

> <Gold.PLP.part.hbond>
-1.0000

> <Gold.PLP.part.metal>
0.0000

> <Gold.PLP.part.buried>
-4.0289

> <Gold.PLP.part.nonpolar>
-31.6610

> <Gold.PLP.part.repulsive>
3.3453

> <Gold.PLP.ligand.clash>
0.0000

> <Gold.PLP.ligand.torsion>
0.4045

> <Gold.PLP.Chemscore.Hbond>
0.9600

> <Gold.PLP.Chemscore.CHOScore>
1.3329

> <Gold.PLP.Chemscore.Metal>
0.0000

> <Gold.Chemscore.Hbonds>
donor molecule, donor type, donor heavy atom, donor atom, acceptor molecule, acceptor atom, score
      P1  H  7989  7998       L1    10  0.94
      L1  C    15    34       P1 10171  0.73
      L1  C    16    35       P1  7957  0.22

> <Gold.PLP.Chemscore.Internal.Correction>
0.0141

> <Gold.Rescore>
     Score         DG    S(hbond)    S(metal)    S(lipo)     H(rot)  DE(clash)    DE(int)     intcor
     14.32     -16.20       0.92        0.00      98.38       1.51       0.30       1.58       ----

> <Gold.Chemscore.Fitness>
14.3200

> <Gold.Chemscore.DG>
-16.1963

> <Gold.Chemscore.ZeroCoef>
-5.4800

> <Gold.Chemscore.Hbond>
0.9210

> <Gold.Chemscore.Metal>
0.0000

> <Gold.Chemscore.Lipo>
98.3827

> <Gold.Chemscore.Internal_Hbond>
0.0000

> <Gold.Chemscore.DEClash>
0.2967

> <Gold.Chemscore.DEInternal>
1.5795

> <Gold.Chemscore.Rot>
1.5119

> <Gold.Chemscore.Internal.Correction>
   9.000000E+99

> <Gold.Chemscore.Hbonds>
donor molecule, donor type, donor heavy atom, donor atom, acceptor molecule, acceptor atom, score
      P1  H  7989  7998       L1    10  0.91

> <Gold.Chemscore.Hbond.Weighted>
-3.0761

> <Gold.Chemscore.Metal.Weighted>
-0.0000

> <Gold.Chemscore.Lipo.Weighted>
-11.5108

> <Gold.Chemscore.Internal_Hbond.Weighted>
0.0000

> <Gold.Chemscore.DEClash.Weighted>
0.2967

> <Gold.Chemscore.DEInternal.Weighted>
1.5795

> <Gold.Chemscore.Rot.Weighted>
3.8706

> <Gold.Chemscore.Internal.Correction.Weighted>
   9.000000E+99

> <Gold.Protein.RotatedTorsions>
[ 6907 6896 6895 6894 ] final   40.14 input  -60.11 | X-H torsion
[ 7974 7965 7964 7962 ] final -137.15 input  175.53 | X-H torsion
[ 8008 7997 7996 7995 ] final  -30.54 input   59.86 | X-H torsion
[ 10167 10162 10161 10158 ] final -138.68 input  -65.29 | X-H torsion
[ 10718 10713 10712 10709 ] final  168.53 input   66.30 | X-H torsion
[ 10763 10752 10751 10750 ] final   50.65 input  -60.55 | X-H torsion
[ 11005 11000 10999 10996 ] final  150.01 input  -57.11 | X-H torsion

> <Gold.Protein.ActiveResidues>
 VAL166  LYS551  ARG553  GLY616  TRP617  ASP618  TYR619  PRO620  LYS621  CYS622 
 ASP623  PHE694  ASN695  SER759  ASP760  ASP761  ALA762  ILE779  LEU786  VAL792 
 PHE793  MET794  SER795  GLU796  ALA797  LYS798  CYS799  TRP800  GLU811  SER814 

> <Gold.Protein.RotatedAtoms>
  152.1786  134.8773  160.0528 H   0  0  0  0  0  0  0  0  0  0  0  0  # atno 6907 bound_to 6896
  151.9706  133.3719  159.4078 H   0  0  0  0  0  0  0  0  0  0  0  0  # atno 6908 bound_to 6896
  150.6913  134.4067  159.5187 H   0  0  0  0  0  0  0  0  0  0  0  0  # atno 6909 bound_to 6896
  144.8866  140.6583  143.5172 H   0  0  0  0  0  0  0  0  0  0  0  0  # atno 7974 bound_to 7965
  154.4246  140.1788  156.1424 H   0  0  0  0  0  0  0  0  0  0  0  0  # atno 8008 bound_to 7997
  155.9981  140.3362  155.6794 H   0  0  0  0  0  0  0  0  0  0  0  0  # atno 8009 bound_to 7997
  155.6280  140.0667  157.2648 H   0  0  0  0  0  0  0  0  0  0  0  0  # atno 8010 bound_to 7997
  139.8454  143.7268  152.2661 H   0  0  0  0  0  0  0  0  0  0  0  0  # atno 10167 bound_to 10162
  157.0357  131.0272  151.2730 H   0  0  0  0  0  0  0  0  0  0  0  0  # atno 10718 bound_to 10713
  152.9784  135.5872  154.4287 H   0  0  0  0  0  0  0  0  0  0  0  0  # atno 10763 bound_to 10752
  154.3903  135.2768  155.2160 H   0  0  0  0  0  0  0  0  0  0  0  0  # atno 10764 bound_to 10752
  154.4035  135.6098  153.5965 H   0  0  0  0  0  0  0  0  0  0  0  0  # atno 10765 bound_to 10752
  140.1094  134.8933  157.1914 H   0  0  0  0  0  0  0  0  0  0  0  0  # atno 11005 bound_to 11000
  145.3858  139.1627  143.4256 LP  0  0  0  0  0  0  0  0  0  0  0  0  # atno 17320 bound_to 7965
  146.3028  140.3943  142.8698 LP  0  0  0  0  0  0  0  0  0  0  0  0  # atno 17321 bound_to 7965
  139.7518  144.7532  151.0496 LP  0  0  0  0  0  0  0  0  0  0  0  0  # atno 17342 bound_to 10162
  140.7793  143.4852  150.9966 LP  0  0  0  0  0  0  0  0  0  0  0  0  # atno 17343 bound_to 10162
  157.5143  130.7958  149.7739 LP  0  0  0  0  0  0  0  0  0  0  0  0  # atno 17370 bound_to 10713
  156.0054  130.3858  150.2449 LP  0  0  0  0  0  0  0  0  0  0  0  0  # atno 17371 bound_to 10713
  140.3111  134.3023  155.7267 LP  0  0  0  0  0  0  0  0  0  0  0  0  # atno 17394 bound_to 11000
  141.2126  133.7651  156.9778 LP  0  0  0  0  0  0  0  0  0  0  0  0  # atno 17395 bound_to 11000

$$$$
