#       Name:                AV-unprocessed.smi:1574
#       Creating user name   scv26
#       Creation time:       Fri Mar 27 06:55:11 2020


#       File generated by GOLD software.
#

@<TRIPOS>MOLECULE
AV-unprocessed.smi:1574
    47    48     1
SMALL
NO_CHARGES


@<TRIPOS>ATOM
      1 ****        -1.2105  -0.2183  -3.2839 C.3            1 S1                 0.0000
      2 ****        -1.7996   0.1463  -1.9121 C.3            1 S1                 0.0000
      3 ****        -1.1997   1.4572  -1.3613 C.3            1 S1                 0.0000
      4 ****        -1.8206   1.8367  -0.0076 C.3            1 S1                 0.0000
      5 ****        -1.6859   0.6921   1.0077 C.3            1 S1                 0.0000
      6 ****        -2.2885  -0.6102   0.4592 C.3            1 S1                 0.0000
      7 ****        -1.6485  -1.0033  -0.8905 C.3            1 S1                 0.0000
      8 ****        -0.2579  -1.2662  -0.7448 O.3            1 S1                 0.0000
      9 ****         0.0764  -2.5057  -0.1410 C.3            1 S1                 0.0000
     10 ****         1.6053  -2.6371  -0.1030 C.3            1 S1                 0.0000
     11 ****         2.2054  -1.6423   0.7805 N.am           1 S1                 0.0000
     12 ****         2.5992  -0.4141   0.4076 C.2            1 S1                 0.0000
     13 ****         2.5105   0.0097  -0.7446 O.2            1 S1                 0.0000
     14 ****         3.1779   0.4802   1.5029 C.3            1 S1                 0.0000
     15 ****         2.1667   1.3758   2.0307 N.pl3          1 S1                 0.0000
     16 ****         1.6993   2.5389   1.5726 C.2            1 S1                 0.0000
     17 ****         0.7716   3.0417   2.3730 N.2            1 S1                 0.0000
     18 ****         0.6802   2.0972   3.3817 N.2            1 S1                 0.0000
     19 ****         1.5050   1.1058   3.1835 N.2            1 S1                 0.0000
     20 ****        -0.1329  -0.3765  -3.2273 H              1 S1                 0.0000
     21 ****        -1.3901   0.5747  -4.0102 H              1 S1                 0.0000
     22 ****        -1.6611  -1.1310  -3.6745 H              1 S1                 0.0000
     23 ****        -2.8676   0.3125  -2.0611 H              1 S1                 0.0000
     24 ****        -0.1194   1.3537  -1.2486 H              1 S1                 0.0000
     25 ****        -1.3568   2.2679  -2.0733 H              1 S1                 0.0000
     26 ****        -1.3443   2.7374   0.3801 H              1 S1                 0.0000
     27 ****        -2.8749   2.0802  -0.1447 H              1 S1                 0.0000
     28 ****        -0.6334   0.5318   1.2410 H              1 S1                 0.0000
     29 ****        -2.1722   0.9653   1.9446 H              1 S1                 0.0000
     30 ****        -2.1853  -1.4078   1.1936 H              1 S1                 0.0000
     31 ****        -3.3620  -0.4760   0.3206 H              1 S1                 0.0000
     32 ****        -2.1452  -1.8913  -1.2850 H              1 S1                 0.0000
     33 ****        -0.3259  -2.5790   0.8690 H              1 S1                 0.0000
     34 ****        -0.3479  -3.3238  -0.7243 H              1 S1                 0.0000
     35 ****         1.8753  -3.6234   0.2741 H              1 S1                 0.0000
     36 ****         2.0212  -2.5679  -1.1096 H              1 S1                 0.0000
     37 ****         2.3119  -1.9003   1.7508 H              1 S1                 0.0000
     38 ****         3.5923  -0.1206   2.3141 H              1 S1                 0.0000
     39 ****         3.9944   1.0775   1.0956 H              1 S1                 0.0000
     40 ****         2.0368   3.0131   0.6628 H              1 S1                 0.0000
     41 ****         0.1353  -0.5365  -0.1853 LP             1 S1                 0.0000
     42 ****         0.1550  -1.2473  -1.6554 LP             1 S1                 0.0000
     43 ****         2.1279  -0.5713  -1.4629 LP             1 S1                 0.0000
     44 ****         2.8211   0.9350  -0.9623 LP             1 S1                 0.0000
     45 ****         0.2612   3.8958   2.2733 LP             1 S1                 0.0000
     46 ****         0.0603   2.1663   4.1634 LP             1 S1                 0.0000
     47 ****         1.6258   0.3032   3.7678 LP             1 S1                 0.0000
@<TRIPOS>BOND
    1    1    2 1     
    2    1   20 1     
    3    1   21 1     
    4    1   22 1     
    5    2    7 1     
    6    2    3 1     
    7    2   23 1     
    8    3    4 1     
    9    3   24 1     
   10    3   25 1     
   11    4    5 1     
   12    4   26 1     
   13    4   27 1     
   14    5    6 1     
   15    5   28 1     
   16    5   29 1     
   17    6    7 1     
   18    6   30 1     
   19    6   31 1     
   20    7    8 1     
   21    7   32 1     
   22    8    9 1     
   23    9   10 1     
   24    9   33 1     
   25    9   34 1     
   26   10   11 1     
   27   10   35 1     
   28   10   36 1     
   29   11   12 am    
   30   11   37 1     
   31   12   13 2     
   32   12   14 1     
   33   14   15 1     
   34   14   38 1     
   35   14   39 1     
   36   15   19 1     
   37   15   16 1     
   38   16   17 2     
   39   16   40 1     
   40   17   18 1     
   41   18   19 2     
   42    8   41 1     
   43    8   42 1     
   44   13   43 1     
   45   13   44 1     
   46   17   45 1     
   47   18   46 1     
   48   19   47 1     
@<TRIPOS>SUBSTRUCTURE
      1 S1             1
@<TRIPOS>SET
LONE_PAIRS      STATIC     ATOMS    <user>   **** ""
7 41 42 43 44 45 46 47
DONOR_HYDROGENS      STATIC     ATOMS    <user>   **** ""
1 37
ATOM$BLUE        STATIC     ATOMS    COLORGROUP SYSTEM
7 41 42 43 44 45 46 47
ATOM$RED        STATIC     ATOMS    COLORGROUP SYSTEM
1 37
