#       Name:                AV-unprocessed.smi:1816
#       Creating user name   scv26
#       Creation time:       Fri Mar 27 09:03:01 2020


#       File generated by GOLD software.
#

@<TRIPOS>MOLECULE
AV-unprocessed.smi:1816
    39    40     1
SMALL
NO_CHARGES


@<TRIPOS>ATOM
      1 ****        -2.1163   1.9052   1.1366 C.3            1 S1                 0.0000
      2 ****        -1.3749   0.6587   1.6690 C.3            1 S1                 0.0000
      3 ****         0.0404   1.0475   2.1631 C.3            1 S1                 0.0000
      4 ****         0.8559   1.6461   1.1071 N.am           1 S1                 0.0000
      5 ****         1.6891   1.0055   0.2752 C.2            1 S1                 0.0000
      6 ****         1.8697  -0.2076   0.3945 O.2            1 S1                 0.0000
      7 ****         2.2479   1.8096  -0.6554 N.pl3          1 S1                -1.0000
      8 ****         3.0743   1.2927  -1.5792 C.2            1 S1                 0.0000
      9 ****         2.6735   0.9663  -2.8133 N.2            1 S1                 0.0000
     10 ****         3.6972   0.4515  -3.6109 C.2            1 S1                 0.0000
     11 ****         4.9064   0.3894  -2.9706 C.2            1 S1                 0.0000
     12 ****         4.7957   0.9823  -1.3378 S.3            1 S1                 0.0000
     13 ****        -1.3144  -0.4409   0.6619 N.4            1 S1                 1.0000
     14 ****        -0.9210  -1.7588   1.2018 C.3            1 S1                 0.0000
     15 ****        -1.2493  -2.7505   0.0889 C.3            1 S1                 0.0000
     16 ****        -2.4464  -2.1324  -0.6385 C.3            1 S1                 0.0000
     17 ****        -2.5498  -0.6944  -0.1123 C.3            1 S1                 0.0000
     18 ****        -2.0712   2.7213   1.8581 H              1 S1                 0.0000
     19 ****        -3.1725   1.7074   0.9550 H              1 S1                 0.0000
     20 ****        -1.6801   2.2662   0.2044 H              1 S1                 0.0000
     21 ****        -1.9418   0.2924   2.5263 H              1 S1                 0.0000
     22 ****        -0.0471   1.7855   2.9608 H              1 S1                 0.0000
     23 ****         0.5529   0.1965   2.6130 H              1 S1                 0.0000
     24 ****         0.7562   2.6420   0.9715 H              1 S1                 0.0000
     25 ****         3.4752   0.1538  -4.6249 H              1 S1                 0.0000
     26 ****         5.8501   0.0355  -3.3571 H              1 S1                 0.0000
     27 ****         0.1279  -1.8050   1.4913 H              1 S1                 0.0000
     28 ****        -1.5207  -1.9868   2.0845 H              1 S1                 0.0000
     29 ****        -0.4032  -2.8246  -0.5957 H              1 S1                 0.0000
     30 ****        -1.4566  -3.7510   0.4701 H              1 S1                 0.0000
     31 ****        -2.2899  -2.1495  -1.7180 H              1 S1                 0.0000
     32 ****        -3.3643  -2.6835  -0.4302 H              1 S1                 0.0000
     33 ****        -3.4174  -0.6166   0.5449 H              1 S1                 0.0000
     34 ****        -2.6691   0.0292  -0.9195 H              1 S1                 0.0000
     35 ****        -0.6071  -0.1842  -0.0132 H              1 S1                 0.0000
     36 ****         1.3943  -0.7156   1.1127 LP             1 S1                 0.0000
     37 ****         2.4917  -0.6840  -0.2270 LP             1 S1                 0.0000
     38 ****         2.0464   2.7891  -0.6564 LP             1 S1                 0.0000
     39 ****         1.7329   1.0800  -3.1331 LP             1 S1                 0.0000
@<TRIPOS>BOND
    1    1    2 1     
    2    1   18 1     
    3    1   19 1     
    4    1   20 1     
    5    2    3 1     
    6    2   13 1     
    7    2   21 1     
    8    3    4 1     
    9    3   22 1     
   10    3   23 1     
   11    4    5 am    
   12    4   24 1     
   13    5    6 2     
   14    5    7 1     
   15    7    8 1     
   16    8   12 1     
   17    8    9 2     
   18    9   10 1     
   19   10   11 2     
   20   10   25 1     
   21   11   12 1     
   22   11   26 1     
   23   13   17 1     
   24   13   14 1     
   25   13   35 1     
   26   14   15 1     
   27   14   27 1     
   28   14   28 1     
   29   15   16 1     
   30   15   29 1     
   31   15   30 1     
   32   16   17 1     
   33   16   31 1     
   34   16   32 1     
   35   17   33 1     
   36   17   34 1     
   37    6   36 1     
   38    6   37 1     
   39    7   38 1     
   40    9   39 1     
@<TRIPOS>SUBSTRUCTURE
      1 S1             1
@<TRIPOS>SET
LONE_PAIRS      STATIC     ATOMS    <user>   **** ""
4 36 37 38 39
DONOR_HYDROGENS      STATIC     ATOMS    <user>   **** ""
2 24 35
ATOM$BLUE        STATIC     ATOMS    COLORGROUP SYSTEM
4 36 37 38 39
ATOM$RED        STATIC     ATOMS    COLORGROUP SYSTEM
2 24 35
