AV-unprocessed.smi:1762|AV-procd|sdf|7111|dock4
  -GOLD-   22720 8333D 1   1.00000     0.00000
 Structure written by MMmdl.
 53 54  0  0  0  0  0  0  0  0  2 V2000
  144.5029  135.0638  150.4425 C   0  0  0  0  0  0  0  0  0  0  0  0
  145.4967  135.7397  151.3942 C   0  0  2  0  0  0  0  0  0  0  0  0
  146.1509  134.7305  152.3561 C   0  0  0  0  0  0  0  0  0  0  0  0
  147.0479  135.4193  153.3241 N   0  3  2  0  0  0  0  0  0  0  0  0
  147.8143  134.5139  154.2482 C   0  0  2  0  0  0  0  0  0  0  0  0
  148.7110  135.3306  155.2036 C   0  0  0  0  0  0  0  0  0  0  0  0
  148.5026  135.3105  156.4173 O   0  0  0  0  0  0  0  0  0  0  0  0
  149.7038  136.0378  154.6437 N   0  0  0  0  0  0  0  0  0  0  0  0
  150.6516  136.8555  155.3882 C   0  0  0  0  0  0  0  0  0  0  0  0
  151.0896  138.0705  154.5589 C   0  0  0  0  0  0  0  0  0  0  0  0
  151.0249  139.3600  155.3554 C   0  0  0  0  0  0  0  0  0  0  0  0
  151.7598  139.5068  156.5512 C   0  0  0  0  0  0  0  0  0  0  0  0
  151.6721  140.7286  157.2462 C   0  0  0  0  0  0  0  0  0  0  0  0
  150.8586  141.7510  156.7209 C   0  0  0  0  0  0  0  0  0  0  0  0
  150.1647  141.5048  155.5197 C   0  0  0  0  0  0  0  0  0  0  0  0
  150.2413  140.3368  154.8457 N   0  0  0  0  0  0  0  0  0  0  0  0
  148.6495  133.4063  153.5204 C   0  0  0  0  0  0  0  0  0  0  0  0
  147.7821  132.2680  152.9474 C   0  0  0  0  0  0  0  0  0  0  0  0
  149.7947  132.8200  154.3728 C   0  0  0  0  0  0  0  0  0  0  0  0
  146.2623  136.4604  154.0481 C   0  0  0  0  0  0  0  0  0  0  0  0
  145.5838  137.4422  153.0759 C   0  0  1  0  0  0  0  0  0  0  0  0
  146.5666  138.4140  152.3987 C   0  0  0  0  0  0  0  0  0  0  0  0
  144.7879  136.7254  152.1361 O   0  0  0  0  0  0  0  0  0  0  0  0
  144.9942  134.3021  149.8364 H   0  0  0  0  0  0  0  0  0  0  0  0
  144.0577  135.7909  149.7629 H   0  0  0  0  0  0  0  0  0  0  0  0
  143.6932  134.5834  150.9921 H   0  0  0  0  0  0  0  0  0  0  0  0
  146.2670  136.2177  150.7887 H   0  0  0  0  0  0  0  0  0  0  0  0
  145.3898  134.1687  152.9004 H   0  0  0  0  0  0  0  0  0  0  0  0
  146.6981  134.0193  151.7411 H   0  0  0  0  0  0  0  0  0  0  0  0
  147.0672  133.9988  154.8559 H   0  0  0  0  0  0  0  0  0  0  0  0
  149.8108  136.0081  153.6399 H   0  0  0  0  0  0  0  0  0  0  0  0
  150.1882  137.1837  156.3199 H   0  0  0  0  0  0  0  0  0  0  0  0
  151.5228  136.2541  155.6549 H   0  0  0  0  0  0  0  0  0  0  0  0
  152.1100  137.9306  154.1988 H   0  0  0  0  0  0  0  0  0  0  0  0
  150.4608  138.1647  153.6723 H   0  0  0  0  0  0  0  0  0  0  0  0
  152.3781  138.7051  156.9273 H   0  0  0  0  0  0  0  0  0  0  0  0
  152.2196  140.8788  158.1646 H   0  0  0  0  0  0  0  0  0  0  0  0
  150.7693  142.7015  157.2259 H   0  0  0  0  0  0  0  0  0  0  0  0
  149.5325  142.2666  155.0881 H   0  0  0  0  0  0  0  0  0  0  0  0
  149.0984  133.8568  152.6364 H   0  0  0  0  0  0  0  0  0  0  0  0
  147.3486  131.6467  153.7315 H   0  0  0  0  0  0  0  0  0  0  0  0
  148.3759  131.6122  152.3095 H   0  0  0  0  0  0  0  0  0  0  0  0
  146.9659  132.6606  152.3404 H   0  0  0  0  0  0  0  0  0  0  0  0
  149.4148  132.2393  155.2136 H   0  0  0  0  0  0  0  0  0  0  0  0
  150.4450  133.5955  154.7761 H   0  0  0  0  0  0  0  0  0  0  0  0
  150.4187  132.1537  153.7767 H   0  0  0  0  0  0  0  0  0  0  0  0
  145.5018  135.9680  154.6563 H   0  0  0  0  0  0  0  0  0  0  0  0
  146.8816  137.0340  154.7372 H   0  0  0  0  0  0  0  0  0  0  0  0
  144.8878  138.0514  153.6534 H   0  0  0  0  0  0  0  0  0  0  0  0
  147.0572  139.0447  153.1405 H   0  0  0  0  0  0  0  0  0  0  0  0
  146.0459  139.0709  151.7018 H   0  0  0  0  0  0  0  0  0  0  0  0
  147.3512  137.8951  151.8487 H   0  0  0  0  0  0  0  0  0  0  0  0
  147.7417  135.9063  152.7744 H   0  0  0  0  0  0  0  0  0  0  0  0
  1  2  1  0  0  0  0
  1 24  1  0  0  0  0
  1 25  1  0  0  0  0
  1 26  1  0  0  0  0
  2 23  1  0  0  0  0
  2  3  1  0  0  0  0
  2 27  1  0  0  0  0
  3  4  1  0  0  0  0
  3 28  1  0  0  0  0
  3 29  1  0  0  0  0
  4  5  1  0  0  0  0
  4 20  1  0  0  0  0
  4 53  1  0  0  0  0
  5  6  1  0  0  0  0
  5 17  1  0  0  0  0
  5 30  1  0  0  0  0
  6  7  2  0  0  0  0
  6  8  1  0  0  0  0
  8  9  1  0  0  0  0
  8 31  1  0  0  0  0
  9 10  1  0  0  0  0
  9 32  1  0  0  0  0
  9 33  1  0  0  0  0
 10 11  1  0  0  0  0
 10 34  1  0  0  0  0
 10 35  1  0  0  0  0
 11 16  1  0  0  0  0
 11 12  2  0  0  0  0
 12 13  1  0  0  0  0
 12 36  1  0  0  0  0
 13 14  2  0  0  0  0
 13 37  1  0  0  0  0
 14 15  1  0  0  0  0
 14 38  1  0  0  0  0
 15 16  2  0  0  0  0
 15 39  1  0  0  0  0
 17 18  1  0  0  0  0
 17 19  1  0  0  0  0
 17 40  1  0  0  0  0
 18 41  1  0  0  0  0
 18 42  1  0  0  0  0
 18 43  1  0  0  0  0
 19 44  1  0  0  0  0
 19 45  1  0  0  0  0
 19 46  1  0  0  0  0
 20 21  1  0  0  0  0
 20 47  1  0  0  0  0
 20 48  1  0  0  0  0
 21 22  1  0  0  0  0
 21 23  1  0  0  0  0
 21 49  1  0  0  0  0
 22 50  1  0  0  0  0
 22 51  1  0  0  0  0
 22 52  1  0  0  0  0
M  CHG  1   4   1
M  END
> <s_m_source_file>
AV-unprocessed.smi

> <i_m_source_file_index>
1762

> <i_lp_mmshare_version>
43012

> <i_f3d_flags>
0

> <s_epik_input>
W0NIM11bQ0BASF0xW0NIMl1OKFtDSDJdW0NASF0oTzEpW0NIM10pW0NAQEhdKFtDSF0oW0NIM10pW0NIM10pQyg9TylbTkhdW0NIMl1bQ0gyXWMyW2NIXVtjSF1bY0hdW2NIXW4y

> <s_epik_cmdline>
J2VwaWtfcHl0aG9uJywgJy1waCcsICc3LjAnLCAnLXRuJywgJzgnLCAnLW1hJywgJzIwMCcsICctbWV0YWxfYmluZGluZycsICctaW1hZScsICc8aW5maWxlLm1hZT4nLCAnLW9tYWUnLCAnPG91dGZpbGUubWFlPic=

> <r_epik_Ionization_Penalty>
2.27005

> <r_epik_Ionization_Penalty_Charging>
2.24983

> <r_epik_Ionization_Penalty_Neutral>
0.0202209

> <r_epik_State_Penalty>
2.40228

> <r_epik_Charging_Adjusted_Penalty>
4.65211

> <i_epik_Tot_Q>
1

> <i_epik_Tot_abs_Q>
1

> <r_epik_Metal_State_Penalty>
2.40762

> <b_epik_Metal_Only>
0

> <s_lp_Force_Field>
OPLS_2005

> <r_lp_Energy>
24.4928

> <b_lp_Chiralities_Consistent>
1

> <s_lp_Variant>
AV-unprocessed.smi:1762-13

> <Gold.Version>
5.8.1

> <Gold.Id.Protein>
6NUR|6NUR_protein|mol2

> <Gold.PLP.Fitness>
51.8425

> <Gold.PLP.PLP>
-40.3006

> <Gold.PLP.part.hbond>
-3.0000

> <Gold.PLP.part.metal>
0.0000

> <Gold.PLP.part.buried>
-3.9120

> <Gold.PLP.part.nonpolar>
-34.3292

> <Gold.PLP.part.repulsive>
0.5734

> <Gold.PLP.ligand.clash>
0.0000

> <Gold.PLP.ligand.torsion>
0.9759

> <Gold.PLP.Chemscore.Hbond>
3.4212

> <Gold.PLP.Chemscore.CHOScore>
1.0000

> <Gold.PLP.Chemscore.Metal>
0.0000

> <Gold.Chemscore.Hbonds>
donor molecule, donor type, donor heavy atom, donor atom, acceptor molecule, acceptor atom, score
      L1  H     4    53       P1  7948  2.00
      L1  H     8    31       P1  7948  0.83
      P1  H  7989  7998       L1    16  0.58
      L1  C    15    39       P1  8028  0.84

> <Gold.PLP.Chemscore.Internal.Correction>
0.2301

> <Gold.Rescore>
     Score         DG    S(hbond)    S(metal)    S(lipo)     H(rot)  DE(clash)    DE(int)     intcor
     16.12     -17.44       1.55        0.00      94.40       1.66       0.06       1.25       ----

> <Gold.Chemscore.Fitness>
16.1232

> <Gold.Chemscore.DG>
-17.4359

> <Gold.Chemscore.ZeroCoef>
-5.4800

> <Gold.Chemscore.Hbond>
1.5479

> <Gold.Chemscore.Metal>
0.0000

> <Gold.Chemscore.Lipo>
94.3970

> <Gold.Chemscore.Internal_Hbond>
0.0000

> <Gold.Chemscore.DEClash>
0.0590

> <Gold.Chemscore.DEInternal>
1.2537

> <Gold.Chemscore.Rot>
1.6635

> <Gold.Chemscore.Internal.Correction>
   9.000000E+99

> <Gold.Chemscore.Hbonds>
donor molecule, donor type, donor heavy atom, donor atom, acceptor molecule, acceptor atom, score
      L1  H     4    53       P1  7948  0.94
      L1  H     8    31       P1  7948  0.14
      P1  H  7989  7998       L1    16  0.01

> <Gold.Chemscore.Hbond.Weighted>
-5.1701

> <Gold.Chemscore.Metal.Weighted>
-0.0000

> <Gold.Chemscore.Lipo.Weighted>
-11.0444

> <Gold.Chemscore.Internal_Hbond.Weighted>
0.0000

> <Gold.Chemscore.DEClash.Weighted>
0.0590

> <Gold.Chemscore.DEInternal.Weighted>
1.2537

> <Gold.Chemscore.Rot.Weighted>
4.2586

> <Gold.Chemscore.Internal.Correction.Weighted>
   9.000000E+99

> <Gold.Protein.RotatedTorsions>
[ 6907 6896 6895 6894 ] final -167.68 input  -60.11 | X-H torsion
[ 7974 7965 7964 7962 ] final   98.73 input  175.53 | X-H torsion
[ 8008 7997 7996 7995 ] final -136.18 input   59.86 | X-H torsion
[ 10167 10162 10161 10158 ] final -169.16 input  -65.29 | X-H torsion
[ 10718 10713 10712 10709 ] final  -25.80 input   66.30 | X-H torsion
[ 10763 10752 10751 10750 ] final  136.37 input  -60.55 | X-H torsion
[ 11005 11000 10999 10996 ] final  -69.61 input  -57.11 | X-H torsion

> <Gold.Protein.ActiveResidues>
 VAL166  LYS551  ARG553  GLY616  TRP617  ASP618  TYR619  PRO620  LYS621  CYS622 
 ASP623  PHE694  ASN695  SER759  ASP760  ASP761  ALA762  ILE779  LEU786  VAL792 
 PHE793  MET794  SER795  GLU796  ALA797  LYS798  CYS799  TRP800  GLU811  SER814 

> <Gold.Protein.RotatedAtoms>
  151.4633  133.3587  159.2812 H   0  0  0  0  0  0  0  0  0  0  0  0  # atno 6907 bound_to 6896
  150.9010  134.8424  159.7371 H   0  0  0  0  0  0  0  0  0  0  0  0  # atno 6908 bound_to 6896
  152.4879  134.4554  159.9640 H   0  0  0  0  0  0  0  0  0  0  0  0  # atno 6909 bound_to 6896
  145.4082  139.2337  143.3262 H   0  0  0  0  0  0  0  0  0  0  0  0  # atno 7974 bound_to 7965
  155.3910  140.0500  157.3040 H   0  0  0  0  0  0  0  0  0  0  0  0  # atno 8008 bound_to 7997
  154.5036  140.2166  155.9258 H   0  0  0  0  0  0  0  0  0  0  0  0  # atno 8009 bound_to 7997
  156.1498  140.3138  155.8634 H   0  0  0  0  0  0  0  0  0  0  0  0  # atno 8010 bound_to 7997
  139.5940  144.1152  152.1667 H   0  0  0  0  0  0  0  0  0  0  0  0  # atno 10167 bound_to 10162
  156.4596  130.4501  149.6937 H   0  0  0  0  0  0  0  0  0  0  0  0  # atno 10718 bound_to 10713
  153.8554  135.3074  155.3435 H   0  0  0  0  0  0  0  0  0  0  0  0  # atno 10763 bound_to 10752
  154.7873  135.4803  153.9976 H   0  0  0  0  0  0  0  0  0  0  0  0  # atno 10764 bound_to 10752
  153.1493  135.6840  153.9000 H   0  0  0  0  0  0  0  0  0  0  0  0  # atno 10765 bound_to 10752
  141.1557  133.6768  156.6625 H   0  0  0  0  0  0  0  0  0  0  0  0  # atno 11005 bound_to 11000
  146.2718  140.4790  142.8811 LP  0  0  0  0  0  0  0  0  0  0  0  0  # atno 17320 bound_to 7965
  144.8327  140.6732  143.6280 LP  0  0  0  0  0  0  0  0  0  0  0  0  # atno 17321 bound_to 7965
  140.0733  144.5761  150.7176 LP  0  0  0  0  0  0  0  0  0  0  0  0  # atno 17342 bound_to 10162
  140.7197  143.2577  151.4320 LP  0  0  0  0  0  0  0  0  0  0  0  0  # atno 17343 bound_to 10162
  156.3730  130.7540  151.2525 LP  0  0  0  0  0  0  0  0  0  0  0  0  # atno 17370 bound_to 10713
  157.7498  131.0317  150.4195 LP  0  0  0  0  0  0  0  0  0  0  0  0  # atno 17371 bound_to 10713
  140.3236  134.7987  157.4272 LP  0  0  0  0  0  0  0  0  0  0  0  0  # atno 17394 bound_to 11000
  140.1075  134.5389  155.8296 LP  0  0  0  0  0  0  0  0  0  0  0  0  # atno 17395 bound_to 11000

$$$$
