AV-unprocessed.smi:542|AV-procd|sdf|2874|dock1
  -GOLD-   2262023363D 1   1.00000     0.00000
 Structure written by MMmdl.
 45 47  0  0  0  0  0  0  0  0  2 V2000
  148.4658  140.9775  154.4289 C   0  0  0  0  0  0  0  0  0  0  0  0
  149.8518  140.6875  154.4745 O   0  0  0  0  0  0  0  0  0  0  0  0
  150.3267  140.5172  155.7992 C   0  0  0  0  0  0  0  0  0  0  0  0
  151.8607  140.4136  155.7647 C   0  0  0  0  0  0  0  0  0  0  0  0
  152.4161  139.9276  157.0252 N   0  0  0  0  0  0  0  0  0  0  0  0
  152.5528  140.5835  158.2149 C   0  0  0  0  0  0  0  0  0  0  0  0
  152.1773  141.9199  158.4156 N   0  0  0  0  0  0  0  0  0  0  0  0
  151.2815  142.7313  157.5873 C   0  0  0  0  0  0  0  0  0  0  0  0
  150.2107  143.4542  158.4254 C   0  0  0  0  0  0  0  0  0  0  0  0
  150.8638  144.3562  159.4845 C   0  0  0  0  0  0  0  0  0  0  0  0
  149.8208  145.0266  160.3893 C   0  0  0  0  0  0  0  0  0  0  0  0
  151.8773  143.5276  160.2904 C   0  0  0  0  0  0  0  0  0  0  0  0
  152.8655  142.8068  159.3564 C   0  0  0  0  0  0  0  0  0  0  0  0
  153.0501  139.8296  159.1991 N   0  0  0  0  0  0  0  0  0  0  0  0
  153.2626  138.6042  158.5910 C   0  0  0  0  0  0  0  0  0  0  0  0
  152.8791  138.6321  157.2876 C   0  0  0  0  0  0  0  0  0  0  0  0
  152.9506  137.4578  156.3876 C   0  0  0  0  0  0  0  0  0  0  0  0
  152.5608  137.5226  155.2237 O   0  0  0  0  0  0  0  0  0  0  0  0
  153.4792  136.3578  157.0115 N   0  5  0  0  0  0  0  0  0  0  0  0
  153.8893  136.2907  158.3253 C   0  0  0  0  0  0  0  0  0  0  0  0
  154.3560  135.2585  158.8089 O   0  0  0  0  0  0  0  0  0  0  0  0
  153.7812  137.3949  159.1288 N   0  0  0  0  0  0  0  0  0  0  0  0
  154.2015  137.3510  160.5324 C   0  0  0  0  0  0  0  0  0  0  0  0
  148.1495  141.0947  153.3924 H   0  0  0  0  0  0  0  0  0  0  0  0
  148.2396  141.9049  154.9569 H   0  0  0  0  0  0  0  0  0  0  0  0
  147.8794  140.1709  154.8707 H   0  0  0  0  0  0  0  0  0  0  0  0
  150.0117  141.3583  156.4167 H   0  0  0  0  0  0  0  0  0  0  0  0
  149.8848  139.6231  156.2387 H   0  0  0  0  0  0  0  0  0  0  0  0
  152.1845  139.7702  154.9506 H   0  0  0  0  0  0  0  0  0  0  0  0
  152.2994  141.3852  155.5391 H   0  0  0  0  0  0  0  0  0  0  0  0
  151.8799  143.4663  157.0473 H   0  0  0  0  0  0  0  0  0  0  0  0
  150.8087  142.1271  156.8192 H   0  0  0  0  0  0  0  0  0  0  0  0
  149.5720  144.0485  157.7715 H   0  0  0  0  0  0  0  0  0  0  0  0
  149.5618  142.7244  158.9104 H   0  0  0  0  0  0  0  0  0  0  0  0
  151.4108  145.1447  158.9654 H   0  0  0  0  0  0  0  0  0  0  0  0
  149.2367  144.2867  160.9375 H   0  0  0  0  0  0  0  0  0  0  0  0
  149.1274  145.6326  159.8056 H   0  0  0  0  0  0  0  0  0  0  0  0
  150.2977  145.6816  161.1187 H   0  0  0  0  0  0  0  0  0  0  0  0
  152.4249  144.1722  160.9787 H   0  0  0  0  0  0  0  0  0  0  0  0
  151.3552  142.7914  160.9033 H   0  0  0  0  0  0  0  0  0  0  0  0
  153.5687  142.2337  159.9614 H   0  0  0  0  0  0  0  0  0  0  0  0
  153.4598  143.5322  158.7995 H   0  0  0  0  0  0  0  0  0  0  0  0
  153.6511  136.5797  161.0724 H   0  0  0  0  0  0  0  0  0  0  0  0
  154.0322  138.2934  161.0525 H   0  0  0  0  0  0  0  0  0  0  0  0
  155.2661  137.1248  160.6045 H   0  0  0  0  0  0  0  0  0  0  0  0
  1  2  1  0  0  0  0
  1 24  1  0  0  0  0
  1 25  1  0  0  0  0
  1 26  1  0  0  0  0
  2  3  1  0  0  0  0
  3  4  1  0  0  0  0
  3 27  1  0  0  0  0
  3 28  1  0  0  0  0
  4  5  1  0  0  0  0
  4 29  1  0  0  0  0
  4 30  1  0  0  0  0
  5 16  1  0  0  0  0
  5  6  1  0  0  0  0
  6  7  1  0  0  0  0
  6 14  2  0  0  0  0
  7 13  1  0  0  0  0
  7  8  1  0  0  0  0
  8  9  1  0  0  0  0
  8 31  1  0  0  0  0
  8 32  1  0  0  0  0
  9 10  1  0  0  0  0
  9 33  1  0  0  0  0
  9 34  1  0  0  0  0
 10 11  1  0  0  0  0
 10 12  1  0  0  0  0
 10 35  1  0  0  0  0
 11 36  1  0  0  0  0
 11 37  1  0  0  0  0
 11 38  1  0  0  0  0
 12 13  1  0  0  0  0
 12 39  1  0  0  0  0
 12 40  1  0  0  0  0
 13 41  1  0  0  0  0
 13 42  1  0  0  0  0
 14 15  1  0  0  0  0
 15 22  1  0  0  0  0
 15 16  2  0  0  0  0
 16 17  1  0  0  0  0
 17 18  2  0  0  0  0
 17 19  1  0  0  0  0
 19 20  1  0  0  0  0
 20 21  2  0  0  0  0
 20 22  1  0  0  0  0
 22 23  1  0  0  0  0
 23 43  1  0  0  0  0
 23 44  1  0  0  0  0
 23 45  1  0  0  0  0
M  CHG  1  19  -1
M  END
> <s_m_source_file>
AV-unprocessed.smi

> <i_m_source_file_index>
542

> <i_lp_mmshare_version>
43012

> <i_f3d_flags>
0

> <s_epik_input>
W0NIM11uMWMoPU8pW25IXWMoPU8pYyhjMTIpbihbQ0gyXVtDSDJdT1tDSDNdKWMobjIpTjNbQ0gyXVtDSDJdW0NIXShbQ0gzXSlbQ0gyXVtDSDJdMw==

> <s_epik_cmdline>
J2VwaWtfcHl0aG9uJywgJy1waCcsICc3LjAnLCAnLXRuJywgJzgnLCAnLW1hJywgJzIwMCcsICctbWV0YWxfYmluZGluZycsICctaW1hZScsICc8aW5maWxlLm1hZT4nLCAnLW9tYWUnLCAnPG91dGZpbGUubWFlPic=

> <r_lp_tautomer_probability>
1

> <r_epik_Ionization_Penalty>
5.11335

> <r_epik_Ionization_Penalty_Charging>
0.0783784

> <r_epik_Ionization_Penalty_Neutral>
5.03497

> <r_epik_State_Penalty>
5.01923

> <r_epik_Charging_Adjusted_Penalty>
5.09761

> <i_epik_Tot_Q>
-1

> <i_epik_Tot_abs_Q>
1

> <r_epik_Metal_State_Penalty>
1.13361

> <b_epik_Metal_Only>
1

> <s_lp_Force_Field>
OPLS_2005

> <r_lp_Energy>
42.8721

> <b_lp_Chiralities_Consistent>
1

> <s_lp_Variant>
AV-unprocessed.smi:542-2

> <Gold.Version>
5.8.1

> <Gold.Id.Protein>
6NUR|6NUR_protein|mol2

> <Gold.PLP.Fitness>
46.8831

> <Gold.PLP.PLP>
-37.0924

> <Gold.PLP.part.hbond>
-4.0000

> <Gold.PLP.part.metal>
0.0000

> <Gold.PLP.part.buried>
-2.5395

> <Gold.PLP.part.nonpolar>
-30.2622

> <Gold.PLP.part.repulsive>
0.1694

> <Gold.PLP.ligand.clash>
0.0000

> <Gold.PLP.ligand.torsion>
0.5577

> <Gold.PLP.Chemscore.Hbond>
3.5725

> <Gold.PLP.Chemscore.CHOScore>
0.0000

> <Gold.PLP.Chemscore.Metal>
0.0000

> <Gold.Chemscore.Hbonds>
donor molecule, donor type, donor heavy atom, donor atom, acceptor molecule, acceptor atom, score
      P1  H  6896  6907       L1    21  0.42
      P1  H  7989  7998       L1     2  0.74
      P1  H 10752 10763       L1    19  1.70
      P1  H 10752 10765       L1    18  0.08

> <Gold.PLP.Chemscore.Internal.Correction>
0.1885

> <Gold.Rescore>
     Score         DG    S(hbond)    S(metal)    S(lipo)     H(rot)  DE(clash)    DE(int)     intcor
     14.75     -16.52       1.21        0.00      91.33       1.44       0.07       1.70       ----

> <Gold.Chemscore.Fitness>
14.7499

> <Gold.Chemscore.DG>
-16.5234

> <Gold.Chemscore.ZeroCoef>
-5.4800

> <Gold.Chemscore.Hbond>
1.2089

> <Gold.Chemscore.Metal>
0.0000

> <Gold.Chemscore.Lipo>
91.3264

> <Gold.Chemscore.Internal_Hbond>
0.0000

> <Gold.Chemscore.DEClash>
0.0730

> <Gold.Chemscore.DEInternal>
1.7005

> <Gold.Chemscore.Rot>
1.4372

> <Gold.Chemscore.Internal.Correction>
   9.000000E+99

> <Gold.Chemscore.Hbonds>
donor molecule, donor type, donor heavy atom, donor atom, acceptor molecule, acceptor atom, score
      P1  H  6896  6907       L1    21  0.14
      P1  H  7989  7998       L1     2  0.18
      P1  H 10752 10763       L1    19  0.14
      P1  H 10752 10765       L1    18  0.07

> <Gold.Chemscore.Hbond.Weighted>
-4.0376

> <Gold.Chemscore.Metal.Weighted>
-0.0000

> <Gold.Chemscore.Lipo.Weighted>
-10.6852

> <Gold.Chemscore.Internal_Hbond.Weighted>
0.0000

> <Gold.Chemscore.DEClash.Weighted>
0.0730

> <Gold.Chemscore.DEInternal.Weighted>
1.7005

> <Gold.Chemscore.Rot.Weighted>
3.6793

> <Gold.Chemscore.Internal.Correction.Weighted>
   9.000000E+99

> <Gold.Protein.RotatedTorsions>
[ 6907 6896 6895 6894 ] final   77.12 input  -60.11 | X-H torsion
[ 7974 7965 7964 7962 ] final  128.28 input  175.53 | X-H torsion
[ 8008 7997 7996 7995 ] final   33.47 input   59.86 | X-H torsion
[ 10167 10162 10161 10158 ] final   35.40 input  -65.29 | X-H torsion
[ 10718 10713 10712 10709 ] final   33.87 input   66.30 | X-H torsion
[ 10763 10752 10751 10750 ] final  136.58 input  -60.55 | X-H torsion
[ 11005 11000 10999 10996 ] final  115.83 input  -57.11 | X-H torsion

> <Gold.Protein.ActiveResidues>
 VAL166  LYS551  ARG553  GLY616  TRP617  ASP618  TYR619  PRO620  LYS621  CYS622 
 ASP623  PHE694  ASN695  SER759  ASP760  ASP761  ALA762  ILE779  LEU786  VAL792 
 PHE793  MET794  SER795  GLU796  ALA797  LYS798  CYS799  TRP800  GLU811  SER814 

> <Gold.Protein.RotatedAtoms>
  152.5103  134.3865  159.9369 H   0  0  0  0  0  0  0  0  0  0  0  0  # atno 6907 bound_to 6896
  151.3824  133.3810  159.2719 H   0  0  0  0  0  0  0  0  0  0  0  0  # atno 6908 bound_to 6896
  150.9495  134.8916  159.7721 H   0  0  0  0  0  0  0  0  0  0  0  0  # atno 6909 bound_to 6896
  145.0412  139.3961  143.5101 H   0  0  0  0  0  0  0  0  0  0  0  0  # atno 7974 bound_to 7965
  155.1391  140.3264  155.4456 H   0  0  0  0  0  0  0  0  0  0  0  0  # atno 8008 bound_to 7997
  156.2610  140.1997  156.6457 H   0  0  0  0  0  0  0  0  0  0  0  0  # atno 8009 bound_to 7997
  154.6556  140.0553  156.9991 H   0  0  0  0  0  0  0  0  0  0  0  0  # atno 8010 bound_to 7997
  140.4225  144.1440  150.6149 H   0  0  0  0  0  0  0  0  0  0  0  0  # atno 10167 bound_to 10162
  157.3033  130.7362  149.6680 H   0  0  0  0  0  0  0  0  0  0  0  0  # atno 10718 bound_to 10713
  153.8588  135.3070  155.3436 H   0  0  0  0  0  0  0  0  0  0  0  0  # atno 10763 bound_to 10752
  154.7858  135.4810  153.9946 H   0  0  0  0  0  0  0  0  0  0  0  0  # atno 10764 bound_to 10752
  153.1474  135.6836  153.9028 H   0  0  0  0  0  0  0  0  0  0  0  0  # atno 10765 bound_to 10752
  139.9022  134.9589  156.7105 H   0  0  0  0  0  0  0  0  0  0  0  0  # atno 11005 bound_to 11000
  146.3509  140.0014  142.8676 LP  0  0  0  0  0  0  0  0  0  0  0  0  # atno 17320 bound_to 7965
  145.1645  140.9690  143.4358 LP  0  0  0  0  0  0  0  0  0  0  0  0  # atno 17321 bound_to 7965
  140.4518  143.2484  151.9338 LP  0  0  0  0  0  0  0  0  0  0  0  0  # atno 17342 bound_to 10162
  139.4783  144.5555  151.8320 LP  0  0  0  0  0  0  0  0  0  0  0  0  # atno 17343 bound_to 10162
  155.9673  130.4273  150.4739 LP  0  0  0  0  0  0  0  0  0  0  0  0  # atno 17370 bound_to 10713
  157.2724  131.0590  151.2251 LP  0  0  0  0  0  0  0  0  0  0  0  0  # atno 17371 bound_to 10713
  140.7079  133.9249  155.8066 LP  0  0  0  0  0  0  0  0  0  0  0  0  # atno 17394 bound_to 11000
  141.0322  134.0740  157.4001 LP  0  0  0  0  0  0  0  0  0  0  0  0  # atno 17395 bound_to 11000

$$$$
