AV-unprocessed.smi:1005|AV-procd|sdf|4381|dock2
  -GOLD-   22720 2303D 1   1.00000     0.00000
 Structure written by MMmdl.
 58 60  0  0  0  0  0  0  0  0  4 V2000
  152.4537  143.8492  161.1319 C   0  0  0  0  0  0  0  0  0  0  0  0
  152.1942  142.9763  159.9159 C   0  0  0  0  0  0  0  0  0  0  0  0
  151.2657  143.4243  158.9501 C   0  0  0  0  0  0  0  0  0  0  0  0
  151.0500  142.6046  157.8488 C   0  0  0  0  0  0  0  0  0  0  0  0
  150.2128  142.7630  156.7430 N   0  3  0  0  0  0  0  0  0  0  0  0
  150.3439  141.6896  155.9159 C   0  0  0  0  0  0  0  0  0  0  0  0
  151.2527  140.8459  156.4771 N   0  0  0  0  0  0  0  0  0  0  0  0
  151.7521  139.5506  155.9924 C   0  0  0  0  0  0  0  0  0  0  0  0
  150.6971  138.7646  155.1884 C   0  0  1  0  0  0  0  0  0  0  0  0
  150.4576  139.4145  153.9547 O   0  0  0  0  0  0  0  0  0  0  0  0
  151.1498  137.3182  154.9051 C   0  0  0  0  0  0  0  0  0  0  0  0
  149.9989  136.3875  154.7485 N   0  3  2  0  0  0  0  0  0  0  0  0
  148.8742  136.6266  155.6882 C   0  0  0  0  0  0  0  0  0  0  0  0
  149.1654  136.0373  157.0817 C   0  0  0  0  0  0  0  0  0  0  0  0
  149.4942  134.6582  156.9640 O   0  0  0  0  0  0  0  0  0  0  0  0
  150.6593  134.4384  156.1754 C   0  0  1  0  0  0  0  0  0  0  0  0
  150.9637  132.9278  156.1839 C   0  0  0  0  0  0  0  0  0  0  0  0
  150.2781  132.1889  155.0919 N   0  3  0  0  0  0  0  0  0  0  0  0
  148.8125  132.4031  155.0609 C   0  0  0  0  0  0  0  0  0  0  0  0
  150.6126  130.7473  155.1038 C   0  0  0  0  0  0  0  0  0  0  0  0
  150.3808  134.9535  154.7467 C   0  0  0  0  0  0  0  0  0  0  0  0
  151.7196  141.3757  157.6872 C   0  0  0  0  0  0  0  0  0  0  0  0
  152.6376  140.9195  158.6309 C   0  0  0  0  0  0  0  0  0  0  0  0
  152.8715  141.7395  159.7582 C   0  0  0  0  0  0  0  0  0  0  0  0
  153.8685  141.2679  160.8031 C   0  0  0  0  0  0  0  0  0  0  0  0
  151.8531  144.7591  161.1052 H   0  0  0  0  0  0  0  0  0  0  0  0
  153.5024  144.1440  161.1755 H   0  0  0  0  0  0  0  0  0  0  0  0
  152.2051  143.3135  162.0484 H   0  0  0  0  0  0  0  0  0  0  0  0
  150.7467  144.3652  159.0634 H   0  0  0  0  0  0  0  0  0  0  0  0
  149.8206  141.5369  154.9829 H   0  0  0  0  0  0  0  0  0  0  0  0
  152.6613  139.7074  155.4117 H   0  0  0  0  0  0  0  0  0  0  0  0
  152.0492  138.9767  156.8710 H   0  0  0  0  0  0  0  0  0  0  0  0
  149.7650  138.7644  155.7532 H   0  0  0  0  0  0  0  0  0  0  0  0
  150.1659  138.7738  153.3240 H   0  0  0  0  0  0  0  0  0  0  0  0
  151.7521  137.3194  153.9953 H   0  0  0  0  0  0  0  0  0  0  0  0
  151.8083  136.9647  155.6986 H   0  0  0  0  0  0  0  0  0  0  0  0
  148.6397  137.6879  155.7627 H   0  0  0  0  0  0  0  0  0  0  0  0
  147.9843  136.1469  155.2784 H   0  0  0  0  0  0  0  0  0  0  0  0
  149.9715  136.5741  157.5832 H   0  0  0  0  0  0  0  0  0  0  0  0
  148.2847  136.1334  157.7168 H   0  0  0  0  0  0  0  0  0  0  0  0
  151.5000  134.9897  156.5973 H   0  0  0  0  0  0  0  0  0  0  0  0
  152.0424  132.7968  156.0846 H   0  0  0  0  0  0  0  0  0  0  0  0
  150.6889  132.4879  157.1437 H   0  0  0  0  0  0  0  0  0  0  0  0
  148.3479  132.0662  155.9886 H   0  0  0  0  0  0  0  0  0  0  0  0
  148.3623  131.8478  154.2372 H   0  0  0  0  0  0  0  0  0  0  0  0
  148.5618  133.4527  154.9130 H   0  0  0  0  0  0  0  0  0  0  0  0
  150.2665  130.2725  156.0230 H   0  0  0  0  0  0  0  0  0  0  0  0
  151.6899  130.5975  155.0257 H   0  0  0  0  0  0  0  0  0  0  0  0
  150.1489  130.2354  154.2597 H   0  0  0  0  0  0  0  0  0  0  0  0
  149.5579  134.3862  154.3092 H   0  0  0  0  0  0  0  0  0  0  0  0
  151.2409  134.7891  154.0964 H   0  0  0  0  0  0  0  0  0  0  0  0
  153.1571  139.9807  158.5142 H   0  0  0  0  0  0  0  0  0  0  0  0
  154.3091  140.3085  160.5302 H   0  0  0  0  0  0  0  0  0  0  0  0
  153.3807  141.1475  161.7706 H   0  0  0  0  0  0  0  0  0  0  0  0
  154.6804  141.9873  160.9110 H   0  0  0  0  0  0  0  0  0  0  0  0
  150.6464  132.5499  154.2230 H   0  0  0  0  0  0  0  0  0  0  0  0
  149.6438  136.5766  153.8212 H   0  0  0  0  0  0  0  0  0  0  0  0
  149.5964  143.5457  156.5642 H   0  0  0  0  0  0  0  0  0  0  0  0
  1  2  1  0  0  0  0
  1 26  1  0  0  0  0
  1 27  1  0  0  0  0
  1 28  1  0  0  0  0
  2 24  1  0  0  0  0
  2  3  2  0  0  0  0
  3  4  1  0  0  0  0
  3 29  1  0  0  0  0
  4 22  2  0  0  0  0
  4  5  1  0  0  0  0
  5  6  2  0  0  0  0
  5 58  1  0  0  0  0
  6  7  1  0  0  0  0
  6 30  1  0  0  0  0
  7  8  1  0  0  0  0
  7 22  1  0  0  0  0
  8  9  1  0  0  0  0
  8 31  1  0  0  0  0
  8 32  1  0  0  0  0
  9 10  1  0  0  0  0
  9 11  1  0  0  0  0
  9 33  1  0  0  0  0
 10 34  1  0  0  0  0
 11 12  1  0  0  0  0
 11 35  1  0  0  0  0
 11 36  1  0  0  0  0
 12 21  1  0  0  0  0
 12 13  1  0  0  0  0
 12 57  1  0  0  0  0
 13 14  1  0  0  0  0
 13 37  1  0  0  0  0
 13 38  1  0  0  0  0
 14 15  1  0  0  0  0
 14 39  1  0  0  0  0
 14 40  1  0  0  0  0
 15 16  1  0  0  0  0
 16 17  1  0  0  0  0
 16 21  1  0  0  0  0
 16 41  1  0  0  0  0
 17 18  1  0  0  0  0
 17 42  1  0  0  0  0
 17 43  1  0  0  0  0
 18 19  1  0  0  0  0
 18 20  1  0  0  0  0
 18 56  1  0  0  0  0
 19 44  1  0  0  0  0
 19 45  1  0  0  0  0
 19 46  1  0  0  0  0
 20 47  1  0  0  0  0
 20 48  1  0  0  0  0
 20 49  1  0  0  0  0
 21 50  1  0  0  0  0
 21 51  1  0  0  0  0
 22 23  1  0  0  0  0
 23 24  2  0  0  0  0
 23 52  1  0  0  0  0
 24 25  1  0  0  0  0
 25 53  1  0  0  0  0
 25 54  1  0  0  0  0
 25 55  1  0  0  0  0
M  CHG  1   5   1
M  CHG  1  12   1
M  CHG  1  18   1
M  END
> <s_m_source_file>
AV-unprocessed.smi

> <i_m_source_file_index>
1005

> <i_lp_mmshare_version>
43012

> <i_f3d_flags>
0

> <s_epik_input>
W0NIM11jKFtjSF0xKWMoW0NIM10pW2NIXWMoYzEyKW4oW2NIXW4yKVtDSDJdW0NASF0oW09IXSlbQ0gyXU4zW0NIMl1bQ0gyXU9bQ0BIXShbQ0gyXTMpW0NIMl1OKFtDSDNdKVtDSDNd

> <s_epik_cmdline>
J2VwaWtfcHl0aG9uJywgJy1waCcsICc3LjAnLCAnLXRuJywgJzgnLCAnLW1hJywgJzIwMCcsICctbWV0YWxfYmluZGluZycsICctaW1hZScsICc8aW5maWxlLm1hZT4nLCAnLW9tYWUnLCAnPG91dGZpbGUubWFlPic=

> <r_epik_Ionization_Penalty>
2.30802

> <r_epik_Ionization_Penalty_Charging>
2.30798

> <r_epik_Ionization_Penalty_Neutral>
3.4851e-05

> <r_epik_State_Penalty>
2.52618

> <r_epik_Charging_Adjusted_Penalty>
4.83416

> <i_epik_Tot_Q>
3

> <i_epik_Tot_abs_Q>
3

> <r_epik_Metal_State_Penalty>
6.53149

> <b_epik_Metal_Only>
0

> <s_lp_Force_Field>
OPLS_2005

> <r_lp_Energy>
46.6076

> <b_lp_Chiralities_Consistent>
1

> <s_lp_Variant>
AV-unprocessed.smi:1005-20

> <Gold.Version>
5.8.1

> <Gold.Id.Protein>
6NUR|6NUR_protein|mol2

> <Gold.PLP.Fitness>
61.1364

> <Gold.PLP.PLP>
-48.4416

> <Gold.PLP.part.hbond>
-4.0000

> <Gold.PLP.part.metal>
0.0000

> <Gold.PLP.part.buried>
-6.3101

> <Gold.PLP.part.nonpolar>
-38.6298

> <Gold.PLP.part.repulsive>
0.1057

> <Gold.PLP.ligand.clash>
0.0000

> <Gold.PLP.ligand.torsion>
1.2364

> <Gold.PLP.Chemscore.Hbond>
5.0000

> <Gold.PLP.Chemscore.CHOScore>
0.0000

> <Gold.PLP.Chemscore.Metal>
0.0000

> <Gold.Chemscore.Hbonds>
donor molecule, donor type, donor heavy atom, donor atom, acceptor molecule, acceptor atom, score
      L1  H     5    58       P1  8028  2.00
      L1  H    12    57       P1  7948  1.79
      P1  H  7989  7998       L1    10  1.00

> <Gold.PLP.Chemscore.Internal.Correction>
0.1675

> <Gold.Rescore>
     Score         DG    S(hbond)    S(metal)    S(lipo)     H(rot)  DE(clash)    DE(int)     intcor
     20.44     -22.91       2.76        0.00     126.08       2.56       0.05       2.42       ----

> <Gold.Chemscore.Fitness>
20.4393

> <Gold.Chemscore.DG>
-22.9126

> <Gold.Chemscore.ZeroCoef>
-5.4800

> <Gold.Chemscore.Hbond>
2.7622

> <Gold.Chemscore.Metal>
0.0000

> <Gold.Chemscore.Lipo>
126.0840

> <Gold.Chemscore.Internal_Hbond>
0.0000

> <Gold.Chemscore.DEClash>
0.0492

> <Gold.Chemscore.DEInternal>
2.4242

> <Gold.Chemscore.Rot>
2.5566

> <Gold.Chemscore.Internal.Correction>
   9.000000E+99

> <Gold.Chemscore.Hbonds>
donor molecule, donor type, donor heavy atom, donor atom, acceptor molecule, acceptor atom, score
      L1  H     5    58       P1  8028  0.98
      L1  H    12    57       P1  7948  0.56
      P1  H  7989  7998       L1    10  0.93

> <Gold.Chemscore.Hbond.Weighted>
-9.2258

> <Gold.Chemscore.Metal.Weighted>
-0.0000

> <Gold.Chemscore.Lipo.Weighted>
-14.7518

> <Gold.Chemscore.Internal_Hbond.Weighted>
0.0000

> <Gold.Chemscore.DEClash.Weighted>
0.0492

> <Gold.Chemscore.DEInternal.Weighted>
2.4242

> <Gold.Chemscore.Rot.Weighted>
6.5450

> <Gold.Chemscore.Internal.Correction.Weighted>
   9.000000E+99

> <Gold.Protein.RotatedTorsions>
[ 6907 6896 6895 6894 ] final  -88.40 input  -60.11 | X-H torsion
[ 7974 7965 7964 7962 ] final  -72.69 input  175.53 | X-H torsion
[ 8008 7997 7996 7995 ] final -148.69 input   59.86 | X-H torsion
[ 10167 10162 10161 10158 ] final  109.45 input  -65.29 | X-H torsion
[ 10718 10713 10712 10709 ] final  152.70 input   66.30 | X-H torsion
[ 10763 10752 10751 10750 ] final  147.74 input  -60.55 | X-H torsion
[ 11005 11000 10999 10996 ] final  -62.49 input  -57.11 | X-H torsion

> <Gold.Protein.ActiveResidues>
 VAL166  LYS551  ARG553  GLY616  TRP617  ASP618  TYR619  PRO620  LYS621  CYS622 
 ASP623  PHE694  ASN695  SER759  ASP760  ASP761  ALA762  ILE779  LEU786  VAL792 
 PHE793  MET794  SER795  GLU796  ALA797  LYS798  CYS799  TRP800  GLU811  SER814 

> <Gold.Protein.RotatedAtoms>
  150.6868  134.2747  159.4602 H   0  0  0  0  0  0  0  0  0  0  0  0  # atno 6907 bound_to 6896
  152.0667  134.9557  160.0584 H   0  0  0  0  0  0  0  0  0  0  0  0  # atno 6908 bound_to 6896
  152.0963  133.4192  159.4604 H   0  0  0  0  0  0  0  0  0  0  0  0  # atno 6909 bound_to 6896
  145.6619  140.9250  143.0929 H   0  0  0  0  0  0  0  0  0  0  0  0  # atno 7974 bound_to 7965
  155.5956  140.0657  157.2747 H   0  0  0  0  0  0  0  0  0  0  0  0  # atno 8008 bound_to 7997
  154.4293  140.1827  156.1167 H   0  0  0  0  0  0  0  0  0  0  0  0  # atno 8009 bound_to 7997
  156.0199  140.3318  155.7031 H   0  0  0  0  0  0  0  0  0  0  0  0  # atno 8010 bound_to 7997
  139.6766  144.7122  151.1591 H   0  0  0  0  0  0  0  0  0  0  0  0  # atno 10167 bound_to 10162
  157.2544  131.0785  151.1708 H   0  0  0  0  0  0  0  0  0  0  0  0  # atno 10718 bound_to 10713
  154.0433  135.2888  155.3351 H   0  0  0  0  0  0  0  0  0  0  0  0  # atno 10763 bound_to 10752
  154.6915  135.5224  153.8402 H   0  0  0  0  0  0  0  0  0  0  0  0  # atno 10764 bound_to 10752
  153.0591  135.6606  154.0636 H   0  0  0  0  0  0  0  0  0  0  0  0  # atno 10765 bound_to 10752
  141.1361  133.6640  156.5535 H   0  0  0  0  0  0  0  0  0  0  0  0  # atno 11005 bound_to 11000
  144.7086  139.8460  143.7422 LP  0  0  0  0  0  0  0  0  0  0  0  0  # atno 17320 bound_to 7965
  146.1118  139.4123  143.0283 LP  0  0  0  0  0  0  0  0  0  0  0  0  # atno 17321 bound_to 7965
  140.7637  143.5763  150.8942 LP  0  0  0  0  0  0  0  0  0  0  0  0  # atno 17342 bound_to 10162
  139.9432  143.6358  152.3048 LP  0  0  0  0  0  0  0  0  0  0  0  0  # atno 17343 bound_to 10162
  157.3243  130.6953  149.6287 LP  0  0  0  0  0  0  0  0  0  0  0  0  # atno 17370 bound_to 10713
  155.9665  130.4326  150.4970 LP  0  0  0  0  0  0  0  0  0  0  0  0  # atno 17371 bound_to 10713
  140.4044  134.7327  157.4799 LP  0  0  0  0  0  0  0  0  0  0  0  0  # atno 17394 bound_to 11000
  140.0472  134.6182  155.8906 LP  0  0  0  0  0  0  0  0  0  0  0  0  # atno 17395 bound_to 11000

$$$$
