AV-unprocessed.smi:2698|AV-procd|sdf|10422|dock7
  -GOLD-   2272014463D 1   1.00000     0.00000
 Structure written by MMmdl.
 33 33  0  0  0  0  0  0  0  0  2 V2000
  152.4476  143.3070  160.1193 C   0  0  0  0  0  0  0  0  0  0  0  0
  151.9684  144.2859  159.0368 C   0  0  0  0  0  0  0  0  0  0  0  0
  151.8845  145.7140  159.6070 C   0  0  0  0  0  0  0  0  0  0  0  0
  150.6412  143.7968  158.4117 C   0  0  0  0  0  0  0  0  0  0  0  0
  150.6978  142.3469  157.9231 C   0  0  0  0  0  0  0  0  0  0  0  0
  151.0035  141.4440  158.7022 O   0  0  0  0  0  0  0  0  0  0  0  0
  150.4031  142.1435  156.6289 N   0  0  0  0  0  0  0  0  0  0  0  0
  150.3363  140.8497  155.9490 C   0  0  1  0  0  0  0  0  0  0  0  0
  149.7297  140.9871  154.5352 C   0  0  0  0  0  0  0  0  0  0  0  0
  148.2388  141.2167  154.4960 C   0  0  0  0  0  0  0  0  0  0  0  0
  147.3807  141.1185  153.4199 C   0  0  0  0  0  0  0  0  0  0  0  0
  146.1154  141.3949  153.9062 N   0  0  0  0  0  0  0  0  0  0  0  0
  146.2439  141.6439  155.2096 C   0  0  0  0  0  0  0  0  0  0  0  0
  147.4973  141.5567  155.6339 N   0  0  0  0  0  0  0  0  0  0  0  0
  151.7165  140.1850  155.9503 C   0  0  0  0  0  0  0  0  0  0  0  0
  152.2869  140.0483  157.0558 O   0  0  0  0  0  0  0  0  0  0  0  0
  152.1825  139.8276  154.8462 O   0  5  0  0  0  0  0  0  0  0  0  0
  145.2560  141.3998  153.3763 H   0  0  0  0  0  0  0  0  0  0  0  0
  151.7395  143.2545  160.9469 H   0  0  0  0  0  0  0  0  0  0  0  0
  153.4129  143.6109  160.5251 H   0  0  0  0  0  0  0  0  0  0  0  0
  152.5651  142.3006  159.7165 H   0  0  0  0  0  0  0  0  0  0  0  0
  152.7277  144.2908  158.2529 H   0  0  0  0  0  0  0  0  0  0  0  0
  151.1079  145.7905  160.3685 H   0  0  0  0  0  0  0  0  0  0  0  0
  151.6666  146.4489  158.8326 H   0  0  0  0  0  0  0  0  0  0  0  0
  152.8288  146.0075  160.0658 H   0  0  0  0  0  0  0  0  0  0  0  0
  149.8340  143.8859  159.1405 H   0  0  0  0  0  0  0  0  0  0  0  0
  150.3623  144.4385  157.5749 H   0  0  0  0  0  0  0  0  0  0  0  0
  150.1857  142.9504  156.0620 H   0  0  0  0  0  0  0  0  0  0  0  0
  149.6798  140.1913  156.5217 H   0  0  0  0  0  0  0  0  0  0  0  0
  150.2188  141.7961  153.9903 H   0  0  0  0  0  0  0  0  0  0  0  0
  149.9341  140.0774  153.9693 H   0  0  0  0  0  0  0  0  0  0  0  0
  147.5625  140.8705  152.3848 H   0  0  0  0  0  0  0  0  0  0  0  0
  145.4129  141.8880  155.8550 H   0  0  0  0  0  0  0  0  0  0  0  0
  1  2  1  0  0  0  0
  1 19  1  0  0  0  0
  1 20  1  0  0  0  0
  1 21  1  0  0  0  0
  2  3  1  0  0  0  0
  2  4  1  0  0  0  0
  2 22  1  0  0  0  0
  3 23  1  0  0  0  0
  3 24  1  0  0  0  0
  3 25  1  0  0  0  0
  4  5  1  0  0  0  0
  4 26  1  0  0  0  0
  4 27  1  0  0  0  0
  5  6  2  0  0  0  0
  5  7  1  0  0  0  0
  7  8  1  0  0  0  0
  7 28  1  0  0  0  0
  8  9  1  0  0  0  0
  8 15  1  0  0  0  0
  8 29  1  0  0  0  0
  9 10  1  0  0  0  0
  9 30  1  0  0  0  0
  9 31  1  0  0  0  0
 10 14  1  0  0  0  0
 10 11  2  0  0  0  0
 11 12  1  0  0  0  0
 11 32  1  0  0  0  0
 12 18  1  0  0  0  0
 12 13  1  0  0  0  0
 13 14  2  0  0  0  0
 13 33  1  0  0  0  0
 15 16  2  0  0  0  0
 15 17  1  0  0  0  0
M  CHG  1  17  -1
M  END
> <s_m_source_file>
AV-unprocessed.smi

> <i_m_source_file_index>
2698

> <i_lp_mmshare_version>
43012

> <i_f3d_flags>
0

> <s_epik_input>
W0NIM11bQ0hdKFtDSDNdKVtDSDJdQyg9TylbTkhdW0NAQEhdKEMoPU8pW09IXSlbQ0gyXWMxW2NIXVtuSF1bY0hdbjE=

> <s_epik_cmdline>
J2VwaWtfcHl0aG9uJywgJy1waCcsICc3LjAnLCAnLXRuJywgJzgnLCAnLW1hJywgJzIwMCcsICctbWV0YWxfYmluZGluZycsICctaW1hZScsICc8aW5maWxlLm1hZT4nLCAnLW9tYWUnLCAnPG91dGZpbGUubWFlPic=

> <r_lp_tautomer_probability>
0.5

> <r_epik_Ionization_Penalty>
0.818672

> <r_epik_Ionization_Penalty_Charging>
0.818672

> <r_epik_Ionization_Penalty_Neutral>
7.99661e-08

> <r_epik_State_Penalty>
0.927032

> <r_epik_Charging_Adjusted_Penalty>
1.7457

> <i_epik_Tot_Q>
-1

> <i_epik_Tot_abs_Q>
1

> <r_epik_Metal_State_Penalty>
0.525537

> <b_epik_Metal_Only>
0

> <s_lp_Force_Field>
OPLS_2005

> <r_lp_Energy>
1.97611

> <b_lp_Chiralities_Consistent>
1

> <s_lp_Variant>
AV-unprocessed.smi:2698-6

> <Gold.Version>
5.8.1

> <Gold.Id.Protein>
6NUR|6NUR_protein|mol2

> <Gold.PLP.Fitness>
50.6828

> <Gold.PLP.PLP>
-35.6555

> <Gold.PLP.part.hbond>
-3.4740

> <Gold.PLP.part.metal>
0.0000

> <Gold.PLP.part.buried>
-1.5109

> <Gold.PLP.part.nonpolar>
-29.8142

> <Gold.PLP.part.repulsive>
0.2220

> <Gold.PLP.ligand.clash>
0.0000

> <Gold.PLP.ligand.torsion>
0.4046

> <Gold.PLP.Chemscore.Hbond>
4.2400

> <Gold.PLP.Chemscore.CHOScore>
0.9971

> <Gold.PLP.Chemscore.Metal>
0.0000

> <Gold.Chemscore.Hbonds>
donor molecule, donor type, donor heavy atom, donor atom, acceptor molecule, acceptor atom, score
      L1  H     7    28       P1  8028  0.50
      L1  H    12    18       P1 10175  0.80
      P1  H  7989  7998       L1    17  0.77
      P1  H  7997  8009       L1    16  1.53
      L1  C    11    32       P1  7957  1.00

> <Gold.PLP.Chemscore.Internal.Correction>
0.1250

> <Gold.Rescore>
     Score         DG    S(hbond)    S(metal)    S(lipo)     H(rot)  DE(clash)    DE(int)     intcor
     11.94     -17.16       3.17        0.00      75.35       3.01       0.48       4.74       ----

> <Gold.Chemscore.Fitness>
11.9359

> <Gold.Chemscore.DG>
-17.1591

> <Gold.Chemscore.ZeroCoef>
-5.4800

> <Gold.Chemscore.Hbond>
3.1679

> <Gold.Chemscore.Metal>
0.0000

> <Gold.Chemscore.Lipo>
75.3450

> <Gold.Chemscore.Internal_Hbond>
0.0000

> <Gold.Chemscore.DEClash>
0.4833

> <Gold.Chemscore.DEInternal>
4.7399

> <Gold.Chemscore.Rot>
3.0145

> <Gold.Chemscore.Internal.Correction>
   9.000000E+99

> <Gold.Chemscore.Hbonds>
donor molecule, donor type, donor heavy atom, donor atom, acceptor molecule, acceptor atom, score
      L1  H     7    28       P1  8028  0.47
      L1  H    12    18       P1 10175  0.11
      P1  H  7989  7998       L1    17  0.69
      P1  H  7997  8009       L1    16  0.34

> <Gold.Chemscore.Hbond.Weighted>
-10.5809

> <Gold.Chemscore.Metal.Weighted>
-0.0000

> <Gold.Chemscore.Lipo.Weighted>
-8.8154

> <Gold.Chemscore.Internal_Hbond.Weighted>
0.0000

> <Gold.Chemscore.DEClash.Weighted>
0.4833

> <Gold.Chemscore.DEInternal.Weighted>
4.7399

> <Gold.Chemscore.Rot.Weighted>
7.7171

> <Gold.Chemscore.Internal.Correction.Weighted>
   9.000000E+99

> <Gold.Protein.RotatedTorsions>
[ 6907 6896 6895 6894 ] final -129.27 input  -60.11 | X-H torsion
[ 7974 7965 7964 7962 ] final  -87.25 input  175.53 | X-H torsion
[ 8008 7997 7996 7995 ] final -175.78 input   59.86 | X-H torsion
[ 10167 10162 10161 10158 ] final   12.07 input  -65.29 | X-H torsion
[ 10718 10713 10712 10709 ] final -114.26 input   66.30 | X-H torsion
[ 10763 10752 10751 10750 ] final -149.96 input  -60.55 | X-H torsion
[ 11005 11000 10999 10996 ] final -168.25 input  -57.11 | X-H torsion

> <Gold.Protein.ActiveResidues>
 VAL166  LYS551  ARG553  GLY616  TRP617  ASP618  TYR619  PRO620  LYS621  CYS622 
 ASP623  PHE694  ASN695  SER759  ASP760  ASP761  ALA762  ILE779  LEU786  VAL792 
 PHE793  MET794  SER795  GLU796  ALA797  LYS798  CYS799  TRP800  GLU811  SER814 

> <Gold.Protein.RotatedAtoms>
  150.9269  133.6814  159.2819 H   0  0  0  0  0  0  0  0  0  0  0  0  # atno 6907 bound_to 6896
  151.4249  135.1001  159.9634 H   0  0  0  0  0  0  0  0  0  0  0  0  # atno 6908 bound_to 6896
  152.5007  133.8712  159.7354 H   0  0  0  0  0  0  0  0  0  0  0  0  # atno 6909 bound_to 6896
  145.4691  140.9560  143.1927 H   0  0  0  0  0  0  0  0  0  0  0  0  # atno 7974 bound_to 7965
  155.9868  140.1193  157.0675 H   0  0  0  0  0  0  0  0  0  0  0  0  # atno 8008 bound_to 7997
  154.4199  140.1133  156.5579 H   0  0  0  0  0  0  0  0  0  0  0  0  # atno 8009 bound_to 7997
  155.6397  140.3473  155.4713 H   0  0  0  0  0  0  0  0  0  0  0  0  # atno 8010 bound_to 7997
  140.6092  143.8444  150.7046 H   0  0  0  0  0  0  0  0  0  0  0  0  # atno 10167 bound_to 10162
  156.0818  130.6017  150.8751 H   0  0  0  0  0  0  0  0  0  0  0  0  # atno 10718 bound_to 10713
  154.8147  135.3296  154.7209 H   0  0  0  0  0  0  0  0  0  0  0  0  # atno 10763 bound_to 10752
  153.7852  135.6915  153.4886 H   0  0  0  0  0  0  0  0  0  0  0  0  # atno 10764 bound_to 10752
  153.1954  135.4535  155.0148 H   0  0  0  0  0  0  0  0  0  0  0  0  # atno 10765 bound_to 10752
  140.5441  134.5493  157.5107 H   0  0  0  0  0  0  0  0  0  0  0  0  # atno 11005 bound_to 11000
  144.7956  139.6241  143.7094 LP  0  0  0  0  0  0  0  0  0  0  0  0  # atno 17320 bound_to 7965
  146.2407  139.5996  142.9493 LP  0  0  0  0  0  0  0  0  0  0  0  0  # atno 17321 bound_to 7965
  140.2008  143.3960  152.1793 LP  0  0  0  0  0  0  0  0  0  0  0  0  # atno 17342 bound_to 10162
  139.5348  144.7198  151.4931 LP  0  0  0  0  0  0  0  0  0  0  0  0  # atno 17343 bound_to 10162
  157.5938  131.0943  150.9075 LP  0  0  0  0  0  0  0  0  0  0  0  0  # atno 17370 bound_to 10713
  156.9245  130.5327  149.5279 LP  0  0  0  0  0  0  0  0  0  0  0  0  # atno 17371 bound_to 10713
  139.9488  134.7653  156.0497 LP  0  0  0  0  0  0  0  0  0  0  0  0  # atno 17394 bound_to 11000
  141.1210  133.6613  156.3214 LP  0  0  0  0  0  0  0  0  0  0  0  0  # atno 17395 bound_to 11000

$$$$
