#       Name:                AV-unprocessed.smi:2079
#       Creating user name   scv26
#       Creation time:       Fri Mar 27 11:18:20 2020


#       File generated by GOLD software.
#

@<TRIPOS>MOLECULE
AV-unprocessed.smi:2079
    47    48     1
SMALL
NO_CHARGES


@<TRIPOS>ATOM
      1 ****        -6.8559   4.5085  -0.1606 C.3            1 S1                 0.0000
      2 ****        -5.8871   3.4787   0.3108 C.2            1 S1                 0.0000
      3 ****        -5.0600   2.6130  -0.3466 C.2            1 S1                 0.0000
      4 ****        -4.4091   1.9197   0.7101 C.2            1 S1                 0.0000
      5 ****        -3.4983   0.9442   0.5691 N.pl3          1 S1                -1.0000
      6 ****        -2.1891   1.2516   0.4241 C.2            1 S1                 0.0000
      7 ****        -1.6990   2.3831   0.4019 O.2            1 S1                 0.0000
      8 ****        -1.3955   0.1804   0.2953 N.am           1 S1                 0.0000
      9 ****         0.0509   0.2275   0.1332 C.3            1 S1                 0.0000
     10 ****         0.6249  -1.1943   0.0113 C.3            1 S1                 0.0000
     11 ****         2.1123  -1.1990  -0.0901 N.4            1 S1                 1.0000
     12 ****         2.5611  -0.7648  -1.4449 C.3            1 S1                 0.0000
     13 ****         4.0861  -0.6169  -1.5277 C.3            1 S1                 0.0000
     14 ****         4.7688  -1.9345  -1.1622 C.3            1 S1                 0.0000
     15 ****         4.3027  -2.3766   0.2271 C.3            1 S1                 0.0000
     16 ****         2.7634  -2.4865   0.3227 C.3            1 S1                 0.0000
     17 ****         2.3995  -2.9222   1.7584 C.3            1 S1                 0.0000
     18 ****        -4.8184   2.3170   1.9033 N.2            1 S1                 0.0000
     19 ****        -5.7616   3.3217   1.6562 O.3            1 S1                 0.0000
     20 ****        -7.8010   4.0461  -0.4451 H              1 S1                 0.0000
     21 ****        -6.4636   5.0390  -1.0282 H              1 S1                 0.0000
     22 ****        -7.0588   5.2423   0.6196 H              1 S1                 0.0000
     23 ****        -4.9369   2.4963  -1.4130 H              1 S1                 0.0000
     24 ****        -1.8326  -0.7295   0.3180 H              1 S1                 0.0000
     25 ****         0.2756   0.8276  -0.7481 H              1 S1                 0.0000
     26 ****         0.4914   0.7355   0.9927 H              1 S1                 0.0000
     27 ****         0.2856  -1.7353   0.8906 H              1 S1                 0.0000
     28 ****         0.1944  -1.7140  -0.8462 H              1 S1                 0.0000
     29 ****         2.2182  -1.4860  -2.1885 H              1 S1                 0.0000
     30 ****         2.1147   0.1913  -1.7125 H              1 S1                 0.0000
     31 ****         4.3773  -0.3137  -2.5339 H              1 S1                 0.0000
     32 ****         4.4185   0.1751  -0.8551 H              1 S1                 0.0000
     33 ****         4.5244  -2.6999  -1.8998 H              1 S1                 0.0000
     34 ****         5.8527  -1.8164  -1.1778 H              1 S1                 0.0000
     35 ****         4.7629  -3.3355   0.4691 H              1 S1                 0.0000
     36 ****         4.6671  -1.6665   0.9713 H              1 S1                 0.0000
     37 ****         2.4327  -3.2671  -0.3646 H              1 S1                 0.0000
     38 ****         3.0338  -3.7461   2.0870 H              1 S1                 0.0000
     39 ****         1.3765  -3.2866   1.8408 H              1 S1                 0.0000
     40 ****         2.5318  -2.1056   2.4691 H              1 S1                 0.0000
     41 ****         2.4396  -0.5025   0.5641 H              1 S1                 0.0000
     42 ****        -3.7884  -0.0128   0.5712 LP             1 S1                 0.0000
     43 ****        -2.2885   3.1853   0.4969 LP             1 S1                 0.0000
     44 ****        -0.7121   2.4984   0.2889 LP             1 S1                 0.0000
     45 ****        -4.5180   1.9729   2.7929 LP             1 S1                 0.0000
     46 ****        -6.6434   3.0597   2.0484 LP             1 S1                 0.0000
     47 ****        -5.4554   4.1799   2.0683 LP             1 S1                 0.0000
@<TRIPOS>BOND
    1    1    2 1     
    2    1   20 1     
    3    1   21 1     
    4    1   22 1     
    5    2   19 1     
    6    2    3 2     
    7    3    4 1     
    8    3   23 1     
    9    4    5 1     
   10    4   18 2     
   11    5    6 1     
   12    6    7 2     
   13    6    8 am    
   14    8    9 1     
   15    8   24 1     
   16    9   10 1     
   17    9   25 1     
   18    9   26 1     
   19   10   11 1     
   20   10   27 1     
   21   10   28 1     
   22   11   16 1     
   23   11   12 1     
   24   11   41 1     
   25   12   13 1     
   26   12   29 1     
   27   12   30 1     
   28   13   14 1     
   29   13   31 1     
   30   13   32 1     
   31   14   15 1     
   32   14   33 1     
   33   14   34 1     
   34   15   16 1     
   35   15   35 1     
   36   15   36 1     
   37   16   17 1     
   38   16   37 1     
   39   17   38 1     
   40   17   39 1     
   41   17   40 1     
   42   18   19 1     
   43    5   42 1     
   44    7   43 1     
   45    7   44 1     
   46   18   45 1     
   47   19   46 1     
   48   19   47 1     
@<TRIPOS>SUBSTRUCTURE
      1 S1             1
@<TRIPOS>SET
LONE_PAIRS      STATIC     ATOMS    <user>   **** ""
6 42 43 44 45 46 47
DONOR_HYDROGENS      STATIC     ATOMS    <user>   **** ""
2 24 41
ATOM$BLUE        STATIC     ATOMS    COLORGROUP SYSTEM
6 42 43 44 45 46 47
ATOM$RED        STATIC     ATOMS    COLORGROUP SYSTEM
2 24 41
