AV-unprocessed.smi:343|AV-procd|sdf|2388|dock4
  -GOLD-   2262022313D 1   1.00000     0.00000
 Structure written by MMmdl.
 42 44  0  0  0  0  0  0  0  0  1 V2000
  150.5155  145.3652  159.7227 C   0  0  0  0  0  0  0  0  0  0  0  0
  151.4680  144.2905  160.1633 C   0  0  0  0  0  0  0  0  0  0  0  0
  151.7505  144.1613  161.4491 N   0  0  0  0  0  0  0  0  0  0  0  0
  152.6113  143.1256  161.5102 N   0  0  0  0  0  0  0  0  0  0  0  0
  153.1287  142.7050  162.7978 C   0  0  0  0  0  0  0  0  0  0  0  0
  152.8763  142.6018  160.2602 C   0  0  0  0  0  0  0  0  0  0  0  0
  153.7969  141.4413  160.0599 C   0  0  0  0  0  0  0  0  0  0  0  0
  152.1505  143.3322  159.3574 C   0  0  0  0  0  0  0  0  0  0  0  0
  152.0716  143.1680  157.8601 C   0  0  0  0  0  0  0  0  0  0  0  0
  151.0658  142.0698  157.5153 C   0  0  0  0  0  0  0  0  0  0  0  0
  150.4141  141.5307  158.4093 O   0  0  0  0  0  0  0  0  0  0  0  0
  150.9434  141.7609  156.2145 N   0  0  0  0  0  0  0  0  0  0  0  0
  149.9996  140.8035  155.6506 C   0  0  0  0  0  0  0  0  0  0  0  0
  150.6948  139.5276  155.2137 C   0  0  0  0  0  0  0  0  0  0  0  0
  151.3951  138.6317  156.2078 C   0  0  0  0  0  0  0  0  0  0  0  0
  152.2010  139.4254  155.2041 C   0  0  0  0  0  0  0  0  0  0  0  0
  149.2039  141.3923  154.4972 C   0  0  0  0  0  0  0  0  0  0  0  0
  147.7946  141.8992  154.6903 C   0  0  0  0  0  0  0  0  0  0  0  0
  148.0438  140.6474  153.8797 C   0  0  0  0  0  0  0  0  0  0  0  0
  149.7896  144.9761  159.0086 H   0  0  0  0  0  0  0  0  0  0  0  0
  151.0504  146.1834  159.2406 H   0  0  0  0  0  0  0  0  0  0  0  0
  149.9581  145.7814  160.5629 H   0  0  0  0  0  0  0  0  0  0  0  0
  152.9387  141.6406  162.9397 H   0  0  0  0  0  0  0  0  0  0  0  0
  152.6491  143.2588  163.6061 H   0  0  0  0  0  0  0  0  0  0  0  0
  154.2037  142.8838  162.8357 H   0  0  0  0  0  0  0  0  0  0  0  0
  153.9924  141.2702  159.0014 H   0  0  0  0  0  0  0  0  0  0  0  0
  153.3624  140.5299  160.4706 H   0  0  0  0  0  0  0  0  0  0  0  0
  154.7546  141.6133  160.5517 H   0  0  0  0  0  0  0  0  0  0  0  0
  151.7670  144.0929  157.3690 H   0  0  0  0  0  0  0  0  0  0  0  0
  153.0437  142.9098  157.4386 H   0  0  0  0  0  0  0  0  0  0  0  0
  151.5262  142.2597  155.5581 H   0  0  0  0  0  0  0  0  0  0  0  0
  149.2891  140.5235  156.4312 H   0  0  0  0  0  0  0  0  0  0  0  0
  150.1838  139.0141  154.4010 H   0  0  0  0  0  0  0  0  0  0  0  0
  151.4370  138.9536  157.2465 H   0  0  0  0  0  0  0  0  0  0  0  0
  151.3174  137.5572  156.0556 H   0  0  0  0  0  0  0  0  0  0  0  0
  152.6618  138.8804  154.3826 H   0  0  0  0  0  0  0  0  0  0  0  0
  152.7690  140.2758  155.5764 H   0  0  0  0  0  0  0  0  0  0  0  0
  149.8153  141.9639  153.8008 H   0  0  0  0  0  0  0  0  0  0  0  0
  147.3393  141.7777  155.6710 H   0  0  0  0  0  0  0  0  0  0  0  0
  147.5098  142.8013  154.1528 H   0  0  0  0  0  0  0  0  0  0  0  0
  147.9218  140.7135  152.8006 H   0  0  0  0  0  0  0  0  0  0  0  0
  147.7498  139.6992  154.3252 H   0  0  0  0  0  0  0  0  0  0  0  0
  1  2  1  0  0  0  0
  1 20  1  0  0  0  0
  1 21  1  0  0  0  0
  1 22  1  0  0  0  0
  2  8  1  0  0  0  0
  2  3  2  0  0  0  0
  3  4  1  0  0  0  0
  4  5  1  0  0  0  0
  4  6  1  0  0  0  0
  5 23  1  0  0  0  0
  5 24  1  0  0  0  0
  5 25  1  0  0  0  0
  6  7  1  0  0  0  0
  6  8  2  0  0  0  0
  7 26  1  0  0  0  0
  7 27  1  0  0  0  0
  7 28  1  0  0  0  0
  8  9  1  0  0  0  0
  9 10  1  0  0  0  0
  9 29  1  0  0  0  0
  9 30  1  0  0  0  0
 10 11  2  0  0  0  0
 10 12  1  0  0  0  0
 12 13  1  0  0  0  0
 12 31  1  0  0  0  0
 13 14  1  0  0  0  0
 13 17  1  0  0  0  0
 13 32  1  0  0  0  0
 14 16  1  0  0  0  0
 14 15  1  0  0  0  0
 14 33  1  0  0  0  0
 15 16  1  0  0  0  0
 15 34  1  0  0  0  0
 15 35  1  0  0  0  0
 16 36  1  0  0  0  0
 16 37  1  0  0  0  0
 17 19  1  0  0  0  0
 17 18  1  0  0  0  0
 17 38  1  0  0  0  0
 18 19  1  0  0  0  0
 18 39  1  0  0  0  0
 18 40  1  0  0  0  0
 19 41  1  0  0  0  0
 19 42  1  0  0  0  0
M  END
> <s_m_source_file>
AV-unprocessed.smi

> <i_m_source_file_index>
343

> <i_lp_mmshare_version>
43012

> <i_f3d_flags>
0

> <s_epik_input>
W0NIM11jMW5uKFtDSDNdKWMoW0NIM10pYzFbQ0gyXUMoPU8pW05IXVtDSF0oW0NIXTJbQ0gyXVtDSDJdMilbQ0hdM1tDSDJdW0NIMl0z

> <s_epik_cmdline>
J2VwaWtfcHl0aG9uJywgJy1waCcsICc3LjAnLCAnLXRuJywgJzgnLCAnLW1hJywgJzIwMCcsICctbWV0YWxfYmluZGluZycsICctaW1hZScsICc8aW5maWxlLm1hZT4nLCAnLW9tYWUnLCAnPG91dGZpbGUubWFlPic=

> <r_lp_tautomer_probability>
1

> <r_epik_Ionization_Penalty>
0.00332543

> <r_epik_Ionization_Penalty_Charging>
0

> <r_epik_Ionization_Penalty_Neutral>
0.00332543

> <r_epik_State_Penalty>
0.00235125

> <r_epik_Charging_Adjusted_Penalty>
0.00235125

> <i_epik_Tot_Q>
0

> <i_epik_Tot_abs_Q>
0

> <r_epik_Metal_State_Penalty>
-0

> <b_epik_Metal_Only>
0

> <s_lp_Force_Field>
OPLS_2005

> <r_lp_Energy>
17.7033

> <b_lp_Chiralities_Consistent>
1

> <s_lp_Variant>
AV-unprocessed.smi:343-1

> <Gold.Version>
5.8.1

> <Gold.Id.Protein>
6NUR|6NUR_protein|mol2

> <Gold.PLP.Fitness>
46.4669

> <Gold.PLP.PLP>
-47.9805

> <Gold.PLP.part.hbond>
0.0000

> <Gold.PLP.part.metal>
0.0000

> <Gold.PLP.part.buried>
-3.8083

> <Gold.PLP.part.nonpolar>
-44.1939

> <Gold.PLP.part.repulsive>
0.3231

> <Gold.PLP.ligand.clash>
0.0000

> <Gold.PLP.ligand.torsion>
1.8282

> <Gold.PLP.Chemscore.Hbond>
0.0000

> <Gold.PLP.Chemscore.CHOScore>
0.0000

> <Gold.PLP.Chemscore.Metal>
0.0000

> <Gold.PLP.Chemscore.Internal.Correction>
2.1429

> <Gold.Rescore>
     Score         DG    S(hbond)    S(metal)    S(lipo)     H(rot)  DE(clash)    DE(int)     intcor
     14.16     -16.59       0.00        0.00     127.05       1.46       0.81       1.63       ----

> <Gold.Chemscore.Fitness>
14.1594

> <Gold.Chemscore.DG>
-16.5943

> <Gold.Chemscore.ZeroCoef>
-5.4800

> <Gold.Chemscore.Hbond>
0.0000

> <Gold.Chemscore.Metal>
0.0000

> <Gold.Chemscore.Lipo>
127.0478

> <Gold.Chemscore.Internal_Hbond>
0.0000

> <Gold.Chemscore.DEClash>
0.8052

> <Gold.Chemscore.DEInternal>
1.6297

> <Gold.Chemscore.Rot>
1.4650

> <Gold.Chemscore.Internal.Correction>
   9.000000E+99

> <Gold.Chemscore.Hbond.Weighted>
-0.0000

> <Gold.Chemscore.Metal.Weighted>
-0.0000

> <Gold.Chemscore.Lipo.Weighted>
-14.8646

> <Gold.Chemscore.Internal_Hbond.Weighted>
0.0000

> <Gold.Chemscore.DEClash.Weighted>
0.8052

> <Gold.Chemscore.DEInternal.Weighted>
1.6297

> <Gold.Chemscore.Rot.Weighted>
3.7503

> <Gold.Chemscore.Internal.Correction.Weighted>
   9.000000E+99

> <Gold.Protein.RotatedTorsions>
[ 6907 6896 6895 6894 ] final  -56.65 input  -60.11 | X-H torsion
[ 7974 7965 7964 7962 ] final   27.06 input  175.53 | X-H torsion
[ 8008 7997 7996 7995 ] final    0.56 input   59.86 | X-H torsion
[ 10167 10162 10161 10158 ] final  -29.79 input  -65.29 | X-H torsion
[ 10718 10713 10712 10709 ] final   54.27 input   66.30 | X-H torsion
[ 10763 10752 10751 10750 ] final   20.77 input  -60.55 | X-H torsion
[ 11005 11000 10999 10996 ] final  146.99 input  -57.11 | X-H torsion

> <Gold.Protein.ActiveResidues>
 VAL166  LYS551  ARG553  GLY616  TRP617  ASP618  TYR619  PRO620  LYS621  CYS622 
 ASP623  PHE694  ASN695  SER759  ASP760  ASP761  ALA762  ILE779  LEU786  VAL792 
 PHE793  MET794  SER795  GLU796  ALA797  LYS798  CYS799  TRP800  GLU811  SER814 

> <Gold.Protein.RotatedAtoms>
  150.8150  134.7326  159.6721 H   0  0  0  0  0  0  0  0  0  0  0  0  # atno 6907 bound_to 6896
  152.4269  134.5849  159.9968 H   0  0  0  0  0  0  0  0  0  0  0  0  # atno 6908 bound_to 6896
  151.6048  133.3315  159.3091 H   0  0  0  0  0  0  0  0  0  0  0  0  # atno 6909 bound_to 6896
  146.1805  139.7243  142.8904 H   0  0  0  0  0  0  0  0  0  0  0  0  # atno 7974 bound_to 7965
  154.6695  140.2609  155.7022 H   0  0  0  0  0  0  0  0  0  0  0  0  # atno 8008 bound_to 7997
  156.2653  140.2832  156.1121 H   0  0  0  0  0  0  0  0  0  0  0  0  # atno 8009 bound_to 7997
  155.1189  140.0376  157.2734 H   0  0  0  0  0  0  0  0  0  0  0  0  # atno 8010 bound_to 7997
  140.7257  143.3900  151.1446 H   0  0  0  0  0  0  0  0  0  0  0  0  # atno 10167 bound_to 10162
  157.5242  130.8586  149.8599 H   0  0  0  0  0  0  0  0  0  0  0  0  # atno 10718 bound_to 10713
  153.1050  135.6682  153.9604 H   0  0  0  0  0  0  0  0  0  0  0  0  # atno 10763 bound_to 10752
  153.9163  135.3019  155.3449 H   0  0  0  0  0  0  0  0  0  0  0  0  # atno 10764 bound_to 10752
  154.7471  135.5052  153.9299 H   0  0  0  0  0  0  0  0  0  0  0  0  # atno 10765 bound_to 10752
  140.0839  134.9081  157.1544 H   0  0  0  0  0  0  0  0  0  0  0  0  # atno 11005 bound_to 11000
  145.4091  141.0394  143.3027 LP  0  0  0  0  0  0  0  0  0  0  0  0  # atno 17320 bound_to 7965
  144.8306  139.5634  143.6945 LP  0  0  0  0  0  0  0  0  0  0  0  0  # atno 17321 bound_to 7965
  139.7504  143.8788  152.3075 LP  0  0  0  0  0  0  0  0  0  0  0  0  # atno 17342 bound_to 10162
  139.8639  144.7103  150.9067 LP  0  0  0  0  0  0  0  0  0  0  0  0  # atno 17343 bound_to 10162
  156.0375  130.3747  150.1522 LP  0  0  0  0  0  0  0  0  0  0  0  0  # atno 17370 bound_to 10713
  156.9709  130.9834  151.3459 LP  0  0  0  0  0  0  0  0  0  0  0  0  # atno 17371 bound_to 10713
  140.3449  134.2663  155.7206 LP  0  0  0  0  0  0  0  0  0  0  0  0  # atno 17394 bound_to 11000
  141.2056  133.7856  157.0225 LP  0  0  0  0  0  0  0  0  0  0  0  0  # atno 17395 bound_to 11000

$$$$
