AV-unprocessed.smi:213|AV-procd|sdf|1644|dock10
  -GOLD-   2262020 13D 1   1.00000     0.00000
 Structure written by MMmdl.
 58 61  0  0  0  0  0  0  0  0  1 V2000
  144.6552  136.3543  154.0894 C   0  0  0  0  0  0  0  0  0  0  0  0
  145.8570  136.5109  153.1360 C   0  0  1  0  0  0  0  0  0  0  0  0
  145.5002  136.1772  151.6670 C   0  0  0  0  0  0  0  0  0  0  0  0
  145.1262  134.7873  151.3990 N   0  0  0  0  0  0  0  0  0  0  0  0
  146.3015  133.9229  151.4205 C   0  0  0  0  0  0  0  0  0  0  0  0
  145.9415  132.4505  151.1612 C   0  0  0  0  0  0  0  0  0  0  0  0
  145.2622  132.3421  149.9151 O   0  0  0  0  0  0  0  0  0  0  0  0
  144.0771  133.1296  149.8698 C   0  0  0  0  0  0  0  0  0  0  0  0
  144.4200  134.6065  150.1341 C   0  0  0  0  0  0  0  0  0  0  0  0
  146.4010  137.8675  153.2452 N   0  0  0  0  0  0  0  0  0  0  0  0
  146.6713  138.6694  152.0538 C   0  0  0  0  0  0  0  0  0  0  0  0
  146.8280  138.3519  154.4417 C   0  0  0  0  0  0  0  0  0  0  0  0
  146.6675  137.5621  155.5366 N   0  0  0  0  0  0  0  0  0  0  0  0
  147.0767  137.9748  156.7392 C   0  0  0  0  0  0  0  0  0  0  0  0
  147.6576  139.1279  157.0716 N   0  0  0  0  0  0  0  0  0  0  0  0
  147.8085  139.9351  155.9838 C   0  0  0  0  0  0  0  0  0  0  0  0
  147.4268  139.6321  154.6446 C   0  0  0  0  0  0  0  0  0  0  0  0
  147.7267  140.7141  153.8231 N   0  0  0  0  0  0  0  0  0  0  0  0
  148.2606  141.5948  154.6226 C   0  0  0  0  0  0  0  0  0  0  0  0
  148.3425  141.2108  155.9405 N   0  0  0  0  0  0  0  0  0  0  0  0
  148.8755  141.9909  157.0426 C   0  0  0  0  0  0  0  0  0  0  0  0
  150.2993  141.5627  157.4582 C   0  0  1  0  0  0  0  0  0  0  0  0
  151.0534  141.4074  156.2727 O   0  0  0  0  0  0  0  0  0  0  0  0
  151.0227  142.5611  158.3895 C   0  0  2  0  0  0  0  0  0  0  0  0
  151.3999  143.8873  157.7247 C   0  0  0  0  0  0  0  0  0  0  0  0
  152.5739  144.3893  158.5508 C   0  0  0  0  0  0  0  0  0  0  0  0
  153.0215  143.1596  159.3435 C   0  0  0  0  0  0  0  0  0  0  0  0
  152.3007  142.0770  158.7750 O   0  0  0  0  0  0  0  0  0  0  0  0
  144.2749  135.3349  154.1091 H   0  0  0  0  0  0  0  0  0  0  0  0
  143.8243  137.0001  153.8050 H   0  0  0  0  0  0  0  0  0  0  0  0
  144.9367  136.6100  155.1115 H   0  0  0  0  0  0  0  0  0  0  0  0
  146.6151  135.8101  153.4847 H   0  0  0  0  0  0  0  0  0  0  0  0
  144.7222  136.8530  151.3088 H   0  0  0  0  0  0  0  0  0  0  0  0
  146.3756  136.4002  151.0548 H   0  0  0  0  0  0  0  0  0  0  0  0
  147.0179  134.2553  150.6677 H   0  0  0  0  0  0  0  0  0  0  0  0
  146.8032  134.0042  152.3853 H   0  0  0  0  0  0  0  0  0  0  0  0
  146.8435  131.8392  151.1307 H   0  0  0  0  0  0  0  0  0  0  0  0
  145.3143  132.0583  151.9632 H   0  0  0  0  0  0  0  0  0  0  0  0
  143.6112  133.0181  148.8906 H   0  0  0  0  0  0  0  0  0  0  0  0
  143.3620  132.7628  150.6077 H   0  0  0  0  0  0  0  0  0  0  0  0
  143.4886  135.1701  150.1436 H   0  0  0  0  0  0  0  0  0  0  0  0
  145.0228  134.9948  149.3121 H   0  0  0  0  0  0  0  0  0  0  0  0
  147.6436  139.1587  152.1236 H   0  0  0  0  0  0  0  0  0  0  0  0
  145.9062  139.4363  151.9316 H   0  0  0  0  0  0  0  0  0  0  0  0
  146.6795  138.0521  151.1555 H   0  0  0  0  0  0  0  0  0  0  0  0
  146.9153  137.2813  157.5513 H   0  0  0  0  0  0  0  0  0  0  0  0
  148.5998  142.5584  154.2711 H   0  0  0  0  0  0  0  0  0  0  0  0
  148.8681  143.0411  156.7472 H   0  0  0  0  0  0  0  0  0  0  0  0
  148.1927  141.9004  157.8889 H   0  0  0  0  0  0  0  0  0  0  0  0
  150.2564  140.5878  157.9453 H   0  0  0  0  0  0  0  0  0  0  0  0
  150.4586  141.3886  155.5389 H   0  0  0  0  0  0  0  0  0  0  0  0
  150.4263  142.7499  159.2842 H   0  0  0  0  0  0  0  0  0  0  0  0
  151.7264  143.7125  156.6985 H   0  0  0  0  0  0  0  0  0  0  0  0
  150.5708  144.5947  157.6963 H   0  0  0  0  0  0  0  0  0  0  0  0
  153.3688  144.7675  157.9072 H   0  0  0  0  0  0  0  0  0  0  0  0
  152.2749  145.1928  159.2244 H   0  0  0  0  0  0  0  0  0  0  0  0
  154.0965  142.9888  159.2835 H   0  0  0  0  0  0  0  0  0  0  0  0
  152.7496  143.2592  160.3955 H   0  0  0  0  0  0  0  0  0  0  0  0
  1  2  1  0  0  0  0
  1 29  1  0  0  0  0
  1 30  1  0  0  0  0
  1 31  1  0  0  0  0
  2  3  1  0  0  0  0
  2 10  1  0  0  0  0
  2 32  1  0  0  0  0
  3  4  1  0  0  0  0
  3 33  1  0  0  0  0
  3 34  1  0  0  0  0
  4  9  1  0  0  0  0
  4  5  1  0  0  0  0
  5  6  1  0  0  0  0
  5 35  1  0  0  0  0
  5 36  1  0  0  0  0
  6  7  1  0  0  0  0
  6 37  1  0  0  0  0
  6 38  1  0  0  0  0
  7  8  1  0  0  0  0
  8  9  1  0  0  0  0
  8 39  1  0  0  0  0
  8 40  1  0  0  0  0
  9 41  1  0  0  0  0
  9 42  1  0  0  0  0
 10 11  1  0  0  0  0
 10 12  1  0  0  0  0
 11 43  1  0  0  0  0
 11 44  1  0  0  0  0
 11 45  1  0  0  0  0
 12 17  1  0  0  0  0
 12 13  2  0  0  0  0
 13 14  1  0  0  0  0
 14 15  2  0  0  0  0
 14 46  1  0  0  0  0
 15 16  1  0  0  0  0
 16 20  1  0  0  0  0
 16 17  2  0  0  0  0
 17 18  1  0  0  0  0
 18 19  2  0  0  0  0
 19 20  1  0  0  0  0
 19 47  1  0  0  0  0
 20 21  1  0  0  0  0
 21 22  1  0  0  0  0
 21 48  1  0  0  0  0
 21 49  1  0  0  0  0
 22 23  1  0  0  0  0
 22 24  1  0  0  0  0
 22 50  1  0  0  0  0
 23 51  1  0  0  0  0
 24 28  1  0  0  0  0
 24 25  1  0  0  0  0
 24 52  1  0  0  0  0
 25 26  1  0  0  0  0
 25 53  1  0  0  0  0
 25 54  1  0  0  0  0
 26 27  1  0  0  0  0
 26 55  1  0  0  0  0
 26 56  1  0  0  0  0
 27 28  1  0  0  0  0
 27 57  1  0  0  0  0
 27 58  1  0  0  0  0
M  END
> <s_m_source_file>
AV-unprocessed.smi

> <i_m_source_file_index>
213

> <i_lp_mmshare_version>
43012

> <i_f3d_flags>
0

> <s_epik_input>
W0NIMl0xW0NIMl1PW0NIMl1bQ0gyXU4xW0NIMl1bQ0BASF0oW0NIM10pTihbQ0gzXSljKG5bY0hdbjIpYyhjMjMpbltjSF1uM1tDSDJdW0NASF0oW09IXSlbQ0BASF00W0NIMl1bQ0gyXVtDSDJdTzQ=

> <s_epik_cmdline>
J2VwaWtfcHl0aG9uJywgJy1waCcsICc3LjAnLCAnLXRuJywgJzgnLCAnLW1hJywgJzIwMCcsICctbWV0YWxfYmluZGluZycsICctaW1hZScsICc8aW5maWxlLm1hZT4nLCAnLW9tYWUnLCAnPG91dGZpbGUubWFlPic=

> <r_lp_tautomer_probability>
1

> <r_epik_Ionization_Penalty>
0.423322

> <r_epik_Ionization_Penalty_Charging>
0

> <r_epik_Ionization_Penalty_Neutral>
0.423322

> <r_epik_State_Penalty>
0.569486

> <r_epik_Charging_Adjusted_Penalty>
0.569486

> <i_epik_Tot_Q>
0

> <i_epik_Tot_abs_Q>
0

> <r_epik_Metal_State_Penalty>
0.568671

> <b_epik_Metal_Only>
0

> <s_lp_Force_Field>
OPLS_2005

> <r_lp_Energy>
52.699

> <b_lp_Chiralities_Consistent>
1

> <s_lp_Variant>
AV-unprocessed.smi:213-12

> <Gold.Version>
5.8.1

> <Gold.Id.Protein>
6NUR|6NUR_protein|mol2

> <Gold.PLP.Fitness>
43.2327

> <Gold.PLP.PLP>
-41.2214

> <Gold.PLP.part.hbond>
0.0000

> <Gold.PLP.part.metal>
0.0000

> <Gold.PLP.part.buried>
-5.8001

> <Gold.PLP.part.nonpolar>
-37.8603

> <Gold.PLP.part.repulsive>
0.4848

> <Gold.PLP.ligand.clash>
0.0000

> <Gold.PLP.ligand.torsion>
0.6217

> <Gold.PLP.Chemscore.Hbond>
0.0000

> <Gold.PLP.Chemscore.CHOScore>
0.9998

> <Gold.PLP.Chemscore.Metal>
0.0000

> <Gold.Chemscore.Hbonds>
donor molecule, donor type, donor heavy atom, donor atom, acceptor molecule, acceptor atom, score
      L1  C    19    47       P1  8028  0.90

> <Gold.PLP.Chemscore.Internal.Correction>
0.2553

> <Gold.Rescore>
     Score         DG    S(hbond)    S(metal)    S(lipo)     H(rot)  DE(clash)    DE(int)     intcor
      7.67     -11.12       0.00        0.00     108.08       2.74       0.24       3.21       ----

> <Gold.Chemscore.Fitness>
7.6693

> <Gold.Chemscore.DG>
-11.1162

> <Gold.Chemscore.ZeroCoef>
-5.4800

> <Gold.Chemscore.Hbond>
0.0000

> <Gold.Chemscore.Metal>
0.0000

> <Gold.Chemscore.Lipo>
108.0756

> <Gold.Chemscore.Internal_Hbond>
0.0000

> <Gold.Chemscore.DEClash>
0.2362

> <Gold.Chemscore.DEInternal>
3.2107

> <Gold.Chemscore.Rot>
2.7378

> <Gold.Chemscore.Internal.Correction>
   9.000000E+99

> <Gold.Chemscore.Hbond.Weighted>
-0.0000

> <Gold.Chemscore.Metal.Weighted>
-0.0000

> <Gold.Chemscore.Lipo.Weighted>
-12.6448

> <Gold.Chemscore.Internal_Hbond.Weighted>
0.0000

> <Gold.Chemscore.DEClash.Weighted>
0.2362

> <Gold.Chemscore.DEInternal.Weighted>
3.2107

> <Gold.Chemscore.Rot.Weighted>
7.0087

> <Gold.Chemscore.Internal.Correction.Weighted>
   9.000000E+99

> <Gold.Protein.RotatedTorsions>
[ 6907 6896 6895 6894 ] final -114.19 input  -60.11 | X-H torsion
[ 7974 7965 7964 7962 ] final   60.34 input  175.53 | X-H torsion
[ 8008 7997 7996 7995 ] final   47.48 input   59.86 | X-H torsion
[ 10167 10162 10161 10158 ] final  -58.43 input  -65.29 | X-H torsion
[ 10718 10713 10712 10709 ] final  -83.85 input   66.30 | X-H torsion
[ 10763 10752 10751 10750 ] final   80.04 input  -60.55 | X-H torsion
[ 11005 11000 10999 10996 ] final  -68.28 input  -57.11 | X-H torsion

> <Gold.Protein.ActiveResidues>
 VAL166  LYS551  ARG553  GLY616  TRP617  ASP618  TYR619  PRO620  LYS621  CYS622 
 ASP623  PHE694  ASN695  SER759  ASP760  ASP761  ALA762  ILE779  LEU786  VAL792 
 PHE793  MET794  SER795  GLU796  ALA797  LYS798  CYS799  TRP800  GLU811  SER814 

> <Gold.Protein.RotatedAtoms>
  150.7884  133.8837  159.3292 H   0  0  0  0  0  0  0  0  0  0  0  0  # atno 6907 bound_to 6896
  151.6681  135.0978  160.0202 H   0  0  0  0  0  0  0  0  0  0  0  0  # atno 6908 bound_to 6896
  152.3953  133.6698  159.6306 H   0  0  0  0  0  0  0  0  0  0  0  0  # atno 6909 bound_to 6896
  145.8972  139.3554  143.0614 H   0  0  0  0  0  0  0  0  0  0  0  0  # atno 7974 bound_to 7965
  155.3698  140.3423  155.4243 H   0  0  0  0  0  0  0  0  0  0  0  0  # atno 8008 bound_to 7997
  156.1669  140.1619  156.8550 H   0  0  0  0  0  0  0  0  0  0  0  0  # atno 8009 bound_to 7997
  154.5194  140.0770  156.8125 H   0  0  0  0  0  0  0  0  0  0  0  0  # atno 8010 bound_to 7997
  140.6197  143.2415  151.5510 H   0  0  0  0  0  0  0  0  0  0  0  0  # atno 10167 bound_to 10162
  156.0013  130.4679  150.4320 H   0  0  0  0  0  0  0  0  0  0  0  0  # atno 10718 bound_to 10713
  153.1001  135.4817  154.8851 H   0  0  0  0  0  0  0  0  0  0  0  0  # atno 10763 bound_to 10752
  154.7369  135.3073  154.8798 H   0  0  0  0  0  0  0  0  0  0  0  0  # atno 10764 bound_to 10752
  153.9417  135.6833  153.4797 H   0  0  0  0  0  0  0  0  0  0  0  0  # atno 10765 bound_to 10752
  141.1528  133.6737  156.6421 H   0  0  0  0  0  0  0  0  0  0  0  0  # atno 11005 bound_to 11000
  145.8836  140.9347  143.0588 LP  0  0  0  0  0  0  0  0  0  0  0  0  # atno 17320 bound_to 7965
  144.6733  140.0813  143.7469 LP  0  0  0  0  0  0  0  0  0  0  0  0  # atno 17321 bound_to 7965
  139.5428  144.2600  152.1385 LP  0  0  0  0  0  0  0  0  0  0  0  0  # atno 17342 bound_to 10162
  140.1818  144.4837  150.6524 LP  0  0  0  0  0  0  0  0  0  0  0  0  # atno 17343 bound_to 10162
  157.2368  131.0516  151.2460 LP  0  0  0  0  0  0  0  0  0  0  0  0  # atno 17370 bound_to 10713
  157.3659  130.7155  149.6532 LP  0  0  0  0  0  0  0  0  0  0  0  0  # atno 17371 bound_to 10713
  140.3385  134.7869  157.4380 LP  0  0  0  0  0  0  0  0  0  0  0  0  # atno 17394 bound_to 11000
  140.0957  134.5540  155.8400 LP  0  0  0  0  0  0  0  0  0  0  0  0  # atno 17395 bound_to 11000

$$$$
