AV-unprocessed.smi:44|AV-procd|sdf|401|dock5
  -GOLD-   2262016253D 1   1.00000     0.00000
 Structure written by MMmdl.
 29 31  0  0  0  0  0  0  0  0  3 V2000
  141.5126  138.2835  154.4491 O   0  0  0  0  0  0  0  0  0  0  0  0
  141.7533  137.1677  153.9927 C   0  0  0  0  0  0  0  0  0  0  0  0
  141.0669  136.0004  154.2120 N   0  5  0  0  0  0  0  0  0  0  0  0
  141.4559  134.8022  153.6239 C   0  0  0  0  0  0  0  0  0  0  0  0
  142.4525  134.6060  152.8358 N   0  0  0  0  0  0  0  0  0  0  0  0
  143.2209  135.7447  152.5497 C   0  0  0  0  0  0  0  0  0  0  0  0
  142.9261  136.9814  153.0752 C   0  0  0  0  0  0  0  0  0  0  0  0
  143.8318  137.9018  152.6211 N   0  3  0  0  0  0  0  0  0  0  0  0
  144.6358  137.1816  151.8389 C   0  0  0  0  0  0  0  0  0  0  0  0
  144.3320  135.8534  151.7487 N   0  0  0  0  0  0  0  0  0  0  0  0
  145.0564  134.8380  150.9297 C   0  0  1  0  0  0  0  0  0  0  0  0
  145.2751  133.5452  151.7249 C   0  0  0  0  0  0  0  0  0  0  0  0
  145.1334  132.5031  150.6379 C   0  0  0  0  0  0  0  0  0  0  0  0
  144.0170  133.1243  149.7965 C   0  0  2  0  0  0  0  0  0  0  0  0
  143.8586  132.6084  148.3561 C   0  0  0  0  0  0  0  0  0  0  0  0
  143.6444  133.6621  147.4401 O   0  0  0  0  0  0  0  0  0  0  0  0
  144.2673  134.5261  149.8194 O   0  0  0  0  0  0  0  0  0  0  0  0
  143.8767  138.8921  152.8249 H   0  0  0  0  0  0  0  0  0  0  0  0
  145.9834  135.3166  150.6111 H   0  0  0  0  0  0  0  0  0  0  0  0
  143.0699  132.9721  150.3161 H   0  0  0  0  0  0  0  0  0  0  0  0
  140.7974  133.9768  153.9059 H   0  0  0  0  0  0  0  0  0  0  0  0
  145.4673  137.6134  151.3115 H   0  0  0  0  0  0  0  0  0  0  0  0
  146.2478  133.5424  152.2171 H   0  0  0  0  0  0  0  0  0  0  0  0
  144.4933  133.4196  152.4754 H   0  0  0  0  0  0  0  0  0  0  0  0
  146.0662  132.4259  150.0788 H   0  0  0  0  0  0  0  0  0  0  0  0
  144.8783  131.5150  151.0221 H   0  0  0  0  0  0  0  0  0  0  0  0
  144.7636  132.0812  148.0529 H   0  0  0  0  0  0  0  0  0  0  0  0
  143.0368  131.8946  148.2929 H   0  0  0  0  0  0  0  0  0  0  0  0
  142.8598  133.4756  146.9475 H   0  0  0  0  0  0  0  0  0  0  0  0
  1  2  2  0  0  0  0
  2  7  1  0  0  0  0
  2  3  1  0  0  0  0
  3  4  1  0  0  0  0
  4 21  1  0  0  0  0
  4  5  2  0  0  0  0
  5  6  1  0  0  0  0
  6 10  1  0  0  0  0
  6  7  2  0  0  0  0
  7  8  1  0  0  0  0
  8  9  2  0  0  0  0
  8 18  1  0  0  0  0
  9 10  1  0  0  0  0
  9 22  1  0  0  0  0
 10 11  1  0  0  0  0
 11 19  1  0  0  0  0
 11 17  1  0  0  0  0
 11 12  1  0  0  0  0
 12 13  1  0  0  0  0
 12 23  1  0  0  0  0
 12 24  1  0  0  0  0
 13 14  1  0  0  0  0
 13 25  1  0  0  0  0
 13 26  1  0  0  0  0
 14 20  1  0  0  0  0
 14 15  1  0  0  0  0
 14 17  1  0  0  0  0
 15 16  1  0  0  0  0
 15 27  1  0  0  0  0
 15 28  1  0  0  0  0
 16 29  1  0  0  0  0
M  CHG  1   3  -1
M  CHG  1   8   1
M  END
> <s_m_source_file>
AV-unprocessed.smi

> <i_m_source_file_index>
44

> <i_lp_mmshare_version>
43012

> <i_f3d_flags>
0

> <s_epik_input>
bjFbY0hdW25IXWMoPU8pYyhjMTIpbltjSF1uMltDQEhdM1tDSDJdW0NIMl1bQ0BIXShPMylbQ0gyXVtPSF0=

> <s_epik_cmdline>
J2VwaWtfcHl0aG9uJywgJy1waCcsICc3LjAnLCAnLXRuJywgJzgnLCAnLW1hJywgJzIwMCcsICctbWV0YWxfYmluZGluZycsICctaW1hZScsICc8aW5maWxlLm1hZT4nLCAnLW9tYWUnLCAnPG91dGZpbGUubWFlPic=

> <r_lp_tautomer_probability>
0.144281

> <r_epik_Ionization_Penalty>
5.63685

> <r_epik_Ionization_Penalty_Charging>
5.58669

> <r_epik_Ionization_Penalty_Neutral>
0.0501585

> <r_epik_State_Penalty>
1.20809

> <r_epik_Charging_Adjusted_Penalty>
6.79478

> <i_epik_Tot_Q>
0

> <i_epik_Tot_abs_Q>
2

> <r_epik_Metal_State_Penalty>
1.52487

> <b_epik_Metal_Only>
0

> <s_epik_Chemistry_Notes>
This compound contains an acetal/aminal-like group ( X-CH(R)-Y where X, Y are N, S, or O) that may be acid/base labile, releasing an aldehyde.

> <s_lp_Force_Field>
OPLS_2005

> <r_lp_Energy>
46.8975

> <b_lp_Chiralities_Consistent>
1

> <s_lp_Variant>
AV-unprocessed.smi:44-7

> <Gold.Version>
5.8.1

> <Gold.Id.Protein>
6NUR|6NUR_protein|mol2

> <Gold.PLP.Fitness>
42.1600

> <Gold.PLP.PLP>
-31.3453

> <Gold.PLP.part.hbond>
-5.8382

> <Gold.PLP.part.metal>
0.0000

> <Gold.PLP.part.buried>
-3.7387

> <Gold.PLP.part.nonpolar>
-24.3643

> <Gold.PLP.part.repulsive>
2.2940

> <Gold.PLP.ligand.clash>
0.0000

> <Gold.PLP.ligand.torsion>
0.9659

> <Gold.PLP.Chemscore.Hbond>
3.9760

> <Gold.PLP.Chemscore.CHOScore>
0.2702

> <Gold.PLP.Chemscore.Metal>
0.0000

> <Gold.Chemscore.Hbonds>
donor molecule, donor type, donor heavy atom, donor atom, acceptor molecule, acceptor atom, score
      L1  H     8    18       P1 10175  2.00
      L1  H    16    29       P1 10195  1.00
      P1  H  7918  7932       L1    16  0.84
      L1  C     4    21       P1 11000  0.22
      L1  C     9    22       P1 10171  0.16

> <Gold.PLP.Chemscore.Internal.Correction>
0.0077

> <Gold.Rescore>
     Score         DG    S(hbond)    S(metal)    S(lipo)     H(rot)  DE(clash)    DE(int)     intcor
      9.14     -11.59       2.15        0.00      40.56       2.27       1.58       0.86       ----

> <Gold.Chemscore.Fitness>
9.1447

> <Gold.Chemscore.DG>
-11.5863

> <Gold.Chemscore.ZeroCoef>
-5.4800

> <Gold.Chemscore.Hbond>
2.1488

> <Gold.Chemscore.Metal>
0.0000

> <Gold.Chemscore.Lipo>
40.5608

> <Gold.Chemscore.Internal_Hbond>
0.0000

> <Gold.Chemscore.DEClash>
1.5815

> <Gold.Chemscore.DEInternal>
0.8600

> <Gold.Chemscore.Rot>
2.2720

> <Gold.Chemscore.Internal.Correction>
   9.000000E+99

> <Gold.Chemscore.Hbonds>
donor molecule, donor type, donor heavy atom, donor atom, acceptor molecule, acceptor atom, score
      L1  H     8    18       P1 10175  0.96
      L1  H    16    29       P1 10195  0.99
      P1  H  7918  7932       L1    16  0.08

> <Gold.Chemscore.Hbond.Weighted>
-7.1771

> <Gold.Chemscore.Metal.Weighted>
-0.0000

> <Gold.Chemscore.Lipo.Weighted>
-4.7456

> <Gold.Chemscore.Internal_Hbond.Weighted>
0.0000

> <Gold.Chemscore.DEClash.Weighted>
1.5815

> <Gold.Chemscore.DEInternal.Weighted>
0.8600

> <Gold.Chemscore.Rot.Weighted>
5.8164

> <Gold.Chemscore.Internal.Correction.Weighted>
   9.000000E+99

> <Gold.Protein.RotatedTorsions>
[ 6907 6896 6895 6894 ] final   46.04 input  -60.11 | X-H torsion
[ 7974 7965 7964 7962 ] final -141.83 input  175.53 | X-H torsion
[ 8008 7997 7996 7995 ] final  169.54 input   59.86 | X-H torsion
[ 10167 10162 10161 10158 ] final   43.48 input  -65.29 | X-H torsion
[ 10718 10713 10712 10709 ] final   26.57 input   66.30 | X-H torsion
[ 10763 10752 10751 10750 ] final  142.92 input  -60.55 | X-H torsion
[ 11005 11000 10999 10996 ] final  152.47 input  -57.11 | X-H torsion

> <Gold.Protein.ActiveResidues>
 VAL166  LYS551  ARG553  GLY616  TRP617  ASP618  TYR619  PRO620  LYS621  CYS622 
 ASP623  PHE694  ASN695  SER759  ASP760  ASP761  ALA762  ILE779  LEU786  VAL792 
 PHE793  MET794  SER795  GLU796  ALA797  LYS798  CYS799  TRP800  GLU811  SER814 

> <Gold.Protein.RotatedAtoms>
  152.2517  134.8126  160.0444 H   0  0  0  0  0  0  0  0  0  0  0  0  # atno 6907 bound_to 6896
  151.8804  133.3489  159.3772 H   0  0  0  0  0  0  0  0  0  0  0  0  # atno 6908 bound_to 6896
  150.7086  134.4951  159.5578 H   0  0  0  0  0  0  0  0  0  0  0  0  # atno 6909 bound_to 6896
  144.8489  140.6032  143.5403 H   0  0  0  0  0  0  0  0  0  0  0  0  # atno 7974 bound_to 7965
  156.1448  140.1561  156.8864 H   0  0  0  0  0  0  0  0  0  0  0  0  # atno 8008 bound_to 7997
  154.5018  140.0823  156.7852 H   0  0  0  0  0  0  0  0  0  0  0  0  # atno 8009 bound_to 7997
  155.4010  140.3414  155.4259 H   0  0  0  0  0  0  0  0  0  0  0  0  # atno 8010 bound_to 7997
  140.3440  144.2435  150.6152 H   0  0  0  0  0  0  0  0  0  0  0  0  # atno 10167 bound_to 10162
  157.2085  130.6923  149.6218 H   0  0  0  0  0  0  0  0  0  0  0  0  # atno 10718 bound_to 10713
  153.9637  135.2957  155.3432 H   0  0  0  0  0  0  0  0  0  0  0  0  # atno 10763 bound_to 10752
  154.7360  135.5046  153.9046 H   0  0  0  0  0  0  0  0  0  0  0  0  # atno 10764 bound_to 10752
  153.0934  135.6714  153.9921 H   0  0  0  0  0  0  0  0  0  0  0  0  # atno 10765 bound_to 10752
  140.1311  134.8801  157.2204 H   0  0  0  0  0  0  0  0  0  0  0  0  # atno 11005 bound_to 11000
  145.4539  139.1520  143.3903 LP  0  0  0  0  0  0  0  0  0  0  0  0  # atno 17320 bound_to 7965
  146.2768  140.4667  142.8792 LP  0  0  0  0  0  0  0  0  0  0  0  0  # atno 17321 bound_to 7965
  140.5282  143.2249  151.8280 LP  0  0  0  0  0  0  0  0  0  0  0  0  # atno 17342 bound_to 10162
  139.4836  144.4753  151.9375 LP  0  0  0  0  0  0  0  0  0  0  0  0  # atno 17343 bound_to 10162
  155.9693  130.4559  150.5904 LP  0  0  0  0  0  0  0  0  0  0  0  0  # atno 17370 bound_to 10713
  157.3696  131.0763  151.1569 LP  0  0  0  0  0  0  0  0  0  0  0  0  # atno 17371 bound_to 10713
  140.2841  134.3316  155.7334 LP  0  0  0  0  0  0  0  0  0  0  0  0  # atno 17394 bound_to 11000
  141.2170  133.7496  156.9407 LP  0  0  0  0  0  0  0  0  0  0  0  0  # atno 17395 bound_to 11000

$$$$
