#       Name:                AV-unprocessed.smi:1518
#       Creating user name   scv26
#       Creation time:       Fri Mar 27 06:26:50 2020


#       File generated by GOLD software.
#

@<TRIPOS>MOLECULE
AV-unprocessed.smi:1518
    54    56     1
SMALL
NO_CHARGES


@<TRIPOS>ATOM
      1 ****        -5.5898  -2.6275  -0.7209 C.3            1 S1                 0.0000
      2 ****        -6.1177  -1.2009  -0.5768 C.2            1 S1                 0.0000
      3 ****        -7.3351  -1.0233  -0.5520 O.2            1 S1                 0.0000
      4 ****        -5.1228  -0.0942  -0.4736 C.ar           1 S1                 0.0000
      5 ****        -5.5823   1.2361  -0.3461 C.ar           1 S1                 0.0000
      6 ****        -4.6678   2.2999  -0.2454 C.ar           1 S1                 0.0000
      7 ****        -3.2853   2.0447  -0.2710 C.ar           1 S1                 0.0000
      8 ****        -2.7996   0.7285  -0.3965 C.ar           1 S1                 0.0000
      9 ****        -1.4302   0.5717  -0.4101 O.3            1 S1                 0.0000
     10 ****        -0.8980  -0.7423  -0.5246 C.3            1 S1                 0.0000
     11 ****         0.6375  -0.6939  -0.4637 C.3            1 S1                 0.0000
     12 ****         1.1421  -0.2453  -1.7057 O.3            1 S1                 0.0000
     13 ****         1.1812   0.1454   0.7104 C.3            1 S1                 0.0000
     14 ****         2.6478   0.0861   0.8214 N.pl3          1 S1                 0.0000
     15 ****         3.4464  -0.8267   1.4471 C.2            1 S1                 0.0000
     16 ****         3.0094  -2.0414   2.1980 C.3            1 S1                 0.0000
     17 ****         2.7844  -3.1451   1.3493 O.3            1 S1                 0.0000
     18 ****         4.7369  -0.4342   1.2532 N.pl3          1 S1                 1.0000
     19 ****         4.7665   0.7387   0.4983 C.ar           1 S1                 0.0000
     20 ****         5.8375   1.5068   0.0520 C.ar           1 S1                 0.0000
     21 ****         5.5217   2.6523  -0.7077 C.ar           1 S1                 0.0000
     22 ****         4.1851   2.9949  -0.9975 C.ar           1 S1                 0.0000
     23 ****         3.1079   2.2087  -0.5385 C.ar           1 S1                 0.0000
     24 ****         3.4278   1.0786   0.2144 C.ar           1 S1                 0.0000
     25 ****        -3.7281  -0.3391  -0.4983 C.ar           1 S1                 0.0000
     26 ****        -4.9892  -2.9022   0.1462 H              1 S1                 0.0000
     27 ****        -4.9767  -2.7201  -1.6174 H              1 S1                 0.0000
     28 ****        -6.4165  -3.3339  -0.7995 H              1 S1                 0.0000
     29 ****        -6.6404   1.4552  -0.3245 H              1 S1                 0.0000
     30 ****        -5.0277   3.3135  -0.1483 H              1 S1                 0.0000
     31 ****        -2.5897   2.8676  -0.1932 H              1 S1                 0.0000
     32 ****        -1.2592  -1.3461   0.3095 H              1 S1                 0.0000
     33 ****        -1.2279  -1.2206  -1.4487 H              1 S1                 0.0000
     34 ****         0.9929  -1.7183  -0.3491 H              1 S1                 0.0000
     35 ****         0.8224  -0.8201  -2.3846 H              1 S1                 0.0000
     36 ****         0.8706   1.1873   0.6347 H              1 S1                 0.0000
     37 ****         0.7677  -0.2209   1.6501 H              1 S1                 0.0000
     38 ****         3.7720  -2.3079   2.9302 H              1 S1                 0.0000
     39 ****         2.0973  -1.8235   2.7533 H              1 S1                 0.0000
     40 ****         2.5092  -3.8795   1.8768 H              1 S1                 0.0000
     41 ****         6.8624   1.2449   0.2707 H              1 S1                 0.0000
     42 ****         6.3203   3.2791  -1.0773 H              1 S1                 0.0000
     43 ****         3.9807   3.8781  -1.5853 H              1 S1                 0.0000
     44 ****         2.0887   2.4780  -0.7729 H              1 S1                 0.0000
     45 ****        -3.3713  -1.3520  -0.5954 H              1 S1                 0.0000
     46 ****         5.5385  -0.9388   1.6091 H              1 S1                 0.0000
     47 ****        -7.9559  -1.8038  -0.6254 LP             1 S1                 0.0000
     48 ****        -7.7037  -0.0984  -0.4584 LP             1 S1                 0.0000
     49 ****        -1.0804   0.9584   0.4432 LP             1 S1                 0.0000
     50 ****        -1.0803   1.1002  -1.1836 LP             1 S1                 0.0000
     51 ****         2.1418  -0.2646  -1.6905 LP             1 S1                 0.0000
     52 ****         0.8294   0.6886  -1.8794 LP             1 S1                 0.0000
     53 ****         3.6285  -3.3754   0.8651 LP             1 S1                 0.0000
     54 ****         2.0705  -2.9202   0.6861 LP             1 S1                 0.0000
@<TRIPOS>BOND
    1    1    2 1     
    2    1   26 1     
    3    1   27 1     
    4    1   28 1     
    5    2    3 2     
    6    2    4 1     
    7    4   25 ar    
    8    4    5 ar    
    9    5    6 ar    
   10    5   29 1     
   11    6    7 ar    
   12    6   30 1     
   13    7    8 ar    
   14    7   31 1     
   15    8    9 1     
   16    8   25 ar    
   17    9   10 1     
   18   10   11 1     
   19   10   32 1     
   20   10   33 1     
   21   11   12 1     
   22   11   13 1     
   23   11   34 1     
   24   12   35 1     
   25   13   14 1     
   26   13   36 1     
   27   13   37 1     
   28   14   24 1     
   29   14   15 1     
   30   15   16 1     
   31   15   18 2     
   32   16   17 1     
   33   16   38 1     
   34   16   39 1     
   35   17   40 1     
   36   18   19 1     
   37   18   46 1     
   38   19   24 ar    
   39   19   20 ar    
   40   20   21 ar    
   41   20   41 1     
   42   21   22 ar    
   43   21   42 1     
   44   22   23 ar    
   45   22   43 1     
   46   23   24 ar    
   47   23   44 1     
   48   25   45 1     
   49    3   47 1     
   50    3   48 1     
   51    9   49 1     
   52    9   50 1     
   53   12   51 1     
   54   12   52 1     
   55   17   53 1     
   56   17   54 1     
@<TRIPOS>SUBSTRUCTURE
      1 S1             1
@<TRIPOS>SET
LONE_PAIRS      STATIC     ATOMS    <user>   **** ""
8 47 48 49 50 51 52 53 54
DONOR_HYDROGENS      STATIC     ATOMS    <user>   **** ""
3 35 40 46
ATOM$BLUE        STATIC     ATOMS    COLORGROUP SYSTEM
8 47 48 49 50 51 52 53 54
ATOM$RED        STATIC     ATOMS    COLORGROUP SYSTEM
3 35 40 46
