#       Name:                AV-unprocessed.smi:1019
#       Creating user name   scv26
#       Creation time:       Fri Mar 27 02:41:31 2020


#       File generated by GOLD software.
#

@<TRIPOS>MOLECULE
AV-unprocessed.smi:1019
    47    49     1
SMALL
NO_CHARGES


@<TRIPOS>ATOM
      1 ****        -2.8274   0.9575   1.1818 C.3            1 S1                 0.0000
      2 ****        -2.0595   1.1131  -0.0752 N.4            1 S1                 1.0000
      3 ****        -2.6824   2.1088  -0.9825 C.3            1 S1                 0.0000
      4 ****        -2.2143   1.9353  -2.4172 C.ar           1 S1                 0.0000
      5 ****        -2.6558   0.8284  -3.1725 C.ar           1 S1                 0.0000
      6 ****        -2.2161   0.6563  -4.4993 C.ar           1 S1                 0.0000
      7 ****        -1.3364   1.5916  -5.0772 C.ar           1 S1                 0.0000
      8 ****        -0.8971   2.7004  -4.3285 C.ar           1 S1                 0.0000
      9 ****        -1.3360   2.8731  -3.0014 C.ar           1 S1                 0.0000
     10 ****        -0.6109   1.3514   0.1637 C.3            1 S1                 0.0000
     11 ****         0.1647   0.0411   0.4018 C.3            1 S1                 0.0000
     12 ****         0.1847  -0.7069  -0.8002 O.3            1 S1                 0.0000
     13 ****         1.6167   0.3139   0.8425 C.3            1 S1                 0.0000
     14 ****         2.3970  -0.9157   1.0358 N.pl3          1 S1                 0.0000
     15 ****         3.2769  -1.5332   0.2007 C.2            1 S1                 0.0000
     16 ****         3.7358  -2.6463   0.8372 N.pl3          1 S1                 1.0000
     17 ****         3.1423  -2.7411   2.0977 C.ar           1 S1                 0.0000
     18 ****         3.2881  -3.6894   3.1055 C.ar           1 S1                 0.0000
     19 ****         2.5294  -3.4893   4.2774 C.ar           1 S1                 0.0000
     20 ****         1.6689  -2.3804   4.4154 C.ar           1 S1                 0.0000
     21 ****         1.5286  -1.4248   3.3872 C.ar           1 S1                 0.0000
     22 ****         2.2815  -1.6311   2.2320 C.ar           1 S1                 0.0000
     23 ****        -2.8353   1.8871   1.7525 H              1 S1                 0.0000
     24 ****        -2.4043   0.1751   1.8114 H              1 S1                 0.0000
     25 ****        -3.8606   0.6800   0.9699 H              1 S1                 0.0000
     26 ****        -3.7670   1.9893  -0.9766 H              1 S1                 0.0000
     27 ****        -2.4783   3.1200  -0.6267 H              1 S1                 0.0000
     28 ****        -3.3297   0.1058  -2.7358 H              1 S1                 0.0000
     29 ****        -2.5537  -0.1932  -5.0746 H              1 S1                 0.0000
     30 ****        -0.9997   1.4591  -6.0949 H              1 S1                 0.0000
     31 ****        -0.2227   3.4182  -4.7721 H              1 S1                 0.0000
     32 ****        -0.9924   3.7256  -2.4337 H              1 S1                 0.0000
     33 ****        -0.1555   1.8691  -0.6807 H              1 S1                 0.0000
     34 ****        -0.4966   2.0242   1.0152 H              1 S1                 0.0000
     35 ****        -0.3285  -0.5576   1.1675 H              1 S1                 0.0000
     36 ****        -0.6965  -0.9720  -1.0147 H              1 S1                 0.0000
     37 ****         2.1342   0.9127   0.0914 H              1 S1                 0.0000
     38 ****         1.6442   0.8895   1.7686 H              1 S1                 0.0000
     39 ****         3.5568  -1.2030  -0.7895 H              1 S1                 0.0000
     40 ****         3.9470  -4.5392   3.0031 H              1 S1                 0.0000
     41 ****         2.6096  -4.2004   5.0869 H              1 S1                 0.0000
     42 ****         1.1052  -2.2607   5.3294 H              1 S1                 0.0000
     43 ****         0.8674  -0.5791   3.5028 H              1 S1                 0.0000
     44 ****        -2.1267   0.2311  -0.5621 H              1 S1                 0.0000
     45 ****         4.4046  -3.2923   0.4376 H              1 S1                 0.0000
     46 ****         0.7583  -1.5173  -0.6806 LP             1 S1                 0.0000
     47 ****         0.5539  -0.1433  -1.5391 LP             1 S1                 0.0000
@<TRIPOS>BOND
    1    1    2 1     
    2    1   23 1     
    3    1   24 1     
    4    1   25 1     
    5    2    3 1     
    6    2   10 1     
    7    2   44 1     
    8    3    4 1     
    9    3   26 1     
   10    3   27 1     
   11    4    9 ar    
   12    4    5 ar    
   13    5    6 ar    
   14    5   28 1     
   15    6    7 ar    
   16    6   29 1     
   17    7    8 ar    
   18    7   30 1     
   19    8    9 ar    
   20    8   31 1     
   21    9   32 1     
   22   10   11 1     
   23   10   33 1     
   24   10   34 1     
   25   11   12 1     
   26   11   13 1     
   27   11   35 1     
   28   12   36 1     
   29   13   14 1     
   30   13   37 1     
   31   13   38 1     
   32   14   22 1     
   33   14   15 1     
   34   15   16 2     
   35   15   39 1     
   36   16   17 1     
   37   16   45 1     
   38   17   22 ar    
   39   17   18 ar    
   40   18   19 ar    
   41   18   40 1     
   42   19   20 ar    
   43   19   41 1     
   44   20   21 ar    
   45   20   42 1     
   46   21   22 ar    
   47   21   43 1     
   48   12   46 1     
   49   12   47 1     
@<TRIPOS>SUBSTRUCTURE
      1 S1             1
@<TRIPOS>SET
LONE_PAIRS      STATIC     ATOMS    <user>   **** ""
2 46 47
DONOR_HYDROGENS      STATIC     ATOMS    <user>   **** ""
3 44 36 45
ATOM$BLUE        STATIC     ATOMS    COLORGROUP SYSTEM
2 46 47
ATOM$RED        STATIC     ATOMS    COLORGROUP SYSTEM
3 44 36 45
