AV-unprocessed.smi:3322|AV-procd|sdf|12776|dock4
  -GOLD-   2272019123D 1   1.00000     0.00000
 Structure written by MMmdl.
 38 39  0  0  0  0  0  0  0  0  1 V2000
  150.2197  141.6021  157.7420 C   0  0  0  0  0  0  0  0  0  0  0  0
  149.7531  142.8202  158.5560 C   0  0  1  0  0  0  0  0  0  0  0  0
  150.2062  144.0509  157.8808 N   0  0  0  0  0  0  0  0  0  0  0  0
  151.6581  144.1616  157.7731 C   0  0  0  0  0  0  0  0  0  0  0  0
  152.2505  144.6817  159.0936 C   0  0  0  0  0  0  0  0  0  0  0  0
  152.6996  143.6059  159.9605 N   0  0  0  0  0  0  0  0  0  0  0  0
  153.5374  142.5542  159.6542 C   0  0  0  0  0  0  0  0  0  0  0  0
  153.6798  141.8045  160.7866 C   0  0  0  0  0  0  0  0  0  0  0  0
  152.8803  142.4866  161.7460 C   0  0  0  0  0  0  0  0  0  0  0  0
  152.2952  143.5642  161.2489 N   0  0  0  0  0  0  0  0  0  0  0  0
  148.2223  142.7565  158.7760 C   0  0  0  0  0  0  0  0  0  0  0  0
  147.5999  141.8242  158.2634 O   0  0  0  0  0  0  0  0  0  0  0  0
  147.5971  143.7037  159.5208 N   0  0  0  0  0  0  0  0  0  0  0  0
  146.1462  143.7075  159.7406 C   0  0  0  0  0  0  0  0  0  0  0  0
  145.8741  143.4826  161.2379 C   0  0  0  0  0  0  0  0  0  0  0  0
  146.5137  144.5063  161.9945 O   0  0  0  0  0  0  0  0  0  0  0  0
  147.9228  144.5499  161.7887 C   0  0  0  0  0  0  0  0  0  0  0  0
  148.2292  144.7778  160.2968 C   0  0  0  0  0  0  0  0  0  0  0  0
  149.9622  140.6637  158.2334 H   0  0  0  0  0  0  0  0  0  0  0  0
  151.3024  141.6112  157.6109 H   0  0  0  0  0  0  0  0  0  0  0  0
  149.7674  141.5893  156.7493 H   0  0  0  0  0  0  0  0  0  0  0  0
  150.2610  142.8038  159.5189 H   0  0  0  0  0  0  0  0  0  0  0  0
  149.8031  144.1335  156.9580 H   0  0  0  0  0  0  0  0  0  0  0  0
  152.0963  143.1903  157.5440 H   0  0  0  0  0  0  0  0  0  0  0  0
  151.9256  144.8352  156.9578 H   0  0  0  0  0  0  0  0  0  0  0  0
  153.0793  145.3668  158.9060 H   0  0  0  0  0  0  0  0  0  0  0  0
  151.4943  145.2523  159.6336 H   0  0  0  0  0  0  0  0  0  0  0  0
  153.9587  142.4296  158.6675 H   0  0  0  0  0  0  0  0  0  0  0  0
  154.2658  140.9061  160.9110 H   0  0  0  0  0  0  0  0  0  0  0  0
  152.7091  142.2330  162.7819 H   0  0  0  0  0  0  0  0  0  0  0  0
  145.7360  144.6678  159.4249 H   0  0  0  0  0  0  0  0  0  0  0  0
  145.6207  142.9518  159.1555 H   0  0  0  0  0  0  0  0  0  0  0  0
  144.8028  143.5138  161.4364 H   0  0  0  0  0  0  0  0  0  0  0  0
  146.2310  142.5017  161.5560 H   0  0  0  0  0  0  0  0  0  0  0  0
  148.3405  145.3595  162.3872 H   0  0  0  0  0  0  0  0  0  0  0  0
  148.3786  143.6236  162.1419 H   0  0  0  0  0  0  0  0  0  0  0  0
  149.3067  144.8492  160.1737 H   0  0  0  0  0  0  0  0  0  0  0  0
  147.8266  145.7389  159.9737 H   0  0  0  0  0  0  0  0  0  0  0  0
  1  2  1  0  0  0  0
  1 19  1  0  0  0  0
  1 20  1  0  0  0  0
  1 21  1  0  0  0  0
  2  3  1  0  0  0  0
  2 11  1  0  0  0  0
  2 22  1  0  0  0  0
  3  4  1  0  0  0  0
  3 23  1  0  0  0  0
  4  5  1  0  0  0  0
  4 24  1  0  0  0  0
  4 25  1  0  0  0  0
  5  6  1  0  0  0  0
  5 26  1  0  0  0  0
  5 27  1  0  0  0  0
  6 10  1  0  0  0  0
  6  7  1  0  0  0  0
  7  8  2  0  0  0  0
  7 28  1  0  0  0  0
  8  9  1  0  0  0  0
  8 29  1  0  0  0  0
  9 10  2  0  0  0  0
  9 30  1  0  0  0  0
 11 12  2  0  0  0  0
 11 13  1  0  0  0  0
 13 18  1  0  0  0  0
 13 14  1  0  0  0  0
 14 15  1  0  0  0  0
 14 31  1  0  0  0  0
 14 32  1  0  0  0  0
 15 16  1  0  0  0  0
 15 33  1  0  0  0  0
 15 34  1  0  0  0  0
 16 17  1  0  0  0  0
 17 18  1  0  0  0  0
 17 35  1  0  0  0  0
 17 36  1  0  0  0  0
 18 37  1  0  0  0  0
 18 38  1  0  0  0  0
M  END
> <s_m_source_file>
AV-unprocessed.smi

> <i_m_source_file_index>
3322

> <i_lp_mmshare_version>
43012

> <i_f3d_flags>
0

> <s_epik_input>
W0NIMl0xW0NIMl1PW0NIMl1bQ0gyXU4xQyg9TylbQ0BIXShbQ0gzXSlbTkhdW0NIMl1bQ0gyXW4yW2NIXVtjSF1bY0hdbjI=

> <s_epik_cmdline>
J2VwaWtfcHl0aG9uJywgJy1waCcsICc3LjAnLCAnLXRuJywgJzgnLCAnLW1hJywgJzIwMCcsICctbWV0YWxfYmluZGluZycsICctaW1hZScsICc8aW5maWxlLm1hZT4nLCAnLW9tYWUnLCAnPG91dGZpbGUubWFlPic=

> <r_lp_tautomer_probability>
1

> <r_epik_Ionization_Penalty>
0.511228

> <r_epik_Ionization_Penalty_Charging>
0

> <r_epik_Ionization_Penalty_Neutral>
0.511228

> <r_epik_State_Penalty>
0.51753

> <r_epik_Charging_Adjusted_Penalty>
0.51753

> <i_epik_Tot_Q>
0

> <i_epik_Tot_abs_Q>
0

> <r_epik_Metal_State_Penalty>
0.517012

> <b_epik_Metal_Only>
0

> <s_lp_Force_Field>
OPLS_2005

> <r_lp_Energy>
27.6931

> <b_lp_Chiralities_Consistent>
1

> <s_lp_Variant>
AV-unprocessed.smi:3322-4

> <Gold.Version>
5.8.1

> <Gold.Id.Protein>
6NUR|6NUR_protein|mol2

> <Gold.PLP.Fitness>
44.6501

> <Gold.PLP.PLP>
-42.4292

> <Gold.PLP.part.hbond>
-3.2360

> <Gold.PLP.part.metal>
0.0000

> <Gold.PLP.part.buried>
-5.1966

> <Gold.PLP.part.nonpolar>
-35.6622

> <Gold.PLP.part.repulsive>
0.3448

> <Gold.PLP.ligand.clash>
0.0000

> <Gold.PLP.ligand.torsion>
0.4379

> <Gold.PLP.Chemscore.Hbond>
1.0000

> <Gold.PLP.Chemscore.CHOScore>
0.0000

> <Gold.PLP.Chemscore.Metal>
0.0000

> <Gold.Chemscore.Hbonds>
donor molecule, donor type, donor heavy atom, donor atom, acceptor molecule, acceptor atom, score
      L1  H     3    23       P1  8028  1.00

> <Gold.PLP.Chemscore.Internal.Correction>
0.0966

> <Gold.Rescore>
     Score         DG    S(hbond)    S(metal)    S(lipo)     H(rot)  DE(clash)    DE(int)     intcor
     13.45     -13.93       0.85        0.00      88.18       1.84       0.04       0.43       ----

> <Gold.Chemscore.Fitness>
13.4517

> <Gold.Chemscore.DG>
-13.9292

> <Gold.Chemscore.ZeroCoef>
-5.4800

> <Gold.Chemscore.Hbond>
0.8542

> <Gold.Chemscore.Metal>
0.0000

> <Gold.Chemscore.Lipo>
88.1824

> <Gold.Chemscore.Internal_Hbond>
0.0000

> <Gold.Chemscore.DEClash>
0.0444

> <Gold.Chemscore.DEInternal>
0.4331

> <Gold.Chemscore.Rot>
1.8442

> <Gold.Chemscore.Internal.Correction>
   9.000000E+99

> <Gold.Chemscore.Hbonds>
donor molecule, donor type, donor heavy atom, donor atom, acceptor molecule, acceptor atom, score
      L1  H     3    23       P1  8028  0.82

> <Gold.Chemscore.Hbond.Weighted>
-2.8530

> <Gold.Chemscore.Metal.Weighted>
-0.0000

> <Gold.Chemscore.Lipo.Weighted>
-10.3173

> <Gold.Chemscore.Internal_Hbond.Weighted>
0.0000

> <Gold.Chemscore.DEClash.Weighted>
0.0444

> <Gold.Chemscore.DEInternal.Weighted>
0.4331

> <Gold.Chemscore.Rot.Weighted>
4.7212

> <Gold.Chemscore.Internal.Correction.Weighted>
   9.000000E+99

> <Gold.Protein.RotatedTorsions>
[ 6907 6896 6895 6894 ] final -112.29 input  -60.11 | X-H torsion
[ 7974 7965 7964 7962 ] final  172.58 input  175.53 | X-H torsion
[ 8008 7997 7996 7995 ] final  -83.58 input   59.86 | X-H torsion
[ 10167 10162 10161 10158 ] final    7.24 input  -65.29 | X-H torsion
[ 10718 10713 10712 10709 ] final   -3.68 input   66.30 | X-H torsion
[ 10763 10752 10751 10750 ] final    8.35 input  -60.55 | X-H torsion
[ 11005 11000 10999 10996 ] final  -73.31 input  -57.11 | X-H torsion

> <Gold.Protein.ActiveResidues>
 VAL166  LYS551  ARG553  GLY616  TRP617  ASP618  TYR619  PRO620  LYS621  CYS622 
 ASP623  PHE694  ASN695  SER759  ASP760  ASP761  ALA762  ILE779  LEU786  VAL792 
 PHE793  MET794  SER795  GLU796  ALA797  LYS798  CYS799  TRP800  GLU811  SER814 

> <Gold.Protein.RotatedAtoms>
  150.7748  133.9111  159.3369 H   0  0  0  0  0  0  0  0  0  0  0  0  # atno 6907 bound_to 6896
  151.6989  135.0932  160.0256 H   0  0  0  0  0  0  0  0  0  0  0  0  # atno 6908 bound_to 6896
  152.3780  133.6469  159.6174 H   0  0  0  0  0  0  0  0  0  0  0  0  # atno 6909 bound_to 6896
  144.7264  139.9520  143.6432 H   0  0  0  0  0  0  0  0  0  0  0  0  # atno 7974 bound_to 7965
  154.6206  140.0617  156.9610 H   0  0  0  0  0  0  0  0  0  0  0  0  # atno 8008 bound_to 7997
  155.1823  140.3300  155.4354 H   0  0  0  0  0  0  0  0  0  0  0  0  # atno 8009 bound_to 7997
  156.2429  140.1895  156.6919 H   0  0  0  0  0  0  0  0  0  0  0  0  # atno 8010 bound_to 7997
  140.6383  143.7835  150.7390 H   0  0  0  0  0  0  0  0  0  0  0  0  # atno 10167 bound_to 10162
  156.7725  130.5304  149.5765 H   0  0  0  0  0  0  0  0  0  0  0  0  # atno 10718 bound_to 10713
  153.2260  135.6887  153.7944 H   0  0  0  0  0  0  0  0  0  0  0  0  # atno 10763 bound_to 10752
  153.7126  135.3280  155.3250 H   0  0  0  0  0  0  0  0  0  0  0  0  # atno 10764 bound_to 10752
  154.8292  135.4594  154.1127 H   0  0  0  0  0  0  0  0  0  0  0  0  # atno 10765 bound_to 10752
  141.1621  133.6874  156.7192 H   0  0  0  0  0  0  0  0  0  0  0  0  # atno 11005 bound_to 11000
  146.0704  139.3693  143.0526 LP  0  0  0  0  0  0  0  0  0  0  0  0  # atno 17320 bound_to 7965
  145.7975  140.9786  143.1016 LP  0  0  0  0  0  0  0  0  0  0  0  0  # atno 17321 bound_to 7965
  140.1461  143.4398  152.2162 LP  0  0  0  0  0  0  0  0  0  0  0  0  # atno 17342 bound_to 10162
  139.5592  144.7394  151.4204 LP  0  0  0  0  0  0  0  0  0  0  0  0  # atno 17343 bound_to 10162
  156.1269  130.6150  151.0276 LP  0  0  0  0  0  0  0  0  0  0  0  0  # atno 17370 bound_to 10713
  157.6684  131.0866  150.7672 LP  0  0  0  0  0  0  0  0  0  0  0  0  # atno 17371 bound_to 10713
  140.2829  134.8302  157.3949 LP  0  0  0  0  0  0  0  0  0  0  0  0  # atno 17394 bound_to 11000
  140.1417  134.4963  155.8026 LP  0  0  0  0  0  0  0  0  0  0  0  0  # atno 17395 bound_to 11000

$$$$
