AV-unprocessed.smi:2902|AV-procd|sdf|11153|dock2
  -GOLD-   2272016 33D 1   1.00000     0.00000
 Structure written by MMmdl.
 47 48  0  0  0  0  0  0  0  0  1 V2000
  141.5127  136.5094  153.2312 C   0  0  0  0  0  0  0  0  0  0  0  0
  142.8906  137.1811  153.2802 C   0  0  0  0  0  0  0  0  0  0  0  0
  143.8875  136.5679  152.2791 C   0  0  2  0  0  0  0  0  0  0  0  0
  143.7458  135.1479  152.3299 O   0  0  0  0  0  0  0  0  0  0  0  0
  144.1030  134.4225  151.1553 C   0  0  0  0  0  0  0  0  0  0  0  0
  143.5180  133.0075  151.1103 C   0  0  0  0  0  0  0  0  0  0  0  0
  144.4746  132.2039  150.2204 C   0  0  0  0  0  0  0  0  0  0  0  0
  145.7920  132.9938  150.1755 C   0  0  0  0  0  0  0  0  0  0  0  0
  145.6101  134.1768  151.1302 C   0  0  0  0  0  0  0  0  0  0  0  0
  145.3299  136.9730  152.6182 C   0  0  0  0  0  0  0  0  0  0  0  0
  146.1376  136.1277  153.0037 O   0  0  0  0  0  0  0  0  0  0  0  0
  145.6295  138.2735  152.4691 N   0  0  0  0  0  0  0  0  0  0  0  0
  146.9186  138.9006  152.7622 C   0  0  1  0  0  0  0  0  0  0  0  0
  146.7848  140.4044  152.4702 C   0  0  0  0  0  0  0  0  0  0  0  0
  147.3479  138.5971  154.2245 C   0  0  2  0  0  0  0  0  0  0  0  0
  146.3227  139.0768  155.2705 C   0  0  0  0  0  0  0  0  0  0  0  0
  148.6630  139.1563  154.5196 N   0  0  0  0  0  0  0  0  0  0  0  0
  149.8317  138.9825  153.8990 C   0  0  0  0  0  0  0  0  0  0  0  0
  150.8249  139.6943  154.4128 N   0  0  0  0  0  0  0  0  0  0  0  0
  150.1521  140.3330  155.4157 C   0  0  0  0  0  0  0  0  0  0  0  0
  148.8544  140.0487  155.5221 N   0  0  0  0  0  0  0  0  0  0  0  0
  140.8301  136.9725  153.9438 H   0  0  0  0  0  0  0  0  0  0  0  0
  141.5806  135.4494  153.4772 H   0  0  0  0  0  0  0  0  0  0  0  0
  141.0674  136.5958  152.2399 H   0  0  0  0  0  0  0  0  0  0  0  0
  142.7659  138.2451  153.0720 H   0  0  0  0  0  0  0  0  0  0  0  0
  143.2886  137.1125  154.2937 H   0  0  0  0  0  0  0  0  0  0  0  0
  143.6366  136.9331  151.2820 H   0  0  0  0  0  0  0  0  0  0  0  0
  143.8305  134.9648  150.2488 H   0  0  0  0  0  0  0  0  0  0  0  0
  143.5144  132.5810  152.1145 H   0  0  0  0  0  0  0  0  0  0  0  0
  142.4928  132.9892  150.7396 H   0  0  0  0  0  0  0  0  0  0  0  0
  144.6209  131.1974  150.6137 H   0  0  0  0  0  0  0  0  0  0  0  0
  144.0670  132.1043  149.2135 H   0  0  0  0  0  0  0  0  0  0  0  0
  146.6498  132.3805  150.4530 H   0  0  0  0  0  0  0  0  0  0  0  0
  145.9655  133.3589  149.1625 H   0  0  0  0  0  0  0  0  0  0  0  0
  146.1747  135.0574  150.8226 H   0  0  0  0  0  0  0  0  0  0  0  0
  145.9538  133.8946  152.1266 H   0  0  0  0  0  0  0  0  0  0  0  0
  144.8970  138.8845  152.1381 H   0  0  0  0  0  0  0  0  0  0  0  0
  147.6809  138.5086  152.0864 H   0  0  0  0  0  0  0  0  0  0  0  0
  147.7432  140.9171  152.5484 H   0  0  0  0  0  0  0  0  0  0  0  0
  146.0896  140.8840  153.1601 H   0  0  0  0  0  0  0  0  0  0  0  0
  146.4166  140.5734  151.4574 H   0  0  0  0  0  0  0  0  0  0  0  0
  147.4367  137.5148  154.3330 H   0  0  0  0  0  0  0  0  0  0  0  0
  145.3807  138.5351  155.1882 H   0  0  0  0  0  0  0  0  0  0  0  0
  146.1064  140.1401  155.1620 H   0  0  0  0  0  0  0  0  0  0  0  0
  146.6940  138.9153  156.2830 H   0  0  0  0  0  0  0  0  0  0  0  0
  149.9562  138.3319  153.0460 H   0  0  0  0  0  0  0  0  0  0  0  0
  150.6328  141.0302  156.0861 H   0  0  0  0  0  0  0  0  0  0  0  0
  1  2  1  0  0  0  0
  1 22  1  0  0  0  0
  1 23  1  0  0  0  0
  1 24  1  0  0  0  0
  2  3  1  0  0  0  0
  2 25  1  0  0  0  0
  2 26  1  0  0  0  0
  3  4  1  0  0  0  0
  3 10  1  0  0  0  0
  3 27  1  0  0  0  0
  4  5  1  0  0  0  0
  5  9  1  0  0  0  0
  5  6  1  0  0  0  0
  5 28  1  0  0  0  0
  6  7  1  0  0  0  0
  6 29  1  0  0  0  0
  6 30  1  0  0  0  0
  7  8  1  0  0  0  0
  7 31  1  0  0  0  0
  7 32  1  0  0  0  0
  8  9  1  0  0  0  0
  8 33  1  0  0  0  0
  8 34  1  0  0  0  0
  9 35  1  0  0  0  0
  9 36  1  0  0  0  0
 10 11  2  0  0  0  0
 10 12  1  0  0  0  0
 12 13  1  0  0  0  0
 12 37  1  0  0  0  0
 13 14  1  0  0  0  0
 13 15  1  0  0  0  0
 13 38  1  0  0  0  0
 14 39  1  0  0  0  0
 14 40  1  0  0  0  0
 14 41  1  0  0  0  0
 15 16  1  0  0  0  0
 15 17  1  0  0  0  0
 15 42  1  0  0  0  0
 16 43  1  0  0  0  0
 16 44  1  0  0  0  0
 16 45  1  0  0  0  0
 17 21  1  0  0  0  0
 17 18  1  0  0  0  0
 18 19  2  0  0  0  0
 18 46  1  0  0  0  0
 19 20  1  0  0  0  0
 20 21  2  0  0  0  0
 20 47  1  0  0  0  0
M  END
> <s_m_source_file>
AV-unprocessed.smi

> <i_m_source_file_index>
2902

> <i_lp_mmshare_version>
43012

> <i_f3d_flags>
0

> <s_epik_input>
W0NIMl0xW0NIMl1bQ0gyXVtDSDJdW0NIXTFPW0NAQEhdKFtDSDJdW0NIM10pQyg9TylbTkhdW0NASF0oW0NIM10pW0NASF0oW0NIM10pbjJbY0hdbltjSF1uMg==

> <s_epik_cmdline>
J2VwaWtfcHl0aG9uJywgJy1waCcsICc3LjAnLCAnLXRuJywgJzgnLCAnLW1hJywgJzIwMCcsICctbWV0YWxfYmluZGluZycsICctaW1hZScsICc8aW5maWxlLm1hZT4nLCAnLW9tYWUnLCAnPG91dGZpbGUubWFlPic=

> <r_lp_tautomer_probability>
1

> <r_epik_Ionization_Penalty>
6.95617e-05

> <r_epik_Ionization_Penalty_Charging>
0

> <r_epik_Ionization_Penalty_Neutral>
6.95617e-05

> <r_epik_State_Penalty>
-0

> <r_epik_Charging_Adjusted_Penalty>
0

> <i_epik_Tot_Q>
0

> <i_epik_Tot_abs_Q>
0

> <r_epik_Metal_State_Penalty>
-0

> <b_epik_Metal_Only>
0

> <s_lp_Force_Field>
OPLS_2005

> <r_lp_Energy>
29.2018

> <b_lp_Chiralities_Consistent>
1

> <s_lp_Variant>
AV-unprocessed.smi:2902-3

> <Gold.Version>
5.8.1

> <Gold.Id.Protein>
6NUR|6NUR_protein|mol2

> <Gold.PLP.Fitness>
41.7130

> <Gold.PLP.PLP>
-33.0073

> <Gold.PLP.part.hbond>
-2.3876

> <Gold.PLP.part.metal>
0.0000

> <Gold.PLP.part.buried>
-1.3399

> <Gold.PLP.part.nonpolar>
-29.3904

> <Gold.PLP.part.repulsive>
1.0268

> <Gold.PLP.ligand.clash>
0.0000

> <Gold.PLP.ligand.torsion>
0.7682

> <Gold.PLP.Chemscore.Hbond>
2.0000

> <Gold.PLP.Chemscore.CHOScore>
1.3482

> <Gold.PLP.Chemscore.Metal>
0.0000

> <Gold.Chemscore.Hbonds>
donor molecule, donor type, donor heavy atom, donor atom, acceptor molecule, acceptor atom, score
      L1  H    12    37       P1 10175  1.00
      P1  H  7989  7998       L1    19  1.00
      L1  C    18    46       P1  7948  0.92
      L1  C    18    46       P1  7957  0.39

> <Gold.PLP.Chemscore.Internal.Correction>
0.1973

> <Gold.Rescore>
     Score         DG    S(hbond)    S(metal)    S(lipo)     H(rot)  DE(clash)    DE(int)     intcor
     10.64     -13.00       1.91        0.00      68.74       2.69       0.22       2.15       ----

> <Gold.Chemscore.Fitness>
10.6355

> <Gold.Chemscore.DG>
-12.9987

> <Gold.Chemscore.ZeroCoef>
-5.4800

> <Gold.Chemscore.Hbond>
1.9077

> <Gold.Chemscore.Metal>
0.0000

> <Gold.Chemscore.Lipo>
68.7395

> <Gold.Chemscore.Internal_Hbond>
0.0000

> <Gold.Chemscore.DEClash>
0.2168

> <Gold.Chemscore.DEInternal>
2.1464

> <Gold.Chemscore.Rot>
2.6935

> <Gold.Chemscore.Internal.Correction>
   9.000000E+99

> <Gold.Chemscore.Hbonds>
donor molecule, donor type, donor heavy atom, donor atom, acceptor molecule, acceptor atom, score
      L1  H    12    37       P1 10175  0.90
      P1  H  7989  7998       L1    19  0.64

> <Gold.Chemscore.Hbond.Weighted>
-6.3716

> <Gold.Chemscore.Metal.Weighted>
-0.0000

> <Gold.Chemscore.Lipo.Weighted>
-8.0425

> <Gold.Chemscore.Internal_Hbond.Weighted>
0.0000

> <Gold.Chemscore.DEClash.Weighted>
0.2168

> <Gold.Chemscore.DEInternal.Weighted>
2.1464

> <Gold.Chemscore.Rot.Weighted>
6.8954

> <Gold.Chemscore.Internal.Correction.Weighted>
   9.000000E+99

> <Gold.Protein.RotatedTorsions>
[ 6907 6896 6895 6894 ] final  -22.04 input  -60.11 | X-H torsion
[ 7974 7965 7964 7962 ] final  -21.69 input  175.53 | X-H torsion
[ 8008 7997 7996 7995 ] final  162.49 input   59.86 | X-H torsion
[ 10167 10162 10161 10158 ] final -125.28 input  -65.29 | X-H torsion
[ 10718 10713 10712 10709 ] final   -2.83 input   66.30 | X-H torsion
[ 10763 10752 10751 10750 ] final -162.16 input  -60.55 | X-H torsion
[ 11005 11000 10999 10996 ] final -110.82 input  -57.11 | X-H torsion

> <Gold.Protein.ActiveResidues>
 VAL166  LYS551  ARG553  GLY616  TRP617  ASP618  TYR619  PRO620  LYS621  CYS622 
 ASP623  PHE694  ASN695  SER759  ASP760  ASP761  ALA762  ILE779  LEU786  VAL792 
 PHE793  MET794  SER795  GLU796  ALA797  LYS798  CYS799  TRP800  GLU811  SER814 

> <Gold.Protein.RotatedAtoms>
  151.2244  135.0531  159.8962 H   0  0  0  0  0  0  0  0  0  0  0  0  # atno 6907 bound_to 6896
  152.5412  134.0605  159.8160 H   0  0  0  0  0  0  0  0  0  0  0  0  # atno 6908 bound_to 6896
  151.0776  133.5367  159.2654 H   0  0  0  0  0  0  0  0  0  0  0  0  # atno 6909 bound_to 6896
  146.1718  140.4376  142.8529 H   0  0  0  0  0  0  0  0  0  0  0  0  # atno 7974 bound_to 7965
  156.2027  140.1749  156.7865 H   0  0  0  0  0  0  0  0  0  0  0  0  # atno 8008 bound_to 7997
  154.5613  140.0699  156.8854 H   0  0  0  0  0  0  0  0  0  0  0  0  # atno 8009 bound_to 7997
  155.2843  140.3351  155.4259 H   0  0  0  0  0  0  0  0  0  0  0  0  # atno 8010 bound_to 7997
  139.9838  143.5714  152.2368 H   0  0  0  0  0  0  0  0  0  0  0  0  # atno 10167 bound_to 10162
  156.7850  130.5343  149.5745 H   0  0  0  0  0  0  0  0  0  0  0  0  # atno 10718 bound_to 10713
  154.7239  135.3031  154.9002 H   0  0  0  0  0  0  0  0  0  0  0  0  # atno 10763 bound_to 10752
  153.9865  135.6724  153.4756 H   0  0  0  0  0  0  0  0  0  0  0  0  # atno 10764 bound_to 10752
  153.0858  135.4985  154.8512 H   0  0  0  0  0  0  0  0  0  0  0  0  # atno 10765 bound_to 10752
  141.0770  133.9284  157.2369 H   0  0  0  0  0  0  0  0  0  0  0  0  # atno 11005 bound_to 11000
  144.8175  140.6493  143.6375 LP  0  0  0  0  0  0  0  0  0  0  0  0  # atno 17320 bound_to 7965
  145.4319  139.1548  143.4018 LP  0  0  0  0  0  0  0  0  0  0  0  0  # atno 17321 bound_to 7965
  139.6390  144.7653  151.2377 LP  0  0  0  0  0  0  0  0  0  0  0  0  # atno 17342 bound_to 10162
  140.7480  143.6349  150.8389 LP  0  0  0  0  0  0  0  0  0  0  0  0  # atno 17343 bound_to 10162
  156.1194  130.6099  151.0171 LP  0  0  0  0  0  0  0  0  0  0  0  0  # atno 17370 bound_to 10713
  157.6628  131.0877  150.7798 LP  0  0  0  0  0  0  0  0  0  0  0  0  # atno 17371 bound_to 10713
  139.9582  135.0160  156.9188 LP  0  0  0  0  0  0  0  0  0  0  0  0  # atno 17394 bound_to 11000
  140.5552  134.0588  155.7381 LP  0  0  0  0  0  0  0  0  0  0  0  0  # atno 17395 bound_to 11000

$$$$
