AV-unprocessed.smi:3075|AV-procd|sdf|11723|dock4
  -GOLD-   2272017123D 1   1.00000     0.00000
 Structure written by MMmdl.
 30 31  0  0  0  0  0  0  0  0  2 V2000
  150.4054  142.8061  156.3567 N   0  3  0  0  0  0  0  0  0  0  0  0
  150.1464  141.7147  157.3103 C   0  0  0  0  0  0  0  0  0  0  0  0
  151.4087  141.3514  158.0783 C   0  0  0  0  0  0  0  0  0  0  0  0
  151.9113  142.2448  159.0486 C   0  0  0  0  0  0  0  0  0  0  0  0
  153.0684  141.8977  159.7687 C   0  0  0  0  0  0  0  0  0  0  0  0
  153.6815  140.6626  159.4907 C   0  0  0  0  0  0  0  0  0  0  0  0
  153.2127  139.7981  158.5671 N   0  0  0  0  0  0  0  0  0  0  0  0
  152.0991  140.1281  157.8689 C   0  0  0  0  0  0  0  0  0  0  0  0
  151.6450  139.2139  156.9021 N   0  0  0  0  0  0  0  0  0  0  0  0
  152.4917  139.1800  155.7162 C   0  0  0  0  0  0  0  0  0  0  0  0
  151.8313  138.3207  154.6242 C   0  0  0  0  0  0  0  0  0  0  0  0
  151.5592  137.0193  155.1367 O   0  0  0  0  0  0  0  0  0  0  0  0
  150.6770  137.0544  156.2552 C   0  0  0  0  0  0  0  0  0  0  0  0
  151.3151  137.8775  157.3871 C   0  0  0  0  0  0  0  0  0  0  0  0
  150.5587  142.4208  155.4357 H   0  0  0  0  0  0  0  0  0  0  0  0
  151.2241  143.3210  156.6473 H   0  0  0  0  0  0  0  0  0  0  0  0
  149.3467  142.0079  157.9899 H   0  0  0  0  0  0  0  0  0  0  0  0
  149.7835  140.8461  156.7598 H   0  0  0  0  0  0  0  0  0  0  0  0
  151.4163  143.1851  159.2429 H   0  0  0  0  0  0  0  0  0  0  0  0
  153.4763  142.5613  160.5170 H   0  0  0  0  0  0  0  0  0  0  0  0
  154.5709  140.3605  160.0232 H   0  0  0  0  0  0  0  0  0  0  0  0
  152.6676  140.1893  155.3432 H   0  0  0  0  0  0  0  0  0  0  0  0
  153.4651  138.7636  155.9801 H   0  0  0  0  0  0  0  0  0  0  0  0
  150.9084  138.7833  154.2709 H   0  0  0  0  0  0  0  0  0  0  0  0
  152.4936  138.2323  153.7631 H   0  0  0  0  0  0  0  0  0  0  0  0
  149.7154  137.4776  155.9602 H   0  0  0  0  0  0  0  0  0  0  0  0
  150.4877  136.0349  156.5911 H   0  0  0  0  0  0  0  0  0  0  0  0
  152.2173  137.3751  157.7394 H   0  0  0  0  0  0  0  0  0  0  0  0
  150.6307  137.9486  158.2331 H   0  0  0  0  0  0  0  0  0  0  0  0
  149.6088  143.4267  156.3335 H   0  0  0  0  0  0  0  0  0  0  0  0
  1  2  1  0  0  0  0
  1 15  1  0  0  0  0
  1 16  1  0  0  0  0
  1 30  1  0  0  0  0
  2  3  1  0  0  0  0
  2 17  1  0  0  0  0
  2 18  1  0  0  0  0
  3  8  1  0  0  0  0
  3  4  2  0  0  0  0
  4  5  1  0  0  0  0
  4 19  1  0  0  0  0
  5  6  2  0  0  0  0
  5 20  1  0  0  0  0
  6  7  1  0  0  0  0
  6 21  1  0  0  0  0
  7  8  2  0  0  0  0
  8  9  1  0  0  0  0
  9 14  1  0  0  0  0
  9 10  1  0  0  0  0
 10 11  1  0  0  0  0
 10 22  1  0  0  0  0
 10 23  1  0  0  0  0
 11 12  1  0  0  0  0
 11 24  1  0  0  0  0
 11 25  1  0  0  0  0
 12 13  1  0  0  0  0
 13 14  1  0  0  0  0
 13 26  1  0  0  0  0
 13 27  1  0  0  0  0
 14 28  1  0  0  0  0
 14 29  1  0  0  0  0
M  CHG  1   1   1
M  END
> <s_m_source_file>
AV-unprocessed.smi

> <i_m_source_file_index>
3075

> <i_lp_mmshare_version>
43012

> <i_f3d_flags>
0

> <s_epik_input>
W05IMl1bQ0gyXWMxW2NIXVtjSF1bY0hdbmMxTjJbQ0gyXVtDSDJdT1tDSDJdW0NIMl0y

> <s_epik_cmdline>
J2VwaWtfcHl0aG9uJywgJy1waCcsICc3LjAnLCAnLXRuJywgJzgnLCAnLW1hJywgJzIwMCcsICctbWV0YWxfYmluZGluZycsICctaW1hZScsICc8aW5maWxlLm1hZT4nLCAnLW9tYWUnLCAnPG91dGZpbGUubWFlPic=

> <r_lp_tautomer_probability>
1

> <r_epik_Ionization_Penalty>
0.0619672

> <r_epik_Ionization_Penalty_Charging>
0.0611992

> <r_epik_Ionization_Penalty_Neutral>
0.000768062

> <r_epik_State_Penalty>
0.0535001

> <r_epik_Charging_Adjusted_Penalty>
0.114699

> <i_epik_Tot_Q>
1

> <i_epik_Tot_abs_Q>
1

> <r_epik_Metal_State_Penalty>
0.053574

> <b_epik_Metal_Only>
0

> <s_lp_Force_Field>
OPLS_2005

> <r_lp_Energy>
18.0321

> <b_lp_Chiralities_Consistent>
1

> <s_lp_Variant>
AV-unprocessed.smi:3075-1

> <Gold.Version>
5.8.1

> <Gold.Id.Protein>
6NUR|6NUR_protein|mol2

> <Gold.PLP.Fitness>
35.5301

> <Gold.PLP.PLP>
-23.9147

> <Gold.PLP.part.hbond>
-3.0000

> <Gold.PLP.part.metal>
0.0000

> <Gold.PLP.part.buried>
-3.0495

> <Gold.PLP.part.nonpolar>
-18.2720

> <Gold.PLP.part.repulsive>
0.2038

> <Gold.PLP.ligand.clash>
0.0000

> <Gold.PLP.ligand.torsion>
0.2613

> <Gold.PLP.Chemscore.Hbond>
4.0000

> <Gold.PLP.Chemscore.CHOScore>
0.0000

> <Gold.PLP.Chemscore.Metal>
0.0000

> <Gold.Chemscore.Hbonds>
donor molecule, donor type, donor heavy atom, donor atom, acceptor molecule, acceptor atom, score
      L1  H     1    30       P1  8028  1.92
      P1  H  7997  8009       L1     7  0.78
      P1  H 10752 10763       L1    12  0.86

> <Gold.PLP.Chemscore.Internal.Correction>
0.1380

> <Gold.Rescore>
     Score         DG    S(hbond)    S(metal)    S(lipo)     H(rot)  DE(clash)    DE(int)     intcor
     15.90     -16.27       1.93        0.00      65.85       1.32       0.10       0.27       ----

> <Gold.Chemscore.Fitness>
15.9038

> <Gold.Chemscore.DG>
-16.2745

> <Gold.Chemscore.ZeroCoef>
-5.4800

> <Gold.Chemscore.Hbond>
1.9337

> <Gold.Chemscore.Metal>
0.0000

> <Gold.Chemscore.Lipo>
65.8493

> <Gold.Chemscore.Internal_Hbond>
0.0000

> <Gold.Chemscore.DEClash>
0.0960

> <Gold.Chemscore.DEInternal>
0.2747

> <Gold.Chemscore.Rot>
1.3158

> <Gold.Chemscore.Internal.Correction>
   9.000000E+99

> <Gold.Chemscore.Hbonds>
donor molecule, donor type, donor heavy atom, donor atom, acceptor molecule, acceptor atom, score
      L1  H     1    30       P1  8028  0.92
      P1  H  7997  8009       L1     7  0.06
      P1  H 10752 10763       L1    12  0.60

> <Gold.Chemscore.Hbond.Weighted>
-6.4586

> <Gold.Chemscore.Metal.Weighted>
-0.0000

> <Gold.Chemscore.Lipo.Weighted>
-7.7044

> <Gold.Chemscore.Internal_Hbond.Weighted>
0.0000

> <Gold.Chemscore.DEClash.Weighted>
0.0960

> <Gold.Chemscore.DEInternal.Weighted>
0.2747

> <Gold.Chemscore.Rot.Weighted>
3.3684

> <Gold.Chemscore.Internal.Correction.Weighted>
   9.000000E+99

> <Gold.Protein.RotatedTorsions>
[ 6907 6896 6895 6894 ] final  105.48 input  -60.11 | X-H torsion
[ 7974 7965 7964 7962 ] final -160.38 input  175.53 | X-H torsion
[ 8008 7997 7996 7995 ] final  143.08 input   59.86 | X-H torsion
[ 10167 10162 10161 10158 ] final  -70.51 input  -65.29 | X-H torsion
[ 10718 10713 10712 10709 ] final   46.51 input   66.30 | X-H torsion
[ 10763 10752 10751 10750 ] final   46.15 input  -60.55 | X-H torsion
[ 11005 11000 10999 10996 ] final  147.87 input  -57.11 | X-H torsion

> <Gold.Protein.ActiveResidues>
 VAL166  LYS551  ARG553  GLY616  TRP617  ASP618  TYR619  PRO620  LYS621  CYS622 
 ASP623  PHE694  ASN695  SER759  ASP760  ASP761  ALA762  ILE779  LEU786  VAL792 
 PHE793  MET794  SER795  GLU796  ALA797  LYS798  CYS799  TRP800  GLU811  SER814 

> <Gold.Protein.RotatedAtoms>
  152.5229  133.9523  159.7677 H   0  0  0  0  0  0  0  0  0  0  0  0  # atno 6907 bound_to 6896
  150.9830  133.6217  159.2726 H   0  0  0  0  0  0  0  0  0  0  0  0  # atno 6908 bound_to 6896
  151.3388  135.0865  159.9417 H   0  0  0  0  0  0  0  0  0  0  0  0  # atno 6909 bound_to 6896
  144.7429  140.3550  143.6108 H   0  0  0  0  0  0  0  0  0  0  0  0  # atno 7974 bound_to 7965
  156.2937  140.2272  156.4832 H   0  0  0  0  0  0  0  0  0  0  0  0  # atno 8008 bound_to 7997
  154.7835  140.0459  157.1166 H   0  0  0  0  0  0  0  0  0  0  0  0  # atno 8009 bound_to 7997
  154.9731  140.3069  155.4982 H   0  0  0  0  0  0  0  0  0  0  0  0  # atno 8010 bound_to 7997
  140.5347  143.2319  151.7199 H   0  0  0  0  0  0  0  0  0  0  0  0  # atno 10167 bound_to 10162
  157.4488  130.8126  149.7767 H   0  0  0  0  0  0  0  0  0  0  0  0  # atno 10718 bound_to 10713
  152.9814  135.6017  154.3553 H   0  0  0  0  0  0  0  0  0  0  0  0  # atno 10763 bound_to 10752
  154.3239  135.2769  155.2508 H   0  0  0  0  0  0  0  0  0  0  0  0  # atno 10764 bound_to 10752
  154.4662  135.5953  153.6345 H   0  0  0  0  0  0  0  0  0  0  0  0  # atno 10765 bound_to 10752
  140.0912  134.9039  157.1654 H   0  0  0  0  0  0  0  0  0  0  0  0  # atno 11005 bound_to 11000
  145.7236  139.1716  143.2470 LP  0  0  0  0  0  0  0  0  0  0  0  0  # atno 17320 bound_to 7965
  146.1258  140.7250  142.9435 LP  0  0  0  0  0  0  0  0  0  0  0  0  # atno 17321 bound_to 7965
  139.4966  144.4061  152.0130 LP  0  0  0  0  0  0  0  0  0  0  0  0  # atno 17342 bound_to 10162
  140.3165  144.3477  150.6020 LP  0  0  0  0  0  0  0  0  0  0  0  0  # atno 17343 bound_to 10162
  155.9978  130.3897  150.2725 LP  0  0  0  0  0  0  0  0  0  0  0  0  # atno 17370 bound_to 10713
  157.0895  131.0165  151.3127 LP  0  0  0  0  0  0  0  0  0  0  0  0  # atno 17371 bound_to 10713
  140.3349  134.2768  155.7221 LP  0  0  0  0  0  0  0  0  0  0  0  0  # atno 17394 bound_to 11000
  141.2078  133.7794  157.0095 LP  0  0  0  0  0  0  0  0  0  0  0  0  # atno 17395 bound_to 11000

$$$$
