AV-unprocessed.smi:1005|AV-procd|sdf|4365|dock5
  -GOLD-   22720 2273D 1   1.00000     0.00000
 Structure written by MMmdl.
 56 58  0  0  0  0  0  0  0  0  2 V2000
  151.4515  144.1057  158.3098 C   0  0  0  0  0  0  0  0  0  0  0  0
  151.3741  142.6700  157.8208 C   0  0  0  0  0  0  0  0  0  0  0  0
  150.6948  142.3911  156.6135 C   0  0  0  0  0  0  0  0  0  0  0  0
  150.5993  141.0697  156.1249 C   0  0  0  0  0  0  0  0  0  0  0  0
  149.9911  140.5756  154.9835 N   0  0  0  0  0  0  0  0  0  0  0  0
  150.2452  139.2744  155.0868 C   0  0  0  0  0  0  0  0  0  0  0  0
  150.9464  138.8660  156.1616 N   0  0  0  0  0  0  0  0  0  0  0  0
  151.3374  137.5044  156.4816 C   0  0  0  0  0  0  0  0  0  0  0  0
  150.7769  136.4772  155.4793 C   0  0  1  0  0  0  0  0  0  0  0  0
  151.4115  136.6514  154.2268 O   0  0  0  0  0  0  0  0  0  0  0  0
  151.0197  135.0317  155.9602 C   0  0  0  0  0  0  0  0  0  0  0  0
  149.9002  134.1046  155.7806 N   0  0  0  0  0  0  0  0  0  0  0  0
  150.2810  132.7103  155.9955 C   0  0  0  0  0  0  0  0  0  0  0  0
  149.1024  131.7521  155.7580 C   0  0  0  0  0  0  0  0  0  0  0  0
  148.5808  131.9568  154.4498 O   0  0  0  0  0  0  0  0  0  0  0  0
  148.1252  133.2895  154.2311 C   0  0  2  0  0  0  0  0  0  0  0  0
  147.5596  133.4002  152.8018 C   0  0  0  0  0  0  0  0  0  0  0  0
  146.8128  134.6622  152.5589 N   0  3  0  0  0  0  0  0  0  0  0  0
  146.0548  135.1431  153.7371 C   0  0  0  0  0  0  0  0  0  0  0  0
  145.9474  134.5683  151.3618 C   0  0  0  0  0  0  0  0  0  0  0  0
  149.3243  134.2363  154.4465 C   0  0  0  0  0  0  0  0  0  0  0  0
  151.2062  140.0261  156.8834 C   0  0  0  0  0  0  0  0  0  0  0  0
  151.8864  140.2915  158.0852 C   0  0  0  0  0  0  0  0  0  0  0  0
  151.9728  141.6175  158.5587 C   0  0  0  0  0  0  0  0  0  0  0  0
  152.7097  141.8937  159.8573 C   0  0  0  0  0  0  0  0  0  0  0  0
  150.9367  144.7865  157.6313 H   0  0  0  0  0  0  0  0  0  0  0  0
  152.4903  144.4285  158.3828 H   0  0  0  0  0  0  0  0  0  0  0  0
  150.9891  144.2001  159.2927 H   0  0  0  0  0  0  0  0  0  0  0  0
  150.2399  143.1924  156.0501 H   0  0  0  0  0  0  0  0  0  0  0  0
  149.9026  138.5759  154.3373 H   0  0  0  0  0  0  0  0  0  0  0  0
  152.4262  137.4519  156.5188 H   0  0  0  0  0  0  0  0  0  0  0  0
  150.9820  137.2783  157.4878 H   0  0  0  0  0  0  0  0  0  0  0  0
  149.7124  136.6708  155.3542 H   0  0  0  0  0  0  0  0  0  0  0  0
  150.7829  136.4775  153.5433 H   0  0  0  0  0  0  0  0  0  0  0  0
  151.8944  134.6456  155.4343 H   0  0  0  0  0  0  0  0  0  0  0  0
  151.2971  135.0496  157.0153 H   0  0  0  0  0  0  0  0  0  0  0  0
  151.1021  132.4437  155.3285 H   0  0  0  0  0  0  0  0  0  0  0  0
  150.6430  132.5641  157.0120 H   0  0  0  0  0  0  0  0  0  0  0  0
  149.4298  130.7168  155.8533 H   0  0  0  0  0  0  0  0  0  0  0  0
  148.3181  131.9104  156.4999 H   0  0  0  0  0  0  0  0  0  0  0  0
  147.3424  133.5358  154.9514 H   0  0  0  0  0  0  0  0  0  0  0  0
  148.4025  133.3819  152.1092 H   0  0  0  0  0  0  0  0  0  0  0  0
  146.9442  132.5337  152.5551 H   0  0  0  0  0  0  0  0  0  0  0  0
  145.3552  134.3845  154.0903 H   0  0  0  0  0  0  0  0  0  0  0  0
  145.4857  136.0400  153.4899 H   0  0  0  0  0  0  0  0  0  0  0  0
  146.7214  135.4088  154.5564 H   0  0  0  0  0  0  0  0  0  0  0  0
  145.1760  133.8088  151.4963 H   0  0  0  0  0  0  0  0  0  0  0  0
  146.5320  134.3103  150.4780 H   0  0  0  0  0  0  0  0  0  0  0  0
  145.4577  135.5222  151.1626 H   0  0  0  0  0  0  0  0  0  0  0  0
  149.0003  135.2660  154.2906 H   0  0  0  0  0  0  0  0  0  0  0  0
  150.0876  134.0335  153.6932 H   0  0  0  0  0  0  0  0  0  0  0  0
  152.3389  139.4811  158.6370 H   0  0  0  0  0  0  0  0  0  0  0  0
  153.1204  140.9781  160.2838 H   0  0  0  0  0  0  0  0  0  0  0  0
  152.0351  142.3323  160.5929 H   0  0  0  0  0  0  0  0  0  0  0  0
  153.5364  142.5844  159.6891 H   0  0  0  0  0  0  0  0  0  0  0  0
  147.5013  135.3709  152.3484 H   0  0  0  0  0  0  0  0  0  0  0  0
  1  2  1  0  0  0  0
  1 26  1  0  0  0  0
  1 27  1  0  0  0  0
  1 28  1  0  0  0  0
  2 24  1  0  0  0  0
  2  3  2  0  0  0  0
  3  4  1  0  0  0  0
  3 29  1  0  0  0  0
  4 22  2  0  0  0  0
  4  5  1  0  0  0  0
  5  6  2  0  0  0  0
  6  7  1  0  0  0  0
  6 30  1  0  0  0  0
  7  8  1  0  0  0  0
  7 22  1  0  0  0  0
  8  9  1  0  0  0  0
  8 31  1  0  0  0  0
  8 32  1  0  0  0  0
  9 10  1  0  0  0  0
  9 11  1  0  0  0  0
  9 33  1  0  0  0  0
 10 34  1  0  0  0  0
 11 12  1  0  0  0  0
 11 35  1  0  0  0  0
 11 36  1  0  0  0  0
 12 21  1  0  0  0  0
 12 13  1  0  0  0  0
 13 14  1  0  0  0  0
 13 37  1  0  0  0  0
 13 38  1  0  0  0  0
 14 15  1  0  0  0  0
 14 39  1  0  0  0  0
 14 40  1  0  0  0  0
 15 16  1  0  0  0  0
 16 17  1  0  0  0  0
 16 21  1  0  0  0  0
 16 41  1  0  0  0  0
 17 18  1  0  0  0  0
 17 42  1  0  0  0  0
 17 43  1  0  0  0  0
 18 19  1  0  0  0  0
 18 20  1  0  0  0  0
 18 56  1  0  0  0  0
 19 44  1  0  0  0  0
 19 45  1  0  0  0  0
 19 46  1  0  0  0  0
 20 47  1  0  0  0  0
 20 48  1  0  0  0  0
 20 49  1  0  0  0  0
 21 50  1  0  0  0  0
 21 51  1  0  0  0  0
 22 23  1  0  0  0  0
 23 24  2  0  0  0  0
 23 52  1  0  0  0  0
 24 25  1  0  0  0  0
 25 53  1  0  0  0  0
 25 54  1  0  0  0  0
 25 55  1  0  0  0  0
M  CHG  1  18   1
M  END
> <s_m_source_file>
AV-unprocessed.smi

> <i_m_source_file_index>
1005

> <i_lp_mmshare_version>
43012

> <i_f3d_flags>
0

> <s_epik_input>
W0NIM11jKFtjSF0xKWMoW0NIM10pW2NIXWMoYzEyKW4oW2NIXW4yKVtDSDJdW0NASF0oW09IXSlbQ0gyXU4zW0NIMl1bQ0gyXU9bQ0BIXShbQ0gyXTMpW0NIMl1OKFtDSDNdKVtDSDNd

> <s_epik_cmdline>
J2VwaWtfcHl0aG9uJywgJy1waCcsICc3LjAnLCAnLXRuJywgJzgnLCAnLW1hJywgJzIwMCcsICctbWV0YWxfYmluZGluZycsICctaW1hZScsICc8aW5maWxlLm1hZT4nLCAnLW9tYWUnLCAnPG91dGZpbGUubWFlPic=

> <r_epik_Ionization_Penalty>
0.226781

> <r_epik_Ionization_Penalty_Charging>
0.00915946

> <r_epik_Ionization_Penalty_Neutral>
0.217622

> <r_epik_State_Penalty>
0.173018

> <r_epik_Charging_Adjusted_Penalty>
0.182178

> <i_epik_Tot_Q>
1

> <i_epik_Tot_abs_Q>
1

> <r_epik_Metal_State_Penalty>
0.0905268

> <b_epik_Metal_Only>
0

> <s_lp_Force_Field>
OPLS_2005

> <r_lp_Energy>
38.1997

> <b_lp_Chiralities_Consistent>
1

> <s_lp_Variant>
AV-unprocessed.smi:1005-4

> <Gold.Version>
5.8.1

> <Gold.Id.Protein>
6NUR|6NUR_protein|mol2

> <Gold.PLP.Fitness>
55.7726

> <Gold.PLP.PLP>
-43.7905

> <Gold.PLP.part.hbond>
-4.0000

> <Gold.PLP.part.metal>
0.0000

> <Gold.PLP.part.buried>
-5.3047

> <Gold.PLP.part.nonpolar>
-34.2699

> <Gold.PLP.part.repulsive>
0.1716

> <Gold.PLP.ligand.clash>
0.1124

> <Gold.PLP.ligand.torsion>
1.0169

> <Gold.PLP.Chemscore.Hbond>
4.6760

> <Gold.PLP.Chemscore.CHOScore>
0.0000

> <Gold.PLP.Chemscore.Metal>
0.0000

> <Gold.Chemscore.Hbonds>
donor molecule, donor type, donor heavy atom, donor atom, acceptor molecule, acceptor atom, score
      L1  H    10    34       P1  7949  0.28
      L1  H    18    56       P1  7948  2.00
      P1  H  7989  7998       L1     5  0.30
      P1  H 10752 10764       L1    10  1.00

> <Gold.PLP.Chemscore.Internal.Correction>
0.1002

> <Gold.Rescore>
     Score         DG    S(hbond)    S(metal)    S(lipo)     H(rot)  DE(clash)    DE(int)     intcor
     18.37     -20.68       2.74        0.00     104.63       2.41       0.01       2.29       ----

> <Gold.Chemscore.Fitness>
18.3746

> <Gold.Chemscore.DG>
-20.6813

> <Gold.Chemscore.ZeroCoef>
-5.4800

> <Gold.Chemscore.Hbond>
2.7362

> <Gold.Chemscore.Metal>
0.0000

> <Gold.Chemscore.Lipo>
104.6262

> <Gold.Chemscore.Internal_Hbond>
0.0000

> <Gold.Chemscore.DEClash>
0.0144

> <Gold.Chemscore.DEInternal>
2.2923

> <Gold.Chemscore.Rot>
2.4136

> <Gold.Chemscore.Internal.Correction>
   9.000000E+99

> <Gold.Chemscore.Hbonds>
donor molecule, donor type, donor heavy atom, donor atom, acceptor molecule, acceptor atom, score
      L1  H    10    34       P1  7949  0.03
      L1  H    18    56       P1  7948  1.00
      P1  H  7989  7998       L1     5  0.01
      P1  H 10752 10764       L1    10  0.58

> <Gold.Chemscore.Hbond.Weighted>
-9.1388

> <Gold.Chemscore.Metal.Weighted>
-0.0000

> <Gold.Chemscore.Lipo.Weighted>
-12.2413

> <Gold.Chemscore.Internal_Hbond.Weighted>
0.0000

> <Gold.Chemscore.DEClash.Weighted>
0.0144

> <Gold.Chemscore.DEInternal.Weighted>
2.2923

> <Gold.Chemscore.Rot.Weighted>
6.1788

> <Gold.Chemscore.Internal.Correction.Weighted>
   9.000000E+99

> <Gold.Protein.RotatedTorsions>
[ 6907 6896 6895 6894 ] final  -44.63 input  -60.11 | X-H torsion
[ 7974 7965 7964 7962 ] final -161.36 input  175.53 | X-H torsion
[ 8008 7997 7996 7995 ] final  112.00 input   59.86 | X-H torsion
[ 10167 10162 10161 10158 ] final -129.28 input  -65.29 | X-H torsion
[ 10718 10713 10712 10709 ] final -108.92 input   66.30 | X-H torsion
[ 10763 10752 10751 10750 ] final  -79.75 input  -60.55 | X-H torsion
[ 11005 11000 10999 10996 ] final -156.44 input  -57.11 | X-H torsion

> <Gold.Protein.ActiveResidues>
 VAL166  LYS551  ARG553  GLY616  TRP617  ASP618  TYR619  PRO620  LYS621  CYS622 
 ASP623  PHE694  ASN695  SER759  ASP760  ASP761  ALA762  ILE779  LEU786  VAL792 
 PHE793  MET794  SER795  GLU796  ALA797  LYS798  CYS799  TRP800  GLU811  SER814 

> <Gold.Protein.RotatedAtoms>
  150.9307  134.8722  159.7549 H   0  0  0  0  0  0  0  0  0  0  0  0  # atno 6907 bound_to 6896
  152.5036  134.4083  159.9450 H   0  0  0  0  0  0  0  0  0  0  0  0  # atno 6908 bound_to 6896
  151.4110  133.3687  159.2779 H   0  0  0  0  0  0  0  0  0  0  0  0  # atno 6909 bound_to 6896
  144.7394  140.3409  143.6135 H   0  0  0  0  0  0  0  0  0  0  0  0  # atno 7974 bound_to 7965
  156.2162  140.3008  155.9846 H   0  0  0  0  0  0  0  0  0  0  0  0  # atno 8008 bound_to 7997
  155.2598  140.0429  157.3013 H   0  0  0  0  0  0  0  0  0  0  0  0  # atno 8009 bound_to 7997
  154.5772  140.2365  155.8114 H   0  0  0  0  0  0  0  0  0  0  0  0  # atno 8010 bound_to 7997
  139.9415  143.6158  152.2502 H   0  0  0  0  0  0  0  0  0  0  0  0  # atno 10167 bound_to 10162
  156.0510  130.5738  150.8029 H   0  0  0  0  0  0  0  0  0  0  0  0  # atno 10718 bound_to 10713
  154.5425  135.5685  153.6852 H   0  0  0  0  0  0  0  0  0  0  0  0  # atno 10763 bound_to 10752
  152.9967  135.6231  154.2482 H   0  0  0  0  0  0  0  0  0  0  0  0  # atno 10764 bound_to 10752
  154.2414  135.2862  155.2832 H   0  0  0  0  0  0  0  0  0  0  0  0  # atno 10765 bound_to 10752
  140.6755  134.4201  157.5229 H   0  0  0  0  0  0  0  0  0  0  0  0  # atno 11005 bound_to 11000
  145.7375  139.1754  143.2395 LP  0  0  0  0  0  0  0  0  0  0  0  0  # atno 17320 bound_to 7965
  146.1159  140.7370  142.9481 LP  0  0  0  0  0  0  0  0  0  0  0  0  # atno 17321 bound_to 7965
  139.6701  144.7661  151.1799 LP  0  0  0  0  0  0  0  0  0  0  0  0  # atno 17342 bound_to 10162
  140.7609  143.5878  150.8827 LP  0  0  0  0  0  0  0  0  0  0  0  0  # atno 17343 bound_to 10162
  157.5436  131.0941  150.9793 LP  0  0  0  0  0  0  0  0  0  0  0  0  # atno 17370 bound_to 10713
  157.0069  130.5622  149.5317 LP  0  0  0  0  0  0  0  0  0  0  0  0  # atno 17371 bound_to 10713
  139.8968  134.8651  156.2072 LP  0  0  0  0  0  0  0  0  0  0  0  0  # atno 17394 bound_to 11000
  141.0359  133.6964  156.1511 LP  0  0  0  0  0  0  0  0  0  0  0  0  # atno 17395 bound_to 11000

$$$$
