AV-unprocessed.smi:3311|AV-procd|sdf|12721|dock10
  -GOLD-   2272019 63D 1   1.00000     0.00000
 Structure written by MMmdl.
 44 45  0  0  0  0  0  0  0  0  2 V2000
  150.6234  140.6981  158.2682 C   0  0  0  0  0  0  0  0  0  0  0  0
  150.3767  142.2124  158.1420 C   0  0  2  0  0  0  0  0  0  0  0  0
  149.7631  142.4849  156.8234 N   0  3  0  0  0  0  0  0  0  0  0  0
  148.7065  141.5321  156.4174 C   0  0  0  0  0  0  0  0  0  0  0  0
  148.6393  141.3497  154.8816 C   0  0  0  0  0  0  0  0  0  0  0  0
  148.5913  142.6467  154.3168 O   0  0  0  0  0  0  0  0  0  0  0  0
  149.8629  140.6064  154.2913 C   0  0  0  0  0  0  0  0  0  0  0  0
  149.8784  139.1142  154.6672 C   0  0  0  0  0  0  0  0  0  0  0  0
  148.5762  138.4206  154.2378 C   0  0  0  0  0  0  0  0  0  0  0  0
  147.3434  139.1332  154.8157 C   0  0  0  0  0  0  0  0  0  0  0  0
  147.3390  140.6297  154.4529 C   0  0  0  0  0  0  0  0  0  0  0  0
  151.6680  143.0550  158.3284 C   0  0  1  0  0  0  0  0  0  0  0  0
  151.4019  144.5726  158.3347 C   0  0  0  0  0  0  0  0  0  0  0  0
  152.3990  142.6752  159.5309 N   0  0  0  0  0  0  0  0  0  0  0  0
  153.6475  142.0949  159.6255 C   0  0  0  0  0  0  0  0  0  0  0  0
  153.9212  141.9281  160.9529 C   0  0  0  0  0  0  0  0  0  0  0  0
  152.7676  142.4472  161.6041 C   0  0  0  0  0  0  0  0  0  0  0  0
  151.8603  142.8951  160.7519 N   0  0  0  0  0  0  0  0  0  0  0  0
  150.9803  140.4256  159.2617 H   0  0  0  0  0  0  0  0  0  0  0  0
  151.3623  140.3550  157.5434 H   0  0  0  0  0  0  0  0  0  0  0  0
  149.7042  140.1373  158.0959 H   0  0  0  0  0  0  0  0  0  0  0  0
  149.6676  142.4852  158.9258 H   0  0  0  0  0  0  0  0  0  0  0  0
  149.3676  143.4145  156.8362 H   0  0  0  0  0  0  0  0  0  0  0  0
  148.8961  140.5796  156.9121 H   0  0  0  0  0  0  0  0  0  0  0  0
  147.7446  141.8875  156.7900 H   0  0  0  0  0  0  0  0  0  0  0  0
  148.3851  143.2659  155.0012 H   0  0  0  0  0  0  0  0  0  0  0  0
  149.8421  140.6845  153.2029 H   0  0  0  0  0  0  0  0  0  0  0  0
  150.7961  141.0769  154.6019 H   0  0  0  0  0  0  0  0  0  0  0  0
  150.7293  138.6237  154.1934 H   0  0  0  0  0  0  0  0  0  0  0  0
  150.0217  138.9993  155.7419 H   0  0  0  0  0  0  0  0  0  0  0  0
  148.5119  138.4099  153.1489 H   0  0  0  0  0  0  0  0  0  0  0  0
  148.5870  137.3779  154.5561 H   0  0  0  0  0  0  0  0  0  0  0  0
  146.4358  138.6612  154.4382 H   0  0  0  0  0  0  0  0  0  0  0  0
  147.3203  139.0083  155.8985 H   0  0  0  0  0  0  0  0  0  0  0  0
  146.4694  141.1158  154.8975 H   0  0  0  0  0  0  0  0  0  0  0  0
  147.2125  140.7188  153.3726 H   0  0  0  0  0  0  0  0  0  0  0  0
  152.3280  142.8443  157.4853 H   0  0  0  0  0  0  0  0  0  0  0  0
  150.9933  144.9118  157.3829 H   0  0  0  0  0  0  0  0  0  0  0  0
  152.3240  145.1296  158.5036 H   0  0  0  0  0  0  0  0  0  0  0  0
  150.6975  144.8529  159.1186 H   0  0  0  0  0  0  0  0  0  0  0  0
  154.2316  141.8502  158.7506 H   0  0  0  0  0  0  0  0  0  0  0  0
  154.8108  141.5019  161.3923 H   0  0  0  0  0  0  0  0  0  0  0  0
  152.5642  142.5117  162.6629 H   0  0  0  0  0  0  0  0  0  0  0  0
  150.4904  142.4578  156.1232 H   0  0  0  0  0  0  0  0  0  0  0  0
  1  2  1  0  0  0  0
  1 19  1  0  0  0  0
  1 20  1  0  0  0  0
  1 21  1  0  0  0  0
  2  3  1  0  0  0  0
  2 12  1  0  0  0  0
  2 22  1  0  0  0  0
  3  4  1  0  0  0  0
  3 23  1  0  0  0  0
  3 44  1  0  0  0  0
  4  5  1  0  0  0  0
  4 24  1  0  0  0  0
  4 25  1  0  0  0  0
  5 11  1  0  0  0  0
  5  6  1  0  0  0  0
  5  7  1  0  0  0  0
  6 26  1  0  0  0  0
  7  8  1  0  0  0  0
  7 27  1  0  0  0  0
  7 28  1  0  0  0  0
  8  9  1  0  0  0  0
  8 29  1  0  0  0  0
  8 30  1  0  0  0  0
  9 10  1  0  0  0  0
  9 31  1  0  0  0  0
  9 32  1  0  0  0  0
 10 11  1  0  0  0  0
 10 33  1  0  0  0  0
 10 34  1  0  0  0  0
 11 35  1  0  0  0  0
 11 36  1  0  0  0  0
 12 13  1  0  0  0  0
 12 14  1  0  0  0  0
 12 37  1  0  0  0  0
 13 38  1  0  0  0  0
 13 39  1  0  0  0  0
 13 40  1  0  0  0  0
 14 18  1  0  0  0  0
 14 15  1  0  0  0  0
 15 16  2  0  0  0  0
 15 41  1  0  0  0  0
 16 17  1  0  0  0  0
 16 42  1  0  0  0  0
 17 18  2  0  0  0  0
 17 43  1  0  0  0  0
M  CHG  1   3   1
M  END
> <s_m_source_file>
AV-unprocessed.smi

> <i_m_source_file_index>
3311

> <i_lp_mmshare_version>
43012

> <i_f3d_flags>
0

> <s_epik_input>
bjFbY0hdW2NIXVtjSF1uMVtDQEBIXShbQ0gzXSlbQ0BIXShbQ0gzXSlbTkhdW0NIMl1DMihbT0hdKVtDSDJdW0NIMl1bQ0gyXVtDSDJdW0NIMl0y

> <s_epik_cmdline>
J2VwaWtfcHl0aG9uJywgJy1waCcsICc3LjAnLCAnLXRuJywgJzgnLCAnLW1hJywgJzIwMCcsICctbWV0YWxfYmluZGluZycsICctaW1hZScsICc8aW5maWxlLm1hZT4nLCAnLW9tYWUnLCAnPG91dGZpbGUubWFlPic=

> <r_lp_tautomer_probability>
1

> <r_epik_Ionization_Penalty>
0.0141403

> <r_epik_Ionization_Penalty_Charging>
0.0141276

> <r_epik_Ionization_Penalty_Neutral>
1.27139e-05

> <r_epik_State_Penalty>
0.0110334

> <r_epik_Charging_Adjusted_Penalty>
0.025161

> <i_epik_Tot_Q>
1

> <i_epik_Tot_abs_Q>
1

> <r_epik_Metal_State_Penalty>
0.0110573

> <b_epik_Metal_Only>
0

> <s_lp_Force_Field>
OPLS_2005

> <r_lp_Energy>
22.4961

> <b_lp_Chiralities_Consistent>
1

> <s_lp_Variant>
AV-unprocessed.smi:3311-3

> <Gold.Version>
5.8.1

> <Gold.Id.Protein>
6NUR|6NUR_protein|mol2

> <Gold.PLP.Fitness>
47.8304

> <Gold.PLP.PLP>
-39.3238

> <Gold.PLP.part.hbond>
-3.8310

> <Gold.PLP.part.metal>
0.0000

> <Gold.PLP.part.buried>
-1.6453

> <Gold.PLP.part.nonpolar>
-33.6778

> <Gold.PLP.part.repulsive>
0.1176

> <Gold.PLP.ligand.clash>
0.0000

> <Gold.PLP.ligand.torsion>
0.4838

> <Gold.PLP.Chemscore.Hbond>
3.1110

> <Gold.PLP.Chemscore.CHOScore>
0.0000

> <Gold.PLP.Chemscore.Metal>
0.0000

> <Gold.Chemscore.Hbonds>
donor molecule, donor type, donor heavy atom, donor atom, acceptor molecule, acceptor atom, score
      L1  H     3    23       P1  8028  1.60
      L1  H     6    26       P1  8028  0.85
      P1  H  8011  8017       L1     6  0.02

> <Gold.PLP.Chemscore.Internal.Correction>
0.1412

> <Gold.Rescore>
     Score         DG    S(hbond)    S(metal)    S(lipo)     H(rot)  DE(clash)    DE(int)     intcor
     18.47     -19.10       2.23        0.00      99.54       2.14       0.07       0.56       ----

> <Gold.Chemscore.Fitness>
18.4720

> <Gold.Chemscore.DG>
-19.1045

> <Gold.Chemscore.ZeroCoef>
-5.4800

> <Gold.Chemscore.Hbond>
2.2343

> <Gold.Chemscore.Metal>
0.0000

> <Gold.Chemscore.Lipo>
99.5424

> <Gold.Chemscore.Internal_Hbond>
0.0000

> <Gold.Chemscore.DEClash>
0.0710

> <Gold.Chemscore.DEInternal>
0.5615

> <Gold.Chemscore.Rot>
2.1424

> <Gold.Chemscore.Internal.Correction>
   9.000000E+99

> <Gold.Chemscore.Hbonds>
donor molecule, donor type, donor heavy atom, donor atom, acceptor molecule, acceptor atom, score
      L1  H     3    23       P1  8028  0.77
      L1  H     6    26       P1  8028  0.82
      P1  H  8011  8017       L1     6  0.02

> <Gold.Chemscore.Hbond.Weighted>
-7.4627

> <Gold.Chemscore.Metal.Weighted>
-0.0000

> <Gold.Chemscore.Lipo.Weighted>
-11.6465

> <Gold.Chemscore.Internal_Hbond.Weighted>
0.0000

> <Gold.Chemscore.DEClash.Weighted>
0.0710

> <Gold.Chemscore.DEInternal.Weighted>
0.5615

> <Gold.Chemscore.Rot.Weighted>
5.4846

> <Gold.Chemscore.Internal.Correction.Weighted>
   9.000000E+99

> <Gold.Protein.RotatedTorsions>
[ 6907 6896 6895 6894 ] final  122.57 input  -60.11 | X-H torsion
[ 7974 7965 7964 7962 ] final  148.42 input  175.53 | X-H torsion
[ 8008 7997 7996 7995 ] final  -28.29 input   59.86 | X-H torsion
[ 10167 10162 10161 10158 ] final  116.51 input  -65.29 | X-H torsion
[ 10718 10713 10712 10709 ] final   50.54 input   66.30 | X-H torsion
[ 10763 10752 10751 10750 ] final  -28.02 input  -60.55 | X-H torsion
[ 11005 11000 10999 10996 ] final  -35.10 input  -57.11 | X-H torsion

> <Gold.Protein.ActiveResidues>
 VAL166  LYS551  ARG553  GLY616  TRP617  ASP618  TYR619  PRO620  LYS621  CYS622 
 ASP623  PHE694  ASN695  SER759  ASP760  ASP761  ALA762  ILE779  LEU786  VAL792 
 PHE793  MET794  SER795  GLU796  ALA797  LYS798  CYS799  TRP800  GLU811  SER814 

> <Gold.Protein.RotatedAtoms>
  152.4232  133.7151  159.6500 H   0  0  0  0  0  0  0  0  0  0  0  0  # atno 6907 bound_to 6896
  150.8108  133.8414  159.3189 H   0  0  0  0  0  0  0  0  0  0  0  0  # atno 6908 bound_to 6896
  151.6125  135.1041  160.0136 H   0  0  0  0  0  0  0  0  0  0  0  0  # atno 6909 bound_to 6896
  144.8515  139.6152  143.5971 H   0  0  0  0  0  0  0  0  0  0  0  0  # atno 7974 bound_to 7965
  154.4339  140.1849  156.1067 H   0  0  0  0  0  0  0  0  0  0  0  0  # atno 8008 bound_to 7997
  156.0250  140.3337  155.7053 H   0  0  0  0  0  0  0  0  0  0  0  0  # atno 8009 bound_to 7997
  155.5922  140.0632  157.2746 H   0  0  0  0  0  0  0  0  0  0  0  0  # atno 8010 bound_to 7997
  139.6242  144.7106  151.2568 H   0  0  0  0  0  0  0  0  0  0  0  0  # atno 10167 bound_to 10162
  157.4895  130.8367  149.8186 H   0  0  0  0  0  0  0  0  0  0  0  0  # atno 10718 bound_to 10713
  153.7416  135.6932  153.4966 H   0  0  0  0  0  0  0  0  0  0  0  0  # atno 10763 bound_to 10752
  153.2065  135.4418  155.0328 H   0  0  0  0  0  0  0  0  0  0  0  0  # atno 10764 bound_to 10752
  154.8219  135.3426  154.6941 H   0  0  0  0  0  0  0  0  0  0  0  0  # atno 10765 bound_to 10752
  140.9769  133.7078  156.1618 H   0  0  0  0  0  0  0  0  0  0  0  0  # atno 11005 bound_to 11000
  146.2789  139.6824  142.9243 LP  0  0  0  0  0  0  0  0  0  0  0  0  # atno 17320 bound_to 7965
  145.4490  141.0427  143.2815 LP  0  0  0  0  0  0  0  0  0  0  0  0  # atno 17321 bound_to 7965
  140.7401  143.6598  150.8174 LP  0  0  0  0  0  0  0  0  0  0  0  0  # atno 17342 bound_to 10162
  140.0214  143.5539  152.2799 LP  0  0  0  0  0  0  0  0  0  0  0  0  # atno 17343 bound_to 10162
  156.0165  130.3811  150.2094 LP  0  0  0  0  0  0  0  0  0  0  0  0  # atno 17370 bound_to 10713
  157.0282  130.9999  151.3320 LP  0  0  0  0  0  0  0  0  0  0  0  0  # atno 17371 bound_to 10713
  140.7245  134.4322  157.5572 LP  0  0  0  0  0  0  0  0  0  0  0  0  # atno 17394 bound_to 11000
  139.8934  134.8731  156.2224 LP  0  0  0  0  0  0  0  0  0  0  0  0  # atno 17395 bound_to 11000

$$$$
