AV-unprocessed.smi:2965|AV-procd|sdf|11323|dock7
  -GOLD-   2272016233D 1   1.00000     0.00000
 Structure written by MMmdl.
 36 37  0  0  0  0  0  0  0  0  1 V2000
  154.4237  139.3773  158.5894 O   0  0  0  0  0  0  0  0  0  0  0  0
  154.4317  139.5552  159.8082 C   0  0  0  0  0  0  0  0  0  0  0  0
  155.0633  140.8171  160.4123 C   0  0  0  0  0  0  0  0  0  0  0  0
  154.0665  141.8067  160.8542 N   0  0  0  0  0  0  0  0  0  0  0  0
  153.1874  142.3128  159.8768 C   0  0  0  0  0  0  0  0  0  0  0  0
  152.2369  143.2273  160.1489 C   0  0  0  0  0  0  0  0  0  0  0  0
  151.2638  143.7070  159.0830 C   0  0  0  0  0  0  0  0  0  0  0  0
  150.3491  144.5282  159.5991 F   0  0  0  0  0  0  0  0  0  0  0  0
  151.9235  144.3656  158.1311 F   0  0  0  0  0  0  0  0  0  0  0  0
  150.6316  142.6802  158.5136 F   0  0  0  0  0  0  0  0  0  0  0  0
  152.1327  143.6583  161.5294 C   0  0  0  0  0  0  0  0  0  0  0  0
  152.9566  143.1738  162.4791 C   0  0  0  0  0  0  0  0  0  0  0  0
  153.9961  142.1914  162.1640 C   0  0  0  0  0  0  0  0  0  0  0  0
  154.7549  141.7411  163.0231 O   0  0  0  0  0  0  0  0  0  0  0  0
  153.9131  138.6808  160.6836 N   0  0  0  0  0  0  0  0  0  0  0  0
  153.2356  137.4360  160.3365 C   0  0  0  0  0  0  0  0  0  0  0  0
  151.7339  137.6578  160.0867 C   0  0  1  0  0  0  0  0  0  0  0  0
  151.3907  138.4041  158.7975 C   0  0  0  0  0  0  0  0  0  0  0  0
  149.9634  137.9643  158.5673 C   0  0  0  0  0  0  0  0  0  0  0  0
  150.0042  136.5049  159.0146 C   0  0  0  0  0  0  0  0  0  0  0  0
  151.0631  136.4071  159.9651 O   0  0  0  0  0  0  0  0  0  0  0  0
  155.7073  140.5390  161.2490 H   0  0  0  0  0  0  0  0  0  0  0  0
  155.7338  141.2507  159.6690 H   0  0  0  0  0  0  0  0  0  0  0  0
  153.3279  141.8995  158.8885 H   0  0  0  0  0  0  0  0  0  0  0  0
  151.3830  144.3842  161.8074 H   0  0  0  0  0  0  0  0  0  0  0  0
  152.8504  143.5179  163.4976 H   0  0  0  0  0  0  0  0  0  0  0  0
  153.9724  138.9048  161.6664 H   0  0  0  0  0  0  0  0  0  0  0  0
  153.7022  136.9605  159.4722 H   0  0  0  0  0  0  0  0  0  0  0  0
  153.3656  136.7457  161.1703 H   0  0  0  0  0  0  0  0  0  0  0  0
  151.2903  138.1845  160.9334 H   0  0  0  0  0  0  0  0  0  0  0  0
  151.4960  139.4857  158.8885 H   0  0  0  0  0  0  0  0  0  0  0  0
  152.0229  138.0652  157.9755 H   0  0  0  0  0  0  0  0  0  0  0  0
  149.2906  138.5358  159.2084 H   0  0  0  0  0  0  0  0  0  0  0  0
  149.6369  138.0855  157.5342 H   0  0  0  0  0  0  0  0  0  0  0  0
  149.0558  136.1797  159.4432 H   0  0  0  0  0  0  0  0  0  0  0  0
  150.2359  135.8523  158.1722 H   0  0  0  0  0  0  0  0  0  0  0  0
  1  2  2  0  0  0  0
  2  3  1  0  0  0  0
  2 15  1  0  0  0  0
  3  4  1  0  0  0  0
  3 22  1  0  0  0  0
  3 23  1  0  0  0  0
  4 13  1  0  0  0  0
  4  5  1  0  0  0  0
  5  6  2  0  0  0  0
  5 24  1  0  0  0  0
  6  7  1  0  0  0  0
  6 11  1  0  0  0  0
  7  8  1  0  0  0  0
  7  9  1  0  0  0  0
  7 10  1  0  0  0  0
 11 12  2  0  0  0  0
 11 25  1  0  0  0  0
 12 13  1  0  0  0  0
 12 26  1  0  0  0  0
 13 14  2  0  0  0  0
 15 16  1  0  0  0  0
 15 27  1  0  0  0  0
 16 17  1  0  0  0  0
 16 28  1  0  0  0  0
 16 29  1  0  0  0  0
 17 21  1  0  0  0  0
 17 18  1  0  0  0  0
 17 30  1  0  0  0  0
 18 19  1  0  0  0  0
 18 31  1  0  0  0  0
 18 32  1  0  0  0  0
 19 20  1  0  0  0  0
 19 33  1  0  0  0  0
 19 34  1  0  0  0  0
 20 21  1  0  0  0  0
 20 35  1  0  0  0  0
 20 36  1  0  0  0  0
M  END
> <s_m_source_file>
AV-unprocessed.smi

> <i_m_source_file_index>
2965

> <i_lp_mmshare_version>
43012

> <i_f3d_flags>
0

> <s_epik_input>
TzFbQ0gyXVtDSDJdW0NIMl1bQ0BIXTFbQ0gyXVtOSF1DKD1PKVtDSDJdbjJbY0hdYyhDKEYpKEYpRilbY0hdW2NIXWMyPU8=

> <s_epik_cmdline>
J2VwaWtfcHl0aG9uJywgJy1waCcsICc3LjAnLCAnLXRuJywgJzgnLCAnLW1hJywgJzIwMCcsICctbWV0YWxfYmluZGluZycsICctaW1hZScsICc8aW5maWxlLm1hZT4nLCAnLW9tYWUnLCAnPG91dGZpbGUubWFlPic=

> <r_lp_tautomer_probability>
1

> <r_epik_Ionization_Penalty>
4.53327e-08

> <r_epik_Ionization_Penalty_Charging>
1.84737e-08

> <r_epik_Ionization_Penalty_Neutral>
2.6859e-08

> <r_epik_State_Penalty>
-0

> <r_epik_Charging_Adjusted_Penalty>
1.84737e-08

> <i_epik_Tot_Q>
0

> <i_epik_Tot_abs_Q>
0

> <r_epik_Metal_State_Penalty>
-0

> <b_epik_Metal_Only>
0

> <s_lp_Force_Field>
OPLS_2005

> <r_lp_Energy>
29.2256

> <b_lp_Chiralities_Consistent>
1

> <s_lp_Variant>
AV-unprocessed.smi:2965-2

> <Gold.Version>
5.8.1

> <Gold.Id.Protein>
6NUR|6NUR_protein|mol2

> <Gold.PLP.Fitness>
54.0002

> <Gold.PLP.PLP>
-48.9188

> <Gold.PLP.part.hbond>
-2.4122

> <Gold.PLP.part.metal>
0.0000

> <Gold.PLP.part.buried>
-4.2356

> <Gold.PLP.part.nonpolar>
-43.7886

> <Gold.PLP.part.repulsive>
0.0585

> <Gold.PLP.ligand.clash>
0.0000

> <Gold.PLP.ligand.torsion>
0.4972

> <Gold.PLP.Chemscore.Hbond>
2.0000

> <Gold.PLP.Chemscore.CHOScore>
0.0000

> <Gold.PLP.Chemscore.Metal>
0.0000

> <Gold.Chemscore.Hbonds>
donor molecule, donor type, donor heavy atom, donor atom, acceptor molecule, acceptor atom, score
      P1  H  6896  6907       L1    21  0.35
      P1  H  7997  8009       L1     1  1.00

> <Gold.PLP.Chemscore.Internal.Correction>
0.0758

> <Gold.Rescore>
     Score         DG    S(hbond)    S(metal)    S(lipo)     H(rot)  DE(clash)    DE(int)     intcor
     16.90     -17.70       1.99        0.00      88.67       1.87       0.39       0.41       ----

> <Gold.Chemscore.Fitness>
16.8972

> <Gold.Chemscore.DG>
-17.7033

> <Gold.Chemscore.ZeroCoef>
-5.4800

> <Gold.Chemscore.Hbond>
1.9855

> <Gold.Chemscore.Metal>
0.0000

> <Gold.Chemscore.Lipo>
88.6665

> <Gold.Chemscore.Internal_Hbond>
0.0000

> <Gold.Chemscore.DEClash>
0.3917

> <Gold.Chemscore.DEInternal>
0.4145

> <Gold.Chemscore.Rot>
1.8681

> <Gold.Chemscore.Internal.Correction>
   9.000000E+99

> <Gold.Chemscore.Hbonds>
donor molecule, donor type, donor heavy atom, donor atom, acceptor molecule, acceptor atom, score
      P1  H  6896  6907       L1    21  0.05
      P1  H  7997  8009       L1     1  0.97

> <Gold.Chemscore.Hbond.Weighted>
-6.6315

> <Gold.Chemscore.Metal.Weighted>
-0.0000

> <Gold.Chemscore.Lipo.Weighted>
-10.3740

> <Gold.Chemscore.Internal_Hbond.Weighted>
0.0000

> <Gold.Chemscore.DEClash.Weighted>
0.3917

> <Gold.Chemscore.DEInternal.Weighted>
0.4145

> <Gold.Chemscore.Rot.Weighted>
4.7822

> <Gold.Chemscore.Internal.Correction.Weighted>
   9.000000E+99

> <Gold.Protein.RotatedTorsions>
[ 6907 6896 6895 6894 ] final  -23.90 input  -60.11 | X-H torsion
[ 7974 7965 7964 7962 ] final   48.54 input  175.53 | X-H torsion
[ 8008 7997 7996 7995 ] final  118.05 input   59.86 | X-H torsion
[ 10167 10162 10161 10158 ] final  -76.67 input  -65.29 | X-H torsion
[ 10718 10713 10712 10709 ] final   22.23 input   66.30 | X-H torsion
[ 10763 10752 10751 10750 ] final -125.98 input  -60.55 | X-H torsion
[ 11005 11000 10999 10996 ] final   77.18 input  -57.11 | X-H torsion

> <Gold.Protein.ActiveResidues>
 VAL166  LYS551  ARG553  GLY616  TRP617  ASP618  TYR619  PRO620  LYS621  CYS622 
 ASP623  PHE694  ASN695  SER759  ASP760  ASP761  ALA762  ILE779  LEU786  VAL792 
 PHE793  MET794  SER795  GLU796  ALA797  LYS798  CYS799  TRP800  GLU811  SER814 

> <Gold.Protein.RotatedAtoms>
  151.1972  135.0427  159.8856 H   0  0  0  0  0  0  0  0  0  0  0  0  # atno 6907 bound_to 6896
  152.5435  134.0890  159.8278 H   0  0  0  0  0  0  0  0  0  0  0  0  # atno 6908 bound_to 6896
  151.1026  133.5185  159.2641 H   0  0  0  0  0  0  0  0  0  0  0  0  # atno 6909 bound_to 6896
  146.0194  139.4634  142.9906 H   0  0  0  0  0  0  0  0  0  0  0  0  # atno 7974 bound_to 7965
  156.2526  140.2883  156.0774 H   0  0  0  0  0  0  0  0  0  0  0  0  # atno 8008 bound_to 7997
  155.1604  140.0399  157.2858 H   0  0  0  0  0  0  0  0  0  0  0  0  # atno 8009 bound_to 7997
  154.6397  140.2519  155.7343 H   0  0  0  0  0  0  0  0  0  0  0  0  # atno 8010 bound_to 7997
  140.4837  143.2396  151.8018 H   0  0  0  0  0  0  0  0  0  0  0  0  # atno 10167 bound_to 10162
  157.1494  130.6668  149.6007 H   0  0  0  0  0  0  0  0  0  0  0  0  # atno 10718 bound_to 10713
  154.8741  135.4011  154.3357 H   0  0  0  0  0  0  0  0  0  0  0  0  # atno 10763 bound_to 10752
  153.4164  135.7022  153.6329 H   0  0  0  0  0  0  0  0  0  0  0  0  # atno 10764 bound_to 10752
  153.5010  135.3727  155.2510 H   0  0  0  0  0  0  0  0  0  0  0  0  # atno 10765 bound_to 10752
  139.9266  134.7661  156.1489 H   0  0  0  0  0  0  0  0  0  0  0  0  # atno 11005 bound_to 11000
  145.7217  141.0073  143.1399 LP  0  0  0  0  0  0  0  0  0  0  0  0  # atno 17320 bound_to 7965
  144.6984  139.8878  143.7451 LP  0  0  0  0  0  0  0  0  0  0  0  0  # atno 17321 bound_to 7965
  139.4838  144.4740  151.9390 LP  0  0  0  0  0  0  0  0  0  0  0  0  # atno 17342 bound_to 10162
  140.3825  144.2718  150.5907 LP  0  0  0  0  0  0  0  0  0  0  0  0  # atno 17343 bound_to 10162
  155.9773  130.4750  150.6586 LP  0  0  0  0  0  0  0  0  0  0  0  0  # atno 17370 bound_to 10713
  157.4234  131.0840  151.1109 LP  0  0  0  0  0  0  0  0  0  0  0  0  # atno 17371 bound_to 10713
  141.0827  133.6747  156.2371 LP  0  0  0  0  0  0  0  0  0  0  0  0  # atno 17394 bound_to 11000
  140.6320  134.5254  157.5560 LP  0  0  0  0  0  0  0  0  0  0  0  0  # atno 17395 bound_to 11000

$$$$
