AV-unprocessed.smi:2795|AV-procd|sdf|10780|dock8
  -GOLD-   2272015213D 1   1.00000     0.00000
 Structure written by MMmdl.
 36 37  0  0  0  0  0  0  0  0  1 V2000
  153.0131  142.3624  160.9932 C   0  0  0  0  0  0  0  0  0  0  0  0
  152.3611  142.9702  159.8507 N   0  0  0  0  0  0  0  0  0  0  0  0
  152.4044  144.2608  159.4927 C   0  0  0  0  0  0  0  0  0  0  0  0
  151.7135  144.5508  158.3987 N   0  0  0  0  0  0  0  0  0  0  0  0
  151.1725  143.3266  158.0154 C   0  0  0  0  0  0  0  0  0  0  0  0
  151.5605  142.3426  158.9004 C   0  0  0  0  0  0  0  0  0  0  0  0
  151.2534  140.8767  158.9354 C   0  0  0  0  0  0  0  0  0  0  0  0
  151.6285  140.1190  157.6491 C   0  0  0  0  0  0  0  0  0  0  0  0
  150.5558  140.1748  156.6628 N   0  0  0  0  0  0  0  0  0  0  0  0
  150.7209  140.0567  155.3362 C   0  0  0  0  0  0  0  0  0  0  0  0
  151.8216  139.9078  154.8048 O   0  0  0  0  0  0  0  0  0  0  0  0
  149.4508  140.1199  154.4817 C   0  0  2  0  0  0  0  0  0  0  0  0
  148.7390  141.4841  154.6115 C   0  0  0  0  0  0  0  0  0  0  0  0
  147.4275  141.4805  153.8188 C   0  0  0  0  0  0  0  0  0  0  0  0
  146.5729  140.2824  154.2450 C   0  0  0  0  0  0  0  0  0  0  0  0
  147.3849  138.9815  154.1406 C   0  0  0  0  0  0  0  0  0  0  0  0
  148.5743  139.0830  154.9184 O   0  0  0  0  0  0  0  0  0  0  0  0
  153.6376  143.0946  161.5062 H   0  0  0  0  0  0  0  0  0  0  0  0
  153.6400  141.5337  160.6627 H   0  0  0  0  0  0  0  0  0  0  0  0
  152.2613  141.9881  161.6884 H   0  0  0  0  0  0  0  0  0  0  0  0
  152.9553  145.0067  160.0469 H   0  0  0  0  0  0  0  0  0  0  0  0
  150.5489  143.2496  157.1370 H   0  0  0  0  0  0  0  0  0  0  0  0
  151.7742  140.4306  159.7832 H   0  0  0  0  0  0  0  0  0  0  0  0
  150.1887  140.7429  159.1304 H   0  0  0  0  0  0  0  0  0  0  0  0
  152.5183  140.5629  157.2018 H   0  0  0  0  0  0  0  0  0  0  0  0
  151.8755  139.0795  157.8718 H   0  0  0  0  0  0  0  0  0  0  0  0
  149.6180  140.3038  157.0141 H   0  0  0  0  0  0  0  0  0  0  0  0
  149.7157  139.9441  153.4368 H   0  0  0  0  0  0  0  0  0  0  0  0
  148.5221  141.7003  155.6590 H   0  0  0  0  0  0  0  0  0  0  0  0
  149.3860  142.2860  154.2542 H   0  0  0  0  0  0  0  0  0  0  0  0
  146.8842  142.4124  153.9778 H   0  0  0  0  0  0  0  0  0  0  0  0
  147.6425  141.4191  152.7511 H   0  0  0  0  0  0  0  0  0  0  0  0
  146.2368  140.4195  155.2735 H   0  0  0  0  0  0  0  0  0  0  0  0
  145.6761  140.2195  153.6281 H   0  0  0  0  0  0  0  0  0  0  0  0
  146.7952  138.1419  154.5089 H   0  0  0  0  0  0  0  0  0  0  0  0
  147.6359  138.7624  153.1017 H   0  0  0  0  0  0  0  0  0  0  0  0
  1  2  1  0  0  0  0
  1 18  1  0  0  0  0
  1 19  1  0  0  0  0
  1 20  1  0  0  0  0
  2  6  1  0  0  0  0
  2  3  1  0  0  0  0
  3  4  2  0  0  0  0
  3 21  1  0  0  0  0
  4  5  1  0  0  0  0
  5  6  2  0  0  0  0
  5 22  1  0  0  0  0
  6  7  1  0  0  0  0
  7  8  1  0  0  0  0
  7 23  1  0  0  0  0
  7 24  1  0  0  0  0
  8  9  1  0  0  0  0
  8 25  1  0  0  0  0
  8 26  1  0  0  0  0
  9 10  1  0  0  0  0
  9 27  1  0  0  0  0
 10 11  2  0  0  0  0
 10 12  1  0  0  0  0
 12 17  1  0  0  0  0
 12 13  1  0  0  0  0
 12 28  1  0  0  0  0
 13 14  1  0  0  0  0
 13 29  1  0  0  0  0
 13 30  1  0  0  0  0
 14 15  1  0  0  0  0
 14 31  1  0  0  0  0
 14 32  1  0  0  0  0
 15 16  1  0  0  0  0
 15 33  1  0  0  0  0
 15 34  1  0  0  0  0
 16 17  1  0  0  0  0
 16 35  1  0  0  0  0
 16 36  1  0  0  0  0
M  END
> <s_m_source_file>
AV-unprocessed.smi

> <i_m_source_file_index>
2795

> <i_lp_mmshare_version>
43012

> <i_f3d_flags>
0

> <s_epik_input>
W0NIM11uMVtjSF1uW2NIXWMxW0NIMl1bQ0gyXVtOSF1DKD1PKVtDQEBIXTJbQ0gyXVtDSDJdW0NIMl1bQ0gyXU8y

> <s_epik_cmdline>
J2VwaWtfcHl0aG9uJywgJy1waCcsICc3LjAnLCAnLXRuJywgJzgnLCAnLW1hJywgJzIwMCcsICctbWV0YWxfYmluZGluZycsICctaW1hZScsICc8aW5maWxlLm1hZT4nLCAnLW9tYWUnLCAnPG91dGZpbGUubWFlPic=

> <r_lp_tautomer_probability>
1

> <r_epik_Ionization_Penalty>
0.870864

> <r_epik_Ionization_Penalty_Charging>
0.870864

> <r_epik_Ionization_Penalty_Neutral>
4.06047e-08

> <r_epik_State_Penalty>
0.90819

> <r_epik_Charging_Adjusted_Penalty>
1.77905

> <i_epik_Tot_Q>
0

> <i_epik_Tot_abs_Q>
0

> <r_epik_Metal_State_Penalty>
0.360563

> <b_epik_Metal_Only>
0

> <s_lp_Force_Field>
OPLS_2005

> <r_lp_Energy>
9.35516

> <b_lp_Chiralities_Consistent>
1

> <s_lp_Variant>
AV-unprocessed.smi:2795-3

> <Gold.Version>
5.8.1

> <Gold.Id.Protein>
6NUR|6NUR_protein|mol2

> <Gold.PLP.Fitness>
41.8558

> <Gold.PLP.PLP>
-36.5622

> <Gold.PLP.part.hbond>
-0.9672

> <Gold.PLP.part.metal>
0.0000

> <Gold.PLP.part.buried>
-4.3465

> <Gold.PLP.part.nonpolar>
-31.3641

> <Gold.PLP.part.repulsive>
0.3129

> <Gold.PLP.ligand.clash>
0.0000

> <Gold.PLP.ligand.torsion>
0.3556

> <Gold.PLP.Chemscore.Hbond>
1.0000

> <Gold.PLP.Chemscore.CHOScore>
1.0000

> <Gold.PLP.Chemscore.Metal>
0.0000

> <Gold.Chemscore.Hbonds>
donor molecule, donor type, donor heavy atom, donor atom, acceptor molecule, acceptor atom, score
      P1  H  7989  7998       L1    11  0.98
      L1  C     5    22       P1  8028  0.69

> <Gold.PLP.Chemscore.Internal.Correction>
0.0047

> <Gold.Rescore>
     Score         DG    S(hbond)    S(metal)    S(lipo)     H(rot)  DE(clash)    DE(int)     intcor
     11.24     -11.81       0.81        0.00      69.61       1.76       0.13       0.44       ----

> <Gold.Chemscore.Fitness>
11.2418

> <Gold.Chemscore.DG>
-11.8119

> <Gold.Chemscore.ZeroCoef>
-5.4800

> <Gold.Chemscore.Hbond>
0.8052

> <Gold.Chemscore.Metal>
0.0000

> <Gold.Chemscore.Lipo>
69.6095

> <Gold.Chemscore.Internal_Hbond>
0.0000

> <Gold.Chemscore.DEClash>
0.1334

> <Gold.Chemscore.DEInternal>
0.4367

> <Gold.Chemscore.Rot>
1.7585

> <Gold.Chemscore.Internal.Correction>
   9.000000E+99

> <Gold.Chemscore.Hbonds>
donor molecule, donor type, donor heavy atom, donor atom, acceptor molecule, acceptor atom, score
      P1  H  7989  7998       L1    11  0.28

> <Gold.Chemscore.Hbond.Weighted>
-2.6894

> <Gold.Chemscore.Metal.Weighted>
-0.0000

> <Gold.Chemscore.Lipo.Weighted>
-8.1443

> <Gold.Chemscore.Internal_Hbond.Weighted>
0.0000

> <Gold.Chemscore.DEClash.Weighted>
0.1334

> <Gold.Chemscore.DEInternal.Weighted>
0.4367

> <Gold.Chemscore.Rot.Weighted>
4.5018

> <Gold.Chemscore.Internal.Correction.Weighted>
   9.000000E+99

> <Gold.Protein.RotatedTorsions>
[ 6907 6896 6895 6894 ] final -143.12 input  -60.11 | X-H torsion
[ 7974 7965 7964 7962 ] final   49.44 input  175.53 | X-H torsion
[ 8008 7997 7996 7995 ] final   60.31 input   59.86 | X-H torsion
[ 10167 10162 10161 10158 ] final  -26.43 input  -65.29 | X-H torsion
[ 10718 10713 10712 10709 ] final  149.73 input   66.30 | X-H torsion
[ 10763 10752 10751 10750 ] final  -31.99 input  -60.55 | X-H torsion
[ 11005 11000 10999 10996 ] final  -89.30 input  -57.11 | X-H torsion

> <Gold.Protein.ActiveResidues>
 VAL166  LYS551  ARG553  GLY616  TRP617  ASP618  TYR619  PRO620  LYS621  CYS622 
 ASP623  PHE694  ASN695  SER759  ASP760  ASP761  ALA762  ILE779  LEU786  VAL792 
 PHE793  MET794  SER795  GLU796  ALA797  LYS798  CYS799  TRP800  GLU811  SER814 

> <Gold.Protein.RotatedAtoms>
  151.0961  133.5278  159.2612 H   0  0  0  0  0  0  0  0  0  0  0  0  # atno 6907 bound_to 6896
  151.2127  135.0487  159.8927 H   0  0  0  0  0  0  0  0  0  0  0  0  # atno 6908 bound_to 6896
  152.5439  134.0775  159.8274 H   0  0  0  0  0  0  0  0  0  0  0  0  # atno 6909 bound_to 6896
  146.0108  139.4541  142.9957 H   0  0  0  0  0  0  0  0  0  0  0  0  # atno 7974 bound_to 7965
  155.5802  140.3491  155.4538 H   0  0  0  0  0  0  0  0  0  0  0  0  # atno 8008 bound_to 7997
  156.0379  140.1289  157.0213 H   0  0  0  0  0  0  0  0  0  0  0  0  # atno 8009 bound_to 7997
  154.4379  140.1030  156.6180 H   0  0  0  0  0  0  0  0  0  0  0  0  # atno 8010 bound_to 7997
  140.7283  143.4179  151.0999 H   0  0  0  0  0  0  0  0  0  0  0  0  # atno 10167 bound_to 10162
  157.2924  131.0856  151.1452 H   0  0  0  0  0  0  0  0  0  0  0  0  # atno 10718 bound_to 10713
  153.8064  135.6886  153.4847 H   0  0  0  0  0  0  0  0  0  0  0  0  # atno 10763 bound_to 10752
  153.1656  135.4563  154.9831 H   0  0  0  0  0  0  0  0  0  0  0  0  # atno 10764 bound_to 10752
  154.7985  135.3328  154.7548 H   0  0  0  0  0  0  0  0  0  0  0  0  # atno 10765 bound_to 10752
  141.1587  133.7622  156.9576 H   0  0  0  0  0  0  0  0  0  0  0  0  # atno 11005 bound_to 11000
  145.7344  141.0031  143.1334 LP  0  0  0  0  0  0  0  0  0  0  0  0  # atno 17320 bound_to 7965
  144.6952  139.9023  143.7459 LP  0  0  0  0  0  0  0  0  0  0  0  0  # atno 17321 bound_to 7965
  139.7821  143.8341  152.3139 LP  0  0  0  0  0  0  0  0  0  0  0  0  # atno 17342 bound_to 10162
  139.8295  144.7260  150.9468 LP  0  0  0  0  0  0  0  0  0  0  0  0  # atno 17343 bound_to 10162
  157.2843  130.6765  149.6081 LP  0  0  0  0  0  0  0  0  0  0  0  0  # atno 17370 bound_to 10713
  155.9667  130.4440  150.5445 LP  0  0  0  0  0  0  0  0  0  0  0  0  # atno 17371 bound_to 10713
  140.1215  134.9414  157.2210 LP  0  0  0  0  0  0  0  0  0  0  0  0  # atno 17394 bound_to 11000
  140.3066  134.3071  155.7276 LP  0  0  0  0  0  0  0  0  0  0  0  0  # atno 17395 bound_to 11000

$$$$
