AV-unprocessed.smi:3349|AV-procd|sdf|12935|dock8
  -GOLD-   2272019363D 1   1.00000     0.00000
 Structure written by MMmdl.
 41 42  0  0  0  0  0  0  0  0  2 V2000
  147.3659  132.8098  154.7805 C   0  0  0  0  0  0  0  0  0  0  0  0
  148.2044  133.8789  154.0374 C   0  0  2  0  0  0  0  0  0  0  0  0
  149.1261  134.6416  155.0308 C   0  0  0  0  0  0  0  0  0  0  0  0
  149.7273  135.8432  154.4564 N   0  0  0  0  0  0  0  0  0  0  0  0
  150.4983  136.7232  155.1169 C   0  0  0  0  0  0  0  0  0  0  0  0
  150.8111  136.5856  156.3000 O   0  0  0  0  0  0  0  0  0  0  0  0
  150.9952  137.9320  154.3070 C   0  0  2  0  0  0  0  0  0  0  0  0
  152.3743  138.4409  154.7746 C   0  0  0  0  0  0  0  0  0  0  0  0
  149.9914  138.9892  154.3065 N   0  0  0  0  0  0  0  0  0  0  0  0
  148.7019  138.9479  153.9644 C   0  0  0  0  0  0  0  0  0  0  0  0
  148.0626  140.0970  154.1309 N   0  0  0  0  0  0  0  0  0  0  0  0
  149.0859  140.8579  154.6206 C   0  0  0  0  0  0  0  0  0  0  0  0
  150.2596  140.2409  154.7554 N   0  0  0  0  0  0  0  0  0  0  0  0
  147.3259  134.8044  153.2438 N   0  3  0  0  0  0  0  0  0  0  0  0
  146.5089  134.1282  152.1959 C   0  0  0  0  0  0  0  0  0  0  0  0
  145.6303  135.1285  151.4253 C   0  0  0  0  0  0  0  0  0  0  0  0
  144.8003  135.8379  152.3303 O   0  0  0  0  0  0  0  0  0  0  0  0
  145.5740  136.5958  153.2457 C   0  0  0  0  0  0  0  0  0  0  0  0
  146.4424  135.6522  154.0940 C   0  0  0  0  0  0  0  0  0  0  0  0
  147.9877  132.1427  155.3758 H   0  0  0  0  0  0  0  0  0  0  0  0
  146.8248  132.1522  154.1029 H   0  0  0  0  0  0  0  0  0  0  0  0
  146.6434  133.2720  155.4539 H   0  0  0  0  0  0  0  0  0  0  0  0
  148.8521  133.3591  153.3294 H   0  0  0  0  0  0  0  0  0  0  0  0
  148.5564  135.0059  155.8844 H   0  0  0  0  0  0  0  0  0  0  0  0
  149.8885  133.9708  155.4310 H   0  0  0  0  0  0  0  0  0  0  0  0
  149.5241  136.0324  153.4855 H   0  0  0  0  0  0  0  0  0  0  0  0
  151.1103  137.6002  153.2737 H   0  0  0  0  0  0  0  0  0  0  0  0
  153.1246  137.6514  154.7192 H   0  0  0  0  0  0  0  0  0  0  0  0
  152.3511  138.8029  155.8034 H   0  0  0  0  0  0  0  0  0  0  0  0
  152.7186  139.2615  154.1447 H   0  0  0  0  0  0  0  0  0  0  0  0
  148.2188  138.0570  153.5904 H   0  0  0  0  0  0  0  0  0  0  0  0
  148.9602  141.8956  154.8924 H   0  0  0  0  0  0  0  0  0  0  0  0
  147.1445  133.6364  151.4612 H   0  0  0  0  0  0  0  0  0  0  0  0
  145.8852  133.3608  152.6570 H   0  0  0  0  0  0  0  0  0  0  0  0
  146.2435  135.8242  150.8499 H   0  0  0  0  0  0  0  0  0  0  0  0
  144.9992  134.5990  150.7114 H   0  0  0  0  0  0  0  0  0  0  0  0
  146.1898  137.3220  152.7125 H   0  0  0  0  0  0  0  0  0  0  0  0
  144.9007  137.1629  153.8887 H   0  0  0  0  0  0  0  0  0  0  0  0
  145.8054  135.0140  154.7082 H   0  0  0  0  0  0  0  0  0  0  0  0
  147.0236  136.2745  154.7710 H   0  0  0  0  0  0  0  0  0  0  0  0
  147.9448  135.4344  152.7531 H   0  0  0  0  0  0  0  0  0  0  0  0
  1  2  1  0  0  0  0
  1 20  1  0  0  0  0
  1 21  1  0  0  0  0
  1 22  1  0  0  0  0
  2  3  1  0  0  0  0
  2 14  1  0  0  0  0
  2 23  1  0  0  0  0
  3  4  1  0  0  0  0
  3 24  1  0  0  0  0
  3 25  1  0  0  0  0
  4  5  1  0  0  0  0
  4 26  1  0  0  0  0
  5  6  2  0  0  0  0
  5  7  1  0  0  0  0
  7  8  1  0  0  0  0
  7  9  1  0  0  0  0
  7 27  1  0  0  0  0
  8 28  1  0  0  0  0
  8 29  1  0  0  0  0
  8 30  1  0  0  0  0
  9 13  1  0  0  0  0
  9 10  1  0  0  0  0
 10 11  2  0  0  0  0
 10 31  1  0  0  0  0
 11 12  1  0  0  0  0
 12 13  2  0  0  0  0
 12 32  1  0  0  0  0
 14 19  1  0  0  0  0
 14 15  1  0  0  0  0
 14 41  1  0  0  0  0
 15 16  1  0  0  0  0
 15 33  1  0  0  0  0
 15 34  1  0  0  0  0
 16 17  1  0  0  0  0
 16 35  1  0  0  0  0
 16 36  1  0  0  0  0
 17 18  1  0  0  0  0
 18 19  1  0  0  0  0
 18 37  1  0  0  0  0
 18 38  1  0  0  0  0
 19 39  1  0  0  0  0
 19 40  1  0  0  0  0
M  CHG  1  14   1
M  END
> <s_m_source_file>
AV-unprocessed.smi

> <i_m_source_file_index>
3349

> <i_lp_mmshare_version>
43012

> <i_f3d_flags>
0

> <s_epik_input>
W0NIMl0xW0NIMl1PW0NIMl1bQ0gyXU4xW0NASF0oW0NIM10pW0NIMl1bTkhdQyg9TylbQ0BIXShbQ0gzXSluMltjSF1uW2NIXW4y

> <s_epik_cmdline>
J2VwaWtfcHl0aG9uJywgJy1waCcsICc3LjAnLCAnLXRuJywgJzgnLCAnLW1hJywgJzIwMCcsICctbWV0YWxfYmluZGluZycsICctaW1hZScsICc8aW5maWxlLm1hZT4nLCAnLW9tYWUnLCAnPG91dGZpbGUubWFlPic=

> <r_lp_tautomer_probability>
1

> <r_epik_Ionization_Penalty>
0.71326

> <r_epik_Ionization_Penalty_Charging>
0.713252

> <r_epik_Ionization_Penalty_Neutral>
8.10337e-06

> <r_epik_State_Penalty>
0.737017

> <r_epik_Charging_Adjusted_Penalty>
1.45027

> <i_epik_Tot_Q>
1

> <i_epik_Tot_abs_Q>
1

> <r_epik_Metal_State_Penalty>
0.73702

> <b_epik_Metal_Only>
0

> <s_lp_Force_Field>
OPLS_2005

> <r_lp_Energy>
28.3535

> <b_lp_Chiralities_Consistent>
1

> <s_lp_Variant>
AV-unprocessed.smi:3349-5

> <Gold.Version>
5.8.1

> <Gold.Id.Protein>
6NUR|6NUR_protein|mol2

> <Gold.PLP.Fitness>
41.3817

> <Gold.PLP.PLP>
-28.0097

> <Gold.PLP.part.hbond>
-3.1876

> <Gold.PLP.part.metal>
0.0000

> <Gold.PLP.part.buried>
-2.0526

> <Gold.PLP.part.nonpolar>
-23.4521

> <Gold.PLP.part.repulsive>
0.4151

> <Gold.PLP.ligand.clash>
0.0000

> <Gold.PLP.ligand.torsion>
0.8876

> <Gold.PLP.Chemscore.Hbond>
4.0000

> <Gold.PLP.Chemscore.CHOScore>
0.9980

> <Gold.PLP.Chemscore.Metal>
0.0000

> <Gold.Chemscore.Hbonds>
donor molecule, donor type, donor heavy atom, donor atom, acceptor molecule, acceptor atom, score
      L1  H     4    26       P1  7948  1.00
      L1  H    14    41       P1  7948  2.00
      P1  H  7989  7998       L1    13  1.00
      L1  C    10    31       P1  7948  0.81
      L1  C    12    32       P1  8028  0.04

> <Gold.PLP.Chemscore.Internal.Correction>
0.1531

> <Gold.Rescore>
     Score         DG    S(hbond)    S(metal)    S(lipo)     H(rot)  DE(clash)    DE(int)     intcor
     12.07     -12.93       2.85        0.00      40.06       2.63       0.00       0.86       ----

> <Gold.Chemscore.Fitness>
12.0744

> <Gold.Chemscore.DG>
-12.9322

> <Gold.Chemscore.ZeroCoef>
-5.4800

> <Gold.Chemscore.Hbond>
2.8459

> <Gold.Chemscore.Metal>
0.0000

> <Gold.Chemscore.Lipo>
40.0619

> <Gold.Chemscore.Internal_Hbond>
0.0000

> <Gold.Chemscore.DEClash>
0.0000

> <Gold.Chemscore.DEInternal>
0.8578

> <Gold.Chemscore.Rot>
2.6329

> <Gold.Chemscore.Internal.Correction>
   9.000000E+99

> <Gold.Chemscore.Hbonds>
donor molecule, donor type, donor heavy atom, donor atom, acceptor molecule, acceptor atom, score
      L1  H     4    26       P1  7948  0.40
      L1  H    14    41       P1  7948  0.94
      P1  H  7989  7998       L1    13  0.33

> <Gold.Chemscore.Hbond.Weighted>
-9.5052

> <Gold.Chemscore.Metal.Weighted>
-0.0000

> <Gold.Chemscore.Lipo.Weighted>
-4.6872

> <Gold.Chemscore.Internal_Hbond.Weighted>
0.0000

> <Gold.Chemscore.DEClash.Weighted>
0.0000

> <Gold.Chemscore.DEInternal.Weighted>
0.8578

> <Gold.Chemscore.Rot.Weighted>
6.7403

> <Gold.Chemscore.Internal.Correction.Weighted>
   9.000000E+99

> <Gold.Protein.RotatedTorsions>
[ 6907 6896 6895 6894 ] final    4.47 input  -60.11 | X-H torsion
[ 7974 7965 7964 7962 ] final  149.90 input  175.53 | X-H torsion
[ 8008 7997 7996 7995 ] final   71.63 input   59.86 | X-H torsion
[ 10167 10162 10161 10158 ] final   32.94 input  -65.29 | X-H torsion
[ 10718 10713 10712 10709 ] final  171.29 input   66.30 | X-H torsion
[ 10763 10752 10751 10750 ] final    1.80 input  -60.55 | X-H torsion
[ 11005 11000 10999 10996 ] final  -43.97 input  -57.11 | X-H torsion

> <Gold.Protein.ActiveResidues>
 VAL166  LYS551  ARG553  GLY616  TRP617  ASP618  TYR619  PRO620  LYS621  CYS622 
 ASP623  PHE694  ASN695  SER759  ASP760  ASP761  ALA762  ILE779  LEU786  VAL792 
 PHE793  MET794  SER795  GLU796  ALA797  LYS798  CYS799  TRP800  GLU811  SER814 

> <Gold.Protein.RotatedAtoms>
  151.6419  135.1012  160.0142 H   0  0  0  0  0  0  0  0  0  0  0  0  # atno 6907 bound_to 6896
  152.4049  133.6870  159.6356 H   0  0  0  0  0  0  0  0  0  0  0  0  # atno 6908 bound_to 6896
  150.7945  133.8643  159.3281 H   0  0  0  0  0  0  0  0  0  0  0  0  # atno 6909 bound_to 6896
  144.8404  139.6339  143.6019 H   0  0  0  0  0  0  0  0  0  0  0  0  # atno 7974 bound_to 7965
  155.7568  140.3487  155.5177 H   0  0  0  0  0  0  0  0  0  0  0  0  # atno 8008 bound_to 7997
  155.8952  140.1024  157.1411 H   0  0  0  0  0  0  0  0  0  0  0  0  # atno 8009 bound_to 7997
  154.4038  140.1296  156.4354 H   0  0  0  0  0  0  0  0  0  0  0  0  # atno 8010 bound_to 7997
  140.4453  144.1128  150.6181 H   0  0  0  0  0  0  0  0  0  0  0  0  # atno 10167 bound_to 10162
  156.9957  131.0161  151.2844 H   0  0  0  0  0  0  0  0  0  0  0  0  # atno 10718 bound_to 10713
  153.3035  135.6957  153.7181 H   0  0  0  0  0  0  0  0  0  0  0  0  # atno 10763 bound_to 10752
  153.6086  135.3448  155.2971 H   0  0  0  0  0  0  0  0  0  0  0  0  # atno 10764 bound_to 10752
  154.8557  135.4358  154.2152 H   0  0  0  0  0  0  0  0  0  0  0  0  # atno 10765 bound_to 10752
  141.0419  133.6776  156.2807 H   0  0  0  0  0  0  0  0  0  0  0  0  # atno 11005 bound_to 11000
  146.2697  139.6606  142.9304 LP  0  0  0  0  0  0  0  0  0  0  0  0  # atno 17320 bound_to 7965
  145.4706  141.0436  143.2701 LP  0  0  0  0  0  0  0  0  0  0  0  0  # atno 17321 bound_to 7965
  140.4271  143.2585  151.9642 LP  0  0  0  0  0  0  0  0  0  0  0  0  # atno 17342 bound_to 10162
  139.4792  144.5778  151.7983 LP  0  0  0  0  0  0  0  0  0  0  0  0  # atno 17343 bound_to 10162
  157.5426  130.8130  149.8048 LP  0  0  0  0  0  0  0  0  0  0  0  0  # atno 17370 bound_to 10713
  156.0190  130.3802  150.2020 LP  0  0  0  0  0  0  0  0  0  0  0  0  # atno 17371 bound_to 10713
  140.6218  134.5354  157.5548 LP  0  0  0  0  0  0  0  0  0  0  0  0  # atno 17394 bound_to 11000
  139.9282  134.8014  156.1006 LP  0  0  0  0  0  0  0  0  0  0  0  0  # atno 17395 bound_to 11000

$$$$
