AV-unprocessed.smi:1762|AV-procd|sdf|7116|dock2
  -GOLD-   22720 8343D 1   1.00000     0.00000
 Structure written by MMmdl.
 53 54  0  0  0  0  0  0  0  0  2 V2000
  146.7715  138.5883  151.8928 C   0  0  0  0  0  0  0  0  0  0  0  0
  146.5274  138.9623  153.3661 C   0  0  1  0  0  0  0  0  0  0  0  0
  146.6845  137.7732  154.3353 C   0  0  0  0  0  0  0  0  0  0  0  0
  148.1147  137.3996  154.5212 N   0  3  2  0  0  0  0  0  0  0  0  0
  148.3580  136.2067  155.4039 C   0  0  2  0  0  0  0  0  0  0  0  0
  147.5942  134.9698  154.8836 C   0  0  0  0  0  0  0  0  0  0  0  0
  146.9596  134.2599  155.6650 O   0  0  0  0  0  0  0  0  0  0  0  0
  147.6616  134.7273  153.5662 N   0  0  0  0  0  0  0  0  0  0  0  0
  147.0015  133.6119  152.9020 C   0  0  0  0  0  0  0  0  0  0  0  0
  145.4870  133.8473  152.8224 C   0  0  0  0  0  0  0  0  0  0  0  0
  144.8914  133.3198  151.5305 C   0  0  0  0  0  0  0  0  0  0  0  0
  145.7236  132.8501  150.4921 C   0  0  0  0  0  0  0  0  0  0  0  0
  145.1196  132.3631  149.3168 C   0  0  0  0  0  0  0  0  0  0  0  0
  143.7144  132.3645  149.2254 C   0  0  0  0  0  0  0  0  0  0  0  0
  142.9722  132.8544  150.3186 C   0  0  0  0  0  0  0  0  0  0  0  0
  143.5414  133.3233  151.4504 N   0  0  0  0  0  0  0  0  0  0  0  0
  148.0434  136.4508  156.9192 C   0  0  0  0  0  0  0  0  0  0  0  0
  148.5606  135.3250  157.8367 C   0  0  0  0  0  0  0  0  0  0  0  0
  146.5550  136.7326  157.2147 C   0  0  0  0  0  0  0  0  0  0  0  0
  148.8726  138.6085  154.9525 C   0  0  0  0  0  0  0  0  0  0  0  0
  148.7156  139.7513  153.9355 C   0  0  2  0  0  0  0  0  0  0  0  0
  149.4338  141.0265  154.3907 C   0  0  0  0  0  0  0  0  0  0  0  0
  147.3349  140.0591  153.7858 O   0  0  0  0  0  0  0  0  0  0  0  0
  146.0441  137.8489  151.5569 H   0  0  0  0  0  0  0  0  0  0  0  0
  147.7614  138.1624  151.7310 H   0  0  0  0  0  0  0  0  0  0  0  0
  146.6726  139.4621  151.2482 H   0  0  0  0  0  0  0  0  0  0  0  0
  145.4956  139.3088  153.4333 H   0  0  0  0  0  0  0  0  0  0  0  0
  146.2551  138.0268  155.3058 H   0  0  0  0  0  0  0  0  0  0  0  0
  146.0965  136.9504  153.9342 H   0  0  0  0  0  0  0  0  0  0  0  0
  149.4259  135.9898  155.3331 H   0  0  0  0  0  0  0  0  0  0  0  0
  148.2033  135.3525  152.9869 H   0  0  0  0  0  0  0  0  0  0  0  0
  147.4173  133.4949  151.9000 H   0  0  0  0  0  0  0  0  0  0  0  0
  147.2061  132.6888  153.4471 H   0  0  0  0  0  0  0  0  0  0  0  0
  144.9884  133.3633  153.6636 H   0  0  0  0  0  0  0  0  0  0  0  0
  145.2692  134.9129  152.9085 H   0  0  0  0  0  0  0  0  0  0  0  0
  146.7993  132.8595  150.5921 H   0  0  0  0  0  0  0  0  0  0  0  0
  145.7230  131.9944  148.5004 H   0  0  0  0  0  0  0  0  0  0  0  0
  143.2171  131.9978  148.3396 H   0  0  0  0  0  0  0  0  0  0  0  0
  141.8929  132.8691  150.2831 H   0  0  0  0  0  0  0  0  0  0  0  0
  148.6100  137.3240  157.2398 H   0  0  0  0  0  0  0  0  0  0  0  0
  148.0060  134.3960  157.7016 H   0  0  0  0  0  0  0  0  0  0  0  0
  148.4659  135.6057  158.8862 H   0  0  0  0  0  0  0  0  0  0  0  0
  149.6144  135.1168  157.6501 H   0  0  0  0  0  0  0  0  0  0  0  0
  145.9352  135.8537  157.0371 H   0  0  0  0  0  0  0  0  0  0  0  0
  146.1602  137.5420  156.6011 H   0  0  0  0  0  0  0  0  0  0  0  0
  146.4149  137.0202  158.2572 H   0  0  0  0  0  0  0  0  0  0  0  0
  148.5178  138.9266  155.9344 H   0  0  0  0  0  0  0  0  0  0  0  0
  149.9361  138.3969  155.0593 H   0  0  0  0  0  0  0  0  0  0  0  0
  149.1375  139.4509  152.9762 H   0  0  0  0  0  0  0  0  0  0  0  0
  150.5030  140.8527  154.5146 H   0  0  0  0  0  0  0  0  0  0  0  0
  149.0401  141.3837  155.3428 H   0  0  0  0  0  0  0  0  0  0  0  0
  149.3106  141.8253  153.6589 H   0  0  0  0  0  0  0  0  0  0  0  0
  148.4654  137.1449  153.6084 H   0  0  0  0  0  0  0  0  0  0  0  0
  1  2  1  0  0  0  0
  1 24  1  0  0  0  0
  1 25  1  0  0  0  0
  1 26  1  0  0  0  0
  2 23  1  0  0  0  0
  2  3  1  0  0  0  0
  2 27  1  0  0  0  0
  3  4  1  0  0  0  0
  3 28  1  0  0  0  0
  3 29  1  0  0  0  0
  4  5  1  0  0  0  0
  4 20  1  0  0  0  0
  4 53  1  0  0  0  0
  5  6  1  0  0  0  0
  5 17  1  0  0  0  0
  5 30  1  0  0  0  0
  6  7  2  0  0  0  0
  6  8  1  0  0  0  0
  8  9  1  0  0  0  0
  8 31  1  0  0  0  0
  9 10  1  0  0  0  0
  9 32  1  0  0  0  0
  9 33  1  0  0  0  0
 10 11  1  0  0  0  0
 10 34  1  0  0  0  0
 10 35  1  0  0  0  0
 11 16  1  0  0  0  0
 11 12  2  0  0  0  0
 12 13  1  0  0  0  0
 12 36  1  0  0  0  0
 13 14  2  0  0  0  0
 13 37  1  0  0  0  0
 14 15  1  0  0  0  0
 14 38  1  0  0  0  0
 15 16  2  0  0  0  0
 15 39  1  0  0  0  0
 17 18  1  0  0  0  0
 17 19  1  0  0  0  0
 17 40  1  0  0  0  0
 18 41  1  0  0  0  0
 18 42  1  0  0  0  0
 18 43  1  0  0  0  0
 19 44  1  0  0  0  0
 19 45  1  0  0  0  0
 19 46  1  0  0  0  0
 20 21  1  0  0  0  0
 20 47  1  0  0  0  0
 20 48  1  0  0  0  0
 21 22  1  0  0  0  0
 21 23  1  0  0  0  0
 21 49  1  0  0  0  0
 22 50  1  0  0  0  0
 22 51  1  0  0  0  0
 22 52  1  0  0  0  0
M  CHG  1   4   1
M  END
> <s_m_source_file>
AV-unprocessed.smi

> <i_m_source_file_index>
1762

> <i_lp_mmshare_version>
43012

> <i_f3d_flags>
0

> <s_epik_input>
W0NIM11bQ0BASF0xW0NIMl1OKFtDSDJdW0NASF0oTzEpW0NIM10pW0NAQEhdKFtDSF0oW0NIM10pW0NIM10pQyg9TylbTkhdW0NIMl1bQ0gyXWMyW2NIXVtjSF1bY0hdW2NIXW4y

> <s_epik_cmdline>
J2VwaWtfcHl0aG9uJywgJy1waCcsICc3LjAnLCAnLXRuJywgJzgnLCAnLW1hJywgJzIwMCcsICctbWV0YWxfYmluZGluZycsICctaW1hZScsICc8aW5maWxlLm1hZT4nLCAnLW9tYWUnLCAnPG91dGZpbGUubWFlPic=

> <r_epik_Ionization_Penalty>
2.27005

> <r_epik_Ionization_Penalty_Charging>
2.24983

> <r_epik_Ionization_Penalty_Neutral>
0.0202209

> <r_epik_State_Penalty>
2.40228

> <r_epik_Charging_Adjusted_Penalty>
4.65211

> <i_epik_Tot_Q>
1

> <i_epik_Tot_abs_Q>
1

> <r_epik_Metal_State_Penalty>
2.40762

> <b_epik_Metal_Only>
0

> <s_lp_Force_Field>
OPLS_2005

> <r_lp_Energy>
24.3613

> <b_lp_Chiralities_Consistent>
1

> <s_lp_Variant>
AV-unprocessed.smi:1762-18

> <Gold.Version>
5.8.1

> <Gold.Id.Protein>
6NUR|6NUR_protein|mol2

> <Gold.PLP.Fitness>
42.7775

> <Gold.PLP.PLP>
-29.8823

> <Gold.PLP.part.hbond>
-1.9546

> <Gold.PLP.part.metal>
0.0000

> <Gold.PLP.part.buried>
2.7331

> <Gold.PLP.part.nonpolar>
-31.0940

> <Gold.PLP.part.repulsive>
0.3562

> <Gold.PLP.ligand.clash>
0.0000

> <Gold.PLP.ligand.torsion>
0.6914

> <Gold.PLP.Chemscore.Hbond>
2.9913

> <Gold.PLP.Chemscore.CHOScore>
1.6377

> <Gold.PLP.Chemscore.Metal>
0.0000

> <Gold.Chemscore.Hbonds>
donor molecule, donor type, donor heavy atom, donor atom, acceptor molecule, acceptor atom, score
      L1  H     4    53       P1  7948  2.00
      L1  H     8    31       P1  7948  1.00
      L1  C    15    39       P1 10186  0.58
      L1  C    15    39       P1 10952  0.20

> <Gold.PLP.Chemscore.Internal.Correction>
0.3912

> <Gold.Rescore>
     Score         DG    S(hbond)    S(metal)    S(lipo)     H(rot)  DE(clash)    DE(int)     intcor
     15.76     -18.68       1.88        0.00      95.56       1.66       0.36       2.56       ----

> <Gold.Chemscore.Fitness>
15.7643

> <Gold.Chemscore.DG>
-18.6772

> <Gold.Chemscore.ZeroCoef>
-5.4800

> <Gold.Chemscore.Hbond>
1.8789

> <Gold.Chemscore.Metal>
0.0000

> <Gold.Chemscore.Lipo>
95.5591

> <Gold.Chemscore.Internal_Hbond>
0.0000

> <Gold.Chemscore.DEClash>
0.3556

> <Gold.Chemscore.DEInternal>
2.5574

> <Gold.Chemscore.Rot>
1.6635

> <Gold.Chemscore.Internal.Correction>
   9.000000E+99

> <Gold.Chemscore.Hbonds>
donor molecule, donor type, donor heavy atom, donor atom, acceptor molecule, acceptor atom, score
      L1  H     4    53       P1  7948  0.93
      L1  H     8    31       P1  7948  0.98

> <Gold.Chemscore.Hbond.Weighted>
-6.2754

> <Gold.Chemscore.Metal.Weighted>
-0.0000

> <Gold.Chemscore.Lipo.Weighted>
-11.1804

> <Gold.Chemscore.Internal_Hbond.Weighted>
0.0000

> <Gold.Chemscore.DEClash.Weighted>
0.3556

> <Gold.Chemscore.DEInternal.Weighted>
2.5574

> <Gold.Chemscore.Rot.Weighted>
4.2586

> <Gold.Chemscore.Internal.Correction.Weighted>
   9.000000E+99

> <Gold.Protein.RotatedTorsions>
[ 6907 6896 6895 6894 ] final  -53.98 input  -60.11 | X-H torsion
[ 7974 7965 7964 7962 ] final  123.03 input  175.53 | X-H torsion
[ 8008 7997 7996 7995 ] final -168.35 input   59.86 | X-H torsion
[ 10167 10162 10161 10158 ] final  -64.50 input  -65.29 | X-H torsion
[ 10718 10713 10712 10709 ] final -103.66 input   66.30 | X-H torsion
[ 10763 10752 10751 10750 ] final   37.40 input  -60.55 | X-H torsion
[ 11005 11000 10999 10996 ] final  154.09 input  -57.11 | X-H torsion

> <Gold.Protein.ActiveResidues>
 VAL166  LYS551  ARG553  GLY616  TRP617  ASP618  TYR619  PRO620  LYS621  CYS622 
 ASP623  PHE694  ASN695  SER759  ASP760  ASP761  ALA762  ILE779  LEU786  VAL792 
 PHE793  MET794  SER795  GLU796  ALA797  LYS798  CYS799  TRP800  GLU811  SER814 

> <Gold.Protein.RotatedAtoms>
  150.8378  134.7658  159.6906 H   0  0  0  0  0  0  0  0  0  0  0  0  # atno 6907 bound_to 6896
  152.4471  134.5468  159.9865 H   0  0  0  0  0  0  0  0  0  0  0  0  # atno 6908 bound_to 6896
  151.5614  133.3365  159.3007 H   0  0  0  0  0  0  0  0  0  0  0  0  # atno 6909 bound_to 6896
  145.1007  139.3521  143.4813 H   0  0  0  0  0  0  0  0  0  0  0  0  # atno 7974 bound_to 7965
  155.8902  140.1023  157.1424 H   0  0  0  0  0  0  0  0  0  0  0  0  # atno 8008 bound_to 7997
  154.4014  140.1312  156.4370 H   0  0  0  0  0  0  0  0  0  0  0  0  # atno 8009 bound_to 7997
  155.7543  140.3464  155.5168 H   0  0  0  0  0  0  0  0  0  0  0  0  # atno 8010 bound_to 7997
  140.5797  143.2326  151.6369 H   0  0  0  0  0  0  0  0  0  0  0  0  # atno 10167 bound_to 10162
  156.0274  130.5478  150.7285 H   0  0  0  0  0  0  0  0  0  0  0  0  # atno 10718 bound_to 10713
  153.0039  135.6279  154.2138 H   0  0  0  0  0  0  0  0  0  0  0  0  # atno 10763 bound_to 10752
  154.1881  135.2810  155.3032 H   0  0  0  0  0  0  0  0  0  0  0  0  # atno 10764 bound_to 10752
  154.5781  135.5656  153.7218 H   0  0  0  0  0  0  0  0  0  0  0  0  # atno 10765 bound_to 10752
  140.1457  134.8709  157.2389 H   0  0  0  0  0  0  0  0  0  0  0  0  # atno 11005 bound_to 11000
  146.3530  140.0882  142.8614 LP  0  0  0  0  0  0  0  0  0  0  0  0  # atno 17320 bound_to 7965
  145.0959  140.9315  143.4741 LP  0  0  0  0  0  0  0  0  0  0  0  0  # atno 17321 bound_to 7965
  139.5162  144.3353  152.0789 LP  0  0  0  0  0  0  0  0  0  0  0  0  # atno 17342 bound_to 10162
  140.2501  144.4178  150.6225 LP  0  0  0  0  0  0  0  0  0  0  0  0  # atno 17343 bound_to 10162
  157.4883  131.0908  151.0456 LP  0  0  0  0  0  0  0  0  0  0  0  0  # atno 17370 bound_to 10713
  157.0870  130.5926  149.5432 LP  0  0  0  0  0  0  0  0  0  0  0  0  # atno 17371 bound_to 10713
  140.2667  134.3508  155.7387 LP  0  0  0  0  0  0  0  0  0  0  0  0  # atno 17394 bound_to 11000
  141.2192  133.7400  156.9161 LP  0  0  0  0  0  0  0  0  0  0  0  0  # atno 17395 bound_to 11000

$$$$
