AV-unprocessed.smi:2667|AV-procd|sdf|10335|dock5
  -GOLD-   2272014353D 1   1.00000     0.00000
 Structure written by MMmdl.
 44 46  0  0  0  0  0  0  0  0  1 V2000
  152.7849  142.5476  159.7002 C   0  0  0  0  0  0  0  0  0  0  0  0
  151.7579  142.1188  158.6403 C   0  0  0  0  0  0  0  0  0  0  0  0
  152.1208  140.8157  157.9112 C   0  0  0  0  0  0  0  0  0  0  0  0
  153.0877  140.1522  158.2882 O   0  0  0  0  0  0  0  0  0  0  0  0
  151.2683  140.4183  156.7533 C   0  0  0  0  0  0  0  0  0  0  0  0
  151.6243  139.3537  155.8928 C   0  0  0  0  0  0  0  0  0  0  0  0
  150.7944  139.0016  154.8115 C   0  0  0  0  0  0  0  0  0  0  0  0
  149.5949  139.6964  154.5616 C   0  0  0  0  0  0  0  0  0  0  0  0
  148.8395  139.2760  153.4881 O   0  0  0  0  0  0  0  0  0  0  0  0
  147.5481  139.8430  153.3118 C   0  0  0  0  0  0  0  0  0  0  0  0
  146.6628  138.8294  152.5642 C   0  0  1  0  0  0  0  0  0  0  0  0
  147.3110  138.4806  151.3585 O   0  0  0  0  0  0  0  0  0  0  0  0
  146.4222  137.5204  153.3421 C   0  0  0  0  0  0  0  0  0  0  0  0
  145.5010  136.6241  152.6671 N   0  0  0  0  0  0  0  0  0  0  0  0
  144.2956  136.9396  152.1560 C   0  0  0  0  0  0  0  0  0  0  0  0
  143.6068  135.9637  151.5714 N   0  0  0  0  0  0  0  0  0  0  0  0
  144.4666  134.8887  151.7177 C   0  0  0  0  0  0  0  0  0  0  0  0
  144.3300  133.5430  151.3082 C   0  0  0  0  0  0  0  0  0  0  0  0
  145.3534  132.6088  151.5716 C   0  0  0  0  0  0  0  0  0  0  0  0
  146.5261  133.0040  152.2475 C   0  0  0  0  0  0  0  0  0  0  0  0
  146.6851  134.3394  152.6646 C   0  0  0  0  0  0  0  0  0  0  0  0
  145.6625  135.2689  152.3986 C   0  0  0  0  0  0  0  0  0  0  0  0
  149.2416  140.7698  155.4157 C   0  0  0  0  0  0  0  0  0  0  0  0
  150.0714  141.1245  156.4967 C   0  0  0  0  0  0  0  0  0  0  0  0
  152.4841  143.4856  160.1666 H   0  0  0  0  0  0  0  0  0  0  0  0
  153.7711  142.7007  159.2600 H   0  0  0  0  0  0  0  0  0  0  0  0
  152.8782  141.8022  160.4908 H   0  0  0  0  0  0  0  0  0  0  0  0
  150.7828  141.9942  159.1118 H   0  0  0  0  0  0  0  0  0  0  0  0
  151.6569  142.9136  157.9010 H   0  0  0  0  0  0  0  0  0  0  0  0
  152.5325  138.7892  156.0414 H   0  0  0  0  0  0  0  0  0  0  0  0
  151.0814  138.1835  154.1671 H   0  0  0  0  0  0  0  0  0  0  0  0
  147.0932  140.1207  154.2643 H   0  0  0  0  0  0  0  0  0  0  0  0
  147.6625  140.7509  152.7194 H   0  0  0  0  0  0  0  0  0  0  0  0
  145.7005  139.2848  152.3262 H   0  0  0  0  0  0  0  0  0  0  0  0
  148.2087  138.7722  151.4074 H   0  0  0  0  0  0  0  0  0  0  0  0
  147.3643  136.9888  153.4852 H   0  0  0  0  0  0  0  0  0  0  0  0
  146.0341  137.7356  154.3385 H   0  0  0  0  0  0  0  0  0  0  0  0
  143.9016  137.9436  152.2182 H   0  0  0  0  0  0  0  0  0  0  0  0
  143.4361  133.2289  150.7900 H   0  0  0  0  0  0  0  0  0  0  0  0
  145.2374  131.5830  151.2535 H   0  0  0  0  0  0  0  0  0  0  0  0
  147.3040  132.2811  152.4455 H   0  0  0  0  0  0  0  0  0  0  0  0
  147.5813  134.6445  153.1842 H   0  0  0  0  0  0  0  0  0  0  0  0
  148.3373  141.3391  155.2638 H   0  0  0  0  0  0  0  0  0  0  0  0
  149.7717  141.9464  157.1309 H   0  0  0  0  0  0  0  0  0  0  0  0
  1  2  1  0  0  0  0
  1 25  1  0  0  0  0
  1 26  1  0  0  0  0
  1 27  1  0  0  0  0
  2  3  1  0  0  0  0
  2 28  1  0  0  0  0
  2 29  1  0  0  0  0
  3  4  2  0  0  0  0
  3  5  1  0  0  0  0
  5 24  1  0  0  0  0
  5  6  2  0  0  0  0
  6  7  1  0  0  0  0
  6 30  1  0  0  0  0
  7  8  2  0  0  0  0
  7 31  1  0  0  0  0
  8  9  1  0  0  0  0
  8 23  1  0  0  0  0
  9 10  1  0  0  0  0
 10 11  1  0  0  0  0
 10 32  1  0  0  0  0
 10 33  1  0  0  0  0
 11 12  1  0  0  0  0
 11 13  1  0  0  0  0
 11 34  1  0  0  0  0
 12 35  1  0  0  0  0
 13 14  1  0  0  0  0
 13 36  1  0  0  0  0
 13 37  1  0  0  0  0
 14 22  1  0  0  0  0
 14 15  1  0  0  0  0
 15 16  2  0  0  0  0
 15 38  1  0  0  0  0
 16 17  1  0  0  0  0
 17 22  2  0  0  0  0
 17 18  1  0  0  0  0
 18 19  2  0  0  0  0
 18 39  1  0  0  0  0
 19 20  1  0  0  0  0
 19 40  1  0  0  0  0
 20 21  2  0  0  0  0
 20 41  1  0  0  0  0
 21 22  1  0  0  0  0
 21 42  1  0  0  0  0
 23 24  2  0  0  0  0
 23 43  1  0  0  0  0
 24 44  1  0  0  0  0
M  END
> <s_m_source_file>
AV-unprocessed.smi

> <i_m_source_file_index>
2667

> <i_lp_mmshare_version>
43012

> <i_f3d_flags>
0

> <s_epik_input>
W0NIM11bQ0gyXUMoPU8pYzFbY0hdW2NIXWMoW2NIXVtjSF0xKU9bQ0gyXVtDQEhdKFtPSF0pW0NIMl1uKFtjSF1uMiljKGMyMylbY0hdW2NIXVtjSF1bY0hdMw==

> <s_epik_cmdline>
J2VwaWtfcHl0aG9uJywgJy1waCcsICc3LjAnLCAnLXRuJywgJzgnLCAnLW1hJywgJzIwMCcsICctbWV0YWxfYmluZGluZycsICctaW1hZScsICc8aW5maWxlLm1hZT4nLCAnLW9tYWUnLCAnPG91dGZpbGUubWFlPic=

> <r_lp_tautomer_probability>
0.9999

> <r_epik_Ionization_Penalty>
0.0583018

> <r_epik_Ionization_Penalty_Charging>
0

> <r_epik_Ionization_Penalty_Neutral>
0.0583018

> <r_epik_State_Penalty>
0.0504087

> <r_epik_Charging_Adjusted_Penalty>
0.0504087

> <i_epik_Tot_Q>
0

> <i_epik_Tot_abs_Q>
0

> <r_epik_Metal_State_Penalty>
5.26129e-05

> <b_epik_Metal_Only>
0

> <s_lp_Force_Field>
OPLS_2005

> <r_lp_Energy>
23.9231

> <b_lp_Chiralities_Consistent>
1

> <s_lp_Variant>
AV-unprocessed.smi:2667-2

> <Gold.Version>
5.8.1

> <Gold.Id.Protein>
6NUR|6NUR_protein|mol2

> <Gold.PLP.Fitness>
48.1054

> <Gold.PLP.PLP>
-38.5425

> <Gold.PLP.part.hbond>
-4.0000

> <Gold.PLP.part.metal>
0.0000

> <Gold.PLP.part.buried>
-0.9041

> <Gold.PLP.part.nonpolar>
-36.1336

> <Gold.PLP.part.repulsive>
3.8143

> <Gold.PLP.ligand.clash>
0.0000

> <Gold.PLP.ligand.torsion>
0.4350

> <Gold.PLP.Chemscore.Hbond>
1.9760

> <Gold.PLP.Chemscore.CHOScore>
1.4369

> <Gold.PLP.Chemscore.Metal>
0.0000

> <Gold.Chemscore.Hbonds>
donor molecule, donor type, donor heavy atom, donor atom, acceptor molecule, acceptor atom, score
      L1  H    12    35       P1  7957  1.00
      P1  H  7997  8009       L1     4  0.99
      L1  C    15    38       P1 10171  0.43
      L1  C    15    38       P1 10175  1.00

> <Gold.PLP.Chemscore.Internal.Correction>
0.1944

> <Gold.Rescore>
     Score         DG    S(hbond)    S(metal)    S(lipo)     H(rot)  DE(clash)    DE(int)     intcor
     14.83     -16.28       1.70        0.00      98.25       2.49       1.08       0.37       ----

> <Gold.Chemscore.Fitness>
14.8286

> <Gold.Chemscore.DG>
-16.2830

> <Gold.Chemscore.ZeroCoef>
-5.4800

> <Gold.Chemscore.Hbond>
1.7037

> <Gold.Chemscore.Metal>
0.0000

> <Gold.Chemscore.Lipo>
98.2511

> <Gold.Chemscore.Internal_Hbond>
0.0000

> <Gold.Chemscore.DEClash>
1.0801

> <Gold.Chemscore.DEInternal>
0.3743

> <Gold.Chemscore.Rot>
2.4932

> <Gold.Chemscore.Internal.Correction>
   9.000000E+99

> <Gold.Chemscore.Hbonds>
donor molecule, donor type, donor heavy atom, donor atom, acceptor molecule, acceptor atom, score
      L1  H    12    35       P1  7957  0.43
      P1  H  7997  8009       L1     4  0.84

> <Gold.Chemscore.Hbond.Weighted>
-5.6903

> <Gold.Chemscore.Metal.Weighted>
-0.0000

> <Gold.Chemscore.Lipo.Weighted>
-11.4954

> <Gold.Chemscore.Internal_Hbond.Weighted>
0.0000

> <Gold.Chemscore.DEClash.Weighted>
1.0801

> <Gold.Chemscore.DEInternal.Weighted>
0.3743

> <Gold.Chemscore.Rot.Weighted>
6.3826

> <Gold.Chemscore.Internal.Correction.Weighted>
   9.000000E+99

> <Gold.Protein.RotatedTorsions>
[ 6907 6896 6895 6894 ] final   26.27 input  -60.11 | X-H torsion
[ 7974 7965 7964 7962 ] final -167.15 input  175.53 | X-H torsion
[ 8008 7997 7996 7995 ] final  157.01 input   59.86 | X-H torsion
[ 10167 10162 10161 10158 ] final  -56.50 input  -65.29 | X-H torsion
[ 10718 10713 10712 10709 ] final  144.44 input   66.30 | X-H torsion
[ 10763 10752 10751 10750 ] final -141.56 input  -60.55 | X-H torsion
[ 11005 11000 10999 10996 ] final -176.59 input  -57.11 | X-H torsion

> <Gold.Protein.ActiveResidues>
 VAL166  LYS551  ARG553  GLY616  TRP617  ASP618  TYR619  PRO620  LYS621  CYS622 
 ASP623  PHE694  ASN695  SER759  ASP760  ASP761  ALA762  ILE779  LEU786  VAL792 
 PHE793  MET794  SER795  GLU796  ALA797  LYS798  CYS799  TRP800  GLU811  SER814 

> <Gold.Protein.RotatedAtoms>
  151.9850  135.0009  160.0558 H   0  0  0  0  0  0  0  0  0  0  0  0  # atno 6907 bound_to 6896
  152.1661  133.4609  159.4894 H   0  0  0  0  0  0  0  0  0  0  0  0  # atno 6908 bound_to 6896
  150.6895  134.1928  159.4335 H   0  0  0  0  0  0  0  0  0  0  0  0  # atno 6909 bound_to 6896
  144.7229  140.2561  143.6271 H   0  0  0  0  0  0  0  0  0  0  0  0  # atno 7974 bound_to 7965
  156.2389  140.1897  156.7043 H   0  0  0  0  0  0  0  0  0  0  0  0  # atno 8008 bound_to 7997
  154.6159  140.0615  156.9580 H   0  0  0  0  0  0  0  0  0  0  0  0  # atno 8009 bound_to 7997
  155.1940  140.3287  155.4356 H   0  0  0  0  0  0  0  0  0  0  0  0  # atno 8010 bound_to 7997
  140.6313  143.2461  151.5233 H   0  0  0  0  0  0  0  0  0  0  0  0  # atno 10167 bound_to 10162
  157.3572  131.0959  151.0948 H   0  0  0  0  0  0  0  0  0  0  0  0  # atno 10718 bound_to 10713
  154.8541  135.3521  154.5887 H   0  0  0  0  0  0  0  0  0  0  0  0  # atno 10763 bound_to 10752
  153.6497  135.6994  153.5218 H   0  0  0  0  0  0  0  0  0  0  0  0  # atno 10764 bound_to 10752
  153.2904  135.4236  155.1119 H   0  0  0  0  0  0  0  0  0  0  0  0  # atno 10765 bound_to 10752
  140.4504  134.6348  157.4799 H   0  0  0  0  0  0  0  0  0  0  0  0  # atno 11005 bound_to 11000
  145.8181  139.2032  143.1954 LP  0  0  0  0  0  0  0  0  0  0  0  0  # atno 17320 bound_to 7965
  146.0538  140.8042  142.9768 LP  0  0  0  0  0  0  0  0  0  0  0  0  # atno 17321 bound_to 7965
  139.5527  144.2354  152.1559 LP  0  0  0  0  0  0  0  0  0  0  0  0  # atno 17342 bound_to 10162
  140.1599  144.5036  150.6639 LP  0  0  0  0  0  0  0  0  0  0  0  0  # atno 17343 bound_to 10162
  157.2102  130.6434  149.5771 LP  0  0  0  0  0  0  0  0  0  0  0  0  # atno 17370 bound_to 10713
  155.9731  130.4662  150.6282 LP  0  0  0  0  0  0  0  0  0  0  0  0  # atno 17371 bound_to 10713
  140.0010  134.6836  155.9530 LP  0  0  0  0  0  0  0  0  0  0  0  0  # atno 17394 bound_to 11000
  141.1666  133.6537  156.4503 LP  0  0  0  0  0  0  0  0  0  0  0  0  # atno 17395 bound_to 11000

$$$$
