AV-unprocessed.smi:283|AV-procd|sdf|2152|dock1
  -GOLD-   2262021493D 1   1.00000     0.00000
 Structure written by MMmdl.
 48 51  0  0  0  0  0  0  0  0  1 V2000
  153.3539  140.1014  160.1890 C   0  0  0  0  0  0  0  0  0  0  0  0
  152.6052  140.9265  159.1240 C   0  0  1  0  0  0  0  0  0  0  0  0
  151.3884  140.2591  158.6653 N   0  0  0  0  0  0  0  0  0  0  0  0
  151.2475  139.8346  157.3902 C   0  0  0  0  0  0  0  0  0  0  0  0
  152.3153  139.7345  156.5565 N   0  0  0  0  0  0  0  0  0  0  0  0
  152.1439  139.3135  155.3003 C   0  0  0  0  0  0  0  0  0  0  0  0
  151.0141  138.9517  154.6888 N   0  0  0  0  0  0  0  0  0  0  0  0
  149.9361  139.0556  155.5187 C   0  0  0  0  0  0  0  0  0  0  0  0
  149.9722  139.4892  156.8737 C   0  0  0  0  0  0  0  0  0  0  0  0
  148.6912  139.4738  157.4079 N   0  0  0  0  0  0  0  0  0  0  0  0
  147.9444  139.0549  156.4223 C   0  0  0  0  0  0  0  0  0  0  0  0
  148.6109  138.7717  155.2503 N   0  0  0  0  0  0  0  0  0  0  0  0
  148.0116  138.2844  153.9681 C   0  0  1  0  0  0  0  0  0  0  0  0
  147.3105  137.1036  154.2359 O   0  0  0  0  0  0  0  0  0  0  0  0
  145.9431  137.2645  153.8740 C   0  0  2  0  0  0  0  0  0  0  0  0
  145.2285  135.9266  153.5884 C   0  0  0  0  0  0  0  0  0  0  0  0
  145.3065  135.0034  154.6545 O   0  0  0  0  0  0  0  0  0  0  0  0
  145.9145  138.4004  152.8418 C   0  0  2  0  0  0  0  0  0  0  0  0
  146.2064  137.9381  151.5332 O   0  0  0  0  0  0  0  0  0  0  0  0
  147.0179  139.3059  153.3844 C   0  0  2  0  0  0  0  0  0  0  0  0
  147.5746  140.1180  152.3681 O   0  0  0  0  0  0  0  0  0  0  0  0
  152.3494  142.3522  159.6108 C   0  0  0  0  0  0  0  0  0  0  0  0
  152.6561  142.6584  160.9558 C   0  0  0  0  0  0  0  0  0  0  0  0
  152.4473  143.9528  161.4673 C   0  0  0  0  0  0  0  0  0  0  0  0
  151.9230  144.9590  160.6373 C   0  0  0  0  0  0  0  0  0  0  0  0
  151.6072  144.6668  159.2981 C   0  0  0  0  0  0  0  0  0  0  0  0
  151.8152  143.3731  158.7777 C   0  0  0  0  0  0  0  0  0  0  0  0
  151.3943  143.0931  157.1229 Cl  0  0  0  0  0  0  0  0  0  0  0  0
  148.8566  138.0682  153.3126 H   0  0  0  0  0  0  0  0  0  0  0  0
  145.4567  137.6603  154.7652 H   0  0  0  0  0  0  0  0  0  0  0  0
  144.9475  138.9040  152.8220 H   0  0  0  0  0  0  0  0  0  0  0  0
  146.6196  139.9342  154.1817 H   0  0  0  0  0  0  0  0  0  0  0  0
  154.2813  140.5956  160.4798 H   0  0  0  0  0  0  0  0  0  0  0  0
  153.6196  139.1111  159.8202 H   0  0  0  0  0  0  0  0  0  0  0  0
  152.7585  139.9625  161.0907 H   0  0  0  0  0  0  0  0  0  0  0  0
  153.2638  141.0143  158.2590 H   0  0  0  0  0  0  0  0  0  0  0  0
  150.7296  140.0180  159.3920 H   0  0  0  0  0  0  0  0  0  0  0  0
  153.0394  139.2588  154.6994 H   0  0  0  0  0  0  0  0  0  0  0  0
  146.8754  138.9373  156.5258 H   0  0  0  0  0  0  0  0  0  0  0  0
  144.1784  136.1082  153.3578 H   0  0  0  0  0  0  0  0  0  0  0  0
  145.6681  135.4590  152.7070 H   0  0  0  0  0  0  0  0  0  0  0  0
  146.1449  134.5691  154.6150 H   0  0  0  0  0  0  0  0  0  0  0  0
  145.5032  138.2032  150.9591 H   0  0  0  0  0  0  0  0  0  0  0  0
  148.4197  139.7628  152.1368 H   0  0  0  0  0  0  0  0  0  0  0  0
  153.0594  141.8967  161.6072 H   0  0  0  0  0  0  0  0  0  0  0  0
  152.6902  144.1730  162.4965 H   0  0  0  0  0  0  0  0  0  0  0  0
  151.7622  145.9535  161.0268 H   0  0  0  0  0  0  0  0  0  0  0  0
  151.2013  145.4423  158.6652 H   0  0  0  0  0  0  0  0  0  0  0  0
  1  2  1  0  0  0  0
  1 33  1  0  0  0  0
  1 34  1  0  0  0  0
  1 35  1  0  0  0  0
  2  3  1  0  0  0  0
  2 22  1  0  0  0  0
  2 36  1  0  0  0  0
  3  4  1  0  0  0  0
  3 37  1  0  0  0  0
  4  9  1  0  0  0  0
  4  5  2  0  0  0  0
  5  6  1  0  0  0  0
  6  7  2  0  0  0  0
  6 38  1  0  0  0  0
  7  8  1  0  0  0  0
  8 12  1  0  0  0  0
  8  9  2  0  0  0  0
  9 10  1  0  0  0  0
 10 11  2  0  0  0  0
 11 12  1  0  0  0  0
 11 39  1  0  0  0  0
 12 13  1  0  0  0  0
 13 29  1  0  0  0  0
 13 20  1  0  0  0  0
 13 14  1  0  0  0  0
 14 15  1  0  0  0  0
 15 30  1  0  0  0  0
 15 16  1  0  0  0  0
 15 18  1  0  0  0  0
 16 17  1  0  0  0  0
 16 40  1  0  0  0  0
 16 41  1  0  0  0  0
 17 42  1  0  0  0  0
 18 31  1  0  0  0  0
 18 19  1  0  0  0  0
 18 20  1  0  0  0  0
 19 43  1  0  0  0  0
 20 32  1  0  0  0  0
 20 21  1  0  0  0  0
 21 44  1  0  0  0  0
 22 27  1  0  0  0  0
 22 23  2  0  0  0  0
 23 24  1  0  0  0  0
 23 45  1  0  0  0  0
 24 25  2  0  0  0  0
 24 46  1  0  0  0  0
 25 26  1  0  0  0  0
 25 47  1  0  0  0  0
 26 27  2  0  0  0  0
 26 48  1  0  0  0  0
 27 28  1  0  0  0  0
M  END
> <s_m_source_file>
AV-unprocessed.smi

> <i_m_source_file_index>
283

> <i_lp_mmshare_version>
43012

> <i_f3d_flags>
0

> <s_epik_input>
Q2xjMVtjSF1bY0hdW2NIXVtjSF1jMVtDQEhdKFtDSDNdKVtOSF1jKG5bY0hdbjIpYyhjMjMpbltjSF1uM1tDQEBIXTRPW0NASF0oW0NIMl1bT0hdKVtDQEBIXShbT0hdKVtDQEhdNFtPSF0=

> <s_epik_cmdline>
J2VwaWtfcHl0aG9uJywgJy1waCcsICc3LjAnLCAnLXRuJywgJzgnLCAnLW1hJywgJzIwMCcsICctbWV0YWxfYmluZGluZycsICctaW1hZScsICc8aW5maWxlLm1hZT4nLCAnLW9tYWUnLCAnPG91dGZpbGUubWFlPic=

> <r_lp_tautomer_probability>
1

> <r_epik_Ionization_Penalty>
0.000266407

> <r_epik_Ionization_Penalty_Charging>
0

> <r_epik_Ionization_Penalty_Neutral>
0.000266407

> <r_epik_State_Penalty>
-0

> <r_epik_Charging_Adjusted_Penalty>
0

> <i_epik_Tot_Q>
0

> <i_epik_Tot_abs_Q>
0

> <r_epik_Metal_State_Penalty>
-0

> <b_epik_Metal_Only>
0

> <s_epik_Chemistry_Notes>
This compound contains an acetal/aminal-like group ( X-CH(R)-Y where X, Y are N, S, or O) that may be acid/base labile, releasing an aldehyde.

> <s_lp_Force_Field>
OPLS_2005

> <r_lp_Energy>
54.2889

> <b_lp_Chiralities_Consistent>
1

> <s_lp_Variant>
AV-unprocessed.smi:283-28

> <Gold.Version>
5.8.1

> <Gold.Id.Protein>
6NUR|6NUR_protein|mol2

> <Gold.PLP.Fitness>
50.9476

> <Gold.PLP.PLP>
-42.2556

> <Gold.PLP.part.hbond>
-3.6651

> <Gold.PLP.part.metal>
0.0000

> <Gold.PLP.part.buried>
-5.4460

> <Gold.PLP.part.nonpolar>
-35.4002

> <Gold.PLP.part.repulsive>
1.7509

> <Gold.PLP.ligand.clash>
0.0000

> <Gold.PLP.ligand.torsion>
0.1508

> <Gold.PLP.Chemscore.Hbond>
2.9600

> <Gold.PLP.Chemscore.CHOScore>
0.0000

> <Gold.PLP.Chemscore.Metal>
0.0000

> <Gold.Chemscore.Hbonds>
donor molecule, donor type, donor heavy atom, donor atom, acceptor molecule, acceptor atom, score
      L1  H    19    43       P1 10171  1.00
      L1  H    21    44       P1  7957  0.78
      P1  H  7997  8010       L1     5  0.79

> <Gold.PLP.Chemscore.Internal.Correction>
0.1136

> <Gold.Rescore>
     Score         DG    S(hbond)    S(metal)    S(lipo)     H(rot)  DE(clash)    DE(int)     intcor
     15.73     -17.45       2.77        0.00     112.76       4.10       1.49       0.23       ----

> <Gold.Chemscore.Fitness>
15.7333

> <Gold.Chemscore.DG>
-17.4512

> <Gold.Chemscore.ZeroCoef>
-5.4800

> <Gold.Chemscore.Hbond>
2.7744

> <Gold.Chemscore.Metal>
0.0000

> <Gold.Chemscore.Lipo>
112.7564

> <Gold.Chemscore.Internal_Hbond>
0.0000

> <Gold.Chemscore.DEClash>
1.4863

> <Gold.Chemscore.DEInternal>
0.2315

> <Gold.Chemscore.Rot>
4.0968

> <Gold.Chemscore.Internal.Correction>
   9.000000E+99

> <Gold.Chemscore.Hbonds>
donor molecule, donor type, donor heavy atom, donor atom, acceptor molecule, acceptor atom, score
      L1  H    19    43       P1 10171  0.93
      L1  H    21    44       P1  7957  0.74
      P1  H  7997  8010       L1     5  0.13

> <Gold.Chemscore.Hbond.Weighted>
-9.2666

> <Gold.Chemscore.Metal.Weighted>
-0.0000

> <Gold.Chemscore.Lipo.Weighted>
-13.1925

> <Gold.Chemscore.Internal_Hbond.Weighted>
0.0000

> <Gold.Chemscore.DEClash.Weighted>
1.4863

> <Gold.Chemscore.DEInternal.Weighted>
0.2315

> <Gold.Chemscore.Rot.Weighted>
10.4879

> <Gold.Chemscore.Internal.Correction.Weighted>
   9.000000E+99

> <Gold.Protein.RotatedTorsions>
[ 6907 6896 6895 6894 ] final   51.18 input  -60.11 | X-H torsion
[ 7974 7965 7964 7962 ] final -141.60 input  175.53 | X-H torsion
[ 8008 7997 7996 7995 ] final   73.20 input   59.86 | X-H torsion
[ 10167 10162 10161 10158 ] final  150.80 input  -65.29 | X-H torsion
[ 10718 10713 10712 10709 ] final  106.58 input   66.30 | X-H torsion
[ 10763 10752 10751 10750 ] final  -55.86 input  -60.55 | X-H torsion
[ 11005 11000 10999 10996 ] final  -38.70 input  -57.11 | X-H torsion

> <Gold.Protein.ActiveResidues>
 VAL166  LYS551  ARG553  GLY616  TRP617  ASP618  TYR619  PRO620  LYS621  CYS622 
 ASP623  PHE694  ASN695  SER759  ASP760  ASP761  ALA762  ILE779  LEU786  VAL792 
 PHE793  MET794  SER795  GLU796  ALA797  LYS798  CYS799  TRP800  GLU811  SER814 

> <Gold.Protein.RotatedAtoms>
  152.3099  134.7510  160.0338 H   0  0  0  0  0  0  0  0  0  0  0  0  # atno 6907 bound_to 6896
  151.7994  133.3363  159.3530 H   0  0  0  0  0  0  0  0  0  0  0  0  # atno 6908 bound_to 6896
  150.7315  134.5698  159.5929 H   0  0  0  0  0  0  0  0  0  0  0  0  # atno 6909 bound_to 6896
  144.8507  140.6060  143.5392 H   0  0  0  0  0  0  0  0  0  0  0  0  # atno 7974 bound_to 7965
  155.7801  140.3482  155.5293 H   0  0  0  0  0  0  0  0  0  0  0  0  # atno 8008 bound_to 7997
  155.8737  140.0990  157.1553 H   0  0  0  0  0  0  0  0  0  0  0  0  # atno 8009 bound_to 7997
  154.4019  140.1335  156.4097 H   0  0  0  0  0  0  0  0  0  0  0  0  # atno 8010 bound_to 7997
  139.4846  144.5493  151.7429 H   0  0  0  0  0  0  0  0  0  0  0  0  # atno 10167 bound_to 10162
  157.6662  131.0854  150.6028 H   0  0  0  0  0  0  0  0  0  0  0  0  # atno 10718 bound_to 10713
  154.1974  135.6417  153.5077 H   0  0  0  0  0  0  0  0  0  0  0  0  # atno 10763 bound_to 10752
  153.0020  135.5443  154.6351 H   0  0  0  0  0  0  0  0  0  0  0  0  # atno 10764 bound_to 10752
  154.5755  135.2920  155.0758 H   0  0  0  0  0  0  0  0  0  0  0  0  # atno 10765 bound_to 10752
  141.0047  133.6938  156.2088 H   0  0  0  0  0  0  0  0  0  0  0  0  # atno 11005 bound_to 11000
  145.4506  139.1524  143.3921 LP  0  0  0  0  0  0  0  0  0  0  0  0  # atno 17320 bound_to 7965
  146.2782  140.4631  142.8787 LP  0  0  0  0  0  0  0  0  0  0  0  0  # atno 17321 bound_to 7965
  140.5044  144.1120  150.5979 LP  0  0  0  0  0  0  0  0  0  0  0  0  # atno 17342 bound_to 10162
  140.4024  143.2697  151.9932 LP  0  0  0  0  0  0  0  0  0  0  0  0  # atno 17343 bound_to 10162
  156.6329  130.4437  149.5780 LP  0  0  0  0  0  0  0  0  0  0  0  0  # atno 17370 bound_to 10713
  156.2268  130.6770  151.1423 LP  0  0  0  0  0  0  0  0  0  0  0  0  # atno 17371 bound_to 10713
  140.6832  134.4745  157.5589 LP  0  0  0  0  0  0  0  0  0  0  0  0  # atno 17394 bound_to 11000
  139.9057  134.8455  156.1716 LP  0  0  0  0  0  0  0  0  0  0  0  0  # atno 17395 bound_to 11000

$$$$
