AV-unprocessed.smi:2521|AV-procd|sdf|9915|dock6
  -GOLD-   2272013553D 1   1.00000     0.00000
 Structure written by MMmdl.
 36 37  0  0  0  0  0  0  0  0  1 V2000
  152.1576  144.5762  158.6177 C   0  0  0  0  0  0  0  0  0  0  0  0
  151.8411  143.5303  159.6966 C   0  0  0  0  0  0  0  0  0  0  0  0
  151.9539  144.0842  161.1242 C   0  0  0  0  0  0  0  0  0  0  0  0
  152.6343  142.2739  159.5136 C   0  0  0  0  0  0  0  0  0  0  0  0
  152.5704  141.5259  158.4036 N   0  0  0  0  0  0  0  0  0  0  0  0
  153.3917  140.4097  158.4706 N   0  0  0  0  0  0  0  0  0  0  0  0
  154.0535  140.3454  159.6338 C   0  0  0  0  0  0  0  0  0  0  0  0
  154.9549  139.3018  159.9726 N   0  0  0  0  0  0  0  0  0  0  0  0
  155.5123  139.0370  161.1671 C   0  0  0  0  0  0  0  0  0  0  0  0
  155.2974  139.6606  162.2067 O   0  0  0  0  0  0  0  0  0  0  0  0
  156.3484  137.9912  161.0904 N   0  0  0  0  0  0  0  0  0  0  0  0
  157.1235  137.4425  162.1992 C   0  0  0  0  0  0  0  0  0  0  0  0
  156.2182  136.8837  163.3134 C   0  0  2  0  0  0  0  0  0  0  0  0
  154.8879  136.3579  162.8147 C   0  0  0  0  0  0  0  0  0  0  0  0
  154.0579  136.3203  164.0949 C   0  0  0  0  0  0  0  0  0  0  0  0
  154.5663  137.3624  164.9229 O   0  0  0  0  0  0  0  0  0  0  0  0
  155.7504  137.9076  164.3497 C   0  0  0  0  0  0  0  0  0  0  0  0
  153.7247  141.6581  160.7513 S   0  0  0  0  0  0  0  0  0  0  0  0
  151.9852  144.1736  157.6190 H   0  0  0  0  0  0  0  0  0  0  0  0
  153.1973  144.9003  158.6718 H   0  0  0  0  0  0  0  0  0  0  0  0
  151.5285  145.4595  158.7304 H   0  0  0  0  0  0  0  0  0  0  0  0
  150.7948  143.2554  159.5578 H   0  0  0  0  0  0  0  0  0  0  0  0
  151.6417  143.3416  161.8591 H   0  0  0  0  0  0  0  0  0  0  0  0
  151.3234  144.9638  161.2552 H   0  0  0  0  0  0  0  0  0  0  0  0
  152.9791  144.3735  161.3577 H   0  0  0  0  0  0  0  0  0  0  0  0
  155.2148  138.6915  159.2119 H   0  0  0  0  0  0  0  0  0  0  0  0
  156.4613  137.5403  160.1943 H   0  0  0  0  0  0  0  0  0  0  0  0
  157.8197  136.6791  161.8473 H   0  0  0  0  0  0  0  0  0  0  0  0
  157.7368  138.2492  162.6015 H   0  0  0  0  0  0  0  0  0  0  0  0
  156.7362  136.0737  163.8300 H   0  0  0  0  0  0  0  0  0  0  0  0
  154.4445  137.0566  162.1036 H   0  0  0  0  0  0  0  0  0  0  0  0
  154.9650  135.3833  162.3319 H   0  0  0  0  0  0  0  0  0  0  0  0
  152.9925  136.4481  163.9022 H   0  0  0  0  0  0  0  0  0  0  0  0
  154.1971  135.3700  164.6115 H   0  0  0  0  0  0  0  0  0  0  0  0
  156.5041  138.1079  165.1116 H   0  0  0  0  0  0  0  0  0  0  0  0
  155.4950  138.8533  163.8696 H   0  0  0  0  0  0  0  0  0  0  0  0
  1  2  1  0  0  0  0
  1 19  1  0  0  0  0
  1 20  1  0  0  0  0
  1 21  1  0  0  0  0
  2  3  1  0  0  0  0
  2  4  1  0  0  0  0
  2 22  1  0  0  0  0
  3 23  1  0  0  0  0
  3 24  1  0  0  0  0
  3 25  1  0  0  0  0
  4 18  1  0  0  0  0
  4  5  2  0  0  0  0
  5  6  1  0  0  0  0
  6  7  2  0  0  0  0
  7  8  1  0  0  0  0
  7 18  1  0  0  0  0
  8  9  1  0  0  0  0
  8 26  1  0  0  0  0
  9 10  2  0  0  0  0
  9 11  1  0  0  0  0
 11 12  1  0  0  0  0
 11 27  1  0  0  0  0
 12 13  1  0  0  0  0
 12 28  1  0  0  0  0
 12 29  1  0  0  0  0
 13 17  1  0  0  0  0
 13 14  1  0  0  0  0
 13 30  1  0  0  0  0
 14 15  1  0  0  0  0
 14 31  1  0  0  0  0
 14 32  1  0  0  0  0
 15 16  1  0  0  0  0
 15 33  1  0  0  0  0
 15 34  1  0  0  0  0
 16 17  1  0  0  0  0
 17 35  1  0  0  0  0
 17 36  1  0  0  0  0
M  END
> <s_m_source_file>
AV-unprocessed.smi

> <i_m_source_file_index>
2521

> <i_lp_mmshare_version>
43012

> <i_f3d_flags>
0

> <s_epik_input>
W0NIM11bQ0hdKFtDSDNdKWMxbm5jKHMxKVtOSF1DKD1PKVtOSF1bQ0gyXVtDQEBIXTJbQ0gyXVtDSDJdT1tDSDJdMg==

> <s_epik_cmdline>
J2VwaWtfcHl0aG9uJywgJy1waCcsICc3LjAnLCAnLXRuJywgJzgnLCAnLW1hJywgJzIwMCcsICctbWV0YWxfYmluZGluZycsICctaW1hZScsICc8aW5maWxlLm1hZT4nLCAnLW9tYWUnLCAnPG91dGZpbGUubWFlPic=

> <r_lp_tautomer_probability>
1

> <r_epik_Ionization_Penalty>
0.000452582

> <r_epik_Ionization_Penalty_Charging>
0

> <r_epik_Ionization_Penalty_Neutral>
0.000452582

> <r_epik_State_Penalty>
-0

> <r_epik_Charging_Adjusted_Penalty>
0

> <i_epik_Tot_Q>
0

> <i_epik_Tot_abs_Q>
0

> <r_epik_Metal_State_Penalty>
0.207746

> <b_epik_Metal_Only>
0

> <s_lp_Force_Field>
OPLS_2005

> <r_lp_Energy>
11.692

> <b_lp_Chiralities_Consistent>
1

> <s_lp_Variant>
AV-unprocessed.smi:2521-1

> <Gold.Version>
5.8.1

> <Gold.Id.Protein>
6NUR|6NUR_protein|mol2

> <Gold.PLP.Fitness>
35.1329

> <Gold.PLP.PLP>
-33.2155

> <Gold.PLP.part.hbond>
-1.0332

> <Gold.PLP.part.metal>
0.0000

> <Gold.PLP.part.buried>
-2.2637

> <Gold.PLP.part.nonpolar>
-29.2695

> <Gold.PLP.part.repulsive>
0.1701

> <Gold.PLP.ligand.clash>
0.0000

> <Gold.PLP.ligand.torsion>
0.4262

> <Gold.PLP.Chemscore.Hbond>
0.8960

> <Gold.PLP.Chemscore.CHOScore>
0.0000

> <Gold.PLP.Chemscore.Metal>
0.0000

> <Gold.Chemscore.Hbonds>
donor molecule, donor type, donor heavy atom, donor atom, acceptor molecule, acceptor atom, score
      P1  H  7997  8008       L1     6  0.83

> <Gold.PLP.Chemscore.Internal.Correction>
0.0818

> <Gold.Rescore>
     Score         DG    S(hbond)    S(metal)    S(lipo)     H(rot)  DE(clash)    DE(int)     intcor
     10.96     -13.97       0.68        0.00      84.77       1.45       0.08       2.93       ----

> <Gold.Chemscore.Fitness>
10.9567

> <Gold.Chemscore.DG>
-13.9707

> <Gold.Chemscore.ZeroCoef>
-5.4800

> <Gold.Chemscore.Hbond>
0.6810

> <Gold.Chemscore.Metal>
0.0000

> <Gold.Chemscore.Lipo>
84.7696

> <Gold.Chemscore.Internal_Hbond>
0.0000

> <Gold.Chemscore.DEClash>
0.0807

> <Gold.Chemscore.DEInternal>
2.9332

> <Gold.Chemscore.Rot>
1.4461

> <Gold.Chemscore.Internal.Correction>
   9.000000E+99

> <Gold.Chemscore.Hbonds>
donor molecule, donor type, donor heavy atom, donor atom, acceptor molecule, acceptor atom, score
      P1  H  7997  8008       L1     6  0.44

> <Gold.Chemscore.Hbond.Weighted>
-2.2745

> <Gold.Chemscore.Metal.Weighted>
-0.0000

> <Gold.Chemscore.Lipo.Weighted>
-9.9180

> <Gold.Chemscore.Internal_Hbond.Weighted>
0.0000

> <Gold.Chemscore.DEClash.Weighted>
0.0807

> <Gold.Chemscore.DEInternal.Weighted>
2.9332

> <Gold.Chemscore.Rot.Weighted>
3.7019

> <Gold.Chemscore.Internal.Correction.Weighted>
   9.000000E+99

> <Gold.Protein.RotatedTorsions>
[ 6907 6896 6895 6894 ] final -129.36 input  -60.11 | X-H torsion
[ 7974 7965 7964 7962 ] final -156.22 input  175.53 | X-H torsion
[ 8008 7997 7996 7995 ] final  -91.57 input   59.86 | X-H torsion
[ 10167 10162 10161 10158 ] final   86.06 input  -65.29 | X-H torsion
[ 10718 10713 10712 10709 ] final  -64.88 input   66.30 | X-H torsion
[ 10763 10752 10751 10750 ] final   58.03 input  -60.55 | X-H torsion
[ 11005 11000 10999 10996 ] final  114.94 input  -57.11 | X-H torsion

> <Gold.Protein.ActiveResidues>
 VAL166  LYS551  ARG553  GLY616  TRP617  ASP618  TYR619  PRO620  LYS621  CYS622 
 ASP623  PHE694  ASN695  SER759  ASP760  ASP761  ALA762  ILE779  LEU786  VAL792 
 PHE793  MET794  SER795  GLU796  ALA797  LYS798  CYS799  TRP800  GLU811  SER814 

> <Gold.Protein.RotatedAtoms>
  150.9278  133.6802  159.2817 H   0  0  0  0  0  0  0  0  0  0  0  0  # atno 6907 bound_to 6896
  151.4235  135.0999  159.9630 H   0  0  0  0  0  0  0  0  0  0  0  0  # atno 6908 bound_to 6896
  152.5011  133.8725  159.7360 H   0  0  0  0  0  0  0  0  0  0  0  0  # atno 6909 bound_to 6896
  144.7603  140.4141  143.5981 H   0  0  0  0  0  0  0  0  0  0  0  0  # atno 7974 bound_to 7965
  154.7124  140.0518  157.0562 H   0  0  0  0  0  0  0  0  0  0  0  0  # atno 8008 bound_to 7997
  155.0537  140.3182  155.4664 H   0  0  0  0  0  0  0  0  0  0  0  0  # atno 8009 bound_to 7997
  156.2793  140.2111  156.5663 H   0  0  0  0  0  0  0  0  0  0  0  0  # atno 8010 bound_to 7997
  139.8914  144.6383  150.8734 H   0  0  0  0  0  0  0  0  0  0  0  0  # atno 10167 bound_to 10162
  156.0703  130.4239  150.1483 H   0  0  0  0  0  0  0  0  0  0  0  0  # atno 10718 bound_to 10713
  152.9862  135.5621  154.5487 H   0  0  0  0  0  0  0  0  0  0  0  0  # atno 10763 bound_to 10752
  154.4928  135.2793  155.1485 H   0  0  0  0  0  0  0  0  0  0  0  0  # atno 10764 bound_to 10752
  154.2948  135.6319  153.5453 H   0  0  0  0  0  0  0  0  0  0  0  0  # atno 10765 bound_to 10752
  139.8995  134.9576  156.6969 H   0  0  0  0  0  0  0  0  0  0  0  0  # atno 11005 bound_to 11000
  145.6641  139.1587  143.2792 LP  0  0  0  0  0  0  0  0  0  0  0  0  # atno 17320 bound_to 7965
  146.1659  140.6718  142.9255 LP  0  0  0  0  0  0  0  0  0  0  0  0  # atno 17321 bound_to 7965
  140.7726  143.3507  151.2020 LP  0  0  0  0  0  0  0  0  0  0  0  0  # atno 17342 bound_to 10162
  139.7106  143.9383  152.2946 LP  0  0  0  0  0  0  0  0  0  0  0  0  # atno 17343 bound_to 10162
  156.9535  130.9782  151.3493 LP  0  0  0  0  0  0  0  0  0  0  0  0  # atno 17370 bound_to 10713
  157.5769  130.8349  149.8468 LP  0  0  0  0  0  0  0  0  0  0  0  0  # atno 17371 bound_to 10713
  140.7181  133.9165  155.8128 LP  0  0  0  0  0  0  0  0  0  0  0  0  # atno 17394 bound_to 11000
  141.0249  134.0837  157.4080 LP  0  0  0  0  0  0  0  0  0  0  0  0  # atno 17395 bound_to 11000

$$$$
