AV-unprocessed.smi:490|AV-procd|sdf|2704|dock3
  -GOLD-   2262023143D 1   1.00000     0.00000
 Structure written by MMmdl.
 49 51  0  0  0  0  0  0  0  0  1 V2000
  155.5703  140.4776  163.9408 C   0  0  0  0  0  0  0  0  0  0  0  0
  155.9752  139.8700  162.6086 C   0  0  0  0  0  0  0  0  0  0  0  0
  157.2061  139.1894  162.5132 C   0  0  0  0  0  0  0  0  0  0  0  0
  157.6096  138.6147  161.2954 C   0  0  0  0  0  0  0  0  0  0  0  0
  156.7795  138.7043  160.1615 C   0  0  0  0  0  0  0  0  0  0  0  0
  157.2223  138.0780  158.8525 C   0  0  0  0  0  0  0  0  0  0  0  0
  155.5368  139.3711  160.2497 C   0  0  0  0  0  0  0  0  0  0  0  0
  154.7378  139.4349  159.1361 O   0  0  0  0  0  0  0  0  0  0  0  0
  153.8201  138.3550  159.0251 C   0  0  0  0  0  0  0  0  0  0  0  0
  152.7412  138.7236  157.9897 C   0  0  1  0  0  0  0  0  0  0  0  0
  152.1928  137.5306  157.4695 O   0  0  0  0  0  0  0  0  0  0  0  0
  151.5810  139.5685  158.5591 C   0  0  0  0  0  0  0  0  0  0  0  0
  151.4466  140.8652  157.9048 N   0  0  0  0  0  0  0  0  0  0  0  0
  151.0042  141.1254  156.6478 C   0  0  0  0  0  0  0  0  0  0  0  0
  150.5389  140.0453  155.7191 C   0  0  0  0  0  0  0  0  0  0  0  0
  150.3991  140.4952  154.3886 O   0  0  0  0  0  0  0  0  0  0  0  0
  150.9957  142.4095  156.2891 N   0  0  0  0  0  0  0  0  0  0  0  0
  151.4586  143.0452  157.4237 C   0  0  0  0  0  0  0  0  0  0  0  0
  151.6805  144.4172  157.6796 C   0  0  0  0  0  0  0  0  0  0  0  0
  152.1650  144.8401  158.9345 C   0  0  0  0  0  0  0  0  0  0  0  0
  152.4315  143.8994  159.9502 C   0  0  0  0  0  0  0  0  0  0  0  0
  152.2172  142.5277  159.7158 C   0  0  0  0  0  0  0  0  0  0  0  0
  151.7395  142.1090  158.4589 C   0  0  0  0  0  0  0  0  0  0  0  0
  155.1380  139.9761  161.4702 C   0  0  0  0  0  0  0  0  0  0  0  0
  153.8206  140.7362  161.5629 C   0  0  0  0  0  0  0  0  0  0  0  0
  156.2771  140.2155  164.7286 H   0  0  0  0  0  0  0  0  0  0  0  0
  154.5866  140.1175  164.2436 H   0  0  0  0  0  0  0  0  0  0  0  0
  155.5364  141.5648  163.8697 H   0  0  0  0  0  0  0  0  0  0  0  0
  157.8515  139.1076  163.3755 H   0  0  0  0  0  0  0  0  0  0  0  0
  158.5586  138.1018  161.2380 H   0  0  0  0  0  0  0  0  0  0  0  0
  157.1824  138.8119  158.0473 H   0  0  0  0  0  0  0  0  0  0  0  0
  156.5702  137.2446  158.5916 H   0  0  0  0  0  0  0  0  0  0  0  0
  158.2439  137.7030  158.9160 H   0  0  0  0  0  0  0  0  0  0  0  0
  154.3382  137.4336  158.7556 H   0  0  0  0  0  0  0  0  0  0  0  0
  153.3642  138.1704  159.9954 H   0  0  0  0  0  0  0  0  0  0  0  0
  153.2048  139.2666  157.1665 H   0  0  0  0  0  0  0  0  0  0  0  0
  151.9979  136.9521  158.1912 H   0  0  0  0  0  0  0  0  0  0  0  0
  150.6372  139.0326  158.4546 H   0  0  0  0  0  0  0  0  0  0  0  0
  151.7185  139.7272  159.6293 H   0  0  0  0  0  0  0  0  0  0  0  0
  151.2569  139.2244  155.7339 H   0  0  0  0  0  0  0  0  0  0  0  0
  149.5909  139.6348  156.0631 H   0  0  0  0  0  0  0  0  0  0  0  0
  149.5605  140.2079  154.0614 H   0  0  0  0  0  0  0  0  0  0  0  0
  151.4774  145.1455  156.9085 H   0  0  0  0  0  0  0  0  0  0  0  0
  152.3321  145.8911  159.1190 H   0  0  0  0  0  0  0  0  0  0  0  0
  152.8023  144.2315  160.9088 H   0  0  0  0  0  0  0  0  0  0  0  0
  152.4261  141.8053  160.4910 H   0  0  0  0  0  0  0  0  0  0  0  0
  153.3783  140.9255  160.5853 H   0  0  0  0  0  0  0  0  0  0  0  0
  153.9661  141.7060  162.0383 H   0  0  0  0  0  0  0  0  0  0  0  0
  153.1016  140.1686  162.1536 H   0  0  0  0  0  0  0  0  0  0  0  0
  1  2  1  0  0  0  0
  1 26  1  0  0  0  0
  1 27  1  0  0  0  0
  1 28  1  0  0  0  0
  2 24  1  0  0  0  0
  2  3  2  0  0  0  0
  3  4  1  0  0  0  0
  3 29  1  0  0  0  0
  4  5  2  0  0  0  0
  4 30  1  0  0  0  0
  5  6  1  0  0  0  0
  5  7  1  0  0  0  0
  6 31  1  0  0  0  0
  6 32  1  0  0  0  0
  6 33  1  0  0  0  0
  7  8  1  0  0  0  0
  7 24  2  0  0  0  0
  8  9  1  0  0  0  0
  9 10  1  0  0  0  0
  9 34  1  0  0  0  0
  9 35  1  0  0  0  0
 10 11  1  0  0  0  0
 10 12  1  0  0  0  0
 10 36  1  0  0  0  0
 11 37  1  0  0  0  0
 12 13  1  0  0  0  0
 12 38  1  0  0  0  0
 12 39  1  0  0  0  0
 13 23  1  0  0  0  0
 13 14  1  0  0  0  0
 14 15  1  0  0  0  0
 14 17  2  0  0  0  0
 15 16  1  0  0  0  0
 15 40  1  0  0  0  0
 15 41  1  0  0  0  0
 16 42  1  0  0  0  0
 17 18  1  0  0  0  0
 18 23  2  0  0  0  0
 18 19  1  0  0  0  0
 19 20  2  0  0  0  0
 19 43  1  0  0  0  0
 20 21  1  0  0  0  0
 20 44  1  0  0  0  0
 21 22  2  0  0  0  0
 21 45  1  0  0  0  0
 22 23  1  0  0  0  0
 22 46  1  0  0  0  0
 24 25  1  0  0  0  0
 25 47  1  0  0  0  0
 25 48  1  0  0  0  0
 25 49  1  0  0  0  0
M  END
> <s_m_source_file>
AV-unprocessed.smi

> <i_m_source_file_index>
490

> <i_lp_mmshare_version>
43012

> <i_f3d_flags>
0

> <s_epik_input>
W0NIM11jMVtjSF1bY0hdYyhbQ0gzXSljKGMxW0NIM10pT1tDSDJdW0NASF0oW09IXSlbQ0gyXW4oYyhuMilbQ0gyXVtPSF0pYyhjMjMpW2NIXVtjSF1bY0hdW2NIXTM=

> <s_epik_cmdline>
J2VwaWtfcHl0aG9uJywgJy1waCcsICc3LjAnLCAnLXRuJywgJzgnLCAnLW1hJywgJzIwMCcsICctbWV0YWxfYmluZGluZycsICctaW1hZScsICc8aW5maWxlLm1hZT4nLCAnLW9tYWUnLCAnPG91dGZpbGUubWFlPic=

> <r_lp_tautomer_probability>
1

> <r_epik_Ionization_Penalty>
0.0555874

> <r_epik_Ionization_Penalty_Charging>
0

> <r_epik_Ionization_Penalty_Neutral>
0.0555874

> <r_epik_State_Penalty>
0.0478234

> <r_epik_Charging_Adjusted_Penalty>
0.0478234

> <i_epik_Tot_Q>
0

> <i_epik_Tot_abs_Q>
0

> <r_epik_Metal_State_Penalty>
4.98044e-05

> <b_epik_Metal_Only>
0

> <s_lp_Force_Field>
OPLS_2005

> <r_lp_Energy>
21.221

> <b_lp_Chiralities_Consistent>
1

> <s_lp_Variant>
AV-unprocessed.smi:490-2

> <Gold.Version>
5.8.1

> <Gold.Id.Protein>
6NUR|6NUR_protein|mol2

> <Gold.PLP.Fitness>
46.1547

> <Gold.PLP.PLP>
-43.4861

> <Gold.PLP.part.hbond>
-2.0000

> <Gold.PLP.part.metal>
0.0000

> <Gold.PLP.part.buried>
-2.5075

> <Gold.PLP.part.nonpolar>
-37.3338

> <Gold.PLP.part.repulsive>
0.1145

> <Gold.PLP.ligand.clash>
0.0000

> <Gold.PLP.ligand.torsion>
1.7020

> <Gold.PLP.Chemscore.Hbond>
1.9440

> <Gold.PLP.Chemscore.CHOScore>
0.0000

> <Gold.PLP.Chemscore.Metal>
0.0000

> <Gold.Chemscore.Hbonds>
donor molecule, donor type, donor heavy atom, donor atom, acceptor molecule, acceptor atom, score
      P1  H  7989  7998       L1    16  0.96
      P1  H  7997  8009       L1     8  1.00

> <Gold.PLP.Chemscore.Internal.Correction>
0.2407

> <Gold.Rescore>
     Score         DG    S(hbond)    S(metal)    S(lipo)     H(rot)  DE(clash)    DE(int)     intcor
     17.65     -19.63       1.85        0.00     132.19       2.93       0.19       1.79       ----

> <Gold.Chemscore.Fitness>
17.6507

> <Gold.Chemscore.DG>
-19.6285

> <Gold.Chemscore.ZeroCoef>
-5.4800

> <Gold.Chemscore.Hbond>
1.8497

> <Gold.Chemscore.Metal>
0.0000

> <Gold.Chemscore.Lipo>
132.1876

> <Gold.Chemscore.Internal_Hbond>
0.0000

> <Gold.Chemscore.DEClash>
0.1909

> <Gold.Chemscore.DEInternal>
1.7869

> <Gold.Chemscore.Rot>
2.9279

> <Gold.Chemscore.Internal.Correction>
   9.000000E+99

> <Gold.Chemscore.Hbonds>
donor molecule, donor type, donor heavy atom, donor atom, acceptor molecule, acceptor atom, score
      P1  H  7989  7998       L1    16  0.88
      P1  H  7997  8009       L1     8  0.76

> <Gold.Chemscore.Hbond.Weighted>
-6.1780

> <Gold.Chemscore.Metal.Weighted>
-0.0000

> <Gold.Chemscore.Lipo.Weighted>
-15.4659

> <Gold.Chemscore.Internal_Hbond.Weighted>
0.0000

> <Gold.Chemscore.DEClash.Weighted>
0.1909

> <Gold.Chemscore.DEInternal.Weighted>
1.7869

> <Gold.Chemscore.Rot.Weighted>
7.4954

> <Gold.Chemscore.Internal.Correction.Weighted>
   9.000000E+99

> <Gold.Protein.RotatedTorsions>
[ 6907 6896 6895 6894 ] final   44.13 input  -60.11 | X-H torsion
[ 7974 7965 7964 7962 ] final -141.31 input  175.53 | X-H torsion
[ 8008 7997 7996 7995 ] final  104.99 input   59.86 | X-H torsion
[ 10167 10162 10161 10158 ] final   -0.09 input  -65.29 | X-H torsion
[ 10718 10713 10712 10709 ] final  -20.27 input   66.30 | X-H torsion
[ 10763 10752 10751 10750 ] final  107.16 input  -60.55 | X-H torsion
[ 11005 11000 10999 10996 ] final   44.15 input  -57.11 | X-H torsion

> <Gold.Protein.ActiveResidues>
 VAL166  LYS551  ARG553  GLY616  TRP617  ASP618  TYR619  PRO620  LYS621  CYS622 
 ASP623  PHE694  ASN695  SER759  ASP760  ASP761  ALA762  ILE779  LEU786  VAL792 
 PHE793  MET794  SER795  GLU796  ALA797  LYS798  CYS799  TRP800  GLU811  SER814 

> <Gold.Protein.RotatedAtoms>
  152.2287  134.8343  160.0476 H   0  0  0  0  0  0  0  0  0  0  0  0  # atno 6907 bound_to 6896
  151.9099  133.3553  159.3868 H   0  0  0  0  0  0  0  0  0  0  0  0  # atno 6908 bound_to 6896
  150.7019  134.4668  159.5450 H   0  0  0  0  0  0  0  0  0  0  0  0  # atno 6909 bound_to 6896
  144.8529  140.6095  143.5378 H   0  0  0  0  0  0  0  0  0  0  0  0  # atno 7974 bound_to 7965
  156.1621  140.3138  155.8824 H   0  0  0  0  0  0  0  0  0  0  0  0  # atno 8008 bound_to 7997
  155.3762  140.0485  157.3061 H   0  0  0  0  0  0  0  0  0  0  0  0  # atno 8009 bound_to 7997
  154.5156  140.2180  155.9083 H   0  0  0  0  0  0  0  0  0  0  0  0  # atno 8010 bound_to 7997
  140.6752  143.6936  150.8008 H   0  0  0  0  0  0  0  0  0  0  0  0  # atno 10167 bound_to 10162
  156.5341  130.4662  149.6532 H   0  0  0  0  0  0  0  0  0  0  0  0  # atno 10718 bound_to 10713
  153.4029  135.3853  155.2000 H   0  0  0  0  0  0  0  0  0  0  0  0  # atno 10763 bound_to 10752
  154.8731  135.3775  154.4596 H   0  0  0  0  0  0  0  0  0  0  0  0  # atno 10764 bound_to 10752
  153.5095  135.7087  153.5850 H   0  0  0  0  0  0  0  0  0  0  0  0  # atno 10765 bound_to 10752
  140.1579  134.4379  155.8337 H   0  0  0  0  0  0  0  0  0  0  0  0  # atno 11005 bound_to 11000
  145.4463  139.1529  143.3943 LP  0  0  0  0  0  0  0  0  0  0  0  0  # atno 17320 bound_to 7965
  146.2800  140.4587  142.8780 LP  0  0  0  0  0  0  0  0  0  0  0  0  # atno 17321 bound_to 7965
  140.0628  143.5138  152.2619 LP  0  0  0  0  0  0  0  0  0  0  0  0  # atno 17342 bound_to 10162
  139.6041  144.7591  151.3104 LP  0  0  0  0  0  0  0  0  0  0  0  0  # atno 17343 bound_to 10162
  156.3032  130.7188  151.2065 LP  0  0  0  0  0  0  0  0  0  0  0  0  # atno 17370 bound_to 10713
  157.7417  131.0501  150.5080 LP  0  0  0  0  0  0  0  0  0  0  0  0  # atno 17371 bound_to 10713
  141.2206  133.6900  156.7540 LP  0  0  0  0  0  0  0  0  0  0  0  0  # atno 17394 bound_to 11000
  140.2526  134.8529  157.3682 LP  0  0  0  0  0  0  0  0  0  0  0  0  # atno 17395 bound_to 11000

$$$$
