AV-unprocessed.smi:189|AV-procd|sdf|1487|dock4
  -GOLD-   2262019303D 1   1.00000     0.00000
 Structure written by MMmdl.
 53 57  0  0  0  0  0  0  0  0  1 V2000
  150.8324  140.0066  155.2562 C   0  0  0  0  0  0  0  0  0  0  0  0
  150.5455  140.8441  156.5108 C   0  0  2  0  0  0  0  0  0  0  0  0
  150.7434  142.3655  156.3052 C   0  0  0  0  0  0  0  0  0  0  0  0
  151.7521  142.7475  157.3887 C   0  0  1  0  0  0  0  0  0  0  0  0
  151.6664  144.1384  158.0280 C   0  0  0  0  0  0  0  0  0  0  0  0
  152.7297  144.2455  159.1426 C   0  0  0  0  0  0  0  0  0  0  0  0
  152.6353  143.0889  160.1656 C   0  0  0  0  0  0  0  0  0  0  0  0
  152.6304  141.7002  159.4917 C   0  0  0  0  0  0  0  0  0  0  0  0
  151.5190  141.6681  158.4312 C   0  0  2  0  0  0  0  0  0  0  0  0
  151.4124  140.4628  157.6300 N   0  0  0  0  0  0  0  0  0  0  0  0
  151.0642  139.3465  158.3091 C   0  0  0  0  0  0  0  0  0  0  0  0
  151.9864  138.6632  159.0374 N   0  0  0  0  0  0  0  0  0  0  0  0
  151.6281  137.5570  159.6964 C   0  0  0  0  0  0  0  0  0  0  0  0
  150.4295  136.9715  159.7562 N   0  0  0  0  0  0  0  0  0  0  0  0
  149.5065  137.6528  159.0173 C   0  0  0  0  0  0  0  0  0  0  0  0
  149.7395  138.8410  158.2710 C   0  0  0  0  0  0  0  0  0  0  0  0
  148.5691  139.2539  157.6487 N   0  0  0  0  0  0  0  0  0  0  0  0
  147.6901  138.3587  158.0085 C   0  0  0  0  0  0  0  0  0  0  0  0
  148.1685  137.3558  158.8228 N   0  0  0  0  0  0  0  0  0  0  0  0
  147.4087  136.2405  159.3673 C   0  0  0  0  0  0  0  0  0  0  0  0
  146.6141  136.5949  160.6476 C   0  0  2  0  0  0  0  0  0  0  0  0
  146.0729  137.8962  160.5062 O   0  0  0  0  0  0  0  0  0  0  0  0
  147.4849  136.5533  161.9053 C   0  0  0  0  0  0  0  0  0  0  0  0
  146.9879  135.3176  162.6458 C   0  0  0  0  0  0  0  0  0  0  0  0
  145.6034  135.3139  162.3481 O   0  0  0  0  0  0  0  0  0  0  0  0
  145.4751  135.6050  160.9640 C   0  0  0  0  0  0  0  0  0  0  0  0
  150.1942  140.3140  154.4276 H   0  0  0  0  0  0  0  0  0  0  0  0
  150.6492  138.9474  155.4386 H   0  0  0  0  0  0  0  0  0  0  0  0
  151.8698  140.1159  154.9383 H   0  0  0  0  0  0  0  0  0  0  0  0
  149.5027  140.6839  156.7887 H   0  0  0  0  0  0  0  0  0  0  0  0
  151.1117  142.6181  155.3103 H   0  0  0  0  0  0  0  0  0  0  0  0
  149.7968  142.8871  156.4528 H   0  0  0  0  0  0  0  0  0  0  0  0
  152.7519  142.6196  156.9677 H   0  0  0  0  0  0  0  0  0  0  0  0
  151.8262  144.9128  157.2773 H   0  0  0  0  0  0  0  0  0  0  0  0
  150.6714  144.3006  158.4442 H   0  0  0  0  0  0  0  0  0  0  0  0
  153.7224  144.2403  158.6908 H   0  0  0  0  0  0  0  0  0  0  0  0
  152.6331  145.2029  159.6554 H   0  0  0  0  0  0  0  0  0  0  0  0
  153.4601  143.1535  160.8757 H   0  0  0  0  0  0  0  0  0  0  0  0
  151.7209  143.2046  160.7489 H   0  0  0  0  0  0  0  0  0  0  0  0
  153.5992  141.5032  159.0307 H   0  0  0  0  0  0  0  0  0  0  0  0
  152.4722  140.9226  160.2397 H   0  0  0  0  0  0  0  0  0  0  0  0
  150.5596  141.8437  158.9232 H   0  0  0  0  0  0  0  0  0  0  0  0
  152.4148  137.0703  160.2537 H   0  0  0  0  0  0  0  0  0  0  0  0
  146.6606  138.4026  157.6836 H   0  0  0  0  0  0  0  0  0  0  0  0
  146.7289  135.8795  158.5943 H   0  0  0  0  0  0  0  0  0  0  0  0
  148.1027  135.4227  159.5669 H   0  0  0  0  0  0  0  0  0  0  0  0
  145.1322  137.8369  160.5769 H   0  0  0  0  0  0  0  0  0  0  0  0
  148.5538  136.5063  161.6933 H   0  0  0  0  0  0  0  0  0  0  0  0
  147.3151  137.4323  162.5298 H   0  0  0  0  0  0  0  0  0  0  0  0
  147.4530  134.4112  162.2544 H   0  0  0  0  0  0  0  0  0  0  0  0
  147.1711  135.3666  163.7194 H   0  0  0  0  0  0  0  0  0  0  0  0
  144.4821  135.9886  160.7262 H   0  0  0  0  0  0  0  0  0  0  0  0
  145.6040  134.6688  160.4210 H   0  0  0  0  0  0  0  0  0  0  0  0
  1  2  1  0  0  0  0
  1 27  1  0  0  0  0
  1 28  1  0  0  0  0
  1 29  1  0  0  0  0
  2 10  1  0  0  0  0
  2  3  1  0  0  0  0
  2 30  1  0  0  0  0
  3  4  1  0  0  0  0
  3 31  1  0  0  0  0
  3 32  1  0  0  0  0
  4  9  1  0  0  0  0
  4  5  1  0  0  0  0
  4 33  1  0  0  0  0
  5  6  1  0  0  0  0
  5 34  1  0  0  0  0
  5 35  1  0  0  0  0
  6  7  1  0  0  0  0
  6 36  1  0  0  0  0
  6 37  1  0  0  0  0
  7  8  1  0  0  0  0
  7 38  1  0  0  0  0
  7 39  1  0  0  0  0
  8  9  1  0  0  0  0
  8 40  1  0  0  0  0
  8 41  1  0  0  0  0
  9 10  1  0  0  0  0
  9 42  1  0  0  0  0
 10 11  1  0  0  0  0
 11 16  1  0  0  0  0
 11 12  2  0  0  0  0
 12 13  1  0  0  0  0
 13 14  2  0  0  0  0
 13 43  1  0  0  0  0
 14 15  1  0  0  0  0
 15 19  1  0  0  0  0
 15 16  2  0  0  0  0
 16 17  1  0  0  0  0
 17 18  2  0  0  0  0
 18 19  1  0  0  0  0
 18 44  1  0  0  0  0
 19 20  1  0  0  0  0
 20 21  1  0  0  0  0
 20 45  1  0  0  0  0
 20 46  1  0  0  0  0
 21 26  1  0  0  0  0
 21 22  1  0  0  0  0
 21 23  1  0  0  0  0
 22 47  1  0  0  0  0
 23 24  1  0  0  0  0
 23 48  1  0  0  0  0
 23 49  1  0  0  0  0
 24 25  1  0  0  0  0
 24 50  1  0  0  0  0
 24 51  1  0  0  0  0
 25 26  1  0  0  0  0
 26 52  1  0  0  0  0
 26 53  1  0  0  0  0
M  END
> <s_m_source_file>
AV-unprocessed.smi

> <i_m_source_file_index>
189

> <i_lp_mmshare_version>
43012

> <i_f3d_flags>
0

> <s_epik_input>
W0NIMl0xW0NIMl1bQ0gyXVtDSDJdW0NASF0oW0NASF0xMilOKFtDQEhdKFtDSDNdKVtDSDJdMiljKG5bY0hdbjMpYyhjMzQpbltjSF1uNFtDSDJdW0NAQF01KFtPSF0pW0NIMl1bQ0gyXU9bQ0gyXTU=

> <s_epik_cmdline>
J2VwaWtfcHl0aG9uJywgJy1waCcsICc3LjAnLCAnLXRuJywgJzgnLCAnLW1hJywgJzIwMCcsICctbWV0YWxfYmluZGluZycsICctaW1hZScsICc8aW5maWxlLm1hZT4nLCAnLW9tYWUnLCAnPG91dGZpbGUubWFlPic=

> <r_lp_tautomer_probability>
1

> <r_epik_Ionization_Penalty>
0.00594261

> <r_epik_Ionization_Penalty_Charging>
0

> <r_epik_Ionization_Penalty_Neutral>
0.00594261

> <r_epik_State_Penalty>
0.00429776

> <r_epik_Charging_Adjusted_Penalty>
0.00429776

> <i_epik_Tot_Q>
0

> <i_epik_Tot_abs_Q>
0

> <r_epik_Metal_State_Penalty>
-0

> <b_epik_Metal_Only>
0

> <s_lp_Force_Field>
OPLS_2005

> <r_lp_Energy>
58.4812

> <b_lp_Chiralities_Consistent>
1

> <s_lp_Variant>
AV-unprocessed.smi:189-13

> <Gold.Version>
5.8.1

> <Gold.Id.Protein>
6NUR|6NUR_protein|mol2

> <Gold.PLP.Fitness>
50.2659

> <Gold.PLP.PLP>
-46.6222

> <Gold.PLP.part.hbond>
-2.0000

> <Gold.PLP.part.metal>
0.0000

> <Gold.PLP.part.buried>
-4.7292

> <Gold.PLP.part.nonpolar>
-40.0343

> <Gold.PLP.part.repulsive>
0.0000

> <Gold.PLP.ligand.clash>
0.0000

> <Gold.PLP.ligand.torsion>
1.1874

> <Gold.PLP.Chemscore.Hbond>
2.0000

> <Gold.PLP.Chemscore.CHOScore>
0.0000

> <Gold.PLP.Chemscore.Metal>
0.0000

> <Gold.Chemscore.Hbonds>
donor molecule, donor type, donor heavy atom, donor atom, acceptor molecule, acceptor atom, score
      P1  H  6896  6908       L1    14  0.85
      P1  H  6934  6947       L1    22  1.00

> <Gold.PLP.Chemscore.Internal.Correction>
0.0185

> <Gold.Rescore>
     Score         DG    S(hbond)    S(metal)    S(lipo)     H(rot)  DE(clash)    DE(int)     intcor
     18.33     -20.97       1.87        0.00     123.39       2.03       0.20       2.44       ----

> <Gold.Chemscore.Fitness>
18.3313

> <Gold.Chemscore.DG>
-20.9670

> <Gold.Chemscore.ZeroCoef>
-5.4800

> <Gold.Chemscore.Hbond>
1.8701

> <Gold.Chemscore.Metal>
0.0000

> <Gold.Chemscore.Lipo>
123.3932

> <Gold.Chemscore.Internal_Hbond>
0.0000

> <Gold.Chemscore.DEClash>
0.1972

> <Gold.Chemscore.DEInternal>
2.4386

> <Gold.Chemscore.Rot>
2.0297

> <Gold.Chemscore.Internal.Correction>
   9.000000E+99

> <Gold.Chemscore.Hbonds>
donor molecule, donor type, donor heavy atom, donor atom, acceptor molecule, acceptor atom, score
      P1  H  6896  6908       L1    14  0.14
      P1  H  6934  6947       L1    22  0.80

> <Gold.Chemscore.Hbond.Weighted>
-6.2460

> <Gold.Chemscore.Metal.Weighted>
-0.0000

> <Gold.Chemscore.Lipo.Weighted>
-14.4370

> <Gold.Chemscore.Internal_Hbond.Weighted>
0.0000

> <Gold.Chemscore.DEClash.Weighted>
0.1972

> <Gold.Chemscore.DEInternal.Weighted>
2.4386

> <Gold.Chemscore.Rot.Weighted>
5.1960

> <Gold.Chemscore.Internal.Correction.Weighted>
   9.000000E+99

> <Gold.Protein.RotatedTorsions>
[ 6907 6896 6895 6894 ] final -150.85 input  -60.11 | X-H torsion
[ 7974 7965 7964 7962 ] final  135.91 input  175.53 | X-H torsion
[ 8008 7997 7996 7995 ] final   54.42 input   59.86 | X-H torsion
[ 10167 10162 10161 10158 ] final   63.84 input  -65.29 | X-H torsion
[ 10718 10713 10712 10709 ] final -169.22 input   66.30 | X-H torsion
[ 10763 10752 10751 10750 ] final -150.99 input  -60.55 | X-H torsion
[ 11005 11000 10999 10996 ] final   -8.51 input  -57.11 | X-H torsion

> <Gold.Protein.ActiveResidues>
 VAL166  LYS551  ARG553  GLY616  TRP617  ASP618  TYR619  PRO620  LYS621  CYS622 
 ASP623  PHE694  ASN695  SER759  ASP760  ASP761  ALA762  ILE779  LEU786  VAL792 
 PHE793  MET794  SER795  GLU796  ALA797  LYS798  CYS799  TRP800  GLU811  SER814 

> <Gold.Protein.RotatedAtoms>
  151.2046  133.4591  159.2596 H   0  0  0  0  0  0  0  0  0  0  0  0  # atno 6907 bound_to 6896
  151.1036  134.9986  159.8470 H   0  0  0  0  0  0  0  0  0  0  0  0  # atno 6908 bound_to 6896
  152.5445  134.1971  159.8750 H   0  0  0  0  0  0  0  0  0  0  0  0  # atno 6909 bound_to 6896
  144.9617  139.4703  143.5476 H   0  0  0  0  0  0  0  0  0  0  0  0  # atno 7974 bound_to 7965
  155.4844  140.3469  155.4345 H   0  0  0  0  0  0  0  0  0  0  0  0  # atno 8008 bound_to 7997
  156.1018  140.1437  156.9486 H   0  0  0  0  0  0  0  0  0  0  0  0  # atno 8009 bound_to 7997
  154.4698  140.0904  156.7094 H   0  0  0  0  0  0  0  0  0  0  0  0  # atno 8010 bound_to 7997
  140.1286  144.4664  150.6878 H   0  0  0  0  0  0  0  0  0  0  0  0  # atno 10167 bound_to 10162
  156.7084  130.9224  151.3087 H   0  0  0  0  0  0  0  0  0  0  0  0  # atno 10718 bound_to 10713
  154.8086  135.3271  154.7366 H   0  0  0  0  0  0  0  0  0  0  0  0  # atno 10763 bound_to 10752
  153.8020  135.6902  153.4858 H   0  0  0  0  0  0  0  0  0  0  0  0  # atno 10764 bound_to 10752
  153.1848  135.4573  155.0019 H   0  0  0  0  0  0  0  0  0  0  0  0  # atno 10765 bound_to 10752
  140.7242  133.8803  155.8844 H   0  0  0  0  0  0  0  0  0  0  0  0  # atno 11005 bound_to 11000
  146.3355  139.8770  142.8830 LP  0  0  0  0  0  0  0  0  0  0  0  0  # atno 17320 bound_to 7965
  145.2690  141.0102  143.3782 LP  0  0  0  0  0  0  0  0  0  0  0  0  # atno 17321 bound_to 7965
  140.6830  143.2336  151.5334 LP  0  0  0  0  0  0  0  0  0  0  0  0  # atno 17342 bound_to 10162
  139.5531  144.2344  152.1565 LP  0  0  0  0  0  0  0  0  0  0  0  0  # atno 17343 bound_to 10162
  157.6946  130.9268  150.0607 LP  0  0  0  0  0  0  0  0  0  0  0  0  # atno 17370 bound_to 10713
  156.1678  130.3645  149.9207 LP  0  0  0  0  0  0  0  0  0  0  0  0  # atno 17371 bound_to 10713
  140.9977  134.1193  157.4347 LP  0  0  0  0  0  0  0  0  0  0  0  0  # atno 17394 bound_to 11000
  139.8841  135.0059  156.6345 LP  0  0  0  0  0  0  0  0  0  0  0  0  # atno 17395 bound_to 11000

$$$$
