AV-unprocessed.smi:3165|AV-procd|sdf|12087|dock7
  -GOLD-   2272017513D 1   1.00000     0.00000
 Structure written by MMmdl.
 38 39  0  0  0  0  0  0  0  0  2 V2000
  149.4951  142.7175  158.3831 C   0  0  0  0  0  0  0  0  0  0  0  0
  150.8452  142.4516  157.7039 C   0  0  2  0  0  0  0  0  0  0  0  0
  151.9098  143.4560  158.1933 C   0  0  0  0  0  0  0  0  0  0  0  0
  152.2447  143.2865  159.5958 N   0  0  0  0  0  0  0  0  0  0  0  0
  152.0752  144.1802  160.6322 C   0  0  0  0  0  0  0  0  0  0  0  0
  152.5265  143.5729  161.7689 C   0  0  0  0  0  0  0  0  0  0  0  0
  152.9609  142.2942  161.3205 C   0  0  0  0  0  0  0  0  0  0  0  0
  152.7905  142.1254  160.0192 N   0  0  0  0  0  0  0  0  0  0  0  0
  150.6773  142.5220  156.2345 N   0  3  0  0  0  0  0  0  0  0  0  0
  149.7467  141.5252  155.6640 C   0  0  0  0  0  0  0  0  0  0  0  0
  150.3595  140.1191  155.6973 C   0  0  1  0  0  0  0  0  0  0  0  0
  149.5892  139.1363  154.7938 C   0  0  0  0  0  0  0  0  0  0  0  0
  150.2811  137.7687  154.7708 C   0  0  0  0  0  0  0  0  0  0  0  0
  151.7564  137.9424  154.3956 C   0  0  0  0  0  0  0  0  0  0  0  0
  152.4198  138.9849  155.3093 C   0  0  0  0  0  0  0  0  0  0  0  0
  151.7062  140.2158  155.2375 O   0  0  0  0  0  0  0  0  0  0  0  0
  149.5777  142.6359  159.4674 H   0  0  0  0  0  0  0  0  0  0  0  0
  148.7429  141.9981  158.0577 H   0  0  0  0  0  0  0  0  0  0  0  0
  149.1228  143.7165  158.1525 H   0  0  0  0  0  0  0  0  0  0  0  0
  151.1547  141.4428  157.9828 H   0  0  0  0  0  0  0  0  0  0  0  0
  152.8207  143.3724  157.5979 H   0  0  0  0  0  0  0  0  0  0  0  0
  151.5472  144.4760  158.0597 H   0  0  0  0  0  0  0  0  0  0  0  0
  151.6512  145.1614  160.4770 H   0  0  0  0  0  0  0  0  0  0  0  0
  152.5455  143.9807  162.7689 H   0  0  0  0  0  0  0  0  0  0  0  0
  153.3913  141.4892  161.8980 H   0  0  0  0  0  0  0  0  0  0  0  0
  150.3197  143.4373  156.0006 H   0  0  0  0  0  0  0  0  0  0  0  0
  148.8190  141.5311  156.2363 H   0  0  0  0  0  0  0  0  0  0  0  0
  149.4917  141.8051  154.6410 H   0  0  0  0  0  0  0  0  0  0  0  0
  150.3494  139.7498  156.7245 H   0  0  0  0  0  0  0  0  0  0  0  0
  148.5616  139.0266  155.1421 H   0  0  0  0  0  0  0  0  0  0  0  0
  149.5345  139.5333  153.7792 H   0  0  0  0  0  0  0  0  0  0  0  0
  150.2039  137.3009  155.7531 H   0  0  0  0  0  0  0  0  0  0  0  0
  149.7847  137.1018  154.0654 H   0  0  0  0  0  0  0  0  0  0  0  0
  152.2794  136.9882  154.4668 H   0  0  0  0  0  0  0  0  0  0  0  0
  151.8354  138.2660  153.3570 H   0  0  0  0  0  0  0  0  0  0  0  0
  152.4554  138.6328  156.3414 H   0  0  0  0  0  0  0  0  0  0  0  0
  153.4499  139.1563  154.9964 H   0  0  0  0  0  0  0  0  0  0  0  0
  151.5844  142.4136  155.8030 H   0  0  0  0  0  0  0  0  0  0  0  0
  1  2  1  0  0  0  0
  1 17  1  0  0  0  0
  1 18  1  0  0  0  0
  1 19  1  0  0  0  0
  2  3  1  0  0  0  0
  2  9  1  0  0  0  0
  2 20  1  0  0  0  0
  3  4  1  0  0  0  0
  3 21  1  0  0  0  0
  3 22  1  0  0  0  0
  4  8  1  0  0  0  0
  4  5  1  0  0  0  0
  5  6  2  0  0  0  0
  5 23  1  0  0  0  0
  6  7  1  0  0  0  0
  6 24  1  0  0  0  0
  7  8  2  0  0  0  0
  7 25  1  0  0  0  0
  9 10  1  0  0  0  0
  9 26  1  0  0  0  0
  9 38  1  0  0  0  0
 10 11  1  0  0  0  0
 10 27  1  0  0  0  0
 10 28  1  0  0  0  0
 11 16  1  0  0  0  0
 11 12  1  0  0  0  0
 11 29  1  0  0  0  0
 12 13  1  0  0  0  0
 12 30  1  0  0  0  0
 12 31  1  0  0  0  0
 13 14  1  0  0  0  0
 13 32  1  0  0  0  0
 13 33  1  0  0  0  0
 14 15  1  0  0  0  0
 14 34  1  0  0  0  0
 14 35  1  0  0  0  0
 15 16  1  0  0  0  0
 15 36  1  0  0  0  0
 15 37  1  0  0  0  0
M  CHG  1   9   1
M  END
> <s_m_source_file>
AV-unprocessed.smi

> <i_m_source_file_index>
3165

> <i_lp_mmshare_version>
43012

> <i_f3d_flags>
0

> <s_epik_input>
bjFbY0hdW2NIXVtjSF1uMVtDSDJdW0NAQEhdKFtDSDNdKVtOSF1bQ0gyXVtDQEBIXTJbQ0gyXVtDSDJdW0NIMl1bQ0gyXU8y

> <s_epik_cmdline>
J2VwaWtfcHl0aG9uJywgJy1waCcsICc3LjAnLCAnLXRuJywgJzgnLCAnLW1hJywgJzIwMCcsICctbWV0YWxfYmluZGluZycsICctaW1hZScsICc8aW5maWxlLm1hZT4nLCAnLW9tYWUnLCAnPG91dGZpbGUubWFlPic=

> <r_lp_tautomer_probability>
1

> <r_epik_Ionization_Penalty>
0.00849196

> <r_epik_Ionization_Penalty_Charging>
0.00848754

> <r_epik_Ionization_Penalty_Neutral>
4.42049e-06

> <r_epik_State_Penalty>
0.00639836

> <r_epik_Charging_Adjusted_Penalty>
0.0148859

> <i_epik_Tot_Q>
1

> <i_epik_Tot_abs_Q>
1

> <r_epik_Metal_State_Penalty>
0.00639878

> <b_epik_Metal_Only>
0

> <s_lp_Force_Field>
OPLS_2005

> <r_lp_Energy>
13.1527

> <b_lp_Chiralities_Consistent>
1

> <s_lp_Variant>
AV-unprocessed.smi:3165-3

> <Gold.Version>
5.8.1

> <Gold.Id.Protein>
6NUR|6NUR_protein|mol2

> <Gold.PLP.Fitness>
49.4625

> <Gold.PLP.PLP>
-41.2038

> <Gold.PLP.part.hbond>
-2.0000

> <Gold.PLP.part.metal>
0.0000

> <Gold.PLP.part.buried>
-6.4319

> <Gold.PLP.part.nonpolar>
-34.4661

> <Gold.PLP.part.repulsive>
0.1321

> <Gold.PLP.ligand.clash>
0.0000

> <Gold.PLP.ligand.torsion>
0.1812

> <Gold.PLP.Chemscore.Hbond>
2.8640

> <Gold.PLP.Chemscore.CHOScore>
0.0000

> <Gold.PLP.Chemscore.Metal>
0.0000

> <Gold.Chemscore.Hbonds>
donor molecule, donor type, donor heavy atom, donor atom, acceptor molecule, acceptor atom, score
      L1  H     9    26       P1  8028  2.00
      P1  H  7989  7998       L1    16  0.90

> <Gold.PLP.Chemscore.Internal.Correction>
0.0290

> <Gold.Rescore>
     Score         DG    S(hbond)    S(metal)    S(lipo)     H(rot)  DE(clash)    DE(int)     intcor
     19.00     -19.11       1.87        0.00      99.08       1.64       0.00       0.11       ----

> <Gold.Chemscore.Fitness>
18.9990

> <Gold.Chemscore.DG>
-19.1120

> <Gold.Chemscore.ZeroCoef>
-5.4800

> <Gold.Chemscore.Hbond>
1.8712

> <Gold.Chemscore.Metal>
0.0000

> <Gold.Chemscore.Lipo>
99.0770

> <Gold.Chemscore.Internal_Hbond>
0.0000

> <Gold.Chemscore.DEClash>
0.0040

> <Gold.Chemscore.DEInternal>
0.1089

> <Gold.Chemscore.Rot>
1.6444

> <Gold.Chemscore.Internal.Correction>
   9.000000E+99

> <Gold.Chemscore.Hbonds>
donor molecule, donor type, donor heavy atom, donor atom, acceptor molecule, acceptor atom, score
      L1  H     9    26       P1  8028  0.97
      P1  H  7989  7998       L1    16  0.47

> <Gold.Chemscore.Hbond.Weighted>
-6.2497

> <Gold.Chemscore.Metal.Weighted>
-0.0000

> <Gold.Chemscore.Lipo.Weighted>
-11.5920

> <Gold.Chemscore.Internal_Hbond.Weighted>
0.0000

> <Gold.Chemscore.DEClash.Weighted>
0.0040

> <Gold.Chemscore.DEInternal.Weighted>
0.1089

> <Gold.Chemscore.Rot.Weighted>
4.2097

> <Gold.Chemscore.Internal.Correction.Weighted>
   9.000000E+99

> <Gold.Protein.RotatedTorsions>
[ 6907 6896 6895 6894 ] final  149.22 input  -60.11 | X-H torsion
[ 7974 7965 7964 7962 ] final  -72.97 input  175.53 | X-H torsion
[ 8008 7997 7996 7995 ] final -147.99 input   59.86 | X-H torsion
[ 10167 10162 10161 10158 ] final -119.95 input  -65.29 | X-H torsion
[ 10718 10713 10712 10709 ] final   92.07 input   66.30 | X-H torsion
[ 10763 10752 10751 10750 ] final  -90.34 input  -60.55 | X-H torsion
[ 11005 11000 10999 10996 ] final   29.92 input  -57.11 | X-H torsion

> <Gold.Protein.ActiveResidues>
 VAL166  LYS551  ARG553  GLY616  TRP617  ASP618  TYR619  PRO620  LYS621  CYS622 
 ASP623  PHE694  ASN695  SER759  ASP760  ASP761  ALA762  ILE779  LEU786  VAL792 
 PHE793  MET794  SER795  GLU796  ALA797  LYS798  CYS799  TRP800  GLU811  SER814 

> <Gold.Protein.RotatedAtoms>
  152.1310  133.4408  159.4720 H   0  0  0  0  0  0  0  0  0  0  0  0  # atno 6907 bound_to 6896
  150.6878  134.2420  159.4485 H   0  0  0  0  0  0  0  0  0  0  0  0  # atno 6908 bound_to 6896
  152.0304  134.9770  160.0623 H   0  0  0  0  0  0  0  0  0  0  0  0  # atno 6909 bound_to 6896
  145.6583  140.9261  143.0948 H   0  0  0  0  0  0  0  0  0  0  0  0  # atno 7974 bound_to 7965
  155.5844  140.0646  157.2775 H   0  0  0  0  0  0  0  0  0  0  0  0  # atno 8008 bound_to 7997
  154.4323  140.1846  156.1056 H   0  0  0  0  0  0  0  0  0  0  0  0  # atno 8009 bound_to 7997
  156.0281  140.3309  155.7113 H   0  0  0  0  0  0  0  0  0  0  0  0  # atno 8010 bound_to 7997
  140.0411  143.5152  152.2129 H   0  0  0  0  0  0  0  0  0  0  0  0  # atno 10167 bound_to 10162
  157.6959  131.0430  150.3826 H   0  0  0  0  0  0  0  0  0  0  0  0  # atno 10718 bound_to 10713
  154.6647  135.5308  153.8062 H   0  0  0  0  0  0  0  0  0  0  0  0  # atno 10763 bound_to 10752
  153.0464  135.6514  154.0817 H   0  0  0  0  0  0  0  0  0  0  0  0  # atno 10764 bound_to 10752
  154.0722  135.2953  155.3286 H   0  0  0  0  0  0  0  0  0  0  0  0  # atno 10765 bound_to 10752
  140.2998  134.2769  155.7756 H   0  0  0  0  0  0  0  0  0  0  0  0  # atno 11005 bound_to 11000
  144.7098  139.8415  143.7418 LP  0  0  0  0  0  0  0  0  0  0  0  0  # atno 17320 bound_to 7965
  146.1147  139.4156  143.0266 LP  0  0  0  0  0  0  0  0  0  0  0  0  # atno 17321 bound_to 7965
  139.6013  144.7583  151.3165 LP  0  0  0  0  0  0  0  0  0  0  0  0  # atno 17342 bound_to 10162
  140.7259  143.7003  150.7850 LP  0  0  0  0  0  0  0  0  0  0  0  0  # atno 17343 bound_to 10162
  156.4238  130.3958  149.6807 LP  0  0  0  0  0  0  0  0  0  0  0  0  # atno 17370 bound_to 10713
  156.4048  130.7693  151.2703 LP  0  0  0  0  0  0  0  0  0  0  0  0  # atno 17371 bound_to 10713
  141.2130  133.7639  156.9750 LP  0  0  0  0  0  0  0  0  0  0  0  0  # atno 17394 bound_to 11000
  140.1119  134.9471  157.2078 LP  0  0  0  0  0  0  0  0  0  0  0  0  # atno 17395 bound_to 11000

$$$$
