AV-unprocessed.smi:2926|AV-procd|sdf|11226|dock8
  -GOLD-   2272016113D 1   1.00000     0.00000
 Structure written by MMmdl.
 32 32  0  0  0  0  0  0  0  0  1 V2000
  152.2540  143.7445  159.0590 C   0  0  0  0  0  0  0  0  0  0  0  0
  152.3848  142.3396  159.6810 C   0  0  0  0  0  0  0  0  0  0  0  0
  153.6765  142.2909  160.5193 C   0  0  0  0  0  0  0  0  0  0  0  0
  152.3197  141.2207  158.6040 C   0  0  1  0  0  0  0  0  0  0  0  0
  152.7255  139.8230  159.1209 C   0  0  0  0  0  0  0  0  0  0  0  0
  154.1106  139.6168  158.9396 O   0  0  0  0  0  0  0  0  0  0  0  0
  150.9442  141.1276  158.0974 N   0  0  0  0  0  0  0  0  0  0  0  0
  150.6360  140.1752  156.6912 S   0  0  0  0  0  0  0  0  0  0  0  0
  151.9199  139.6258  156.2281 O   0  0  0  0  0  0  0  0  0  0  0  0
  149.5190  139.2703  157.0025 O   0  0  0  0  0  0  0  0  0  0  0  0
  150.0695  141.4377  155.4750 C   0  0  0  0  0  0  0  0  0  0  0  0
  148.9086  140.8980  154.6882 C   0  0  0  0  0  0  0  0  0  0  0  0
  147.7326  141.5781  154.2655 C   0  0  0  0  0  0  0  0  0  0  0  0
  147.0326  140.6175  153.5942 C   0  0  0  0  0  0  0  0  0  0  0  0
  147.7151  139.4447  153.5945 O   0  0  0  0  0  0  0  0  0  0  0  0
  148.9124  139.6344  154.2937 N   0  0  0  0  0  0  0  0  0  0  0  0
  152.9891  141.5008  157.7888 H   0  0  0  0  0  0  0  0  0  0  0  0
  153.0469  143.9307  158.3339 H   0  0  0  0  0  0  0  0  0  0  0  0
  152.3148  144.5208  159.8222 H   0  0  0  0  0  0  0  0  0  0  0  0
  151.2997  143.8786  158.5493 H   0  0  0  0  0  0  0  0  0  0  0  0
  151.5458  142.2054  160.3655 H   0  0  0  0  0  0  0  0  0  0  0  0
  154.5620  142.3096  159.8832 H   0  0  0  0  0  0  0  0  0  0  0  0
  153.7284  141.4017  161.1459 H   0  0  0  0  0  0  0  0  0  0  0  0
  153.7381  143.1453  161.1939 H   0  0  0  0  0  0  0  0  0  0  0  0
  152.5450  139.7211  160.1890 H   0  0  0  0  0  0  0  0  0  0  0  0
  152.1601  139.0329  158.6252 H   0  0  0  0  0  0  0  0  0  0  0  0
  154.3139  138.7212  159.1616 H   0  0  0  0  0  0  0  0  0  0  0  0
  150.2971  140.8891  158.8487 H   0  0  0  0  0  0  0  0  0  0  0  0
  149.7895  142.3400  156.0176 H   0  0  0  0  0  0  0  0  0  0  0  0
  150.9103  141.6856  154.8261 H   0  0  0  0  0  0  0  0  0  0  0  0
  147.4466  142.6059  154.4333 H   0  0  0  0  0  0  0  0  0  0  0  0
  146.0806  140.6128  153.0845 H   0  0  0  0  0  0  0  0  0  0  0  0
  1  2  1  0  0  0  0
  1 18  1  0  0  0  0
  1 19  1  0  0  0  0
  1 20  1  0  0  0  0
  2  3  1  0  0  0  0
  2  4  1  0  0  0  0
  2 21  1  0  0  0  0
  3 22  1  0  0  0  0
  3 23  1  0  0  0  0
  3 24  1  0  0  0  0
  4 17  1  0  0  0  0
  4  5  1  0  0  0  0
  4  7  1  0  0  0  0
  5  6  1  0  0  0  0
  5 25  1  0  0  0  0
  5 26  1  0  0  0  0
  6 27  1  0  0  0  0
  7  8  1  0  0  0  0
  7 28  1  0  0  0  0
  8  9  2  0  0  0  0
  8 10  2  0  0  0  0
  8 11  1  0  0  0  0
 11 12  1  0  0  0  0
 11 29  1  0  0  0  0
 11 30  1  0  0  0  0
 12 16  2  0  0  0  0
 12 13  1  0  0  0  0
 13 14  2  0  0  0  0
 13 31  1  0  0  0  0
 14 15  1  0  0  0  0
 14 32  1  0  0  0  0
 15 16  1  0  0  0  0
M  END
> <s_m_source_file>
AV-unprocessed.smi

> <i_m_source_file_index>
2926

> <i_lp_mmshare_version>
43012

> <i_f3d_flags>
0

> <s_epik_input>
W0NIM11bQ0hdKFtDSDNdKVtDQEBIXShbQ0gyXVtPSF0pW05IXVMoPU8pKD1PKVtDSDJdYzFbY0hdW2NIXW9uMQ==

> <s_epik_cmdline>
J2VwaWtfcHl0aG9uJywgJy1waCcsICc3LjAnLCAnLXRuJywgJzgnLCAnLW1hJywgJzIwMCcsICctbWV0YWxfYmluZGluZycsICctaW1hZScsICc8aW5maWxlLm1hZT4nLCAnLW9tYWUnLCAnPG91dGZpbGUubWFlPic=

> <r_lp_tautomer_probability>
1

> <r_epik_Ionization_Penalty>
0.000193122

> <r_epik_Ionization_Penalty_Charging>
0

> <r_epik_Ionization_Penalty_Neutral>
0.000193122

> <r_epik_State_Penalty>
-0

> <r_epik_Charging_Adjusted_Penalty>
0

> <i_epik_Tot_Q>
0

> <i_epik_Tot_abs_Q>
0

> <r_epik_Metal_State_Penalty>
0.130256

> <b_epik_Metal_Only>
0

> <s_lp_Force_Field>
OPLS_2005

> <r_lp_Energy>
6.6882

> <b_lp_Chiralities_Consistent>
1

> <s_lp_Variant>
AV-unprocessed.smi:2926-1

> <Gold.Version>
5.8.1

> <Gold.Id.Protein>
6NUR|6NUR_protein|mol2

> <Gold.PLP.Fitness>
34.0541

> <Gold.PLP.PLP>
-30.4997

> <Gold.PLP.part.hbond>
-1.0000

> <Gold.PLP.part.metal>
0.0000

> <Gold.PLP.part.buried>
-4.7584

> <Gold.PLP.part.nonpolar>
-24.8650

> <Gold.PLP.part.repulsive>
0.9802

> <Gold.PLP.ligand.clash>
0.0000

> <Gold.PLP.ligand.torsion>
1.3214

> <Gold.PLP.Chemscore.Hbond>
1.0000

> <Gold.PLP.Chemscore.CHOScore>
0.9988

> <Gold.PLP.Chemscore.Metal>
0.0000

> <Gold.Chemscore.Hbonds>
donor molecule, donor type, donor heavy atom, donor atom, acceptor molecule, acceptor atom, score
      P1  H  7997  8009       L1     6  0.96
      L1  C    14    32       P1 10175  1.00

> <Gold.PLP.Chemscore.Internal.Correction>
0.2007

> <Gold.Rescore>
     Score         DG    S(hbond)    S(metal)    S(lipo)     H(rot)  DE(clash)    DE(int)     intcor
      9.06     -10.07       0.99        0.00      75.72       2.96       0.00       1.01       ----

> <Gold.Chemscore.Fitness>
9.0559

> <Gold.Chemscore.DG>
-10.0713

> <Gold.Chemscore.ZeroCoef>
-5.4800

> <Gold.Chemscore.Hbond>
0.9883

> <Gold.Chemscore.Metal>
0.0000

> <Gold.Chemscore.Lipo>
75.7160

> <Gold.Chemscore.Internal_Hbond>
0.0000

> <Gold.Chemscore.DEClash>
0.0015

> <Gold.Chemscore.DEInternal>
1.0139

> <Gold.Chemscore.Rot>
2.9564

> <Gold.Chemscore.Internal.Correction>
   9.000000E+99

> <Gold.Chemscore.Hbonds>
donor molecule, donor type, donor heavy atom, donor atom, acceptor molecule, acceptor atom, score
      P1  H  7997  8009       L1     6  0.56

> <Gold.Chemscore.Hbond.Weighted>
-3.3010

> <Gold.Chemscore.Metal.Weighted>
-0.0000

> <Gold.Chemscore.Lipo.Weighted>
-8.8588

> <Gold.Chemscore.Internal_Hbond.Weighted>
0.0000

> <Gold.Chemscore.DEClash.Weighted>
0.0015

> <Gold.Chemscore.DEInternal.Weighted>
1.0139

> <Gold.Chemscore.Rot.Weighted>
7.5685

> <Gold.Chemscore.Internal.Correction.Weighted>
   9.000000E+99

> <Gold.Protein.RotatedTorsions>
[ 6907 6896 6895 6894 ] final  128.72 input  -60.11 | X-H torsion
[ 7974 7965 7964 7962 ] final   85.72 input  175.53 | X-H torsion
[ 8008 7997 7996 7995 ] final  151.22 input   59.86 | X-H torsion
[ 10167 10162 10161 10158 ] final  153.40 input  -65.29 | X-H torsion
[ 10718 10713 10712 10709 ] final  156.31 input   66.30 | X-H torsion
[ 10763 10752 10751 10750 ] final  -44.24 input  -60.55 | X-H torsion
[ 11005 11000 10999 10996 ] final  -61.98 input  -57.11 | X-H torsion

> <Gold.Protein.ActiveResidues>
 VAL166  LYS551  ARG553  GLY616  TRP617  ASP618  TYR619  PRO620  LYS621  CYS622 
 ASP623  PHE694  ASN695  SER759  ASP760  ASP761  ALA762  ILE779  LEU786  VAL792 
 PHE793  MET794  SER795  GLU796  ALA797  LYS798  CYS799  TRP800  GLU811  SER814 

> <Gold.Protein.RotatedAtoms>
  152.3692  133.6397  159.6074 H   0  0  0  0  0  0  0  0  0  0  0  0  # atno 6907 bound_to 6896
  150.7656  133.9297  159.3432 H   0  0  0  0  0  0  0  0  0  0  0  0  # atno 6908 bound_to 6896
  151.7123  135.0911  160.0321 H   0  0  0  0  0  0  0  0  0  0  0  0  # atno 6909 bound_to 6896
  145.5818  139.2326  143.2348 H   0  0  0  0  0  0  0  0  0  0  0  0  # atno 7974 bound_to 7965
  156.2683  140.2053  156.6141 H   0  0  0  0  0  0  0  0  0  0  0  0  # atno 8008 bound_to 7997
  154.6808  140.0540  157.0288 H   0  0  0  0  0  0  0  0  0  0  0  0  # atno 8009 bound_to 7997
  155.1003  140.3205  155.4552 H   0  0  0  0  0  0  0  0  0  0  0  0  # atno 8010 bound_to 7997
  139.4827  144.5276  151.7776 H   0  0  0  0  0  0  0  0  0  0  0  0  # atno 10167 bound_to 10162
  157.2066  131.0688  151.1994 H   0  0  0  0  0  0  0  0  0  0  0  0  # atno 10718 bound_to 10713
  154.0089  135.6684  153.4764 H   0  0  0  0  0  0  0  0  0  0  0  0  # atno 10763 bound_to 10752
  153.0629  135.5017  154.8132 H   0  0  0  0  0  0  0  0  0  0  0  0  # atno 10764 bound_to 10752
  154.7008  135.3078  154.9308 H   0  0  0  0  0  0  0  0  0  0  0  0  # atno 10765 bound_to 10752
  141.1343  133.6635  156.5457 H   0  0  0  0  0  0  0  0  0  0  0  0  # atno 11005 bound_to 11000
  146.1711  140.6644  142.9233 LP  0  0  0  0  0  0  0  0  0  0  0  0  # atno 17320 bound_to 7965
  144.7390  140.4890  143.6882 LP  0  0  0  0  0  0  0  0  0  0  0  0  # atno 17321 bound_to 7965
  140.4798  144.1467  150.5930 LP  0  0  0  0  0  0  0  0  0  0  0  0  # atno 17342 bound_to 10162
  140.4291  143.2576  151.9619 LP  0  0  0  0  0  0  0  0  0  0  0  0  # atno 17343 bound_to 10162
  157.3714  130.7183  149.6567 LP  0  0  0  0  0  0  0  0  0  0  0  0  # atno 17370 bound_to 10713
  155.9695  130.4198  150.4391 LP  0  0  0  0  0  0  0  0  0  0  0  0  # atno 17371 bound_to 10713
  140.4104  134.7277  157.4832 LP  0  0  0  0  0  0  0  0  0  0  0  0  # atno 17394 bound_to 11000
  140.0431  134.6238  155.8955 LP  0  0  0  0  0  0  0  0  0  0  0  0  # atno 17395 bound_to 11000

$$$$
