AV-unprocessed.smi:1514|AV-procd|sdf|6114|dock8
  -GOLD-   22720 6243D 1   1.00000     0.00000
 Structure written by MMmdl.
 48 49  0  0  0  0  0  0  0  0  2 V2000
  146.1926  128.4896  152.1346 C   0  0  0  0  0  0  0  0  0  0  0  0
  146.1460  129.9752  152.5211 C   0  0  0  0  0  0  0  0  0  0  0  0
  147.4913  130.5384  152.7975 N   0  3  0  0  0  0  0  0  0  0  0  0
  148.2007  129.8698  153.9174 C   0  0  0  0  0  0  0  0  0  0  0  0
  149.6118  130.4688  154.1011 C   0  0  0  0  0  0  0  0  0  0  0  0
  149.5723  131.9128  154.3433 N   0  0  0  0  0  0  0  0  0  0  0  0
  149.0522  132.2407  155.6750 C   0  0  0  0  0  0  0  0  0  0  0  0
  149.5981  133.5713  156.2242 C   0  0  0  0  0  0  0  0  0  0  0  0
  149.3263  134.6732  155.3099 N   0  0  0  0  0  0  0  0  0  0  0  0
  149.4193  135.9683  155.6390 C   0  0  0  0  0  0  0  0  0  0  0  0
  149.7494  136.3579  156.7593 O   0  0  0  0  0  0  0  0  0  0  0  0
  149.1063  136.7578  154.5968 N   0  0  0  0  0  0  0  0  0  0  0  0
  149.0898  138.1156  154.5339 C   0  0  0  0  0  0  0  0  0  0  0  0
  148.0178  138.9608  154.4426 C   0  0  0  0  0  0  0  0  0  0  0  0
  148.6334  140.2460  154.4147 C   0  0  0  0  0  0  0  0  0  0  0  0
  147.9670  141.5869  154.3222 C   0  0  0  0  0  0  0  0  0  0  0  0
  149.9586  140.1815  154.4836 N   0  0  0  0  0  0  0  0  0  0  0  0
  150.2458  138.8637  154.5584 N   0  0  0  0  0  0  0  0  0  0  0  0
  151.6248  138.4242  154.6456 C   0  0  0  0  0  0  0  0  0  0  0  0
  148.8782  132.5605  153.2248 C   0  0  0  0  0  0  0  0  0  0  0  0
  147.4532  132.0040  153.0223 C   0  0  0  0  0  0  0  0  0  0  0  0
  145.2021  128.1390  151.8442 H   0  0  0  0  0  0  0  0  0  0  0  0
  146.5258  127.8613  152.9602 H   0  0  0  0  0  0  0  0  0  0  0  0
  146.8613  128.3213  151.2901 H   0  0  0  0  0  0  0  0  0  0  0  0
  145.6982  130.5214  151.6897 H   0  0  0  0  0  0  0  0  0  0  0  0
  145.4918  130.1285  153.3804 H   0  0  0  0  0  0  0  0  0  0  0  0
  147.6164  129.9520  154.8348 H   0  0  0  0  0  0  0  0  0  0  0  0
  148.3027  128.8052  153.7102 H   0  0  0  0  0  0  0  0  0  0  0  0
  150.1317  129.9715  154.9210 H   0  0  0  0  0  0  0  0  0  0  0  0
  150.2060  130.2822  153.2053 H   0  0  0  0  0  0  0  0  0  0  0  0
  147.9632  132.2630  155.6768 H   0  0  0  0  0  0  0  0  0  0  0  0
  149.3405  131.4459  156.3644 H   0  0  0  0  0  0  0  0  0  0  0  0
  149.1883  133.7931  157.2098 H   0  0  0  0  0  0  0  0  0  0  0  0
  150.6777  133.4848  156.3549 H   0  0  0  0  0  0  0  0  0  0  0  0
  149.0434  134.4317  154.3713 H   0  0  0  0  0  0  0  0  0  0  0  0
  148.8514  136.2857  153.7421 H   0  0  0  0  0  0  0  0  0  0  0  0
  146.9656  138.7228  154.4016 H   0  0  0  0  0  0  0  0  0  0  0  0
  146.8953  141.4831  154.1519 H   0  0  0  0  0  0  0  0  0  0  0  0
  148.3768  142.1750  153.5006 H   0  0  0  0  0  0  0  0  0  0  0  0
  148.1034  142.1563  155.2419 H   0  0  0  0  0  0  0  0  0  0  0  0
  151.8923  137.8797  153.7398 H   0  0  0  0  0  0  0  0  0  0  0  0
  151.7468  137.7664  155.5065 H   0  0  0  0  0  0  0  0  0  0  0  0
  152.2944  139.2781  154.7571 H   0  0  0  0  0  0  0  0  0  0  0  0
  148.8492  133.6405  153.3635 H   0  0  0  0  0  0  0  0  0  0  0  0
  149.4611  132.3950  152.3177 H   0  0  0  0  0  0  0  0  0  0  0  0
  147.0051  132.4902  152.1550 H   0  0  0  0  0  0  0  0  0  0  0  0
  146.8126  132.2384  153.8734 H   0  0  0  0  0  0  0  0  0  0  0  0
  148.0462  130.3935  151.9661 H   0  0  0  0  0  0  0  0  0  0  0  0
  1  2  1  0  0  0  0
  1 22  1  0  0  0  0
  1 23  1  0  0  0  0
  1 24  1  0  0  0  0
  2  3  1  0  0  0  0
  2 25  1  0  0  0  0
  2 26  1  0  0  0  0
  3 21  1  0  0  0  0
  3  4  1  0  0  0  0
  3 48  1  0  0  0  0
  4  5  1  0  0  0  0
  4 27  1  0  0  0  0
  4 28  1  0  0  0  0
  5  6  1  0  0  0  0
  5 29  1  0  0  0  0
  5 30  1  0  0  0  0
  6  7  1  0  0  0  0
  6 20  1  0  0  0  0
  7  8  1  0  0  0  0
  7 31  1  0  0  0  0
  7 32  1  0  0  0  0
  8  9  1  0  0  0  0
  8 33  1  0  0  0  0
  8 34  1  0  0  0  0
  9 10  1  0  0  0  0
  9 35  1  0  0  0  0
 10 11  2  0  0  0  0
 10 12  1  0  0  0  0
 12 13  1  0  0  0  0
 12 36  1  0  0  0  0
 13 18  1  0  0  0  0
 13 14  2  0  0  0  0
 14 15  1  0  0  0  0
 14 37  1  0  0  0  0
 15 16  1  0  0  0  0
 15 17  2  0  0  0  0
 16 38  1  0  0  0  0
 16 39  1  0  0  0  0
 16 40  1  0  0  0  0
 17 18  1  0  0  0  0
 18 19  1  0  0  0  0
 19 41  1  0  0  0  0
 19 42  1  0  0  0  0
 19 43  1  0  0  0  0
 20 21  1  0  0  0  0
 20 44  1  0  0  0  0
 20 45  1  0  0  0  0
 21 46  1  0  0  0  0
 21 47  1  0  0  0  0
M  CHG  1   3   1
M  END
> <s_m_source_file>
AV-unprocessed.smi

> <i_m_source_file_index>
1514

> <i_lp_mmshare_version>
43012

> <i_f3d_flags>
0

> <s_epik_input>
W0NIM11bQ0gyXU4xW0NIMl1bQ0gyXU4oW0NIMl1bQ0gyXTEpW0NIMl1bQ0gyXVtOSF1DKD1PKVtOSF1jMltjSF1jKFtDSDNdKW5uMltDSDNd

> <s_epik_cmdline>
J2VwaWtfcHl0aG9uJywgJy1waCcsICc3LjAnLCAnLXRuJywgJzgnLCAnLW1hJywgJzIwMCcsICctbWV0YWxfYmluZGluZycsICctaW1hZScsICc8aW5maWxlLm1hZT4nLCAnLW9tYWUnLCAnPG91dGZpbGUubWFlPic=

> <r_lp_tautomer_probability>
1

> <r_epik_Ionization_Penalty>
0.0527919

> <r_epik_Ionization_Penalty_Charging>
0.052373

> <r_epik_Ionization_Penalty_Neutral>
0.000418955

> <r_epik_State_Penalty>
0.130843

> <r_epik_Charging_Adjusted_Penalty>
0.183216

> <i_epik_Tot_Q>
1

> <i_epik_Tot_abs_Q>
1

> <r_epik_Metal_State_Penalty>
0.130841

> <b_epik_Metal_Only>
0

> <s_lp_Force_Field>
OPLS_2005

> <r_lp_Energy>
24.8956

> <b_lp_Chiralities_Consistent>
1

> <s_lp_Variant>
AV-unprocessed.smi:1514-1

> <Gold.Version>
5.8.1

> <Gold.Id.Protein>
6NUR|6NUR_protein|mol2

> <Gold.PLP.Fitness>
44.7240

> <Gold.PLP.PLP>
-37.7928

> <Gold.PLP.part.hbond>
-3.0000

> <Gold.PLP.part.metal>
0.0000

> <Gold.PLP.part.buried>
-4.8585

> <Gold.PLP.part.nonpolar>
-29.4297

> <Gold.PLP.part.repulsive>
0.2134

> <Gold.PLP.ligand.clash>
0.0000

> <Gold.PLP.ligand.torsion>
1.0546

> <Gold.PLP.Chemscore.Hbond>
3.0000

> <Gold.PLP.Chemscore.CHOScore>
0.0000

> <Gold.PLP.Chemscore.Metal>
0.0000

> <Gold.Chemscore.Hbonds>
donor molecule, donor type, donor heavy atom, donor atom, acceptor molecule, acceptor atom, score
      L1  H     3    48       P1 10747  1.00
      L1  H    12    36       P1  7948  0.94
      P1  H  7989  7998       L1    17  0.93

> <Gold.PLP.Chemscore.Internal.Correction>
0.0403

> <Gold.Rescore>
     Score         DG    S(hbond)    S(metal)    S(lipo)     H(rot)  DE(clash)    DE(int)     intcor
     18.76     -20.00       2.85        0.00      79.79       1.69       0.05       1.19       ----

> <Gold.Chemscore.Fitness>
18.7631

> <Gold.Chemscore.DG>
-19.9999

> <Gold.Chemscore.ZeroCoef>
-5.4800

> <Gold.Chemscore.Hbond>
2.8486

> <Gold.Chemscore.Metal>
0.0000

> <Gold.Chemscore.Lipo>
79.7887

> <Gold.Chemscore.Internal_Hbond>
0.0000

> <Gold.Chemscore.DEClash>
0.0492

> <Gold.Chemscore.DEInternal>
1.1875

> <Gold.Chemscore.Rot>
1.6914

> <Gold.Chemscore.Internal.Correction>
   9.000000E+99

> <Gold.Chemscore.Hbonds>
donor molecule, donor type, donor heavy atom, donor atom, acceptor molecule, acceptor atom, score
      L1  H     3    48       P1 10747  0.97
      L1  H    12    36       P1  7948  0.91
      P1  H  7989  7998       L1    17  0.25

> <Gold.Chemscore.Hbond.Weighted>
-9.5145

> <Gold.Chemscore.Metal.Weighted>
-0.0000

> <Gold.Chemscore.Lipo.Weighted>
-9.3353

> <Gold.Chemscore.Internal_Hbond.Weighted>
0.0000

> <Gold.Chemscore.DEClash.Weighted>
0.0492

> <Gold.Chemscore.DEInternal.Weighted>
1.1875

> <Gold.Chemscore.Rot.Weighted>
4.3299

> <Gold.Chemscore.Internal.Correction.Weighted>
   9.000000E+99

> <Gold.Protein.RotatedTorsions>
[ 6907 6896 6895 6894 ] final  -56.76 input  -60.11 | X-H torsion
[ 7974 7965 7964 7962 ] final   38.96 input  175.53 | X-H torsion
[ 8008 7997 7996 7995 ] final  -59.08 input   59.86 | X-H torsion
[ 10167 10162 10161 10158 ] final -142.78 input  -65.29 | X-H torsion
[ 10718 10713 10712 10709 ] final   27.96 input   66.30 | X-H torsion
[ 10763 10752 10751 10750 ] final  105.78 input  -60.55 | X-H torsion
[ 11005 11000 10999 10996 ] final    1.66 input  -57.11 | X-H torsion

> <Gold.Protein.ActiveResidues>
 VAL166  LYS551  ARG553  GLY616  TRP617  ASP618  TYR619  PRO620  LYS621  CYS622 
 ASP623  PHE694  ASN695  SER759  ASP760  ASP761  ALA762  ILE779  LEU786  VAL792 
 PHE793  MET794  SER795  GLU796  ALA797  LYS798  CYS799  TRP800  GLU811  SER814 

> <Gold.Protein.RotatedAtoms>
  150.8141  134.7313  159.6714 H   0  0  0  0  0  0  0  0  0  0  0  0  # atno 6907 bound_to 6896
  152.4260  134.5863  159.9971 H   0  0  0  0  0  0  0  0  0  0  0  0  # atno 6908 bound_to 6896
  151.6065  133.3314  159.3094 H   0  0  0  0  0  0  0  0  0  0  0  0  # atno 6909 bound_to 6896
  146.1021  139.5709  142.9407 H   0  0  0  0  0  0  0  0  0  0  0  0  # atno 7974 bound_to 7965
  154.4336  140.1070  156.6058 H   0  0  0  0  0  0  0  0  0  0  0  0  # atno 8008 bound_to 7997
  155.5862  140.3491  155.4535 H   0  0  0  0  0  0  0  0  0  0  0  0  # atno 8009 bound_to 7997
  156.0281  140.1254  157.0276 H   0  0  0  0  0  0  0  0  0  0  0  0  # atno 8010 bound_to 7997
  139.8055  143.7774  152.2661 H   0  0  0  0  0  0  0  0  0  0  0  0  # atno 10167 bound_to 10162
  157.2271  130.7006  149.6296 H   0  0  0  0  0  0  0  0  0  0  0  0  # atno 10718 bound_to 10713
  153.3840  135.3899  155.1876 H   0  0  0  0  0  0  0  0  0  0  0  0  # atno 10763 bound_to 10752
  154.8711  135.3732  154.4821 H   0  0  0  0  0  0  0  0  0  0  0  0  # atno 10764 bound_to 10752
  153.5301  135.7086  153.5749 H   0  0  0  0  0  0  0  0  0  0  0  0  # atno 10765 bound_to 10752
  140.6130  133.9731  155.8186 H   0  0  0  0  0  0  0  0  0  0  0  0  # atno 11005 bound_to 11000
  145.5833  141.0379  143.2110 LP  0  0  0  0  0  0  0  0  0  0  0  0  # atno 17320 bound_to 7965
  144.7441  139.7367  143.7299 LP  0  0  0  0  0  0  0  0  0  0  0  0  # atno 17321 bound_to 7965
  139.7907  144.7411  150.9959 LP  0  0  0  0  0  0  0  0  0  0  0  0  # atno 17342 bound_to 10162
  140.7819  143.4445  151.0502 LP  0  0  0  0  0  0  0  0  0  0  0  0  # atno 17343 bound_to 10162
  155.9678  130.4501  150.5684 LP  0  0  0  0  0  0  0  0  0  0  0  0  # atno 17370 bound_to 10713
  157.3517  131.0734  151.1708 LP  0  0  0  0  0  0  0  0  0  0  0  0  # atno 17371 bound_to 10713
  141.0795  134.0084  157.3407 LP  0  0  0  0  0  0  0  0  0  0  0  0  # atno 17394 bound_to 11000
  139.9184  135.0199  156.7972 LP  0  0  0  0  0  0  0  0  0  0  0  0  # atno 17395 bound_to 11000

$$$$
