AV-unprocessed.smi:2059|AV-procd|sdf|8351|dock6
  -GOLD-   2272011 23D 1   1.00000     0.00000
 Structure written by MMmdl.
 29 30  0  0  0  0  0  0  0  0  2 V2000
  151.5347  144.9826  159.2341 C   0  0  0  0  0  0  0  0  0  0  0  0
  151.8648  143.6506  159.8157 C   0  0  0  0  0  0  0  0  0  0  0  0
  152.2911  142.4771  159.2618 C   0  0  0  0  0  0  0  0  0  0  0  0
  152.4132  141.6132  160.3838 C   0  0  0  0  0  0  0  0  0  0  0  0
  152.8032  140.3267  160.3468 N   0  5  0  0  0  0  0  0  0  0  0  0
  152.9073  139.6208  159.1895 C   0  0  0  0  0  0  0  0  0  0  0  0
  153.9806  139.3920  158.6329 O   0  0  0  0  0  0  0  0  0  0  0  0
  151.7729  139.1551  158.6317 N   0  0  0  0  0  0  0  0  0  0  0  0
  151.6741  138.3728  157.4038 C   0  0  1  0  0  0  0  0  0  0  0  0
  150.2132  137.9748  157.1248 C   0  0  0  0  0  0  0  0  0  0  0  0
  150.1065  137.4801  155.6775 C   0  0  0  0  0  0  0  0  0  0  0  0
  151.3618  138.4189  154.7274 S   0  0  0  0  0  0  0  0  0  0  0  0
  152.2699  137.4676  154.0689 O   0  0  0  0  0  0  0  0  0  0  0  0
  150.7017  139.4874  153.9619 O   0  0  0  0  0  0  0  0  0  0  0  0
  152.1940  139.1527  156.1852 C   0  0  0  0  0  0  0  0  0  0  0  0
  152.0783  142.2062  161.5177 N   0  0  0  0  0  0  0  0  0  0  0  0
  151.7309  143.5151  161.1626 O   0  0  0  0  0  0  0  0  0  0  0  0
  150.6126  144.9314  158.6552 H   0  0  0  0  0  0  0  0  0  0  0  0
  152.3312  145.3232  158.5725 H   0  0  0  0  0  0  0  0  0  0  0  0
  151.4022  145.7313  160.0153 H   0  0  0  0  0  0  0  0  0  0  0  0
  152.4860  142.2684  158.2206 H   0  0  0  0  0  0  0  0  0  0  0  0
  150.9069  139.3635  159.1071 H   0  0  0  0  0  0  0  0  0  0  0  0
  152.2563  137.4554  157.5085 H   0  0  0  0  0  0  0  0  0  0  0  0
  149.8542  137.2261  157.8318 H   0  0  0  0  0  0  0  0  0  0  0  0
  149.5749  138.8520  157.2397 H   0  0  0  0  0  0  0  0  0  0  0  0
  150.3596  136.4219  155.6125 H   0  0  0  0  0  0  0  0  0  0  0  0
  149.1160  137.6296  155.2478 H   0  0  0  0  0  0  0  0  0  0  0  0
  151.9089  140.2038  156.2388 H   0  0  0  0  0  0  0  0  0  0  0  0
  153.2765  139.0914  156.0724 H   0  0  0  0  0  0  0  0  0  0  0  0
  1  2  1  0  0  0  0
  1 18  1  0  0  0  0
  1 19  1  0  0  0  0
  1 20  1  0  0  0  0
  2 17  1  0  0  0  0
  2  3  2  0  0  0  0
  3  4  1  0  0  0  0
  3 21  1  0  0  0  0
  4  5  1  0  0  0  0
  4 16  2  0  0  0  0
  5  6  1  0  0  0  0
  6  7  2  0  0  0  0
  6  8  1  0  0  0  0
  8  9  1  0  0  0  0
  8 22  1  0  0  0  0
  9 15  1  0  0  0  0
  9 10  1  0  0  0  0
  9 23  1  0  0  0  0
 10 11  1  0  0  0  0
 10 24  1  0  0  0  0
 10 25  1  0  0  0  0
 11 12  1  0  0  0  0
 11 26  1  0  0  0  0
 11 27  1  0  0  0  0
 12 13  2  0  0  0  0
 12 14  2  0  0  0  0
 12 15  1  0  0  0  0
 15 28  1  0  0  0  0
 15 29  1  0  0  0  0
 16 17  1  0  0  0  0
M  CHG  1   5  -1
M  END
> <s_m_source_file>
AV-unprocessed.smi

> <i_m_source_file_index>
2059

> <i_lp_mmshare_version>
43012

> <i_f3d_flags>
0

> <s_epik_input>
W0NIM11jMVtjSF1jKG5vMSlbTkhdQyg9TylbTkhdW0NAQEhdKFtDSDJdMilbQ0gyXVtDSDJdUzIoPU8pPU8=

> <s_epik_cmdline>
J2VwaWtfcHl0aG9uJywgJy1waCcsICc3LjAnLCAnLXRuJywgJzgnLCAnLW1hJywgJzIwMCcsICctbWV0YWxfYmluZGluZycsICctaW1hZScsICc8aW5maWxlLm1hZT4nLCAnLW9tYWUnLCAnPG91dGZpbGUubWFlPic=

> <r_lp_tautomer_probability>
1

> <r_epik_Ionization_Penalty>
6.15571

> <r_epik_Ionization_Penalty_Charging>
6.1556

> <r_epik_Ionization_Penalty_Neutral>
0.000110918

> <r_epik_State_Penalty>
6.15558

> <r_epik_Charging_Adjusted_Penalty>
12.3112

> <i_epik_Tot_Q>
-1

> <i_epik_Tot_abs_Q>
1

> <r_epik_Metal_State_Penalty>
2.1059

> <b_epik_Metal_Only>
1

> <s_lp_Force_Field>
OPLS_2005

> <r_lp_Energy>
-1.66836

> <b_lp_Chiralities_Consistent>
1

> <s_lp_Variant>
AV-unprocessed.smi:2059-4

> <Gold.Version>
5.8.1

> <Gold.Id.Protein>
6NUR|6NUR_protein|mol2

> <Gold.PLP.Fitness>
37.5741

> <Gold.PLP.PLP>
-30.2298

> <Gold.PLP.part.hbond>
-2.8099

> <Gold.PLP.part.metal>
0.0000

> <Gold.PLP.part.buried>
-5.5803

> <Gold.PLP.part.nonpolar>
-22.1798

> <Gold.PLP.part.repulsive>
0.7660

> <Gold.PLP.ligand.clash>
0.0000

> <Gold.PLP.ligand.torsion>
0.7568

> <Gold.PLP.Chemscore.Hbond>
2.9516

> <Gold.PLP.Chemscore.CHOScore>
0.0000

> <Gold.PLP.Chemscore.Metal>
0.0000

> <Gold.Chemscore.Hbonds>
donor molecule, donor type, donor heavy atom, donor atom, acceptor molecule, acceptor atom, score
      P1  H  6933  6945       L1    16  0.26
      P1  H  7989  7998       L1    14  1.00
      P1  H  7997  8009       L1     7  0.99
      P1  H 10752 10764       L1    13  0.82

> <Gold.PLP.Chemscore.Internal.Correction>
0.0031

> <Gold.Rescore>
     Score         DG    S(hbond)    S(metal)    S(lipo)     H(rot)  DE(clash)    DE(int)     intcor
     17.13     -18.91       2.94        0.00      52.83       1.00       0.03       1.75       ----

> <Gold.Chemscore.Fitness>
17.1308

> <Gold.Chemscore.DG>
-18.9071

> <Gold.Chemscore.ZeroCoef>
-5.4800

> <Gold.Chemscore.Hbond>
2.9358

> <Gold.Chemscore.Metal>
0.0000

> <Gold.Chemscore.Lipo>
52.8338

> <Gold.Chemscore.Internal_Hbond>
0.0000

> <Gold.Chemscore.DEClash>
0.0270

> <Gold.Chemscore.DEInternal>
1.7493

> <Gold.Chemscore.Rot>
1.0000

> <Gold.Chemscore.Internal.Correction>
   9.000000E+99

> <Gold.Chemscore.Hbonds>
donor molecule, donor type, donor heavy atom, donor atom, acceptor molecule, acceptor atom, score
      P1  H  6933  6945       L1    16  0.02
      P1  H  7989  7998       L1    14  0.96
      P1  H  7997  8009       L1     7  0.93
      P1  H 10752 10764       L1    13  0.79

> <Gold.Chemscore.Hbond.Weighted>
-9.8055

> <Gold.Chemscore.Metal.Weighted>
-0.0000

> <Gold.Chemscore.Lipo.Weighted>
-6.1816

> <Gold.Chemscore.Internal_Hbond.Weighted>
0.0000

> <Gold.Chemscore.DEClash.Weighted>
0.0270

> <Gold.Chemscore.DEInternal.Weighted>
1.7493

> <Gold.Chemscore.Rot.Weighted>
2.5600

> <Gold.Chemscore.Internal.Correction.Weighted>
   9.000000E+99

> <Gold.Protein.RotatedTorsions>
[ 6907 6896 6895 6894 ] final   -2.90 input  -60.11 | X-H torsion
[ 7974 7965 7964 7962 ] final -170.09 input  175.53 | X-H torsion
[ 8008 7997 7996 7995 ] final  116.51 input   59.86 | X-H torsion
[ 10167 10162 10161 10158 ] final   74.15 input  -65.29 | X-H torsion
[ 10718 10713 10712 10709 ] final  100.44 input   66.30 | X-H torsion
[ 10763 10752 10751 10750 ] final  -86.02 input  -60.55 | X-H torsion
[ 11005 11000 10999 10996 ] final   55.82 input  -57.11 | X-H torsion

> <Gold.Protein.ActiveResidues>
 VAL166  LYS551  ARG553  GLY616  TRP617  ASP618  TYR619  PRO620  LYS621  CYS622 
 ASP623  PHE694  ASN695  SER759  ASP760  ASP761  ALA762  ILE779  LEU786  VAL792 
 PHE793  MET794  SER795  GLU796  ALA797  LYS798  CYS799  TRP800  GLU811  SER814 

> <Gold.Protein.RotatedAtoms>
  151.5224  135.1067  159.9881 H   0  0  0  0  0  0  0  0  0  0  0  0  # atno 6907 bound_to 6896
  152.4614  133.7827  159.6870 H   0  0  0  0  0  0  0  0  0  0  0  0  # atno 6908 bound_to 6896
  150.8579  133.7623  159.3028 H   0  0  0  0  0  0  0  0  0  0  0  0  # atno 6909 bound_to 6896
  144.7175  140.2124  143.6326 H   0  0  0  0  0  0  0  0  0  0  0  0  # atno 7974 bound_to 7965
  156.2443  140.2916  156.0535 H   0  0  0  0  0  0  0  0  0  0  0  0  # atno 8008 bound_to 7997
  155.1855  140.0405  157.2907 H   0  0  0  0  0  0  0  0  0  0  0  0  # atno 8009 bound_to 7997
  154.6230  140.2480  155.7533 H   0  0  0  0  0  0  0  0  0  0  0  0  # atno 8010 bound_to 7997
  140.0168  144.5571  150.7613 H   0  0  0  0  0  0  0  0  0  0  0  0  # atno 10167 bound_to 10162
  157.6854  131.0698  150.5101 H   0  0  0  0  0  0  0  0  0  0  0  0  # atno 10718 bound_to 10713
  154.6177  135.5464  153.7541 H   0  0  0  0  0  0  0  0  0  0  0  0  # atno 10763 bound_to 10752
  153.0224  135.6405  154.1486 H   0  0  0  0  0  0  0  0  0  0  0  0  # atno 10764 bound_to 10752
  154.1421  135.2907  155.3138 H   0  0  0  0  0  0  0  0  0  0  0  0  # atno 10765 bound_to 10752
  140.0577  134.5646  155.9188 H   0  0  0  0  0  0  0  0  0  0  0  0  # atno 11005 bound_to 11000
  145.8579  139.2208  143.1734 LP  0  0  0  0  0  0  0  0  0  0  0  0  # atno 17320 bound_to 7965
  146.0201  140.8356  142.9928 LP  0  0  0  0  0  0  0  0  0  0  0  0  # atno 17321 bound_to 7965
  140.7359  143.2746  151.3781 LP  0  0  0  0  0  0  0  0  0  0  0  0  # atno 17342 bound_to 10162
  139.6167  144.0989  152.2352 LP  0  0  0  0  0  0  0  0  0  0  0  0  # atno 17343 bound_to 10162
  156.5419  130.4210  149.6150 LP  0  0  0  0  0  0  0  0  0  0  0  0  # atno 17370 bound_to 10713
  156.2978  130.7160  151.2024 LP  0  0  0  0  0  0  0  0  0  0  0  0  # atno 17371 bound_to 10713
  141.1959  133.6589  156.5667 LP  0  0  0  0  0  0  0  0  0  0  0  0  # atno 17394 bound_to 11000
  140.3818  134.7516  157.4666 LP  0  0  0  0  0  0  0  0  0  0  0  0  # atno 17395 bound_to 11000

$$$$
