AV-unprocessed.smi:38|AV-procd|sdf|336|dock3
  -GOLD-   2262016173D 1   1.00000     0.00000
 Structure written by MMmdl.
 28 29  0  0  0  0  0  0  0  0  1 V2000
  152.3494  140.8298  158.9354 O   0  0  0  0  0  0  0  0  0  0  0  0
  151.6778  140.8758  157.9066 C   0  0  0  0  0  0  0  0  0  0  0  0
  152.0073  140.0667  156.8153 N   0  0  0  0  0  0  0  0  0  0  0  0
  151.3255  140.0285  155.5974 C   0  0  0  0  0  0  0  0  0  0  0  0
  151.7183  139.2859  154.6987 O   0  0  0  0  0  0  0  0  0  0  0  0
  150.2009  140.8730  155.4618 N   0  0  0  0  0  0  0  0  0  0  0  0
  149.4209  140.8749  154.1670 C   0  0  2  0  0  0  0  0  0  0  0  0
  148.2461  141.8514  154.2397 C   0  0  0  0  0  0  0  0  0  0  0  0
  147.1741  141.0822  153.4964 C   0  0  2  0  0  0  0  0  0  0  0  0
  145.8833  141.5025  153.8885 O   0  0  0  0  0  0  0  0  0  0  0  0
  147.4721  139.6390  153.9102 C   0  0  1  0  0  0  0  0  0  0  0  0
  146.9476  138.5952  152.9127 C   0  0  0  0  0  0  0  0  0  0  0  0
  147.6714  138.6743  151.7038 O   0  0  0  0  0  0  0  0  0  0  0  0
  148.8986  139.5968  153.9485 O   0  0  0  0  0  0  0  0  0  0  0  0
  149.8438  141.7027  156.5164 C   0  0  0  0  0  0  0  0  0  0  0  0
  150.5159  141.7332  157.6915 C   0  0  0  0  0  0  0  0  0  0  0  0
  150.1113  142.5649  158.6664 F   0  0  0  0  0  0  0  0  0  0  0  0
  152.8089  139.4611  156.9155 H   0  0  0  0  0  0  0  0  0  0  0  0
  150.1140  141.0880  153.3518 H   0  0  0  0  0  0  0  0  0  0  0  0
  147.3013  141.2095  152.4203 H   0  0  0  0  0  0  0  0  0  0  0  0
  147.0778  139.4591  154.9121 H   0  0  0  0  0  0  0  0  0  0  0  0
  147.9608  142.0093  155.2815 H   0  0  0  0  0  0  0  0  0  0  0  0
  148.4979  142.8116  153.7886 H   0  0  0  0  0  0  0  0  0  0  0  0
  145.2436  140.9623  153.4497 H   0  0  0  0  0  0  0  0  0  0  0  0
  147.0881  137.5904  153.3121 H   0  0  0  0  0  0  0  0  0  0  0  0
  145.8808  138.7240  152.7277 H   0  0  0  0  0  0  0  0  0  0  0  0
  148.3500  139.3249  151.8017 H   0  0  0  0  0  0  0  0  0  0  0  0
  148.9963  142.3621  156.4074 H   0  0  0  0  0  0  0  0  0  0  0  0
  1  2  2  0  0  0  0
  2 16  1  0  0  0  0
  2  3  1  0  0  0  0
  3 18  1  0  0  0  0
  3  4  1  0  0  0  0
  4  5  2  0  0  0  0
  4  6  1  0  0  0  0
  6  7  1  0  0  0  0
  6 15  1  0  0  0  0
  7 19  1  0  0  0  0
  7 14  1  0  0  0  0
  7  8  1  0  0  0  0
  8  9  1  0  0  0  0
  8 22  1  0  0  0  0
  8 23  1  0  0  0  0
  9 20  1  0  0  0  0
  9 10  1  0  0  0  0
  9 11  1  0  0  0  0
 10 24  1  0  0  0  0
 11 21  1  0  0  0  0
 11 12  1  0  0  0  0
 11 14  1  0  0  0  0
 12 13  1  0  0  0  0
 12 25  1  0  0  0  0
 12 26  1  0  0  0  0
 13 27  1  0  0  0  0
 15 16  2  0  0  0  0
 15 28  1  0  0  0  0
 16 17  1  0  0  0  0
M  END
> <s_m_source_file>
AV-unprocessed.smi

> <i_m_source_file_index>
38

> <i_lp_mmshare_version>
43012

> <i_f3d_flags>
0

> <s_epik_input>
Tz1jMVtuSF1jKD1PKW4oW2NIXWMxRilbQ0BIXTJbQ0gyXVtDQEhdKFtPSF0pW0NASF0oTzIpW0NIMl1bT0hd

> <s_epik_cmdline>
J2VwaWtfcHl0aG9uJywgJy1waCcsICc3LjAnLCAnLXRuJywgJzgnLCAnLW1hJywgJzIwMCcsICctbWV0YWxfYmluZGluZycsICctaW1hZScsICc8aW5maWxlLm1hZT4nLCAnLW9tYWUnLCAnPG91dGZpbGUubWFlPic=

> <r_lp_tautomer_probability>
0.999537

> <r_epik_Ionization_Penalty>
0.0357432

> <r_epik_Ionization_Penalty_Charging>
0.0357431

> <r_epik_Ionization_Penalty_Neutral>
1.19946e-07

> <r_epik_State_Penalty>
0.0298169

> <r_epik_Charging_Adjusted_Penalty>
0.06556

> <i_epik_Tot_Q>
0

> <i_epik_Tot_abs_Q>
0

> <r_epik_Metal_State_Penalty>
2.348

> <b_epik_Metal_Only>
0

> <s_epik_Chemistry_Notes>
This compound contains an acetal/aminal-like group ( X-CH(R)-Y where X, Y are N, S, or O) that may be acid/base labile, releasing an aldehyde.

> <s_lp_Force_Field>
OPLS_2005

> <r_lp_Energy>
26.798

> <b_lp_Chiralities_Consistent>
1

> <s_lp_Variant>
AV-unprocessed.smi:38-2

> <Gold.Version>
5.8.1

> <Gold.Id.Protein>
6NUR|6NUR_protein|mol2

> <Gold.PLP.Fitness>
40.7787

> <Gold.PLP.PLP>
-28.1683

> <Gold.PLP.part.hbond>
-4.5542

> <Gold.PLP.part.metal>
0.0000

> <Gold.PLP.part.buried>
1.0125

> <Gold.PLP.part.nonpolar>
-23.9972

> <Gold.PLP.part.repulsive>
1.6982

> <Gold.PLP.ligand.clash>
0.0000

> <Gold.PLP.ligand.torsion>
0.0599

> <Gold.PLP.Chemscore.Hbond>
3.2400

> <Gold.PLP.Chemscore.CHOScore>
1.0000

> <Gold.PLP.Chemscore.Metal>
0.0000

> <Gold.Chemscore.Hbonds>
donor molecule, donor type, donor heavy atom, donor atom, acceptor molecule, acceptor atom, score
      L1  H    10    24       P1 10175  1.00
      L1  H    13    27       P1  7957  0.90
      P1  H  7954  7966       L1    13  0.91
      P1  H  7989  7998       L1     5  0.40
      L1  C    15    28       P1  8028  1.00

> <Gold.PLP.Chemscore.Internal.Correction>
0.0102

> <Gold.Rescore>
     Score         DG    S(hbond)    S(metal)    S(lipo)     H(rot)  DE(clash)    DE(int)     intcor
      7.41      -8.20       1.81        0.00      35.44       2.91       0.53       0.26       ----

> <Gold.Chemscore.Fitness>
7.4122

> <Gold.Chemscore.DG>
-8.1955

> <Gold.Chemscore.ZeroCoef>
-5.4800

> <Gold.Chemscore.Hbond>
1.8052

> <Gold.Chemscore.Metal>
0.0000

> <Gold.Chemscore.Lipo>
35.4391

> <Gold.Chemscore.Internal_Hbond>
0.0000

> <Gold.Chemscore.DEClash>
0.5260

> <Gold.Chemscore.DEInternal>
0.2573

> <Gold.Chemscore.Rot>
2.9141

> <Gold.Chemscore.Internal.Correction>
   9.000000E+99

> <Gold.Chemscore.Hbonds>
donor molecule, donor type, donor heavy atom, donor atom, acceptor molecule, acceptor atom, score
      L1  H    10    24       P1 10175  0.65
      L1  H    13    27       P1  7957  0.84
      P1  H  7954  7966       L1    13  0.21
      P1  H  7989  7998       L1     5  0.01

> <Gold.Chemscore.Hbond.Weighted>
-6.0292

> <Gold.Chemscore.Metal.Weighted>
-0.0000

> <Gold.Chemscore.Lipo.Weighted>
-4.1464

> <Gold.Chemscore.Internal_Hbond.Weighted>
0.0000

> <Gold.Chemscore.DEClash.Weighted>
0.5260

> <Gold.Chemscore.DEInternal.Weighted>
0.2573

> <Gold.Chemscore.Rot.Weighted>
7.4601

> <Gold.Chemscore.Internal.Correction.Weighted>
   9.000000E+99

> <Gold.Protein.RotatedTorsions>
[ 6907 6896 6895 6894 ] final   74.17 input  -60.11 | X-H torsion
[ 7974 7965 7964 7962 ] final  171.98 input  175.53 | X-H torsion
[ 8008 7997 7996 7995 ] final -178.52 input   59.86 | X-H torsion
[ 10167 10162 10161 10158 ] final -148.77 input  -65.29 | X-H torsion
[ 10718 10713 10712 10709 ] final -168.68 input   66.30 | X-H torsion
[ 10763 10752 10751 10750 ] final  -95.41 input  -60.55 | X-H torsion
[ 11005 11000 10999 10996 ] final   49.37 input  -57.11 | X-H torsion

> <Gold.Protein.ActiveResidues>
 VAL166  LYS551  ARG553  GLY616  TRP617  ASP618  TYR619  PRO620  LYS621  CYS622 
 ASP623  PHE694  ASN695  SER759  ASP760  ASP761  ALA762  ILE779  LEU786  VAL792 
 PHE793  MET794  SER795  GLU796  ALA797  LYS798  CYS799  TRP800  GLU811  SER814 

> <Gold.Protein.RotatedAtoms>
  152.4962  134.4311  159.9512 H   0  0  0  0  0  0  0  0  0  0  0  0  # atno 6907 bound_to 6896
  151.4289  133.3670  159.2774 H   0  0  0  0  0  0  0  0  0  0  0  0  # atno 6908 bound_to 6896
  150.9168  134.8609  159.7522 H   0  0  0  0  0  0  0  0  0  0  0  0  # atno 6909 bound_to 6896
  144.7280  139.9431  143.6429 H   0  0  0  0  0  0  0  0  0  0  0  0  # atno 7974 bound_to 7965
  156.0198  140.1258  157.0369 H   0  0  0  0  0  0  0  0  0  0  0  0  # atno 8008 bound_to 7997
  154.4307  140.1071  156.6017 H   0  0  0  0  0  0  0  0  0  0  0  0  # atno 8009 bound_to 7997
  155.5961  140.3470  155.4582 H   0  0  0  0  0  0  0  0  0  0  0  0  # atno 8010 bound_to 7997
  139.7502  143.8530  152.2584 H   0  0  0  0  0  0  0  0  0  0  0  0  # atno 10167 bound_to 10162
  156.7005  130.9195  151.3079 H   0  0  0  0  0  0  0  0  0  0  0  0  # atno 10718 bound_to 10713
  154.7145  135.5122  153.8717 H   0  0  0  0  0  0  0  0  0  0  0  0  # atno 10763 bound_to 10752
  153.0809  135.6631  154.0056 H   0  0  0  0  0  0  0  0  0  0  0  0  # atno 10764 bound_to 10752
  153.9892  135.3021  155.3393 H   0  0  0  0  0  0  0  0  0  0  0  0  # atno 10765 bound_to 10752
  140.1109  134.4955  155.8678 H   0  0  0  0  0  0  0  0  0  0  0  0  # atno 11005 bound_to 11000
  146.0769  139.3757  143.0488 LP  0  0  0  0  0  0  0  0  0  0  0  0  # atno 17320 bound_to 7965
  145.7893  140.9821  143.1057 LP  0  0  0  0  0  0  0  0  0  0  0  0  # atno 17321 bound_to 7965
  139.8506  144.7166  150.9219 LP  0  0  0  0  0  0  0  0  0  0  0  0  # atno 17342 bound_to 10162
  140.7797  143.3903  151.1322 LP  0  0  0  0  0  0  0  0  0  0  0  0  # atno 17343 bound_to 10162
  157.6975  130.9297  150.0686 LP  0  0  0  0  0  0  0  0  0  0  0  0  # atno 17370 bound_to 10713
  156.1732  130.3647  149.9136 LP  0  0  0  0  0  0  0  0  0  0  0  0  # atno 17371 bound_to 10713
  141.2130  133.6727  156.6703 LP  0  0  0  0  0  0  0  0  0  0  0  0  # atno 17394 bound_to 11000
  140.3092  134.8100  157.4162 LP  0  0  0  0  0  0  0  0  0  0  0  0  # atno 17395 bound_to 11000

$$$$
