AV-unprocessed.smi:1686|AV-procd|sdf|6760|dock1
  -GOLD-   22720 7523D 1   1.00000     0.00000
 Structure written by MMmdl.
 41 43  0  0  0  0  0  0  0  0  1 V2000
  150.7902  136.0656  155.5139 C   0  0  0  0  0  0  0  0  0  0  0  0
  150.6804  137.5580  155.3866 C   0  0  0  0  0  0  0  0  0  0  0  0
  150.3836  138.0895  154.2082 N   0  0  0  0  0  0  0  0  0  0  0  0
  150.3434  139.4753  154.3994 O   0  0  0  0  0  0  0  0  0  0  0  0
  150.6243  139.7036  155.7026 C   0  0  0  0  0  0  0  0  0  0  0  0
  150.6603  141.2865  156.3717 Cl  0  0  0  0  0  0  0  0  0  0  0  0
  150.8499  138.5498  156.3970 C   0  0  0  0  0  0  0  0  0  0  0  0
  151.1709  138.3577  157.8594 C   0  0  0  0  0  0  0  0  0  0  0  0
  152.3112  139.2945  158.2606 C   0  0  0  0  0  0  0  0  0  0  0  0
  153.4545  139.0803  157.8600 O   0  0  0  0  0  0  0  0  0  0  0  0
  151.9737  140.3411  159.0302 N   0  0  0  0  0  0  0  0  0  0  0  0
  152.8403  141.4568  159.3974 C   0  0  2  0  0  0  0  0  0  0  0  0
  153.7788  141.0011  160.5264 C   0  0  0  0  0  0  0  0  0  0  0  0
  151.9656  142.6686  159.8021 C   0  0  1  0  0  0  0  0  0  0  0  0
  152.7761  143.9563  160.0860 C   0  0  0  0  0  0  0  0  0  0  0  0
  152.1042  145.0043  159.1813 C   0  0  2  0  0  0  0  0  0  0  0  0
  150.6931  145.3178  159.7119 C   0  0  0  0  0  0  0  0  0  0  0  0
  149.9057  144.0444  159.3519 C   0  0  0  0  0  0  0  0  0  0  0  0
  150.9815  143.1535  158.7033 C   0  0  1  0  0  0  0  0  0  0  0  0
  151.8034  144.1827  157.9351 C   0  0  0  0  0  0  0  0  0  0  0  0
  150.4665  135.7285  156.4984 H   0  0  0  0  0  0  0  0  0  0  0  0
  151.8203  135.7381  155.3725 H   0  0  0  0  0  0  0  0  0  0  0  0
  150.1731  135.5540  154.7745 H   0  0  0  0  0  0  0  0  0  0  0  0
  150.3070  138.5643  158.4919 H   0  0  0  0  0  0  0  0  0  0  0  0
  151.4608  137.3271  158.0681 H   0  0  0  0  0  0  0  0  0  0  0  0
  151.0076  140.4158  159.3132 H   0  0  0  0  0  0  0  0  0  0  0  0
  153.4543  141.7451  158.5426 H   0  0  0  0  0  0  0  0  0  0  0  0
  154.4682  141.7923  160.8203 H   0  0  0  0  0  0  0  0  0  0  0  0
  154.3804  140.1475  160.2122 H   0  0  0  0  0  0  0  0  0  0  0  0
  153.2182  140.7037  161.4132 H   0  0  0  0  0  0  0  0  0  0  0  0
  151.3986  142.3896  160.6919 H   0  0  0  0  0  0  0  0  0  0  0  0
  152.7515  144.2388  161.1390 H   0  0  0  0  0  0  0  0  0  0  0  0
  153.8223  143.8417  159.8000 H   0  0  0  0  0  0  0  0  0  0  0  0
  152.7155  145.8912  159.0121 H   0  0  0  0  0  0  0  0  0  0  0  0
  150.6906  145.5200  160.7836 H   0  0  0  0  0  0  0  0  0  0  0  0
  150.2697  146.1859  159.2053 H   0  0  0  0  0  0  0  0  0  0  0  0
  149.4422  143.5769  160.2214 H   0  0  0  0  0  0  0  0  0  0  0  0
  149.1141  144.2740  158.6373 H   0  0  0  0  0  0  0  0  0  0  0  0
  150.5538  142.3640  158.0857 H   0  0  0  0  0  0  0  0  0  0  0  0
  151.2251  144.7272  157.1866 H   0  0  0  0  0  0  0  0  0  0  0  0
  152.6943  143.7654  157.4632 H   0  0  0  0  0  0  0  0  0  0  0  0
  1  2  1  0  0  0  0
  1 21  1  0  0  0  0
  1 22  1  0  0  0  0
  1 23  1  0  0  0  0
  2  7  1  0  0  0  0
  2  3  2  0  0  0  0
  3  4  1  0  0  0  0
  4  5  1  0  0  0  0
  5  6  1  0  0  0  0
  5  7  2  0  0  0  0
  7  8  1  0  0  0  0
  8  9  1  0  0  0  0
  8 24  1  0  0  0  0
  8 25  1  0  0  0  0
  9 10  2  0  0  0  0
  9 11  1  0  0  0  0
 11 12  1  0  0  0  0
 11 26  1  0  0  0  0
 12 13  1  0  0  0  0
 12 14  1  0  0  0  0
 12 27  1  0  0  0  0
 13 28  1  0  0  0  0
 13 29  1  0  0  0  0
 13 30  1  0  0  0  0
 14 19  1  0  0  0  0
 14 15  1  0  0  0  0
 14 31  1  0  0  0  0
 15 16  1  0  0  0  0
 15 32  1  0  0  0  0
 15 33  1  0  0  0  0
 16 20  1  0  0  0  0
 16 17  1  0  0  0  0
 16 34  1  0  0  0  0
 17 18  1  0  0  0  0
 17 35  1  0  0  0  0
 17 36  1  0  0  0  0
 18 19  1  0  0  0  0
 18 37  1  0  0  0  0
 18 38  1  0  0  0  0
 19 20  1  0  0  0  0
 19 39  1  0  0  0  0
 20 40  1  0  0  0  0
 20 41  1  0  0  0  0
M  END
> <s_m_source_file>
AV-unprocessed.smi

> <i_m_source_file_index>
1686

> <i_lp_mmshare_version>
43012

> <i_f3d_flags>
0

> <s_epik_input>
W0NIM11jMW5vYyhDbCljMVtDSDJdQyg9TylbTkhdW0NASF0oW0NIM10pW0NASF0oW0NIMl1bQ0BIXTIzKVtDQEhdKFtDSDJdMylbQ0gyXVtDSDJdMg==

> <s_epik_cmdline>
J2VwaWtfcHl0aG9uJywgJy1waCcsICc3LjAnLCAnLXRuJywgJzgnLCAnLW1hJywgJzIwMCcsICctbWV0YWxfYmluZGluZycsICctaW1hZScsICc8aW5maWxlLm1hZT4nLCAnLW9tYWUnLCAnPG91dGZpbGUubWFlPic=

> <r_lp_tautomer_probability>
1

> <r_epik_Ionization_Penalty>
2.01576e-08

> <r_epik_Ionization_Penalty_Charging>
0

> <r_epik_Ionization_Penalty_Neutral>
2.01576e-08

> <r_epik_State_Penalty>
-0

> <r_epik_Charging_Adjusted_Penalty>
0

> <i_epik_Tot_Q>
0

> <i_epik_Tot_abs_Q>
0

> <r_epik_Metal_State_Penalty>
-0

> <b_epik_Metal_Only>
0

> <s_lp_Force_Field>
OPLS_2005

> <r_lp_Energy>
45.33

> <b_lp_Chiralities_Consistent>
1

> <s_lp_Variant>
AV-unprocessed.smi:1686-3

> <Gold.Version>
5.8.1

> <Gold.Id.Protein>
6NUR|6NUR_protein|mol2

> <Gold.PLP.Fitness>
48.2964

> <Gold.PLP.PLP>
-43.3476

> <Gold.PLP.part.hbond>
-2.0000

> <Gold.PLP.part.metal>
0.0000

> <Gold.PLP.part.buried>
-6.4460

> <Gold.PLP.part.nonpolar>
-35.7078

> <Gold.PLP.part.repulsive>
1.1400

> <Gold.PLP.ligand.clash>
0.0000

> <Gold.PLP.ligand.torsion>
0.5354

> <Gold.PLP.Chemscore.Hbond>
2.0000

> <Gold.PLP.Chemscore.CHOScore>
0.0000

> <Gold.PLP.Chemscore.Metal>
0.0000

> <Gold.Chemscore.Hbonds>
donor molecule, donor type, donor heavy atom, donor atom, acceptor molecule, acceptor atom, score
      P1  H  7989  7998       L1     4  0.83
      P1  H  7997  8008       L1    10  1.00

> <Gold.PLP.Chemscore.Internal.Correction>
0.0197

> <Gold.Rescore>
     Score         DG    S(hbond)    S(metal)    S(lipo)     H(rot)  DE(clash)    DE(int)     intcor
     21.33     -21.87       1.58        0.00     126.93       1.46       0.20       0.34       ----

> <Gold.Chemscore.Fitness>
21.3289

> <Gold.Chemscore.DG>
-21.8690

> <Gold.Chemscore.ZeroCoef>
-5.4800

> <Gold.Chemscore.Hbond>
1.5831

> <Gold.Chemscore.Metal>
0.0000

> <Gold.Chemscore.Lipo>
126.9348

> <Gold.Chemscore.Internal_Hbond>
0.0000

> <Gold.Chemscore.DEClash>
0.1962

> <Gold.Chemscore.DEInternal>
0.3439

> <Gold.Chemscore.Rot>
1.4648

> <Gold.Chemscore.Internal.Correction>
   9.000000E+99

> <Gold.Chemscore.Hbonds>
donor molecule, donor type, donor heavy atom, donor atom, acceptor molecule, acceptor atom, score
      P1  H  7989  7998       L1     4  0.25
      P1  H  7997  8008       L1    10  0.99

> <Gold.Chemscore.Hbond.Weighted>
-5.2876

> <Gold.Chemscore.Metal.Weighted>
-0.0000

> <Gold.Chemscore.Lipo.Weighted>
-14.8514

> <Gold.Chemscore.Internal_Hbond.Weighted>
0.0000

> <Gold.Chemscore.DEClash.Weighted>
0.1962

> <Gold.Chemscore.DEInternal.Weighted>
0.3439

> <Gold.Chemscore.Rot.Weighted>
3.7500

> <Gold.Chemscore.Internal.Correction.Weighted>
   9.000000E+99

> <Gold.Protein.RotatedTorsions>
[ 6907 6896 6895 6894 ] final -163.50 input  -60.11 | X-H torsion
[ 7974 7965 7964 7962 ] final   42.82 input  175.53 | X-H torsion
[ 8008 7997 7996 7995 ] final  -68.67 input   59.86 | X-H torsion
[ 10167 10162 10161 10158 ] final   17.35 input  -65.29 | X-H torsion
[ 10718 10713 10712 10709 ] final   62.03 input   66.30 | X-H torsion
[ 10763 10752 10751 10750 ] final -105.08 input  -60.55 | X-H torsion
[ 11005 11000 10999 10996 ] final -148.88 input  -57.11 | X-H torsion

> <Gold.Protein.ActiveResidues>
 VAL166  LYS551  ARG553  GLY616  TRP617  ASP618  TYR619  PRO620  LYS621  CYS622 
 ASP623  PHE694  ASN695  SER759  ASP760  ASP761  ALA762  ILE779  LEU786  VAL792 
 PHE793  MET794  SER795  GLU796  ALA797  LYS798  CYS799  TRP800  GLU811  SER814 

> <Gold.Protein.RotatedAtoms>
  151.3970  133.3770  159.2727 H   0  0  0  0  0  0  0  0  0  0  0  0  # atno 6907 bound_to 6896
  150.9462  134.8867  159.7654 H   0  0  0  0  0  0  0  0  0  0  0  0  # atno 6908 bound_to 6896
  152.5092  134.3923  159.9440 H   0  0  0  0  0  0  0  0  0  0  0  0  # atno 6909 bound_to 6896
  146.0708  139.5257  142.9599 H   0  0  0  0  0  0  0  0  0  0  0  0  # atno 7974 bound_to 7965
  154.4884  140.0868  156.7539 H   0  0  0  0  0  0  0  0  0  0  0  0  # atno 8008 bound_to 7997
  155.4292  140.3449  155.4260 H   0  0  0  0  0  0  0  0  0  0  0  0  # atno 8009 bound_to 7997
  156.1295  140.1497  156.9075 H   0  0  0  0  0  0  0  0  0  0  0  0  # atno 8010 bound_to 7997
  140.5732  143.9121  150.6729 H   0  0  0  0  0  0  0  0  0  0  0  0  # atno 10167 bound_to 10162
  157.5871  130.9028  149.9536 H   0  0  0  0  0  0  0  0  0  0  0  0  # atno 10718 bound_to 10713
  154.7923  135.4762  154.0080 H   0  0  0  0  0  0  0  0  0  0  0  0  # atno 10763 bound_to 10752
  153.1649  135.6815  153.8696 H   0  0  0  0  0  0  0  0  0  0  0  0  # atno 10764 bound_to 10752
  153.8298  135.3193  155.3395 H   0  0  0  0  0  0  0  0  0  0  0  0  # atno 10765 bound_to 10752
  140.7566  134.3346  157.5112 H   0  0  0  0  0  0  0  0  0  0  0  0  # atno 11005 bound_to 11000
  145.6394  141.0287  143.1820 LP  0  0  0  0  0  0  0  0  0  0  0  0  # atno 17320 bound_to 7965
  144.7231  139.7965  143.7375 LP  0  0  0  0  0  0  0  0  0  0  0  0  # atno 17321 bound_to 7965
  140.2602  143.3530  152.1330 LP  0  0  0  0  0  0  0  0  0  0  0  0  # atno 17342 bound_to 10162
  139.5129  144.6924  151.5724 LP  0  0  0  0  0  0  0  0  0  0  0  0  # atno 17343 bound_to 10162
  156.0922  130.3662  150.0374 LP  0  0  0  0  0  0  0  0  0  0  0  0  # atno 17370 bound_to 10713
  156.8504  130.9456  151.3626 LP  0  0  0  0  0  0  0  0  0  0  0  0  # atno 17371 bound_to 10713
  139.8778  134.9175  156.3181 LP  0  0  0  0  0  0  0  0  0  0  0  0  # atno 17394 bound_to 11000
  140.9702  133.7332  156.0524 LP  0  0  0  0  0  0  0  0  0  0  0  0  # atno 17395 bound_to 11000

$$$$
