AV-unprocessed.smi:2698|AV-procd|sdf|10422|dock2
  -GOLD-   2272014463D 1   1.00000     0.00000
 Structure written by MMmdl.
 33 33  0  0  0  0  0  0  0  0  2 V2000
  152.4137  144.1649  159.5582 C   0  0  0  0  0  0  0  0  0  0  0  0
  152.2437  142.6390  159.5095 C   0  0  0  0  0  0  0  0  0  0  0  0
  153.4962  141.9434  160.0743 C   0  0  0  0  0  0  0  0  0  0  0  0
  151.8798  142.1787  158.0786 C   0  0  0  0  0  0  0  0  0  0  0  0
  151.5826  140.6801  157.9797 C   0  0  0  0  0  0  0  0  0  0  0  0
  150.7975  140.1527  158.7679 O   0  0  0  0  0  0  0  0  0  0  0  0
  152.2213  140.0101  157.0070 N   0  0  0  0  0  0  0  0  0  0  0  0
  152.0596  138.5927  156.6818 C   0  0  1  0  0  0  0  0  0  0  0  0
  151.7193  138.3928  155.1885 C   0  0  0  0  0  0  0  0  0  0  0  0
  150.4852  139.1169  154.7090 C   0  0  0  0  0  0  0  0  0  0  0  0
  149.3107  138.5844  154.2183 C   0  0  0  0  0  0  0  0  0  0  0  0
  148.4819  139.6580  153.9460 N   0  0  0  0  0  0  0  0  0  0  0  0
  149.1560  140.7627  154.2662 C   0  0  0  0  0  0  0  0  0  0  0  0
  150.3726  140.5124  154.7309 N   0  0  0  0  0  0  0  0  0  0  0  0
  153.2975  137.8081  157.1277 C   0  0  0  0  0  0  0  0  0  0  0  0
  153.3477  136.5947  156.8256 O   0  0  0  0  0  0  0  0  0  0  0  0
  154.1726  138.4316  157.7674 O   0  5  0  0  0  0  0  0  0  0  0  0
  147.5415  139.6135  153.5811 H   0  0  0  0  0  0  0  0  0  0  0  0
  153.2427  144.4910  158.9294 H   0  0  0  0  0  0  0  0  0  0  0  0
  152.6117  144.5064  160.5746 H   0  0  0  0  0  0  0  0  0  0  0  0
  151.5130  144.6730  159.2128 H   0  0  0  0  0  0  0  0  0  0  0  0
  151.4076  142.3904  160.1655 H   0  0  0  0  0  0  0  0  0  0  0  0
  154.3643  142.1142  159.4371 H   0  0  0  0  0  0  0  0  0  0  0  0
  153.3564  140.8667  160.1669 H   0  0  0  0  0  0  0  0  0  0  0  0
  153.7361  142.3186  161.0693 H   0  0  0  0  0  0  0  0  0  0  0  0
  151.0074  142.7296  157.7235 H   0  0  0  0  0  0  0  0  0  0  0  0
  152.6896  142.4222  157.3896 H   0  0  0  0  0  0  0  0  0  0  0  0
  152.8643  140.5250  156.4230 H   0  0  0  0  0  0  0  0  0  0  0  0
  151.2227  138.1979  157.2615 H   0  0  0  0  0  0  0  0  0  0  0  0
  152.5619  138.6945  154.5644 H   0  0  0  0  0  0  0  0  0  0  0  0
  151.5684  137.3299  154.9961 H   0  0  0  0  0  0  0  0  0  0  0  0
  149.0053  137.5611  154.0582 H   0  0  0  0  0  0  0  0  0  0  0  0
  148.7525  141.7591  154.1617 H   0  0  0  0  0  0  0  0  0  0  0  0
  1  2  1  0  0  0  0
  1 19  1  0  0  0  0
  1 20  1  0  0  0  0
  1 21  1  0  0  0  0
  2  3  1  0  0  0  0
  2  4  1  0  0  0  0
  2 22  1  0  0  0  0
  3 23  1  0  0  0  0
  3 24  1  0  0  0  0
  3 25  1  0  0  0  0
  4  5  1  0  0  0  0
  4 26  1  0  0  0  0
  4 27  1  0  0  0  0
  5  6  2  0  0  0  0
  5  7  1  0  0  0  0
  7  8  1  0  0  0  0
  7 28  1  0  0  0  0
  8  9  1  0  0  0  0
  8 15  1  0  0  0  0
  8 29  1  0  0  0  0
  9 10  1  0  0  0  0
  9 30  1  0  0  0  0
  9 31  1  0  0  0  0
 10 14  1  0  0  0  0
 10 11  2  0  0  0  0
 11 12  1  0  0  0  0
 11 32  1  0  0  0  0
 12 18  1  0  0  0  0
 12 13  1  0  0  0  0
 13 14  2  0  0  0  0
 13 33  1  0  0  0  0
 15 16  2  0  0  0  0
 15 17  1  0  0  0  0
M  CHG  1  17  -1
M  END
> <s_m_source_file>
AV-unprocessed.smi

> <i_m_source_file_index>
2698

> <i_lp_mmshare_version>
43012

> <i_f3d_flags>
0

> <s_epik_input>
W0NIM11bQ0hdKFtDSDNdKVtDSDJdQyg9TylbTkhdW0NAQEhdKEMoPU8pW09IXSlbQ0gyXWMxW2NIXVtuSF1bY0hdbjE=

> <s_epik_cmdline>
J2VwaWtfcHl0aG9uJywgJy1waCcsICc3LjAnLCAnLXRuJywgJzgnLCAnLW1hJywgJzIwMCcsICctbWV0YWxfYmluZGluZycsICctaW1hZScsICc8aW5maWxlLm1hZT4nLCAnLW9tYWUnLCAnPG91dGZpbGUubWFlPic=

> <r_lp_tautomer_probability>
0.5

> <r_epik_Ionization_Penalty>
0.818672

> <r_epik_Ionization_Penalty_Charging>
0.818672

> <r_epik_Ionization_Penalty_Neutral>
7.99661e-08

> <r_epik_State_Penalty>
0.927032

> <r_epik_Charging_Adjusted_Penalty>
1.7457

> <i_epik_Tot_Q>
-1

> <i_epik_Tot_abs_Q>
1

> <r_epik_Metal_State_Penalty>
0.525537

> <b_epik_Metal_Only>
0

> <s_lp_Force_Field>
OPLS_2005

> <r_lp_Energy>
1.97611

> <b_lp_Chiralities_Consistent>
1

> <s_lp_Variant>
AV-unprocessed.smi:2698-6

> <Gold.Version>
5.8.1

> <Gold.Id.Protein>
6NUR|6NUR_protein|mol2

> <Gold.PLP.Fitness>
48.9234

> <Gold.PLP.PLP>
-31.7065

> <Gold.PLP.part.hbond>
-4.0000

> <Gold.PLP.part.metal>
0.0000

> <Gold.PLP.part.buried>
-2.4340

> <Gold.PLP.part.nonpolar>
-25.3738

> <Gold.PLP.part.repulsive>
0.3152

> <Gold.PLP.ligand.clash>
0.0000

> <Gold.PLP.ligand.torsion>
0.3361

> <Gold.PLP.Chemscore.Hbond>
4.8960

> <Gold.PLP.Chemscore.CHOScore>
1.0000

> <Gold.PLP.Chemscore.Metal>
0.0000

> <Gold.Chemscore.Hbonds>
donor molecule, donor type, donor heavy atom, donor atom, acceptor molecule, acceptor atom, score
      P1  H  7989  7998       L1    14  0.88
      P1  H  7997  8010       L1    17  1.89
      P1  H 10752 10764       L1    16  1.89
      L1  C    11    32       P1  7948  0.91

> <Gold.PLP.Chemscore.Internal.Correction>
0.2011

> <Gold.Rescore>
     Score         DG    S(hbond)    S(metal)    S(lipo)     H(rot)  DE(clash)    DE(int)     intcor
     14.14     -14.71       2.65        0.00      69.21       3.01       0.18       0.39       ----

> <Gold.Chemscore.Fitness>
14.1389

> <Gold.Chemscore.DG>
-14.7102

> <Gold.Chemscore.ZeroCoef>
-5.4800

> <Gold.Chemscore.Hbond>
2.6497

> <Gold.Chemscore.Metal>
0.0000

> <Gold.Chemscore.Lipo>
69.2065

> <Gold.Chemscore.Internal_Hbond>
0.0000

> <Gold.Chemscore.DEClash>
0.1815

> <Gold.Chemscore.DEInternal>
0.3899

> <Gold.Chemscore.Rot>
3.0145

> <Gold.Chemscore.Internal.Correction>
   9.000000E+99

> <Gold.Chemscore.Hbonds>
donor molecule, donor type, donor heavy atom, donor atom, acceptor molecule, acceptor atom, score
      P1  H  7989  7998       L1    14  0.13
      P1  H  7997  8010       L1    17  0.86
      P1  H 10752 10764       L1    16  0.90

> <Gold.Chemscore.Hbond.Weighted>
-8.8502

> <Gold.Chemscore.Metal.Weighted>
-0.0000

> <Gold.Chemscore.Lipo.Weighted>
-8.0972

> <Gold.Chemscore.Internal_Hbond.Weighted>
0.0000

> <Gold.Chemscore.DEClash.Weighted>
0.1815

> <Gold.Chemscore.DEInternal.Weighted>
0.3899

> <Gold.Chemscore.Rot.Weighted>
7.7171

> <Gold.Chemscore.Internal.Correction.Weighted>
   9.000000E+99

> <Gold.Protein.RotatedTorsions>
[ 6907 6896 6895 6894 ] final -110.21 input  -60.11 | X-H torsion
[ 7974 7965 7964 7962 ] final  135.45 input  175.53 | X-H torsion
[ 8008 7997 7996 7995 ] final   26.91 input   59.86 | X-H torsion
[ 10167 10162 10161 10158 ] final -130.93 input  -65.29 | X-H torsion
[ 10718 10713 10712 10709 ] final   82.88 input   66.30 | X-H torsion
[ 10763 10752 10751 10750 ] final   -8.97 input  -60.55 | X-H torsion
[ 11005 11000 10999 10996 ] final  177.61 input  -57.11 | X-H torsion

> <Gold.Protein.ActiveResidues>
 VAL166  LYS551  ARG553  GLY616  TRP617  ASP618  TYR619  PRO620  LYS621  CYS622 
 ASP623  PHE694  ASN695  SER759  ASP760  ASP761  ALA762  ILE779  LEU786  VAL792 
 PHE793  MET794  SER795  GLU796  ALA797  LYS798  CYS799  TRP800  GLU811  SER814 

> <Gold.Protein.RotatedAtoms>
  150.7610  133.9415  159.3457 H   0  0  0  0  0  0  0  0  0  0  0  0  # atno 6907 bound_to 6896
  151.7323  135.0870  160.0311 H   0  0  0  0  0  0  0  0  0  0  0  0  # atno 6908 bound_to 6896
  152.3581  133.6225  159.6030 H   0  0  0  0  0  0  0  0  0  0  0  0  # atno 6909 bound_to 6896
  144.9663  139.4655  143.5455 H   0  0  0  0  0  0  0  0  0  0  0  0  # atno 7974 bound_to 7965
  155.0346  140.3162  155.4746 H   0  0  0  0  0  0  0  0  0  0  0  0  # atno 8008 bound_to 7997
  156.2867  140.2174  156.5411 H   0  0  0  0  0  0  0  0  0  0  0  0  # atno 8009 bound_to 7997
  154.7341  140.0479  157.0740 H   0  0  0  0  0  0  0  0  0  0  0  0  # atno 8010 bound_to 7997
  139.9242  143.6347  152.2546 H   0  0  0  0  0  0  0  0  0  0  0  0  # atno 10167 bound_to 10162
  157.6867  131.0067  150.2440 H   0  0  0  0  0  0  0  0  0  0  0  0  # atno 10718 bound_to 10713
  153.4480  135.7014  153.6127 H   0  0  0  0  0  0  0  0  0  0  0  0  # atno 10763 bound_to 10752
  153.4473  135.3766  155.2264 H   0  0  0  0  0  0  0  0  0  0  0  0  # atno 10764 bound_to 10752
  154.8728  135.3988  154.3888 H   0  0  0  0  0  0  0  0  0  0  0  0  # atno 10765 bound_to 10752
  140.3860  134.6904  157.4479 H   0  0  0  0  0  0  0  0  0  0  0  0  # atno 11005 bound_to 11000
  146.3368  139.8845  142.8819 LP  0  0  0  0  0  0  0  0  0  0  0  0  # atno 17320 bound_to 7965
  145.2625  141.0082  143.3818 LP  0  0  0  0  0  0  0  0  0  0  0  0  # atno 17321 bound_to 7965
  139.6836  144.7653  151.1564 LP  0  0  0  0  0  0  0  0  0  0  0  0  # atno 17342 bound_to 10162
  140.7654  143.5689  150.9017 LP  0  0  0  0  0  0  0  0  0  0  0  0  # atno 17343 bound_to 10162
  156.3049  130.3763  149.7715 LP  0  0  0  0  0  0  0  0  0  0  0  0  # atno 17370 bound_to 10713
  156.5334  130.8267  151.3244 LP  0  0  0  0  0  0  0  0  0  0  0  0  # atno 17371 bound_to 10713
  140.0442  134.6223  155.8941 LP  0  0  0  0  0  0  0  0  0  0  0  0  # atno 17394 bound_to 11000
  141.1907  133.6569  156.5425 LP  0  0  0  0  0  0  0  0  0  0  0  0  # atno 17395 bound_to 11000

$$$$
