AV-unprocessed.smi:72|AV-procd|sdf|687|dock4
  -GOLD-   2262017 03D 1   1.00000     0.00000
 Structure written by MMmdl.
 29 30  0  0  0  0  0  0  0  0  1 V2000
  153.5648  137.7582  154.0772 N   0  0  0  0  0  0  0  0  0  0  0  0
  152.5526  138.4458  154.4683 C   0  0  0  0  0  0  0  0  0  0  0  0
  152.5922  139.4853  155.4100 N   0  0  0  0  0  0  0  0  0  0  0  0
  151.4869  140.0979  155.7039 C   0  0  0  0  0  0  0  0  0  0  0  0
  150.2172  139.7464  155.0860 N   0  0  0  0  0  0  0  0  0  0  0  0
  148.9485  140.4897  155.4485 C   0  0  2  0  0  0  0  0  0  0  0  0
  147.9716  139.5516  155.7793 O   0  0  0  0  0  0  0  0  0  0  0  0
  146.7144  139.9880  155.2873 C   0  0  2  0  0  0  0  0  0  0  0  0
  145.7861  138.7733  155.1278 C   0  0  0  0  0  0  0  0  0  0  0  0
  144.4844  139.1855  154.7701 O   0  0  0  0  0  0  0  0  0  0  0  0
  147.0661  140.7104  153.9812 C   0  0  1  0  0  0  0  0  0  0  0  0
  146.0913  141.6870  153.6731 O   0  0  0  0  0  0  0  0  0  0  0  0
  148.4016  141.3725  154.3024 C   0  0  2  0  0  0  0  0  0  0  0  0
  149.2270  141.4274  153.1525 O   0  0  0  0  0  0  0  0  0  0  0  0
  150.1569  138.6868  154.1484 C   0  0  0  0  0  0  0  0  0  0  0  0
  149.1047  138.3266  153.6212 O   0  0  0  0  0  0  0  0  0  0  0  0
  151.3350  138.0852  153.8760 N   0  0  0  0  0  0  0  0  0  0  0  0
  149.1661  141.0681  156.3476 H   0  0  0  0  0  0  0  0  0  0  0  0
  146.3083  140.6904  156.0185 H   0  0  0  0  0  0  0  0  0  0  0  0
  147.1706  139.9943  153.1644 H   0  0  0  0  0  0  0  0  0  0  0  0
  148.2594  142.3787  154.7000 H   0  0  0  0  0  0  0  0  0  0  0  0
  154.4013  138.0754  154.5462 H   0  0  0  0  0  0  0  0  0  0  0  0
  151.4345  140.9082  156.4327 H   0  0  0  0  0  0  0  0  0  0  0  0
  146.1729  138.0784  154.3817 H   0  0  0  0  0  0  0  0  0  0  0  0
  145.7201  138.2287  156.0701 H   0  0  0  0  0  0  0  0  0  0  0  0
  144.5038  139.5072  153.8816 H   0  0  0  0  0  0  0  0  0  0  0  0
  145.3595  141.2598  153.2553 H   0  0  0  0  0  0  0  0  0  0  0  0
  148.9142  140.7901  152.5285 H   0  0  0  0  0  0  0  0  0  0  0  0
  151.3312  137.3266  153.2097 H   0  0  0  0  0  0  0  0  0  0  0  0
  1  2  2  0  0  0  0
  1 22  1  0  0  0  0
  2 17  1  0  0  0  0
  2  3  1  0  0  0  0
  3  4  2  0  0  0  0
  4  5  1  0  0  0  0
  4 23  1  0  0  0  0
  5  6  1  0  0  0  0
  5 15  1  0  0  0  0
  6 18  1  0  0  0  0
  6 13  1  0  0  0  0
  6  7  1  0  0  0  0
  7  8  1  0  0  0  0
  8 19  1  0  0  0  0
  8  9  1  0  0  0  0
  8 11  1  0  0  0  0
  9 10  1  0  0  0  0
  9 24  1  0  0  0  0
  9 25  1  0  0  0  0
 10 26  1  0  0  0  0
 11 20  1  0  0  0  0
 11 12  1  0  0  0  0
 11 13  1  0  0  0  0
 12 27  1  0  0  0  0
 13 21  1  0  0  0  0
 13 14  1  0  0  0  0
 14 28  1  0  0  0  0
 15 16  2  0  0  0  0
 15 17  1  0  0  0  0
 17 29  1  0  0  0  0
M  END
> <s_m_source_file>
AV-unprocessed.smi

> <i_m_source_file_index>
72

> <i_lp_mmshare_version>
43012

> <i_f3d_flags>
0

> <s_epik_input>
W05IMl1jMW5bY0hdbihjKD1PKW4xKVtDQEBIXTJPW0NASF0oW0NIMl1bT0hdKVtDQEBIXShbT0hdKVtDQEhdMltPSF0=

> <s_epik_cmdline>
J2VwaWtfcHl0aG9uJywgJy1waCcsICc3LjAnLCAnLXRuJywgJzgnLCAnLW1hJywgJzIwMCcsICctbWV0YWxfYmluZGluZycsICctaW1hZScsICc8aW5maWxlLm1hZT4nLCAnLW9tYWUnLCAnPG91dGZpbGUubWFlPic=

> <r_lp_tautomer_probability>
7.17554e-07

> <r_epik_Ionization_Penalty>
0.0066451

> <r_epik_Ionization_Penalty_Charging>
0.00663793

> <r_epik_Ionization_Penalty_Neutral>
7.17052e-06

> <r_epik_State_Penalty>
0.419231

> <r_epik_Charging_Adjusted_Penalty>
0.425868

> <i_epik_Tot_Q>
0

> <i_epik_Tot_abs_Q>
0

> <r_epik_Metal_State_Penalty>
1.44144

> <b_epik_Metal_Only>
0

> <s_epik_Chemistry_Notes>
This compound contains an acetal/aminal-like group ( X-CH(R)-Y where X, Y are N, S, or O) that may be acid/base labile, releasing an aldehyde.

> <s_lp_Force_Field>
OPLS_2005

> <r_lp_Energy>
41.3964

> <b_lp_Chiralities_Consistent>
1

> <s_lp_Variant>
AV-unprocessed.smi:72-25

> <Gold.Version>
5.8.1

> <Gold.Id.Protein>
6NUR|6NUR_protein|mol2

> <Gold.PLP.Fitness>
38.5755

> <Gold.PLP.PLP>
-23.5528

> <Gold.PLP.part.hbond>
-6.7684

> <Gold.PLP.part.metal>
0.0000

> <Gold.PLP.part.buried>
-4.2839

> <Gold.PLP.part.nonpolar>
-15.5921

> <Gold.PLP.part.repulsive>
2.4551

> <Gold.PLP.ligand.clash>
0.0000

> <Gold.PLP.ligand.torsion>
0.2014

> <Gold.PLP.Chemscore.Hbond>
5.1000

> <Gold.PLP.Chemscore.CHOScore>
0.0000

> <Gold.PLP.Chemscore.Metal>
0.0000

> <Gold.Chemscore.Hbonds>
donor molecule, donor type, donor heavy atom, donor atom, acceptor molecule, acceptor atom, score
      L1  H    10    26       P1 10175  0.98
      L1  H    12    27       P1 10175  0.90
      L1  H    14    28       P1  7957  0.67
      L1  H    17    29       P1  7949  0.62
      P1  H  7997  8008       L1     3  1.00
      P1  H  8011  8017       L1    14  0.68
      P1  H 10752 10765       L1     1  0.19

> <Gold.PLP.Chemscore.Internal.Correction>
0.1254

> <Gold.Rescore>
     Score         DG    S(hbond)    S(metal)    S(lipo)     H(rot)  DE(clash)    DE(int)     intcor
      8.02     -11.43       4.34        0.00      15.74       4.06       1.57       1.84       ----

> <Gold.Chemscore.Fitness>
8.0197

> <Gold.Chemscore.DG>
-11.4330

> <Gold.Chemscore.ZeroCoef>
-5.4800

> <Gold.Chemscore.Hbond>
4.3426

> <Gold.Chemscore.Metal>
0.0000

> <Gold.Chemscore.Lipo>
15.7449

> <Gold.Chemscore.Internal_Hbond>
0.0000

> <Gold.Chemscore.DEClash>
1.5706

> <Gold.Chemscore.DEInternal>
1.8428

> <Gold.Chemscore.Rot>
4.0600

> <Gold.Chemscore.Internal.Correction>
   9.000000E+99

> <Gold.Chemscore.Hbonds>
donor molecule, donor type, donor heavy atom, donor atom, acceptor molecule, acceptor atom, score
      L1  H    10    26       P1 10175  0.93
      L1  H    12    27       P1 10175  0.17
      L1  H    14    28       P1  7957  0.68
      L1  H    17    29       P1  7949  0.44
      P1  H  7997  8008       L1     3  0.90
      P1  H  8011  8017       L1    14  0.26
      P1  H 10752 10765       L1     1  0.17

> <Gold.Chemscore.Hbond.Weighted>
-14.5044

> <Gold.Chemscore.Metal.Weighted>
-0.0000

> <Gold.Chemscore.Lipo.Weighted>
-1.8422

> <Gold.Chemscore.Internal_Hbond.Weighted>
0.0000

> <Gold.Chemscore.DEClash.Weighted>
1.5706

> <Gold.Chemscore.DEInternal.Weighted>
1.8428

> <Gold.Chemscore.Rot.Weighted>
10.3936

> <Gold.Chemscore.Internal.Correction.Weighted>
   9.000000E+99

> <Gold.Protein.RotatedTorsions>
[ 6907 6896 6895 6894 ] final   -4.83 input  -60.11 | X-H torsion
[ 7974 7965 7964 7962 ] final  -94.29 input  175.53 | X-H torsion
[ 8008 7997 7996 7995 ] final  -32.76 input   59.86 | X-H torsion
[ 10167 10162 10161 10158 ] final   98.97 input  -65.29 | X-H torsion
[ 10718 10713 10712 10709 ] final  129.72 input   66.30 | X-H torsion
[ 10763 10752 10751 10750 ] final  131.30 input  -60.55 | X-H torsion
[ 11005 11000 10999 10996 ] final  -88.47 input  -57.11 | X-H torsion

> <Gold.Protein.ActiveResidues>
 VAL166  LYS551  ARG553  GLY616  TRP617  ASP618  TYR619  PRO620  LYS621  CYS622 
 ASP623  PHE694  ASN695  SER759  ASP760  ASP761  ALA762  ILE779  LEU786  VAL792 
 PHE793  MET794  SER795  GLU796  ALA797  LYS798  CYS799  TRP800  GLU811  SER814 

> <Gold.Protein.RotatedAtoms>
  151.4914  135.1057  159.9804 H   0  0  0  0  0  0  0  0  0  0  0  0  # atno 6907 bound_to 6896
  152.4739  133.8089  159.7003 H   0  0  0  0  0  0  0  0  0  0  0  0  # atno 6908 bound_to 6896
  150.8765  133.7369  159.2971 H   0  0  0  0  0  0  0  0  0  0  0  0  # atno 6909 bound_to 6896
  145.3752  140.9510  143.2424 H   0  0  0  0  0  0  0  0  0  0  0  0  # atno 7974 bound_to 7965
  154.4170  140.1729  156.1779 H   0  0  0  0  0  0  0  0  0  0  0  0  # atno 8008 bound_to 7997
  155.9707  140.3386  155.6549 H   0  0  0  0  0  0  0  0  0  0  0  0  # atno 8009 bound_to 7997
  155.6629  140.0703  157.2538 H   0  0  0  0  0  0  0  0  0  0  0  0  # atno 8010 bound_to 7997
  139.7659  144.6939  151.0224 H   0  0  0  0  0  0  0  0  0  0  0  0  # atno 10167 bound_to 10162
  157.5128  131.1097  150.9268 H   0  0  0  0  0  0  0  0  0  0  0  0  # atno 10718 bound_to 10713
  153.7720  135.3180  155.3353 H   0  0  0  0  0  0  0  0  0  0  0  0  # atno 10763 bound_to 10752
  154.8193  135.4615  154.0734 H   0  0  0  0  0  0  0  0  0  0  0  0  # atno 10764 bound_to 10752
  153.1997  135.6920  153.8331 H   0  0  0  0  0  0  0  0  0  0  0  0  # atno 10765 bound_to 10752
  141.1601  133.7572  156.9456 H   0  0  0  0  0  0  0  0  0  0  0  0  # atno 11005 bound_to 11000
  144.8547  139.5268  143.6840 LP  0  0  0  0  0  0  0  0  0  0  0  0  # atno 17320 bound_to 7965
  146.2867  139.7024  142.9190 LP  0  0  0  0  0  0  0  0  0  0  0  0  # atno 17321 bound_to 7965
  140.7811  143.4643  151.0234 LP  0  0  0  0  0  0  0  0  0  0  0  0  # atno 17342 bound_to 10162
  139.8328  143.7668  152.3180 LP  0  0  0  0  0  0  0  0  0  0  0  0  # atno 17343 bound_to 10162
  156.9903  130.5560  149.5303 LP  0  0  0  0  0  0  0  0  0  0  0  0  # atno 17370 bound_to 10713
  156.0300  130.5392  150.8510 LP  0  0  0  0  0  0  0  0  0  0  0  0  # atno 17371 bound_to 10713
  140.1292  134.9367  157.2312 LP  0  0  0  0  0  0  0  0  0  0  0  0  # atno 17394 bound_to 11000
  140.2975  134.3170  155.7298 LP  0  0  0  0  0  0  0  0  0  0  0  0  # atno 17395 bound_to 11000

$$$$
