AV-unprocessed.smi:2226|AV-procd|sdf|9014|dock2
  -GOLD-   2272012213D 1   1.00000     0.00000
 Structure written by MMmdl.
 40 42  0  0  0  0  0  0  0  0  2 V2000
  146.0468  143.3492  153.3758 C   0  0  0  0  0  0  0  0  0  0  0  0
  146.0323  141.8994  153.6851 N   0  3  2  0  0  0  0  0  0  0  0  0
  145.7006  141.5651  155.0916 C   0  0  1  0  0  0  0  0  0  0  0  0
  145.2971  140.0739  155.1702 C   0  0  0  0  0  0  0  0  0  0  0  0
  146.3380  139.1132  154.5600 C   0  0  0  0  0  0  0  0  0  0  0  0
  146.9237  139.6451  153.2360 C   0  0  0  0  0  0  0  0  0  0  0  0
  147.2437  141.1583  153.2570 C   0  0  2  0  0  0  0  0  0  0  0  0
  148.4748  141.5502  154.1119 C   0  0  0  0  0  0  0  0  0  0  0  0
  148.2469  141.4853  155.6399 C   0  0  1  0  0  0  0  0  0  0  0  0
  149.2578  142.3031  156.3089 N   0  0  0  0  0  0  0  0  0  0  0  0
  150.3220  141.8597  156.9959 C   0  0  0  0  0  0  0  0  0  0  0  0
  150.5545  140.6544  157.1314 O   0  0  0  0  0  0  0  0  0  0  0  0
  151.0473  142.9380  157.4823 N   0  0  0  0  0  0  0  0  0  0  0  0
  151.5589  142.8969  158.6746 C   0  0  0  0  0  0  0  0  0  0  0  0
  151.5520  141.9332  159.6799 N   0  0  0  0  0  0  0  0  0  0  0  0
  152.2567  142.4223  160.7440 C   0  0  0  0  0  0  0  0  0  0  0  0
  152.6896  143.6387  160.4271 C   0  0  0  0  0  0  0  0  0  0  0  0
  152.2783  143.9562  159.1675 O   0  0  0  0  0  0  0  0  0  0  0  0
  146.8417  141.9809  156.0532 C   0  0  0  0  0  0  0  0  0  0  0  0
  146.8300  143.8802  153.9162 H   0  0  0  0  0  0  0  0  0  0  0  0
  145.0903  143.8030  153.6365 H   0  0  0  0  0  0  0  0  0  0  0  0
  146.2061  143.5086  152.3090 H   0  0  0  0  0  0  0  0  0  0  0  0
  144.8158  142.1393  155.3704 H   0  0  0  0  0  0  0  0  0  0  0  0
  145.0850  139.7898  156.2015 H   0  0  0  0  0  0  0  0  0  0  0  0
  144.3591  139.9466  154.6281 H   0  0  0  0  0  0  0  0  0  0  0  0
  147.1327  138.9113  155.2731 H   0  0  0  0  0  0  0  0  0  0  0  0
  145.8761  138.1408  154.3871 H   0  0  0  0  0  0  0  0  0  0  0  0
  147.8096  139.0714  152.9614 H   0  0  0  0  0  0  0  0  0  0  0  0
  146.1949  139.4627  152.4450 H   0  0  0  0  0  0  0  0  0  0  0  0
  147.4606  141.4422  152.2262 H   0  0  0  0  0  0  0  0  0  0  0  0
  149.3309  140.9311  153.8412 H   0  0  0  0  0  0  0  0  0  0  0  0
  148.7618  142.5670  153.8404 H   0  0  0  0  0  0  0  0  0  0  0  0
  148.3549  140.4526  155.9601 H   0  0  0  0  0  0  0  0  0  0  0  0
  149.1393  143.3040  156.2450 H   0  0  0  0  0  0  0  0  0  0  0  0
  151.1173  141.0214  159.6701 H   0  0  0  0  0  0  0  0  0  0  0  0
  152.3765  141.8306  161.6396 H   0  0  0  0  0  0  0  0  0  0  0  0
  153.2742  144.3718  160.9629 H   0  0  0  0  0  0  0  0  0  0  0  0
  146.8536  143.0703  156.1086 H   0  0  0  0  0  0  0  0  0  0  0  0
  146.6174  141.6471  157.0669 H   0  0  0  0  0  0  0  0  0  0  0  0
  145.2747  141.5267  153.1305 H   0  0  0  0  0  0  0  0  0  0  0  0
  1  2  1  0  0  0  0
  1 20  1  0  0  0  0
  1 21  1  0  0  0  0
  1 22  1  0  0  0  0
  2  7  1  0  0  0  0
  2  3  1  0  0  0  0
  2 40  1  0  0  0  0
  3 19  1  0  0  0  0
  3  4  1  0  0  0  0
  3 23  1  0  0  0  0
  4  5  1  0  0  0  0
  4 24  1  0  0  0  0
  4 25  1  0  0  0  0
  5  6  1  0  0  0  0
  5 26  1  0  0  0  0
  5 27  1  0  0  0  0
  6  7  1  0  0  0  0
  6 28  1  0  0  0  0
  6 29  1  0  0  0  0
  7  8  1  0  0  0  0
  7 30  1  0  0  0  0
  8  9  1  0  0  0  0
  8 31  1  0  0  0  0
  8 32  1  0  0  0  0
  9 10  1  0  0  0  0
  9 19  1  0  0  0  0
  9 33  1  0  0  0  0
 10 34  1  0  0  0  0
 10 11  1  0  0  0  0
 11 13  1  0  0  0  0
 11 12  2  0  0  0  0
 13 14  2  0  0  0  0
 14 18  1  0  0  0  0
 14 15  1  0  0  0  0
 15 35  1  0  0  0  0
 15 16  1  0  0  0  0
 16 36  1  0  0  0  0
 16 17  2  0  0  0  0
 17 37  1  0  0  0  0
 17 18  1  0  0  0  0
 19 38  1  0  0  0  0
 19 39  1  0  0  0  0
M  CHG  1   2   1
M  END
> <s_m_source_file>
AV-unprocessed.smi

> <i_m_source_file_index>
2226

> <i_lp_mmshare_version>
43012

> <i_f3d_flags>
0

> <s_epik_input>
W0NIMl0xW0NIMl1bQ0gyXVtDQEhdKE4oW0NIM10pW0NIXTEyKVtDSDJdW0NASF0oW0NIMl0yKVtOSF1DKD1PKVtOSF1jM25bY0hdW2NIXW8z

> <s_epik_cmdline>
J2VwaWtfcHl0aG9uJywgJy1waCcsICc3LjAnLCAnLXRuJywgJzgnLCAnLW1hJywgJzIwMCcsICctbWV0YWxfYmluZGluZycsICctaW1hZScsICc8aW5maWxlLm1hZT4nLCAnLW9tYWUnLCAnPG91dGZpbGUubWFlPic=

> <r_lp_tautomer_probability>
0.107061

> <r_epik_Ionization_Penalty>
1.08307

> <r_epik_Ionization_Penalty_Charging>
1.08272

> <r_epik_Ionization_Penalty_Neutral>
0.000345913

> <r_epik_State_Penalty>
2.5744

> <r_epik_Charging_Adjusted_Penalty>
3.65713

> <i_epik_Tot_Q>
1

> <i_epik_Tot_abs_Q>
1

> <r_epik_Metal_State_Penalty>
3.72133

> <b_epik_Metal_Only>
0

> <s_lp_Force_Field>
OPLS_2005

> <r_lp_Energy>
58.9785

> <b_lp_Chiralities_Consistent>
1

> <s_lp_Variant>
AV-unprocessed.smi:2226-14

> <Gold.Version>
5.8.1

> <Gold.Id.Protein>
6NUR|6NUR_protein|mol2

> <Gold.PLP.Fitness>
40.1989

> <Gold.PLP.PLP>
-32.0884

> <Gold.PLP.part.hbond>
-2.0000

> <Gold.PLP.part.metal>
0.0000

> <Gold.PLP.part.buried>
-6.0581

> <Gold.PLP.part.nonpolar>
-24.4902

> <Gold.PLP.part.repulsive>
0.3251

> <Gold.PLP.ligand.clash>
0.0000

> <Gold.PLP.ligand.torsion>
0.4478

> <Gold.PLP.Chemscore.Hbond>
3.0000

> <Gold.PLP.Chemscore.CHOScore>
0.0000

> <Gold.PLP.Chemscore.Metal>
0.0000

> <Gold.Chemscore.Hbonds>
donor molecule, donor type, donor heavy atom, donor atom, acceptor molecule, acceptor atom, score
      L1  H     2    40       P1 10175  1.00
      L1  H    10    34       P1  8028  1.00

> <Gold.PLP.Chemscore.Internal.Correction>
0.0062

> <Gold.Rescore>
     Score         DG    S(hbond)    S(metal)    S(lipo)     H(rot)  DE(clash)    DE(int)     intcor
     15.93     -16.41       1.94        0.00      60.08       1.00       0.04       0.45       ----

> <Gold.Chemscore.Fitness>
15.9266

> <Gold.Chemscore.DG>
-16.4140

> <Gold.Chemscore.ZeroCoef>
-5.4800

> <Gold.Chemscore.Hbond>
1.9357

> <Gold.Chemscore.Metal>
0.0000

> <Gold.Chemscore.Lipo>
60.0760

> <Gold.Chemscore.Internal_Hbond>
0.0000

> <Gold.Chemscore.DEClash>
0.0383

> <Gold.Chemscore.DEInternal>
0.4492

> <Gold.Chemscore.Rot>
1.0000

> <Gold.Chemscore.Internal.Correction>
   9.000000E+99

> <Gold.Chemscore.Hbonds>
donor molecule, donor type, donor heavy atom, donor atom, acceptor molecule, acceptor atom, score
      L1  H     2    40       P1 10175  0.02
      L1  H    10    34       P1  8028  0.95

> <Gold.Chemscore.Hbond.Weighted>
-6.4651

> <Gold.Chemscore.Metal.Weighted>
-0.0000

> <Gold.Chemscore.Lipo.Weighted>
-7.0289

> <Gold.Chemscore.Internal_Hbond.Weighted>
0.0000

> <Gold.Chemscore.DEClash.Weighted>
0.0383

> <Gold.Chemscore.DEInternal.Weighted>
0.4492

> <Gold.Chemscore.Rot.Weighted>
2.5600

> <Gold.Chemscore.Internal.Correction.Weighted>
   9.000000E+99

> <Gold.Protein.RotatedTorsions>
[ 6907 6896 6895 6894 ] final   67.34 input  -60.11 | X-H torsion
[ 7974 7965 7964 7962 ] final -102.11 input  175.53 | X-H torsion
[ 8008 7997 7996 7995 ] final   47.54 input   59.86 | X-H torsion
[ 10167 10162 10161 10158 ] final -128.44 input  -65.29 | X-H torsion
[ 10718 10713 10712 10709 ] final  113.68 input   66.30 | X-H torsion
[ 10763 10752 10751 10750 ] final  -20.19 input  -60.55 | X-H torsion
[ 11005 11000 10999 10996 ] final   38.97 input  -57.11 | X-H torsion

> <Gold.Protein.ActiveResidues>
 VAL166  LYS551  ARG553  GLY616  TRP617  ASP618  TYR619  PRO620  LYS621  CYS622 
 ASP623  PHE694  ASN695  SER759  ASP760  ASP761  ALA762  ILE779  LEU786  VAL792 
 PHE793  MET794  SER795  GLU796  ALA797  LYS798  CYS799  TRP800  GLU811  SER814 

> <Gold.Protein.RotatedAtoms>
  152.4545  134.5322  159.9814 H   0  0  0  0  0  0  0  0  0  0  0  0  # atno 6907 bound_to 6896
  151.5386  133.3431  159.2939 H   0  0  0  0  0  0  0  0  0  0  0  0  # atno 6908 bound_to 6896
  150.8484  134.7832  159.7052 H   0  0  0  0  0  0  0  0  0  0  0  0  # atno 6909 bound_to 6896
  145.2729  140.9304  143.2976 H   0  0  0  0  0  0  0  0  0  0  0  0  # atno 7974 bound_to 7965
  155.3707  140.3423  155.4243 H   0  0  0  0  0  0  0  0  0  0  0  0  # atno 8008 bound_to 7997
  156.1664  140.1617  156.8558 H   0  0  0  0  0  0  0  0  0  0  0  0  # atno 8009 bound_to 7997
  154.5189  140.0771  156.8116 H   0  0  0  0  0  0  0  0  0  0  0  0  # atno 8010 bound_to 7997
  139.9503  143.6063  152.2477 H   0  0  0  0  0  0  0  0  0  0  0  0  # atno 10167 bound_to 10162
  157.6324  131.0987  150.7077 H   0  0  0  0  0  0  0  0  0  0  0  0  # atno 10718 bound_to 10713
  153.6166  135.6994  153.5326 H   0  0  0  0  0  0  0  0  0  0  0  0  # atno 10763 bound_to 10752
  153.2972  135.4139  155.1220 H   0  0  0  0  0  0  0  0  0  0  0  0  # atno 10764 bound_to 10752
  154.8552  135.3640  154.5706 H   0  0  0  0  0  0  0  0  0  0  0  0  # atno 10765 bound_to 10752
  140.2074  134.3796  155.8066 H   0  0  0  0  0  0  0  0  0  0  0  0  # atno 11005 bound_to 11000
  144.9319  139.4288  143.6491 LP  0  0  0  0  0  0  0  0  0  0  0  0  # atno 17320 bound_to 7965
  146.3241  139.8235  142.8922 LP  0  0  0  0  0  0  0  0  0  0  0  0  # atno 17321 bound_to 7965
  139.6634  144.7662  151.1920 LP  0  0  0  0  0  0  0  0  0  0  0  0  # atno 17342 bound_to 10162
  140.7585  143.5976  150.8733 LP  0  0  0  0  0  0  0  0  0  0  0  0  # atno 17343 bound_to 10162
  156.7414  130.4740  149.5477 LP  0  0  0  0  0  0  0  0  0  0  0  0  # atno 17370 bound_to 10713
  156.1537  130.6327  151.0629 LP  0  0  0  0  0  0  0  0  0  0  0  0  # atno 17371 bound_to 10713
  141.2227  133.7125  156.8360 LP  0  0  0  0  0  0  0  0  0  0  0  0  # atno 17394 bound_to 11000
  140.1988  134.8912  157.3145 LP  0  0  0  0  0  0  0  0  0  0  0  0  # atno 17395 bound_to 11000

$$$$
