AV-unprocessed.smi:1709|AV-procd|sdf|6892|dock2
  -GOLD-   22720 8 93D 1   1.00000     0.00000
 Structure written by MMmdl.
 43 45  0  0  0  0  0  0  0  0  2 V2000
  150.7309  137.7522  154.4445 C   0  0  0  0  0  0  0  0  0  0  0  0
  149.9166  139.0276  154.5928 C   0  0  0  0  0  0  0  0  0  0  0  0
  150.5591  140.2082  155.0225 C   0  0  0  0  0  0  0  0  0  0  0  0
  149.8078  141.3877  155.1584 C   0  0  0  0  0  0  0  0  0  0  0  0
  148.4372  141.3367  154.8552 C   0  0  0  0  0  0  0  0  0  0  0  0
  147.8155  140.2129  154.4434 N   0  0  0  0  0  0  0  0  0  0  0  0
  148.5241  139.0615  154.3126 C   0  0  0  0  0  0  0  0  0  0  0  0
  147.9465  137.8352  153.8599 N   0  0  0  0  0  0  0  0  0  0  0  0
  146.7323  137.2913  154.0847 C   0  0  0  0  0  0  0  0  0  0  0  0
  145.8955  137.8610  154.7830 O   0  0  0  0  0  0  0  0  0  0  0  0
  146.5017  136.1043  153.5007 N   0  0  0  0  0  0  0  0  0  0  0  0
  145.2931  135.3050  153.6683 C   0  0  1  0  0  0  0  0  0  0  0  0
  144.0317  136.0127  153.1914 C   0  0  0  0  0  0  0  0  0  0  0  0
  143.0413  134.8593  153.0038 C   0  0  0  0  0  0  0  0  0  0  0  0
  143.8446  133.6464  152.7120 N   0  3  1  0  0  0  0  0  0  0  0  0
  143.4769  132.9703  151.4391 C   0  0  0  0  0  0  0  0  0  0  0  0
  144.5711  131.9844  151.0041 C   0  0  0  0  0  0  0  0  0  0  0  0
  145.9061  132.7047  150.7368 C   0  0  0  0  0  0  0  0  0  0  0  0
  146.0165  134.0425  151.4931 C   0  0  0  0  0  0  0  0  0  0  0  0
  145.2866  133.9944  152.8592 C   0  0  1  0  0  0  0  0  0  0  0  0
  151.7771  137.9165  154.7041 H   0  0  0  0  0  0  0  0  0  0  0  0
  150.6936  137.3915  153.4162 H   0  0  0  0  0  0  0  0  0  0  0  0
  150.3419  136.9728  155.1006 H   0  0  0  0  0  0  0  0  0  0  0  0
  151.6161  140.2136  155.2451 H   0  0  0  0  0  0  0  0  0  0  0  0
  150.2703  142.3075  155.4851 H   0  0  0  0  0  0  0  0  0  0  0  0
  147.8228  142.2204  154.9437 H   0  0  0  0  0  0  0  0  0  0  0  0
  148.5112  137.3362  153.1879 H   0  0  0  0  0  0  0  0  0  0  0  0
  147.2408  135.7075  152.9373 H   0  0  0  0  0  0  0  0  0  0  0  0
  145.1609  135.0681  154.7264 H   0  0  0  0  0  0  0  0  0  0  0  0
  143.6743  136.7653  153.8952 H   0  0  0  0  0  0  0  0  0  0  0  0
  144.2114  136.5051  152.2343 H   0  0  0  0  0  0  0  0  0  0  0  0
  142.4954  134.6818  153.9309 H   0  0  0  0  0  0  0  0  0  0  0  0
  142.3045  135.0843  152.2314 H   0  0  0  0  0  0  0  0  0  0  0  0
  142.5261  132.4539  151.5742 H   0  0  0  0  0  0  0  0  0  0  0  0
  143.3261  133.7088  150.6496 H   0  0  0  0  0  0  0  0  0  0  0  0
  144.7089  131.2405  151.7899 H   0  0  0  0  0  0  0  0  0  0  0  0
  144.2606  131.4342  150.1152 H   0  0  0  0  0  0  0  0  0  0  0  0
  146.7275  132.0458  151.0207 H   0  0  0  0  0  0  0  0  0  0  0  0
  146.0238  132.8916  149.6687 H   0  0  0  0  0  0  0  0  0  0  0  0
  147.0705  134.2928  151.6159 H   0  0  0  0  0  0  0  0  0  0  0  0
  145.5869  134.8387  150.8833 H   0  0  0  0  0  0  0  0  0  0  0  0
  145.7614  133.2136  153.4553 H   0  0  0  0  0  0  0  0  0  0  0  0
  143.6457  132.9910  153.4543 H   0  0  0  0  0  0  0  0  0  0  0  0
  1  2  1  0  0  0  0
  1 21  1  0  0  0  0
  1 22  1  0  0  0  0
  1 23  1  0  0  0  0
  2  7  1  0  0  0  0
  2  3  2  0  0  0  0
  3  4  1  0  0  0  0
  3 24  1  0  0  0  0
  4  5  2  0  0  0  0
  4 25  1  0  0  0  0
  5  6  1  0  0  0  0
  5 26  1  0  0  0  0
  6  7  2  0  0  0  0
  7  8  1  0  0  0  0
  8  9  1  0  0  0  0
  8 27  1  0  0  0  0
  9 10  2  0  0  0  0
  9 11  1  0  0  0  0
 11 12  1  0  0  0  0
 11 28  1  0  0  0  0
 12 20  1  0  0  0  0
 12 13  1  0  0  0  0
 12 29  1  0  0  0  0
 13 14  1  0  0  0  0
 13 30  1  0  0  0  0
 13 31  1  0  0  0  0
 14 15  1  0  0  0  0
 14 32  1  0  0  0  0
 14 33  1  0  0  0  0
 15 20  1  0  0  0  0
 15 16  1  0  0  0  0
 15 43  1  0  0  0  0
 16 17  1  0  0  0  0
 16 34  1  0  0  0  0
 16 35  1  0  0  0  0
 17 18  1  0  0  0  0
 17 36  1  0  0  0  0
 17 37  1  0  0  0  0
 18 19  1  0  0  0  0
 18 38  1  0  0  0  0
 18 39  1  0  0  0  0
 19 20  1  0  0  0  0
 19 40  1  0  0  0  0
 19 41  1  0  0  0  0
 20 42  1  0  0  0  0
M  CHG  1  15   1
M  END
> <s_m_source_file>
AV-unprocessed.smi

> <i_m_source_file_index>
1709

> <i_lp_mmshare_version>
43012

> <i_f3d_flags>
0

> <s_epik_input>
W0NIM11jMVtjSF1bY0hdW2NIXW5jMVtOSF1DKD1PKVtOSF1bQ0BIXShbQ0gyXVtDSDJdMilbQ0BASF0oTjIzKVtDSDJdW0NIMl1bQ0gyXVtDSDJdMw==

> <s_epik_cmdline>
J2VwaWtfcHl0aG9uJywgJy1waCcsICc3LjAnLCAnLXRuJywgJzgnLCAnLW1hJywgJzIwMCcsICctbWV0YWxfYmluZGluZycsICctaW1hZScsICc8aW5maWxlLm1hZT4nLCAnLW9tYWUnLCAnPG91dGZpbGUubWFlPic=

> <r_epik_Ionization_Penalty>
0.00101524

> <r_epik_Ionization_Penalty_Charging>
0.000974069

> <r_epik_Ionization_Penalty_Neutral>
4.11757e-05

> <r_epik_State_Penalty>
0.000633842

> <r_epik_Charging_Adjusted_Penalty>
0.00160791

> <i_epik_Tot_Q>
1

> <i_epik_Tot_abs_Q>
1

> <r_epik_Metal_State_Penalty>
-0

> <b_epik_Metal_Only>
0

> <s_lp_Force_Field>
OPLS_2005

> <r_lp_Energy>
45.0812

> <b_lp_Chiralities_Consistent>
1

> <s_lp_Variant>
AV-unprocessed.smi:1709-2

> <Gold.Version>
5.8.1

> <Gold.Id.Protein>
6NUR|6NUR_protein|mol2

> <Gold.PLP.Fitness>
43.9021

> <Gold.PLP.PLP>
-32.3281

> <Gold.PLP.part.hbond>
-3.0000

> <Gold.PLP.part.metal>
0.0000

> <Gold.PLP.part.buried>
-3.6132

> <Gold.PLP.part.nonpolar>
-26.6930

> <Gold.PLP.part.repulsive>
0.1689

> <Gold.PLP.ligand.clash>
0.0000

> <Gold.PLP.ligand.torsion>
0.2637

> <Gold.PLP.Chemscore.Hbond>
3.7037

> <Gold.PLP.Chemscore.CHOScore>
0.3290

> <Gold.PLP.Chemscore.Metal>
0.0000

> <Gold.Chemscore.Hbonds>
donor molecule, donor type, donor heavy atom, donor atom, acceptor molecule, acceptor atom, score
      L1  H     8    27       P1  7948  1.00
      L1  H    11    28       P1  7948  0.76
      L1  H    15    43       P1 10957  1.89
      L1  C     5    26       P1  8028  0.32

> <Gold.PLP.Chemscore.Internal.Correction>
0.0032

> <Gold.Rescore>
     Score         DG    S(hbond)    S(metal)    S(lipo)     H(rot)  DE(clash)    DE(int)     intcor
     19.91     -20.29       2.55        0.00      75.81       1.00       0.04       0.34       ----

> <Gold.Chemscore.Fitness>
19.9069

> <Gold.Chemscore.DG>
-20.2916

> <Gold.Chemscore.ZeroCoef>
-5.4800

> <Gold.Chemscore.Hbond>
2.5454

> <Gold.Chemscore.Metal>
0.0000

> <Gold.Chemscore.Lipo>
75.8127

> <Gold.Chemscore.Internal_Hbond>
0.0000

> <Gold.Chemscore.DEClash>
0.0402

> <Gold.Chemscore.DEInternal>
0.3444

> <Gold.Chemscore.Rot>
1.0000

> <Gold.Chemscore.Internal.Correction>
   9.000000E+99

> <Gold.Chemscore.Hbonds>
donor molecule, donor type, donor heavy atom, donor atom, acceptor molecule, acceptor atom, score
      L1  H     8    27       P1  7948  1.00
      L1  H    11    28       P1  7948  0.73
      L1  H    15    43       P1 10957  0.74

> <Gold.Chemscore.Hbond.Weighted>
-8.5015

> <Gold.Chemscore.Metal.Weighted>
-0.0000

> <Gold.Chemscore.Lipo.Weighted>
-8.8701

> <Gold.Chemscore.Internal_Hbond.Weighted>
0.0000

> <Gold.Chemscore.DEClash.Weighted>
0.0402

> <Gold.Chemscore.DEInternal.Weighted>
0.3444

> <Gold.Chemscore.Rot.Weighted>
2.5600

> <Gold.Chemscore.Internal.Correction.Weighted>
   9.000000E+99

> <Gold.Protein.RotatedTorsions>
[ 6907 6896 6895 6894 ] final -133.60 input  -60.11 | X-H torsion
[ 7974 7965 7964 7962 ] final   28.38 input  175.53 | X-H torsion
[ 8008 7997 7996 7995 ] final  -95.84 input   59.86 | X-H torsion
[ 10167 10162 10161 10158 ] final  130.13 input  -65.29 | X-H torsion
[ 10718 10713 10712 10709 ] final   86.20 input   66.30 | X-H torsion
[ 10763 10752 10751 10750 ] final   50.61 input  -60.55 | X-H torsion
[ 11005 11000 10999 10996 ] final -112.98 input  -57.11 | X-H torsion

> <Gold.Protein.ActiveResidues>
 VAL166  LYS551  ARG553  GLY616  TRP617  ASP618  TYR619  PRO620  LYS621  CYS622 
 ASP623  PHE694  ASN695  SER759  ASP760  ASP761  ALA762  ILE779  LEU786  VAL792 
 PHE793  MET794  SER795  GLU796  ALA797  LYS798  CYS799  TRP800  GLU811  SER814 

> <Gold.Protein.RotatedAtoms>
  150.9759  133.6295  159.2730 H   0  0  0  0  0  0  0  0  0  0  0  0  # atno 6907 bound_to 6896
  151.3568  135.0895  159.9431 H   0  0  0  0  0  0  0  0  0  0  0  0  # atno 6908 bound_to 6896
  152.5199  133.9341  159.7649 H   0  0  0  0  0  0  0  0  0  0  0  0  # atno 6909 bound_to 6896
  146.1732  139.7064  142.8953 H   0  0  0  0  0  0  0  0  0  0  0  0  # atno 7974 bound_to 7965
  154.7666  140.0476  157.1017 H   0  0  0  0  0  0  0  0  0  0  0  0  # atno 8008 bound_to 7997
  154.9872  140.3108  155.4902 H   0  0  0  0  0  0  0  0  0  0  0  0  # atno 8009 bound_to 7997
  156.2914  140.2225  156.4975 H   0  0  0  0  0  0  0  0  0  0  0  0  # atno 8010 bound_to 7997
  139.5444  144.6760  151.4519 H   0  0  0  0  0  0  0  0  0  0  0  0  # atno 10167 bound_to 10162
  157.6925  131.0206  150.2937 H   0  0  0  0  0  0  0  0  0  0  0  0  # atno 10718 bound_to 10713
  152.9784  135.5873  154.4281 H   0  0  0  0  0  0  0  0  0  0  0  0  # atno 10763 bound_to 10752
  154.3897  135.2767  155.2164 H   0  0  0  0  0  0  0  0  0  0  0  0  # atno 10764 bound_to 10752
  154.4041  135.6096  153.5969 H   0  0  0  0  0  0  0  0  0  0  0  0  # atno 10765 bound_to 10752
  141.0642  133.9485  157.2609 H   0  0  0  0  0  0  0  0  0  0  0  0  # atno 11005 bound_to 11000
  145.4283  141.0413  143.2925 LP  0  0  0  0  0  0  0  0  0  0  0  0  # atno 17320 bound_to 7965
  144.8195  139.5816  143.6993 LP  0  0  0  0  0  0  0  0  0  0  0  0  # atno 17321 bound_to 7965
  140.6687  143.8341  150.6973 LP  0  0  0  0  0  0  0  0  0  0  0  0  # atno 17342 bound_to 10162
  140.1758  143.4156  152.1968 LP  0  0  0  0  0  0  0  0  0  0  0  0  # atno 17343 bound_to 10162
  156.3464  130.3823  149.7366 LP  0  0  0  0  0  0  0  0  0  0  0  0  # atno 17370 bound_to 10713
  156.4858  130.8062  151.3074 LP  0  0  0  0  0  0  0  0  0  0  0  0  # atno 17371 bound_to 10713
  139.9461  135.0184  156.8856 LP  0  0  0  0  0  0  0  0  0  0  0  0  # atno 17394 bound_to 11000
  140.5806  134.0355  155.7463 LP  0  0  0  0  0  0  0  0  0  0  0  0  # atno 17395 bound_to 11000

$$$$
