AV-unprocessed.smi:2034|AV-procd|sdf|8266|dock3
  -GOLD-   2272010543D 1   1.00000     0.00000
 Structure written by MMmdl.
 50 52  0  0  0  0  0  0  0  0  1 V2000
  153.5462  140.9545  160.5091 C   0  0  0  0  0  0  0  0  0  0  0  0
  153.0764  141.5916  159.1970 C   0  0  1  0  0  0  0  0  0  0  0  0
  151.9784  140.7579  158.5097 C   0  0  0  0  0  0  0  0  0  0  0  0
  151.4770  141.4517  157.3266 N   0  0  0  0  0  0  0  0  0  0  0  0
  150.6763  140.6763  156.4600 C   0  0  0  0  0  0  0  0  0  0  0  0
  149.4558  140.1281  156.9198 C   0  0  0  0  0  0  0  0  0  0  0  0
  148.6708  139.3632  156.0367 C   0  0  0  0  0  0  0  0  0  0  0  0
  149.1137  139.1679  154.7144 C   0  0  0  0  0  0  0  0  0  0  0  0
  148.3099  138.3793  153.8482 N   0  0  0  0  0  0  0  0  0  0  0  0
  146.9740  138.2331  153.8540 C   0  0  0  0  0  0  0  0  0  0  0  0
  146.2032  138.7606  154.6559 O   0  0  0  0  0  0  0  0  0  0  0  0
  146.5729  137.4075  152.8776 N   0  0  0  0  0  0  0  0  0  0  0  0
  145.1914  137.0084  152.6346 C   0  0  0  0  0  0  0  0  0  0  0  0
  145.0964  135.5303  152.2218 C   0  0  1  0  0  0  0  0  0  0  0  0
  145.5948  135.2500  150.8082 C   0  0  0  0  0  0  0  0  0  0  0  0
  145.8873  133.7623  150.8554 C   0  0  0  0  0  0  0  0  0  0  0  0
  146.1857  133.4964  152.3348 C   0  0  0  0  0  0  0  0  0  0  0  0
  145.9631  134.7296  153.0111 O   0  0  0  0  0  0  0  0  0  0  0  0
  150.3561  139.7374  154.3485 C   0  0  0  0  0  0  0  0  0  0  0  0
  151.1130  140.4685  155.1936 N   0  0  0  0  0  0  0  0  0  0  0  0
  151.0590  142.8252  157.5989 C   0  0  0  0  0  0  0  0  0  0  0  0
  152.1823  143.5999  158.3131 C   0  0  1  0  0  0  0  0  0  0  0  0
  151.7368  145.0067  158.7255 C   0  0  0  0  0  0  0  0  0  0  0  0
  152.5670  142.8904  159.4876 O   0  0  0  0  0  0  0  0  0  0  0  0
  153.9533  139.9578  160.3374 H   0  0  0  0  0  0  0  0  0  0  0  0
  152.7244  140.8631  161.2200 H   0  0  0  0  0  0  0  0  0  0  0  0
  154.3257  141.5560  160.9769 H   0  0  0  0  0  0  0  0  0  0  0  0
  153.9363  141.6853  158.5310 H   0  0  0  0  0  0  0  0  0  0  0  0
  152.3807  139.7773  158.2593 H   0  0  0  0  0  0  0  0  0  0  0  0
  151.1466  140.5928  159.1960 H   0  0  0  0  0  0  0  0  0  0  0  0
  149.1218  140.2725  157.9366 H   0  0  0  0  0  0  0  0  0  0  0  0
  147.7383  138.9350  156.3743 H   0  0  0  0  0  0  0  0  0  0  0  0
  148.8155  137.8132  153.1830 H   0  0  0  0  0  0  0  0  0  0  0  0
  147.2739  137.0108  152.2691 H   0  0  0  0  0  0  0  0  0  0  0  0
  144.5910  137.1906  153.5275 H   0  0  0  0  0  0  0  0  0  0  0  0
  144.7809  137.6453  151.8506 H   0  0  0  0  0  0  0  0  0  0  0  0
  144.0745  135.1608  152.3277 H   0  0  0  0  0  0  0  0  0  0  0  0
  144.8684  135.5175  150.0400 H   0  0  0  0  0  0  0  0  0  0  0  0
  146.5157  135.8021  150.6145 H   0  0  0  0  0  0  0  0  0  0  0  0
  145.0096  133.1942  150.5443 H   0  0  0  0  0  0  0  0  0  0  0  0
  146.7162  133.4855  150.2035 H   0  0  0  0  0  0  0  0  0  0  0  0
  145.5189  132.7305  152.7326 H   0  0  0  0  0  0  0  0  0  0  0  0
  147.2131  133.1674  152.4931 H   0  0  0  0  0  0  0  0  0  0  0  0
  150.7827  139.5985  153.3674 H   0  0  0  0  0  0  0  0  0  0  0  0
  150.8071  143.3319  156.6662 H   0  0  0  0  0  0  0  0  0  0  0  0
  150.1595  142.8110  158.2163 H   0  0  0  0  0  0  0  0  0  0  0  0
  153.0455  143.6893  157.6511 H   0  0  0  0  0  0  0  0  0  0  0  0
  151.4413  145.5952  157.8566 H   0  0  0  0  0  0  0  0  0  0  0  0
  152.5436  145.5392  159.2293 H   0  0  0  0  0  0  0  0  0  0  0  0
  150.8870  144.9665  159.4076 H   0  0  0  0  0  0  0  0  0  0  0  0
  1  2  1  0  0  0  0
  1 25  1  0  0  0  0
  1 26  1  0  0  0  0
  1 27  1  0  0  0  0
  2 24  1  0  0  0  0
  2  3  1  0  0  0  0
  2 28  1  0  0  0  0
  3  4  1  0  0  0  0
  3 29  1  0  0  0  0
  3 30  1  0  0  0  0
  4  5  1  0  0  0  0
  4 21  1  0  0  0  0
  5 20  1  0  0  0  0
  5  6  2  0  0  0  0
  6  7  1  0  0  0  0
  6 31  1  0  0  0  0
  7  8  2  0  0  0  0
  7 32  1  0  0  0  0
  8  9  1  0  0  0  0
  8 19  1  0  0  0  0
  9 10  1  0  0  0  0
  9 33  1  0  0  0  0
 10 11  2  0  0  0  0
 10 12  1  0  0  0  0
 12 13  1  0  0  0  0
 12 34  1  0  0  0  0
 13 14  1  0  0  0  0
 13 35  1  0  0  0  0
 13 36  1  0  0  0  0
 14 18  1  0  0  0  0
 14 15  1  0  0  0  0
 14 37  1  0  0  0  0
 15 16  1  0  0  0  0
 15 38  1  0  0  0  0
 15 39  1  0  0  0  0
 16 17  1  0  0  0  0
 16 40  1  0  0  0  0
 16 41  1  0  0  0  0
 17 18  1  0  0  0  0
 17 42  1  0  0  0  0
 17 43  1  0  0  0  0
 19 20  2  0  0  0  0
 19 44  1  0  0  0  0
 21 22  1  0  0  0  0
 21 45  1  0  0  0  0
 21 46  1  0  0  0  0
 22 23  1  0  0  0  0
 22 24  1  0  0  0  0
 22 47  1  0  0  0  0
 23 48  1  0  0  0  0
 23 49  1  0  0  0  0
 23 50  1  0  0  0  0
M  END
> <s_m_source_file>
AV-unprocessed.smi

> <i_m_source_file_index>
2034

> <i_lp_mmshare_version>
43012

> <i_f3d_flags>
0

> <s_epik_input>
W0NIM11bQ0BASF0xW0NIMl1OKFtDSDJdW0NASF0oTzEpW0NIM10pYzJbY0hdW2NIXWMoW2NIXW4yKVtOSF1DKD1PKVtOSF1bQ0gyXVtDQEBIXTNbQ0gyXVtDSDJdW0NIMl1PMw==

> <s_epik_cmdline>
J2VwaWtfcHl0aG9uJywgJy1waCcsICc3LjAnLCAnLXRuJywgJzgnLCAnLW1hJywgJzIwMCcsICctbWV0YWxfYmluZGluZycsICctaW1hZScsICc8aW5maWxlLm1hZT4nLCAnLW9tYWUnLCAnPG91dGZpbGUubWFlPic=

> <r_lp_tautomer_probability>
1

> <r_epik_Ionization_Penalty>
0.00268225

> <r_epik_Ionization_Penalty_Charging>
0

> <r_epik_Ionization_Penalty_Neutral>
0.00268225

> <r_epik_State_Penalty>
0.00184408

> <r_epik_Charging_Adjusted_Penalty>
0.00184408

> <i_epik_Tot_Q>
0

> <i_epik_Tot_abs_Q>
0

> <r_epik_Metal_State_Penalty>
-0

> <b_epik_Metal_Only>
0

> <s_lp_Force_Field>
OPLS_2005

> <r_lp_Energy>
32.5235

> <b_lp_Chiralities_Consistent>
1

> <s_lp_Variant>
AV-unprocessed.smi:2034-4

> <Gold.Version>
5.8.1

> <Gold.Id.Protein>
6NUR|6NUR_protein|mol2

> <Gold.PLP.Fitness>
47.7636

> <Gold.PLP.PLP>
-40.0718

> <Gold.PLP.part.hbond>
-3.0000

> <Gold.PLP.part.metal>
0.0000

> <Gold.PLP.part.buried>
-4.6627

> <Gold.PLP.part.nonpolar>
-32.8275

> <Gold.PLP.part.repulsive>
0.2717

> <Gold.PLP.ligand.clash>
0.0000

> <Gold.PLP.ligand.torsion>
0.6708

> <Gold.PLP.Chemscore.Hbond>
1.9750

> <Gold.PLP.Chemscore.CHOScore>
0.9238

> <Gold.PLP.Chemscore.Metal>
0.0000

> <Gold.Chemscore.Hbonds>
donor molecule, donor type, donor heavy atom, donor atom, acceptor molecule, acceptor atom, score
      L1  H     9    33       P1  7948  0.96
      L1  H    12    34       P1  7948  1.00
      L1  C    19    44       P1  7957  0.94

> <Gold.PLP.Chemscore.Internal.Correction>
0.3372

> <Gold.Rescore>
     Score         DG    S(hbond)    S(metal)    S(lipo)     H(rot)  DE(clash)    DE(int)     intcor
     18.33     -20.47       1.94        0.00     102.73       1.37       0.22       1.93       ----

> <Gold.Chemscore.Fitness>
18.3273

> <Gold.Chemscore.DG>
-20.4746

> <Gold.Chemscore.ZeroCoef>
-5.4800

> <Gold.Chemscore.Hbond>
1.9378

> <Gold.Chemscore.Metal>
0.0000

> <Gold.Chemscore.Lipo>
102.7349

> <Gold.Chemscore.Internal_Hbond>
0.0000

> <Gold.Chemscore.DEClash>
0.2217

> <Gold.Chemscore.DEInternal>
1.9256

> <Gold.Chemscore.Rot>
1.3663

> <Gold.Chemscore.Internal.Correction>
   9.000000E+99

> <Gold.Chemscore.Hbonds>
donor molecule, donor type, donor heavy atom, donor atom, acceptor molecule, acceptor atom, score
      L1  H     9    33       P1  7948  0.88
      L1  H    12    34       P1  7948  0.98

> <Gold.Chemscore.Hbond.Weighted>
-6.4723

> <Gold.Chemscore.Metal.Weighted>
-0.0000

> <Gold.Chemscore.Lipo.Weighted>
-12.0200

> <Gold.Chemscore.Internal_Hbond.Weighted>
0.0000

> <Gold.Chemscore.DEClash.Weighted>
0.2217

> <Gold.Chemscore.DEInternal.Weighted>
1.9256

> <Gold.Chemscore.Rot.Weighted>
3.4977

> <Gold.Chemscore.Internal.Correction.Weighted>
   9.000000E+99

> <Gold.Protein.RotatedTorsions>
[ 6907 6896 6895 6894 ] final  -44.39 input  -60.11 | X-H torsion
[ 7974 7965 7964 7962 ] final  -72.00 input  175.53 | X-H torsion
[ 8008 7997 7996 7995 ] final  -19.24 input   59.86 | X-H torsion
[ 10167 10162 10161 10158 ] final   90.17 input  -65.29 | X-H torsion
[ 10718 10713 10712 10709 ] final  128.25 input   66.30 | X-H torsion
[ 10763 10752 10751 10750 ] final -129.47 input  -60.55 | X-H torsion
[ 11005 11000 10999 10996 ] final -103.60 input  -57.11 | X-H torsion

> <Gold.Protein.ActiveResidues>
 VAL166  LYS551  ARG553  GLY616  TRP617  ASP618  TYR619  PRO620  LYS621  CYS622 
 ASP623  PHE694  ASN695  SER759  ASP760  ASP761  ALA762  ILE779  LEU786  VAL792 
 PHE793  MET794  SER795  GLU796  ALA797  LYS798  CYS799  TRP800  GLU811  SER814 

> <Gold.Protein.RotatedAtoms>
  150.9334  134.8748  159.7565 H   0  0  0  0  0  0  0  0  0  0  0  0  # atno 6907 bound_to 6896
  152.5048  134.4046  159.9438 H   0  0  0  0  0  0  0  0  0  0  0  0  # atno 6908 bound_to 6896
  151.4071  133.3699  159.2774 H   0  0  0  0  0  0  0  0  0  0  0  0  # atno 6909 bound_to 6896
  145.6708  140.9222  143.0884 H   0  0  0  0  0  0  0  0  0  0  0  0  # atno 7974 bound_to 7965
  154.4850  140.2094  155.9675 H   0  0  0  0  0  0  0  0  0  0  0  0  # atno 8008 bound_to 7997
  156.1223  140.3211  155.8195 H   0  0  0  0  0  0  0  0  0  0  0  0  # atno 8009 bound_to 7997
  155.4446  140.0512  157.2998 H   0  0  0  0  0  0  0  0  0  0  0  0  # atno 8010 bound_to 7997
  139.8499  144.6598  150.9182 H   0  0  0  0  0  0  0  0  0  0  0  0  # atno 10167 bound_to 10162
  157.5261  131.1098  150.9080 H   0  0  0  0  0  0  0  0  0  0  0  0  # atno 10718 bound_to 10713
  154.8757  135.3894  154.3924 H   0  0  0  0  0  0  0  0  0  0  0  0  # atno 10763 bound_to 10752
  153.4659  135.7029  153.6028 H   0  0  0  0  0  0  0  0  0  0  0  0  # atno 10764 bound_to 10752
  153.4506  135.3835  155.2250 H   0  0  0  0  0  0  0  0  0  0  0  0  # atno 10765 bound_to 10752
  141.1138  133.8654  157.1507 H   0  0  0  0  0  0  0  0  0  0  0  0  # atno 11005 bound_to 11000
  144.7057  139.8569  143.7430 LP  0  0  0  0  0  0  0  0  0  0  0  0  # atno 17320 bound_to 7965
  146.1047  139.4046  143.0325 LP  0  0  0  0  0  0  0  0  0  0  0  0  # atno 17321 bound_to 7965
  140.7788  143.3836  151.1433 LP  0  0  0  0  0  0  0  0  0  0  0  0  # atno 17342 bound_to 10162
  139.7475  143.8829  152.3067 LP  0  0  0  0  0  0  0  0  0  0  0  0  # atno 17343 bound_to 10162
  156.9675  130.5478  149.5289 LP  0  0  0  0  0  0  0  0  0  0  0  0  # atno 17370 bound_to 10713
  156.0388  130.5473  150.8720 LP  0  0  0  0  0  0  0  0  0  0  0  0  # atno 17371 bound_to 10713
  140.0048  135.0013  157.0268 LP  0  0  0  0  0  0  0  0  0  0  0  0  # atno 17394 bound_to 11000
  140.4702  134.1394  155.7202 LP  0  0  0  0  0  0  0  0  0  0  0  0  # atno 17395 bound_to 11000

$$$$
