AV-unprocessed.smi:500|AV-procd|sdf|2736|dock3
  -GOLD-   2262023193D 1   1.00000     0.00000
 Structure written by MMmdl.
 46 48  0  0  0  0  0  0  0  0  2 V2000
  152.5163  138.6902  154.6513 C   0  0  0  0  0  0  0  0  0  0  0  0
  152.7203  138.2538  156.1037 C   0  0  0  0  0  0  0  0  0  0  0  0
  153.0878  139.3868  156.8705 O   0  0  0  0  0  0  0  0  0  0  0  0
  152.5891  139.3421  158.1973 C   0  0  0  0  0  0  0  0  0  0  0  0
  151.0940  139.6893  158.1976 C   0  0  0  0  0  0  0  0  0  0  0  0
  150.8546  141.1216  157.9619 N   0  0  0  0  0  0  0  0  0  0  0  0
  150.0513  141.7436  157.0497 C   0  0  0  0  0  0  0  0  0  0  0  0
  149.1598  141.0857  156.0387 C   0  0  2  0  0  0  0  0  0  0  0  0
  149.9559  140.5679  154.8308 C   0  0  0  0  0  0  0  0  0  0  0  0
  148.1243  142.0084  155.5827 N   0  0  0  0  0  0  0  0  0  0  0  0
  147.1208  141.7136  154.7407 C   0  0  0  0  0  0  0  0  0  0  0  0
  146.9656  140.6073  154.2246 O   0  0  0  0  0  0  0  0  0  0  0  0
  146.1885  142.8177  154.4446 C   0  0  0  0  0  0  0  0  0  0  0  0
  145.9024  143.4755  153.2768 C   0  0  0  0  0  0  0  0  0  0  0  0
  144.9258  144.4602  153.5929 C   0  0  0  0  0  0  0  0  0  0  0  0
  144.6877  144.3367  154.9314 C   0  0  0  0  0  0  0  0  0  0  0  0
  145.4499  143.3436  155.4646 O   0  0  0  0  0  0  0  0  0  0  0  0
  150.1759  143.0863  157.2585 N   0  3  0  0  0  0  0  0  0  0  0  0
  151.0875  143.3256  158.2866 C   0  0  0  0  0  0  0  0  0  0  0  0
  151.5471  144.5183  158.8365 C   0  0  0  0  0  0  0  0  0  0  0  0
  152.4902  144.4120  159.8797 C   0  0  0  0  0  0  0  0  0  0  0  0
  152.9389  143.1564  160.3378 C   0  0  0  0  0  0  0  0  0  0  0  0
  152.4626  141.9544  159.7743 C   0  0  0  0  0  0  0  0  0  0  0  0
  151.5301  142.0677  158.7427 C   0  0  0  0  0  0  0  0  0  0  0  0
  152.2255  137.8446  154.0276 H   0  0  0  0  0  0  0  0  0  0  0  0
  153.4324  139.1121  154.2373 H   0  0  0  0  0  0  0  0  0  0  0  0
  151.7347  139.4466  154.5762 H   0  0  0  0  0  0  0  0  0  0  0  0
  151.7997  137.8174  156.4944 H   0  0  0  0  0  0  0  0  0  0  0  0
  153.4990  137.4916  156.1589 H   0  0  0  0  0  0  0  0  0  0  0  0
  152.7395  138.3473  158.6196 H   0  0  0  0  0  0  0  0  0  0  0  0
  153.1329  140.0489  158.8255 H   0  0  0  0  0  0  0  0  0  0  0  0
  150.5807  139.1312  157.4162 H   0  0  0  0  0  0  0  0  0  0  0  0
  150.6239  139.3940  159.1356 H   0  0  0  0  0  0  0  0  0  0  0  0
  148.7043  140.2149  156.5121 H   0  0  0  0  0  0  0  0  0  0  0  0
  150.7259  139.8620  155.1437 H   0  0  0  0  0  0  0  0  0  0  0  0
  150.4449  141.3787  154.2895 H   0  0  0  0  0  0  0  0  0  0  0  0
  149.3031  140.0495  154.1276 H   0  0  0  0  0  0  0  0  0  0  0  0
  148.1664  142.9500  155.9446 H   0  0  0  0  0  0  0  0  0  0  0  0
  146.3409  143.2750  152.3103 H   0  0  0  0  0  0  0  0  0  0  0  0
  144.4576  145.1695  152.9265 H   0  0  0  0  0  0  0  0  0  0  0  0
  144.0418  144.8483  155.6298 H   0  0  0  0  0  0  0  0  0  0  0  0
  151.2061  145.4813  158.4857 H   0  0  0  0  0  0  0  0  0  0  0  0
  152.8787  145.3108  160.3363 H   0  0  0  0  0  0  0  0  0  0  0  0
  153.6645  143.1135  161.1372 H   0  0  0  0  0  0  0  0  0  0  0  0
  152.8188  140.9989  160.1295 H   0  0  0  0  0  0  0  0  0  0  0  0
  149.6784  143.7873  156.7248 H   0  0  0  0  0  0  0  0  0  0  0  0
  1  2  1  0  0  0  0
  1 25  1  0  0  0  0
  1 26  1  0  0  0  0
  1 27  1  0  0  0  0
  2  3  1  0  0  0  0
  2 28  1  0  0  0  0
  2 29  1  0  0  0  0
  3  4  1  0  0  0  0
  4  5  1  0  0  0  0
  4 30  1  0  0  0  0
  4 31  1  0  0  0  0
  5  6  1  0  0  0  0
  5 32  1  0  0  0  0
  5 33  1  0  0  0  0
  6 24  1  0  0  0  0
  6  7  1  0  0  0  0
  7  8  1  0  0  0  0
  7 18  2  0  0  0  0
  8  9  1  0  0  0  0
  8 10  1  0  0  0  0
  8 34  1  0  0  0  0
  9 35  1  0  0  0  0
  9 36  1  0  0  0  0
  9 37  1  0  0  0  0
 10 11  1  0  0  0  0
 10 38  1  0  0  0  0
 11 12  2  0  0  0  0
 11 13  1  0  0  0  0
 13 17  1  0  0  0  0
 13 14  2  0  0  0  0
 14 15  1  0  0  0  0
 14 39  1  0  0  0  0
 15 16  2  0  0  0  0
 15 40  1  0  0  0  0
 16 17  1  0  0  0  0
 16 41  1  0  0  0  0
 18 19  1  0  0  0  0
 18 46  1  0  0  0  0
 19 24  2  0  0  0  0
 19 20  1  0  0  0  0
 20 21  2  0  0  0  0
 20 42  1  0  0  0  0
 21 22  1  0  0  0  0
 21 43  1  0  0  0  0
 22 23  2  0  0  0  0
 22 44  1  0  0  0  0
 23 24  1  0  0  0  0
 23 45  1  0  0  0  0
M  CHG  1  18   1
M  END
> <s_m_source_file>
AV-unprocessed.smi

> <i_m_source_file_index>
500

> <i_lp_mmshare_version>
43012

> <i_f3d_flags>
0

> <s_epik_input>
W0NIM11bQ0gyXU9bQ0gyXVtDSDJdbihjKGMxMilbY0hdW2NIXVtjSF1bY0hdMiljKG4xKVtDQEhdKFtDSDNdKVtOSF1DKD1PKWMzW2NIXVtjSF1bY0hdbzM=

> <s_epik_cmdline>
J2VwaWtfcHl0aG9uJywgJy1waCcsICc3LjAnLCAnLXRuJywgJzgnLCAnLW1hJywgJzIwMCcsICctbWV0YWxfYmluZGluZycsICctaW1hZScsICc8aW5maWxlLm1hZT4nLCAnLW9tYWUnLCAnPG91dGZpbGUubWFlPic=

> <r_epik_Ionization_Penalty>
1.05286

> <r_epik_Ionization_Penalty_Charging>
1.05283

> <r_epik_Ionization_Penalty_Neutral>
2.09263e-05

> <r_epik_State_Penalty>
1.10586

> <r_epik_Charging_Adjusted_Penalty>
2.15869

> <i_epik_Tot_Q>
1

> <i_epik_Tot_abs_Q>
1

> <r_epik_Metal_State_Penalty>
1.22833

> <b_epik_Metal_Only>
0

> <s_lp_Force_Field>
OPLS_2005

> <r_lp_Energy>
11.0053

> <b_lp_Chiralities_Consistent>
1

> <s_lp_Variant>
AV-unprocessed.smi:500-3

> <Gold.Version>
5.8.1

> <Gold.Id.Protein>
6NUR|6NUR_protein|mol2

> <Gold.PLP.Fitness>
58.7173

> <Gold.PLP.PLP>
-50.9498

> <Gold.PLP.part.hbond>
-2.8584

> <Gold.PLP.part.metal>
0.0000

> <Gold.PLP.part.buried>
-7.3676

> <Gold.PLP.part.nonpolar>
-40.7709

> <Gold.PLP.part.repulsive>
0.3930

> <Gold.PLP.ligand.clash>
0.0000

> <Gold.PLP.ligand.torsion>
2.0911

> <Gold.PLP.Chemscore.Hbond>
3.9120

> <Gold.PLP.Chemscore.CHOScore>
0.0000

> <Gold.PLP.Chemscore.Metal>
0.0000

> <Gold.Chemscore.Hbonds>
donor molecule, donor type, donor heavy atom, donor atom, acceptor molecule, acceptor atom, score
      L1  H    10    38       P1  8028  0.91
      L1  H    18    46       P1  8028  2.00
      P1  H  7997  8010       L1     3  1.00

> <Gold.PLP.Chemscore.Internal.Correction>
0.2138

> <Gold.Rescore>
     Score         DG    S(hbond)    S(metal)    S(lipo)     H(rot)  DE(clash)    DE(int)     intcor
     21.13     -24.60       2.81        0.00     126.27       1.97       0.07       3.40       ----

> <Gold.Chemscore.Fitness>
21.1271

> <Gold.Chemscore.DG>
-24.5960

> <Gold.Chemscore.ZeroCoef>
-5.4800

> <Gold.Chemscore.Hbond>
2.8138

> <Gold.Chemscore.Metal>
0.0000

> <Gold.Chemscore.Lipo>
126.2654

> <Gold.Chemscore.Internal_Hbond>
0.0000

> <Gold.Chemscore.DEClash>
0.0688

> <Gold.Chemscore.DEInternal>
3.4001

> <Gold.Chemscore.Rot>
1.9746

> <Gold.Chemscore.Internal.Correction>
   9.000000E+99

> <Gold.Chemscore.Hbonds>
donor molecule, donor type, donor heavy atom, donor atom, acceptor molecule, acceptor atom, score
      L1  H    10    38       P1  8028  0.72
      L1  H    18    46       P1  8028  0.98
      P1  H  7997  8010       L1     3  0.64

> <Gold.Chemscore.Hbond.Weighted>
-9.3980

> <Gold.Chemscore.Metal.Weighted>
-0.0000

> <Gold.Chemscore.Lipo.Weighted>
-14.7730

> <Gold.Chemscore.Internal_Hbond.Weighted>
0.0000

> <Gold.Chemscore.DEClash.Weighted>
0.0688

> <Gold.Chemscore.DEInternal.Weighted>
3.4001

> <Gold.Chemscore.Rot.Weighted>
5.0550

> <Gold.Chemscore.Internal.Correction.Weighted>
   9.000000E+99

> <Gold.Protein.RotatedTorsions>
[ 6907 6896 6895 6894 ] final   23.44 input  -60.11 | X-H torsion
[ 7974 7965 7964 7962 ] final -131.36 input  175.53 | X-H torsion
[ 8008 7997 7996 7995 ] final   43.19 input   59.86 | X-H torsion
[ 10167 10162 10161 10158 ] final  -18.22 input  -65.29 | X-H torsion
[ 10718 10713 10712 10709 ] final   95.02 input   66.30 | X-H torsion
[ 10763 10752 10751 10750 ] final   91.54 input  -60.55 | X-H torsion
[ 11005 11000 10999 10996 ] final  120.35 input  -57.11 | X-H torsion

> <Gold.Protein.ActiveResidues>
 VAL166  LYS551  ARG553  GLY616  TRP617  ASP618  TYR619  PRO620  LYS621  CYS622 
 ASP623  PHE694  ASN695  SER759  ASP760  ASP761  ALA762  ILE779  LEU786  VAL792 
 PHE793  MET794  SER795  GLU796  ALA797  LYS798  CYS799  TRP800  GLU811  SER814 

> <Gold.Protein.RotatedAtoms>
  151.9424  135.0207  160.0536 H   0  0  0  0  0  0  0  0  0  0  0  0  # atno 6907 bound_to 6896
  152.2025  133.4847  159.5074 H   0  0  0  0  0  0  0  0  0  0  0  0  # atno 6908 bound_to 6896
  150.6958  134.1489  159.4176 H   0  0  0  0  0  0  0  0  0  0  0  0  # atno 6909 bound_to 6896
  144.9386  140.7213  143.4861 H   0  0  0  0  0  0  0  0  0  0  0  0  # atno 7974 bound_to 7965
  155.2986  140.3383  155.4249 H   0  0  0  0  0  0  0  0  0  0  0  0  # atno 8008 bound_to 7997
  156.2012  140.1733  156.7935 H   0  0  0  0  0  0  0  0  0  0  0  0  # atno 8009 bound_to 7997
  154.5561  140.0696  156.8730 H   0  0  0  0  0  0  0  0  0  0  0  0  # atno 8010 bound_to 7997
  140.7256  143.4938  150.9957 H   0  0  0  0  0  0  0  0  0  0  0  0  # atno 10167 bound_to 10162
  157.6943  131.0532  150.4275 H   0  0  0  0  0  0  0  0  0  0  0  0  # atno 10718 bound_to 10713
  153.2094  135.4394  155.0362 H   0  0  0  0  0  0  0  0  0  0  0  0  # atno 10763 bound_to 10752
  154.8192  135.3329  154.7092 H   0  0  0  0  0  0  0  0  0  0  0  0  # atno 10764 bound_to 10752
  153.7531  135.6997  153.4997 H   0  0  0  0  0  0  0  0  0  0  0  0  # atno 10765 bound_to 10752
  139.9182  134.9634  156.7794 H   0  0  0  0  0  0  0  0  0  0  0  0  # atno 11005 bound_to 11000
  145.3027  139.1845  143.4681 LP  0  0  0  0  0  0  0  0  0  0  0  0  # atno 17320 bound_to 7965
  146.3277  140.3020  142.8621 LP  0  0  0  0  0  0  0  0  0  0  0  0  # atno 17321 bound_to 7965
  139.8644  143.7273  152.3171 LP  0  0  0  0  0  0  0  0  0  0  0  0  # atno 17342 bound_to 10162
  139.7500  144.7537  151.0521 LP  0  0  0  0  0  0  0  0  0  0  0  0  # atno 17343 bound_to 10162
  156.4645  130.4039  149.6556 LP  0  0  0  0  0  0  0  0  0  0  0  0  # atno 17370 bound_to 10713
  156.3659  130.7505  151.2483 LP  0  0  0  0  0  0  0  0  0  0  0  0  # atno 17371 bound_to 10713
  140.6556  133.9691  155.7778 LP  0  0  0  0  0  0  0  0  0  0  0  0  # atno 17394 bound_to 11000
  141.0678  134.0251  157.3569 LP  0  0  0  0  0  0  0  0  0  0  0  0  # atno 17395 bound_to 11000

$$$$
