AV-unprocessed.smi:2617|AV-procd|sdf|10217|dock5
  -GOLD-   2272014223D 1   1.00000     0.00000
 Structure written by MMmdl.
 35 35  0  0  0  0  0  0  0  0  1 V2000
  150.4532  129.8620  154.3504 C   0  0  0  0  0  0  0  0  0  0  0  0
  149.2747  130.6575  153.7809 C   0  0  0  0  0  0  0  0  0  0  0  0
  148.6148  131.5611  154.8359 C   0  0  0  0  0  0  0  0  0  0  0  0
  149.4540  132.6798  155.2166 N   0  0  0  0  0  0  0  0  0  0  0  0
  149.3502  133.9543  154.6523 C   0  0  0  0  0  0  0  0  0  0  0  0
  148.4063  134.1554  153.6561 N   0  0  0  0  0  0  0  0  0  0  0  0
  150.1629  134.9827  155.0297 C   0  0  0  0  0  0  0  0  0  0  0  0
  150.0460  136.2496  154.4664 N   0  0  0  0  0  0  0  0  0  0  0  0
  150.8542  137.4164  154.7899 C   0  0  0  0  0  0  0  0  0  0  0  0
  150.0725  138.7127  154.5523 C   0  0  0  0  0  0  0  0  0  0  0  0
  150.9770  139.8053  154.5525 O   0  0  0  0  0  0  0  0  0  0  0  0
  151.7401  139.8788  155.7436 C   0  0  0  0  0  0  0  0  0  0  0  0
  151.1761  134.7794  156.0755 C   0  0  0  0  0  0  0  0  0  0  0  0
  151.9281  135.6391  156.5335 O   0  0  0  0  0  0  0  0  0  0  0  0
  151.2516  133.4814  156.5754 N   0  0  0  0  0  0  0  0  0  0  0  0
  150.4498  132.4147  156.1860 C   0  0  0  0  0  0  0  0  0  0  0  0
  150.6315  131.3059  156.6903 O   0  0  0  0  0  0  0  0  0  0  0  0
  151.9492  133.3001  157.2822 H   0  0  0  0  0  0  0  0  0  0  0  0
  150.9016  129.2294  153.5840 H   0  0  0  0  0  0  0  0  0  0  0  0
  150.1335  129.2173  155.1694 H   0  0  0  0  0  0  0  0  0  0  0  0
  151.2295  130.5273  154.7293 H   0  0  0  0  0  0  0  0  0  0  0  0
  149.6230  131.2600  152.9414 H   0  0  0  0  0  0  0  0  0  0  0  0
  148.5357  129.9646  153.3769 H   0  0  0  0  0  0  0  0  0  0  0  0
  147.6747  131.9773  154.4749 H   0  0  0  0  0  0  0  0  0  0  0  0
  148.3505  131.0113  155.7411 H   0  0  0  0  0  0  0  0  0  0  0  0
  147.8071  133.4058  153.3422 H   0  0  0  0  0  0  0  0  0  0  0  0
  148.1423  135.0852  153.3645 H   0  0  0  0  0  0  0  0  0  0  0  0
  149.7551  136.2437  153.4998 H   0  0  0  0  0  0  0  0  0  0  0  0
  151.1458  137.3449  155.8379 H   0  0  0  0  0  0  0  0  0  0  0  0
  151.7735  137.4365  154.2039 H   0  0  0  0  0  0  0  0  0  0  0  0
  149.5244  138.6624  153.6099 H   0  0  0  0  0  0  0  0  0  0  0  0
  149.3404  138.8485  155.3495 H   0  0  0  0  0  0  0  0  0  0  0  0
  152.4179  140.7307  155.6924 H   0  0  0  0  0  0  0  0  0  0  0  0
  152.3397  138.9786  155.8842 H   0  0  0  0  0  0  0  0  0  0  0  0
  151.0979  140.0119  156.6153 H   0  0  0  0  0  0  0  0  0  0  0  0
  1  2  1  0  0  0  0
  1 19  1  0  0  0  0
  1 20  1  0  0  0  0
  1 21  1  0  0  0  0
  2  3  1  0  0  0  0
  2 22  1  0  0  0  0
  2 23  1  0  0  0  0
  3  4  1  0  0  0  0
  3 24  1  0  0  0  0
  3 25  1  0  0  0  0
  4 16  1  0  0  0  0
  4  5  1  0  0  0  0
  5  6  1  0  0  0  0
  5  7  2  0  0  0  0
  6 26  1  0  0  0  0
  6 27  1  0  0  0  0
  7  8  1  0  0  0  0
  7 13  1  0  0  0  0
  8  9  1  0  0  0  0
  8 28  1  0  0  0  0
  9 10  1  0  0  0  0
  9 29  1  0  0  0  0
  9 30  1  0  0  0  0
 10 11  1  0  0  0  0
 10 31  1  0  0  0  0
 10 32  1  0  0  0  0
 11 12  1  0  0  0  0
 12 33  1  0  0  0  0
 12 34  1  0  0  0  0
 12 35  1  0  0  0  0
 13 14  2  0  0  0  0
 13 15  1  0  0  0  0
 15 18  1  0  0  0  0
 15 16  1  0  0  0  0
 16 17  2  0  0  0  0
M  END
> <s_m_source_file>
AV-unprocessed.smi

> <i_m_source_file_index>
2617

> <i_lp_mmshare_version>
43012

> <i_f3d_flags>
0

> <s_epik_input>
W0NIM11bQ0gyXVtDSDJdbjFjKFtOSDJdKWMoYyg9TylbbkhdYzE9TylbTkhdW0NIMl1bQ0gyXU9bQ0gzXQ==

> <s_epik_cmdline>
J2VwaWtfcHl0aG9uJywgJy1waCcsICc3LjAnLCAnLXRuJywgJzgnLCAnLW1hJywgJzIwMCcsICctbWV0YWxfYmluZGluZycsICctaW1hZScsICc8aW5maWxlLm1hZT4nLCAnLW9tYWUnLCAnPG91dGZpbGUubWFlPic=

> <r_lp_tautomer_probability>
1

> <r_epik_Ionization_Penalty>
1.06398e-05

> <r_epik_Ionization_Penalty_Charging>
2.62604e-06

> <r_epik_Ionization_Penalty_Neutral>
8.01376e-06

> <r_epik_State_Penalty>
-0

> <r_epik_Charging_Adjusted_Penalty>
2.62604e-06

> <i_epik_Tot_Q>
0

> <i_epik_Tot_abs_Q>
0

> <r_epik_Metal_State_Penalty>
-0

> <b_epik_Metal_Only>
0

> <s_epik_Chemistry_Notes>
This compound has an imine and may undergo hydrolysis.

> <s_lp_Force_Field>
OPLS_2005

> <r_lp_Energy>
15.6594

> <b_lp_Chiralities_Consistent>
1

> <s_lp_Variant>
AV-unprocessed.smi:2617-1

> <Gold.Version>
5.8.1

> <Gold.Id.Protein>
6NUR|6NUR_protein|mol2

> <Gold.PLP.Fitness>
37.5427

> <Gold.PLP.PLP>
-28.8767

> <Gold.PLP.part.hbond>
-4.6746

> <Gold.PLP.part.metal>
0.0000

> <Gold.PLP.part.buried>
-2.1610

> <Gold.PLP.part.nonpolar>
-21.7092

> <Gold.PLP.part.repulsive>
0.3110

> <Gold.PLP.ligand.clash>
1.3886

> <Gold.PLP.ligand.torsion>
0.5947

> <Gold.PLP.Chemscore.Hbond>
3.2780

> <Gold.PLP.Chemscore.CHOScore>
0.0000

> <Gold.PLP.Chemscore.Metal>
0.0000

> <Gold.Chemscore.Hbonds>
donor molecule, donor type, donor heavy atom, donor atom, acceptor molecule, acceptor atom, score
      L1  H     6    27       P1  7948  0.54
      L1  H     8    28       P1  7948  0.95
      P1  H  7989  7998       L1    11  1.00
      P1  H 10752 10765       L1    14  0.60

> <Gold.PLP.Chemscore.Internal.Correction>
1.4102

> <Gold.Rescore>
     Score         DG    S(hbond)    S(metal)    S(lipo)     H(rot)  DE(clash)    DE(int)     intcor
      9.29     -11.49       2.07        0.00      39.70       2.17       0.00       2.20       ----

> <Gold.Chemscore.Fitness>
9.2917

> <Gold.Chemscore.DG>
-11.4871

> <Gold.Chemscore.ZeroCoef>
-5.4800

> <Gold.Chemscore.Hbond>
2.0732

> <Gold.Chemscore.Metal>
0.0000

> <Gold.Chemscore.Lipo>
39.7035

> <Gold.Chemscore.Internal_Hbond>
0.0000

> <Gold.Chemscore.DEClash>
0.0000

> <Gold.Chemscore.DEInternal>
2.1954

> <Gold.Chemscore.Rot>
2.1730

> <Gold.Chemscore.Internal.Correction>
   9.000000E+99

> <Gold.Chemscore.Hbonds>
donor molecule, donor type, donor heavy atom, donor atom, acceptor molecule, acceptor atom, score
      L1  H     6    27       P1  7948  0.49
      L1  H     8    28       P1  7948  0.22
      P1  H  7989  7998       L1    11  0.60
      P1  H 10752 10765       L1    14  0.04

> <Gold.Chemscore.Hbond.Weighted>
-6.9246

> <Gold.Chemscore.Metal.Weighted>
-0.0000

> <Gold.Chemscore.Lipo.Weighted>
-4.6453

> <Gold.Chemscore.Internal_Hbond.Weighted>
0.0000

> <Gold.Chemscore.DEClash.Weighted>
0.0000

> <Gold.Chemscore.DEInternal.Weighted>
2.1954

> <Gold.Chemscore.Rot.Weighted>
5.5628

> <Gold.Chemscore.Internal.Correction.Weighted>
   9.000000E+99

> <Gold.Protein.RotatedTorsions>
[ 6907 6896 6895 6894 ] final   22.34 input  -60.11 | X-H torsion
[ 7974 7965 7964 7962 ] final -161.32 input  175.53 | X-H torsion
[ 8008 7997 7996 7995 ] final  156.43 input   59.86 | X-H torsion
[ 10167 10162 10161 10158 ] final  -66.44 input  -65.29 | X-H torsion
[ 10718 10713 10712 10709 ] final   23.83 input   66.30 | X-H torsion
[ 10763 10752 10751 10750 ] final -150.97 input  -60.55 | X-H torsion
[ 11005 11000 10999 10996 ] final  -97.49 input  -57.11 | X-H torsion

> <Gold.Protein.ActiveResidues>
 VAL166  LYS551  ARG553  GLY616  TRP617  ASP618  TYR619  PRO620  LYS621  CYS622 
 ASP623  PHE694  ASN695  SER759  ASP760  ASP761  ALA762  ILE779  LEU786  VAL792 
 PHE793  MET794  SER795  GLU796  ALA797  LYS798  CYS799  TRP800  GLU811  SER814 

> <Gold.Protein.RotatedAtoms>
  151.9256  135.0279  160.0525 H   0  0  0  0  0  0  0  0  0  0  0  0  # atno 6907 bound_to 6896
  152.2162  133.4944  159.5145 H   0  0  0  0  0  0  0  0  0  0  0  0  # atno 6908 bound_to 6896
  150.6988  134.1319  159.4115 H   0  0  0  0  0  0  0  0  0  0  0  0  # atno 6909 bound_to 6896
  144.7395  140.3415  143.6134 H   0  0  0  0  0  0  0  0  0  0  0  0  # atno 7974 bound_to 7965
  156.2422  140.1912  156.6955 H   0  0  0  0  0  0  0  0  0  0  0  0  # atno 8008 bound_to 7997
  154.6220  140.0607  156.9653 H   0  0  0  0  0  0  0  0  0  0  0  0  # atno 8009 bound_to 7997
  155.1846  140.3279  155.4371 H   0  0  0  0  0  0  0  0  0  0  0  0  # atno 8010 bound_to 7997
  140.5657  143.2314  151.6640 H   0  0  0  0  0  0  0  0  0  0  0  0  # atno 10167 bound_to 10162
  157.1715  130.6762  149.6080 H   0  0  0  0  0  0  0  0  0  0  0  0  # atno 10718 bound_to 10713
  154.8086  135.3271  154.7364 H   0  0  0  0  0  0  0  0  0  0  0  0  # atno 10763 bound_to 10752
  153.8018  135.6903  153.4859 H   0  0  0  0  0  0  0  0  0  0  0  0  # atno 10764 bound_to 10752
  153.1849  135.4572  155.0021 H   0  0  0  0  0  0  0  0  0  0  0  0  # atno 10765 bound_to 10752
  141.1377  133.8175  157.0713 H   0  0  0  0  0  0  0  0  0  0  0  0  # atno 11005 bound_to 11000
  145.7369  139.1752  143.2398 LP  0  0  0  0  0  0  0  0  0  0  0  0  # atno 17320 bound_to 7965
  146.1163  140.7365  142.9479 LP  0  0  0  0  0  0  0  0  0  0  0  0  # atno 17321 bound_to 7965
  139.5092  144.3586  152.0584 LP  0  0  0  0  0  0  0  0  0  0  0  0  # atno 17342 bound_to 10162
  140.2718  144.3956  150.6149 LP  0  0  0  0  0  0  0  0  0  0  0  0  # atno 17343 bound_to 10162
  155.9737  130.4677  150.6335 LP  0  0  0  0  0  0  0  0  0  0  0  0  # atno 17370 bound_to 10713
  157.4038  131.0814  151.1284 LP  0  0  0  0  0  0  0  0  0  0  0  0  # atno 17371 bound_to 10713
  140.0509  134.9806  157.1135 LP  0  0  0  0  0  0  0  0  0  0  0  0  # atno 17394 bound_to 11000
  140.3991  134.2102  155.7164 LP  0  0  0  0  0  0  0  0  0  0  0  0  # atno 17395 bound_to 11000

$$$$
