AV-unprocessed.smi:261|AV-procd|sdf|1986|dock8
  -GOLD-   2262021163D 1   1.00000     0.00000
 Structure written by MMmdl.
 51 54  0  0  0  0  0  0  0  0  1 V2000
  152.2757  143.8342  161.5984 C   0  0  0  0  0  0  0  0  0  0  0  0
  151.6727  144.3574  160.4256 O   0  0  0  0  0  0  0  0  0  0  0  0
  152.4651  144.2088  159.2536 C   0  0  2  0  0  0  0  0  0  0  0  0
  151.6524  144.4414  157.9726 C   0  0  0  0  0  0  0  0  0  0  0  0
  150.9670  143.0958  157.6859 C   0  0  2  0  0  0  0  0  0  0  0  0
  149.5665  143.0191  158.3321 C   0  0  0  0  0  0  0  0  0  0  0  0
  148.5040  142.7960  157.5509 N   0  0  0  0  0  0  0  0  0  0  0  0
  149.4483  143.1729  159.5457 O   0  0  0  0  0  0  0  0  0  0  0  0
  151.9285  142.1252  158.2107 N   0  0  0  0  0  0  0  0  0  0  0  0
  151.9969  140.8109  157.8589 C   0  0  0  0  0  0  0  0  0  0  0  0
  152.5121  139.9396  158.7669 N   0  0  0  0  0  0  0  0  0  0  0  0
  152.6014  138.6362  158.4917 C   0  0  0  0  0  0  0  0  0  0  0  0
  152.2373  137.9929  157.3833 N   0  0  0  0  0  0  0  0  0  0  0  0
  151.7185  138.8542  156.4629 C   0  0  0  0  0  0  0  0  0  0  0  0
  151.5636  140.2638  156.6121 C   0  0  0  0  0  0  0  0  0  0  0  0
  150.9966  140.7868  155.4541 N   0  0  0  0  0  0  0  0  0  0  0  0
  150.8163  139.7541  154.6786 C   0  0  0  0  0  0  0  0  0  0  0  0
  151.2157  138.5509  155.2098 N   0  0  0  0  0  0  0  0  0  0  0  0
  151.1191  137.2442  154.5812 C   0  0  0  0  0  0  0  0  0  0  0  0
  149.9017  136.4128  155.0453 C   0  0  2  0  0  0  0  0  0  0  0  0
  149.6869  136.5712  156.4347 O   0  0  0  0  0  0  0  0  0  0  0  0
  149.9484  134.9127  154.6716 C   0  0  2  0  0  0  0  0  0  0  0  0
  148.6110  134.1733  154.6871 C   0  0  0  0  0  0  0  0  0  0  0  0
  149.0275  132.7148  154.8073 C   0  0  0  0  0  0  0  0  0  0  0  0
  150.4852  132.7709  155.2803 C   0  0  0  0  0  0  0  0  0  0  0  0
  150.7441  134.1399  155.5564 O   0  0  0  0  0  0  0  0  0  0  0  0
  152.8755  142.7368  159.1384 C   0  0  0  0  0  0  0  0  0  0  0  0
  153.3450  144.8520  159.3086 H   0  0  0  0  0  0  0  0  0  0  0  0
  150.8588  142.9915  156.6066 H   0  0  0  0  0  0  0  0  0  0  0  0
  151.6020  143.9717  162.4439 H   0  0  0  0  0  0  0  0  0  0  0  0
  153.2119  144.3394  161.8353 H   0  0  0  0  0  0  0  0  0  0  0  0
  152.4707  142.7657  161.4977 H   0  0  0  0  0  0  0  0  0  0  0  0
  150.9607  145.2814  158.0377 H   0  0  0  0  0  0  0  0  0  0  0  0
  152.3397  144.6669  157.1559 H   0  0  0  0  0  0  0  0  0  0  0  0
  147.5813  142.7477  157.9585 H   0  0  0  0  0  0  0  0  0  0  0  0
  148.6289  142.6813  156.5557 H   0  0  0  0  0  0  0  0  0  0  0  0
  153.0234  138.0211  159.2727 H   0  0  0  0  0  0  0  0  0  0  0  0
  150.3761  139.8414  153.6960 H   0  0  0  0  0  0  0  0  0  0  0  0
  151.0908  137.3852  153.5000 H   0  0  0  0  0  0  0  0  0  0  0  0
  152.0375  136.6947  154.7907 H   0  0  0  0  0  0  0  0  0  0  0  0
  149.0232  136.8391  154.5601 H   0  0  0  0  0  0  0  0  0  0  0  0
  148.7676  136.7337  156.5799 H   0  0  0  0  0  0  0  0  0  0  0  0
  150.3839  134.8198  153.6743 H   0  0  0  0  0  0  0  0  0  0  0  0
  148.0208  134.4525  155.5606 H   0  0  0  0  0  0  0  0  0  0  0  0
  148.0107  134.3717  153.7989 H   0  0  0  0  0  0  0  0  0  0  0  0
  148.3910  132.1824  155.5150 H   0  0  0  0  0  0  0  0  0  0  0  0
  148.9595  132.2045  153.8461 H   0  0  0  0  0  0  0  0  0  0  0  0
  150.6623  132.1575  156.1639 H   0  0  0  0  0  0  0  0  0  0  0  0
  151.1585  132.4325  154.4916 H   0  0  0  0  0  0  0  0  0  0  0  0
  153.8790  142.6605  158.7168 H   0  0  0  0  0  0  0  0  0  0  0  0
  152.8775  142.2385  160.1091 H   0  0  0  0  0  0  0  0  0  0  0  0
  1  2  1  0  0  0  0
  1 30  1  0  0  0  0
  1 31  1  0  0  0  0
  1 32  1  0  0  0  0
  2  3  1  0  0  0  0
  3 28  1  0  0  0  0
  3 27  1  0  0  0  0
  3  4  1  0  0  0  0
  4  5  1  0  0  0  0
  4 33  1  0  0  0  0
  4 34  1  0  0  0  0
  5 29  1  0  0  0  0
  5  6  1  0  0  0  0
  5  9  1  0  0  0  0
  6  7  1  0  0  0  0
  6  8  2  0  0  0  0
  7 35  1  0  0  0  0
  7 36  1  0  0  0  0
  9 10  1  0  0  0  0
  9 27  1  0  0  0  0
 10 15  1  0  0  0  0
 10 11  2  0  0  0  0
 11 12  1  0  0  0  0
 12 13  2  0  0  0  0
 12 37  1  0  0  0  0
 13 14  1  0  0  0  0
 14 18  1  0  0  0  0
 14 15  2  0  0  0  0
 15 16  1  0  0  0  0
 16 17  2  0  0  0  0
 17 18  1  0  0  0  0
 17 38  1  0  0  0  0
 18 19  1  0  0  0  0
 19 20  1  0  0  0  0
 19 39  1  0  0  0  0
 19 40  1  0  0  0  0
 20 21  1  0  0  0  0
 20 22  1  0  0  0  0
 20 41  1  0  0  0  0
 21 42  1  0  0  0  0
 22 26  1  0  0  0  0
 22 23  1  0  0  0  0
 22 43  1  0  0  0  0
 23 24  1  0  0  0  0
 23 44  1  0  0  0  0
 23 45  1  0  0  0  0
 24 25  1  0  0  0  0
 24 46  1  0  0  0  0
 24 47  1  0  0  0  0
 25 26  1  0  0  0  0
 25 48  1  0  0  0  0
 25 49  1  0  0  0  0
 27 50  1  0  0  0  0
 27 51  1  0  0  0  0
M  END
> <s_m_source_file>
AV-unprocessed.smi

> <i_m_source_file_index>
261

> <i_lp_mmshare_version>
43012

> <i_f3d_flags>
0

> <s_epik_input>
W0NIM11PW0NASF0xW0NIMl1bQ0BASF0oQyg9TylbTkgyXSlOKFtDSDJdMSljKG5bY0hdbjIpYyhjMjMpbltjSF1uM1tDSDJdW0NASF0oW09IXSlbQ0BASF00W0NIMl1bQ0gyXVtDSDJdTzQ=

> <s_epik_cmdline>
J2VwaWtfcHl0aG9uJywgJy1waCcsICc3LjAnLCAnLXRuJywgJzgnLCAnLW1hJywgJzIwMCcsICctbWV0YWxfYmluZGluZycsICctaW1hZScsICc8aW5maWxlLm1hZT4nLCAnLW9tYWUnLCAnPG91dGZpbGUubWFlPic=

> <r_lp_tautomer_probability>
1

> <r_epik_Ionization_Penalty>
0.000713824

> <r_epik_Ionization_Penalty_Charging>
0

> <r_epik_Ionization_Penalty_Neutral>
0.000713824

> <r_epik_State_Penalty>
0.000402132

> <r_epik_Charging_Adjusted_Penalty>
0.000402132

> <i_epik_Tot_Q>
0

> <i_epik_Tot_abs_Q>
0

> <r_epik_Metal_State_Penalty>
-0

> <b_epik_Metal_Only>
0

> <s_lp_Force_Field>
OPLS_2005

> <r_lp_Energy>
46.7805

> <b_lp_Chiralities_Consistent>
1

> <s_lp_Variant>
AV-unprocessed.smi:261-4

> <Gold.Version>
5.8.1

> <Gold.Id.Protein>
6NUR|6NUR_protein|mol2

> <Gold.PLP.Fitness>
47.8223

> <Gold.PLP.PLP>
-47.3979

> <Gold.PLP.part.hbond>
-3.5363

> <Gold.PLP.part.metal>
0.0000

> <Gold.PLP.part.buried>
-1.5474

> <Gold.PLP.part.nonpolar>
-42.6779

> <Gold.PLP.part.repulsive>
0.3449

> <Gold.PLP.ligand.clash>
0.0000

> <Gold.PLP.ligand.torsion>
1.1362

> <Gold.PLP.Chemscore.Hbond>
0.1661

> <Gold.PLP.Chemscore.CHOScore>
0.7042

> <Gold.PLP.Chemscore.Metal>
0.0000

> <Gold.Chemscore.Hbonds>
donor molecule, donor type, donor heavy atom, donor atom, acceptor molecule, acceptor atom, score
      L1  H     7    36       P1  8028  0.07
      P1  H  6933  6944       L1     8  0.09
      L1  C    17    38       P1  7957  0.70

> <Gold.PLP.Chemscore.Internal.Correction>
0.0858

> <Gold.Rescore>
     Score         DG    S(hbond)    S(metal)    S(lipo)     H(rot)  DE(clash)    DE(int)     intcor
      7.23      -9.76       0.48        0.00      92.44       3.18       0.08       2.44       ----

> <Gold.Chemscore.Fitness>
7.2321

> <Gold.Chemscore.DG>
-9.7580

> <Gold.Chemscore.ZeroCoef>
-5.4800

> <Gold.Chemscore.Hbond>
0.4823

> <Gold.Chemscore.Metal>
0.0000

> <Gold.Chemscore.Lipo>
92.4435

> <Gold.Chemscore.Internal_Hbond>
0.0000

> <Gold.Chemscore.DEClash>
0.0812

> <Gold.Chemscore.DEInternal>
2.4446

> <Gold.Chemscore.Rot>
3.1831

> <Gold.Chemscore.Internal.Correction>
   9.000000E+99

> <Gold.Chemscore.Hbonds>
donor molecule, donor type, donor heavy atom, donor atom, acceptor molecule, acceptor atom, score
      L1  H     7    36       P1  8028  0.07
      P1  H  6933  6944       L1     8  0.09

> <Gold.Chemscore.Hbond.Weighted>
-1.6107

> <Gold.Chemscore.Metal.Weighted>
-0.0000

> <Gold.Chemscore.Lipo.Weighted>
-10.8159

> <Gold.Chemscore.Internal_Hbond.Weighted>
0.0000

> <Gold.Chemscore.DEClash.Weighted>
0.0812

> <Gold.Chemscore.DEInternal.Weighted>
2.4446

> <Gold.Chemscore.Rot.Weighted>
8.1486

> <Gold.Chemscore.Internal.Correction.Weighted>
   9.000000E+99

> <Gold.Protein.RotatedTorsions>
[ 6907 6896 6895 6894 ] final  174.60 input  -60.11 | X-H torsion
[ 7974 7965 7964 7962 ] final -101.83 input  175.53 | X-H torsion
[ 8008 7997 7996 7995 ] final   -9.75 input   59.86 | X-H torsion
[ 10167 10162 10161 10158 ] final    6.46 input  -65.29 | X-H torsion
[ 10718 10713 10712 10709 ] final -160.43 input   66.30 | X-H torsion
[ 10763 10752 10751 10750 ] final  -49.08 input  -60.55 | X-H torsion
[ 11005 11000 10999 10996 ] final   57.92 input  -57.11 | X-H torsion

> <Gold.Protein.ActiveResidues>
 VAL166  LYS551  ARG553  GLY616  TRP617  ASP618  TYR619  PRO620  LYS621  CYS622 
 ASP623  PHE694  ASN695  SER759  ASP760  ASP761  ALA762  ILE779  LEU786  VAL792 
 PHE793  MET794  SER795  GLU796  ALA797  LYS798  CYS799  TRP800  GLU811  SER814 

> <Gold.Protein.RotatedAtoms>
  151.7497  133.3326  159.3387 H   0  0  0  0  0  0  0  0  0  0  0  0  # atno 6907 bound_to 6896
  150.7540  134.6203  159.6142 H   0  0  0  0  0  0  0  0  0  0  0  0  # atno 6908 bound_to 6896
  152.3476  134.7051  160.0297 H   0  0  0  0  0  0  0  0  0  0  0  0  # atno 6909 bound_to 6896
  145.2765  140.9314  143.2956 H   0  0  0  0  0  0  0  0  0  0  0  0  # atno 7974 bound_to 7965
  154.5618  140.2347  155.8324 H   0  0  0  0  0  0  0  0  0  0  0  0  # atno 8008 bound_to 7997
  156.2036  140.3046  155.9537 H   0  0  0  0  0  0  0  0  0  0  0  0  # atno 8009 bound_to 7997
  155.2875  140.0425  157.3011 H   0  0  0  0  0  0  0  0  0  0  0  0  # atno 8010 bound_to 7997
  140.6426  143.7737  150.7451 H   0  0  0  0  0  0  0  0  0  0  0  0  # atno 10167 bound_to 10162
  156.5821  130.8734  151.2867 H   0  0  0  0  0  0  0  0  0  0  0  0  # atno 10718 bound_to 10713
  154.0883  135.6581  153.4848 H   0  0  0  0  0  0  0  0  0  0  0  0  # atno 10763 bound_to 10752
  153.0331  135.5196  154.7406 H   0  0  0  0  0  0  0  0  0  0  0  0  # atno 10764 bound_to 10752
  154.6522  135.3003  154.9941 H   0  0  0  0  0  0  0  0  0  0  0  0  # atno 10765 bound_to 10752
  140.0416  134.5866  155.9375 H   0  0  0  0  0  0  0  0  0  0  0  0  # atno 11005 bound_to 11000
  144.9289  139.4321  143.6504 LP  0  0  0  0  0  0  0  0  0  0  0  0  # atno 17320 bound_to 7965
  146.3230  139.8190  142.8930 LP  0  0  0  0  0  0  0  0  0  0  0  0  # atno 17321 bound_to 7965
  140.1372  143.4473  152.2217 LP  0  0  0  0  0  0  0  0  0  0  0  0  # atno 17342 bound_to 10162
  139.5636  144.7421  151.4086 LP  0  0  0  0  0  0  0  0  0  0  0  0  # atno 17343 bound_to 10162
  157.7324  130.9714  150.1926 LP  0  0  0  0  0  0  0  0  0  0  0  0  # atno 17370 bound_to 10713
  156.2623  130.3712  149.8118 LP  0  0  0  0  0  0  0  0  0  0  0  0  # atno 17371 bound_to 10713
  141.1886  133.6563  156.5330 LP  0  0  0  0  0  0  0  0  0  0  0  0  # atno 17394 bound_to 11000
  140.4060  134.7314  157.4808 LP  0  0  0  0  0  0  0  0  0  0  0  0  # atno 17395 bound_to 11000

$$$$
