AV-unprocessed.smi:2671|AV-procd|sdf|10346|dock8
  -GOLD-   2272014373D 1   1.00000     0.00000
 Structure written by MMmdl.
 28 29  0  0  0  0  0  0  0  0  2 V2000
  154.4349  136.3727  159.5415 O   0  0  0  0  0  0  0  0  0  0  0  0
  154.6841  137.2561  160.3590 C   0  0  0  0  0  0  0  0  0  0  0  0
  154.8257  136.9098  161.7724 C   0  0  0  0  0  0  0  0  0  0  0  0
  155.1036  137.8913  162.6665 C   0  0  0  0  0  0  0  0  0  0  0  0
  155.2497  137.5934  164.1492 C   0  0  0  0  0  0  0  0  0  0  0  0
  154.0897  137.1735  164.6551 F   0  0  0  0  0  0  0  0  0  0  0  0
  156.1553  136.6338  164.3377 F   0  0  0  0  0  0  0  0  0  0  0  0
  155.6371  138.6722  164.8322 F   0  0  0  0  0  0  0  0  0  0  0  0
  155.2440  139.2250  162.2388 N   0  0  0  0  0  0  0  0  0  0  0  0
  155.1156  139.5042  160.9953 C   0  0  0  0  0  0  0  0  0  0  0  0
  155.2992  141.2085  160.4407 S   0  0  0  0  0  0  0  0  0  0  0  0
  154.1327  142.1349  161.4831 C   0  0  0  0  0  0  0  0  0  0  0  0
  153.8521  143.5338  160.9176 C   0  0  2  0  0  0  0  0  0  0  0  0
  152.8244  144.3467  161.7079 C   0  0  0  0  0  0  0  0  0  0  0  0
  152.1982  145.2597  160.6636 C   0  0  0  0  0  0  0  0  0  0  0  0
  152.7229  144.7223  159.3300 C   0  0  0  0  0  0  0  0  0  0  0  0
  153.2485  143.4398  159.6372 O   0  0  0  0  0  0  0  0  0  0  0  0
  154.8395  138.5687  160.0208 N   0  5  0  0  0  0  0  0  0  0  0  0
  154.7103  135.8861  162.0963 H   0  0  0  0  0  0  0  0  0  0  0  0
  154.5309  142.2103  162.4956 H   0  0  0  0  0  0  0  0  0  0  0  0
  153.2013  141.5716  161.5457 H   0  0  0  0  0  0  0  0  0  0  0  0
  154.7827  144.0964  160.8212 H   0  0  0  0  0  0  0  0  0  0  0  0
  152.0584  143.6907  162.1233 H   0  0  0  0  0  0  0  0  0  0  0  0
  153.2761  144.8967  162.5337 H   0  0  0  0  0  0  0  0  0  0  0  0
  151.1102  145.2047  160.7120 H   0  0  0  0  0  0  0  0  0  0  0  0
  152.4889  146.3011  160.8059 H   0  0  0  0  0  0  0  0  0  0  0  0
  151.9473  144.6618  158.5661 H   0  0  0  0  0  0  0  0  0  0  0  0
  153.5261  145.3555  158.9502 H   0  0  0  0  0  0  0  0  0  0  0  0
  1  2  2  0  0  0  0
  2 18  1  0  0  0  0
  2  3  1  0  0  0  0
  3 19  1  0  0  0  0
  3  4  2  0  0  0  0
  4  5  1  0  0  0  0
  4  9  1  0  0  0  0
  5  6  1  0  0  0  0
  5  7  1  0  0  0  0
  5  8  1  0  0  0  0
  9 10  2  0  0  0  0
 10 11  1  0  0  0  0
 10 18  1  0  0  0  0
 11 12  1  0  0  0  0
 12 13  1  0  0  0  0
 12 20  1  0  0  0  0
 12 21  1  0  0  0  0
 13 17  1  0  0  0  0
 13 14  1  0  0  0  0
 13 22  1  0  0  0  0
 14 15  1  0  0  0  0
 14 23  1  0  0  0  0
 14 24  1  0  0  0  0
 15 16  1  0  0  0  0
 15 25  1  0  0  0  0
 15 26  1  0  0  0  0
 16 17  1  0  0  0  0
 16 27  1  0  0  0  0
 16 28  1  0  0  0  0
M  CHG  1  18  -1
M  END
> <s_m_source_file>
AV-unprocessed.smi

> <i_m_source_file_index>
2671

> <i_lp_mmshare_version>
43012

> <i_f3d_flags>
0

> <s_epik_input>
W09IXWMxW2NIXWMoQyhGKShGKUYpbmMobjEpU1tDSDJdW0NAQEhdMltDSDJdW0NIMl1bQ0gyXU8y

> <s_epik_cmdline>
J2VwaWtfcHl0aG9uJywgJy1waCcsICc3LjAnLCAnLXRuJywgJzgnLCAnLW1hJywgJzIwMCcsICctbWV0YWxfYmluZGluZycsICctaW1hZScsICc8aW5maWxlLm1hZT4nLCAnLW9tYWUnLCAnPG91dGZpbGUubWFlPic=

> <r_lp_tautomer_probability>
1

> <r_epik_Ionization_Penalty>
0.972901

> <r_epik_Ionization_Penalty_Charging>
0.00136034

> <r_epik_Ionization_Penalty_Neutral>
0.971541

> <r_epik_State_Penalty>
0.242243

> <r_epik_Charging_Adjusted_Penalty>
0.243604

> <i_epik_Tot_Q>
-1

> <i_epik_Tot_abs_Q>
1

> <r_epik_Metal_State_Penalty>
0.0617458

> <b_epik_Metal_Only>
0

> <s_lp_Force_Field>
OPLS_2005

> <r_lp_Energy>
24.2298

> <b_lp_Chiralities_Consistent>
1

> <s_lp_Variant>
AV-unprocessed.smi:2671-1

> <Gold.Version>
5.8.1

> <Gold.Id.Protein>
6NUR|6NUR_protein|mol2

> <Gold.PLP.Fitness>
43.4946

> <Gold.PLP.PLP>
-40.8982

> <Gold.PLP.part.hbond>
-1.0000

> <Gold.PLP.part.metal>
0.0000

> <Gold.PLP.part.buried>
-5.3013

> <Gold.PLP.part.nonpolar>
-34.8872

> <Gold.PLP.part.repulsive>
0.0000

> <Gold.PLP.ligand.clash>
0.0000

> <Gold.PLP.ligand.torsion>
0.2120

> <Gold.PLP.Chemscore.Hbond>
1.0000

> <Gold.PLP.Chemscore.CHOScore>
0.0000

> <Gold.PLP.Chemscore.Metal>
0.0000

> <Gold.PLP.Chemscore.Internal.Correction>
0.0205

> <Gold.Rescore>
     Score         DG    S(hbond)    S(metal)    S(lipo)     H(rot)  DE(clash)    DE(int)     intcor
     14.50     -14.80       0.99        0.00      87.73       1.66       0.04       0.27       ----

> <Gold.Chemscore.Fitness>
14.5001

> <Gold.Chemscore.DG>
-14.8040

> <Gold.Chemscore.ZeroCoef>
-5.4800

> <Gold.Chemscore.Hbond>
0.9946

> <Gold.Chemscore.Metal>
0.0000

> <Gold.Chemscore.Lipo>
87.7281

> <Gold.Chemscore.Internal_Hbond>
0.0000

> <Gold.Chemscore.DEClash>
0.0378

> <Gold.Chemscore.DEInternal>
0.2661

> <Gold.Chemscore.Rot>
1.6649

> <Gold.Chemscore.Internal.Correction>
   9.000000E+99

> <Gold.Chemscore.Hbond.Weighted>
-3.3219

> <Gold.Chemscore.Metal.Weighted>
-0.0000

> <Gold.Chemscore.Lipo.Weighted>
-10.2642

> <Gold.Chemscore.Internal_Hbond.Weighted>
0.0000

> <Gold.Chemscore.DEClash.Weighted>
0.0378

> <Gold.Chemscore.DEInternal.Weighted>
0.2661

> <Gold.Chemscore.Rot.Weighted>
4.2620

> <Gold.Chemscore.Internal.Correction.Weighted>
   9.000000E+99

> <Gold.Protein.RotatedTorsions>
[ 6907 6896 6895 6894 ] final -176.11 input  -60.11 | X-H torsion
[ 7974 7965 7964 7962 ] final -178.69 input  175.53 | X-H torsion
[ 8008 7997 7996 7995 ] final  178.96 input   59.86 | X-H torsion
[ 10167 10162 10161 10158 ] final  -51.32 input  -65.29 | X-H torsion
[ 10718 10713 10712 10709 ] final  166.03 input   66.30 | X-H torsion
[ 10763 10752 10751 10750 ] final   59.22 input  -60.55 | X-H torsion
[ 11005 11000 10999 10996 ] final   11.40 input  -57.11 | X-H torsion

> <Gold.Protein.ActiveResidues>
 VAL166  LYS551  ARG553  GLY616  TRP617  ASP618  TYR619  PRO620  LYS621  CYS622 
 ASP623  PHE694  ASN695  SER759  ASP760  ASP761  ALA762  ILE779  LEU786  VAL792 
 PHE793  MET794  SER795  GLU796  ALA797  LYS798  CYS799  TRP800  GLU811  SER814 

> <Gold.Protein.RotatedAtoms>
  151.5995  133.3358  159.3044 H   0  0  0  0  0  0  0  0  0  0  0  0  # atno 6907 bound_to 6896
  150.8215  134.7429  159.6788 H   0  0  0  0  0  0  0  0  0  0  0  0  # atno 6908 bound_to 6896
  152.4308  134.5786  159.9993 H   0  0  0  0  0  0  0  0  0  0  0  0  # atno 6909 bound_to 6896
  144.7132  140.0830  143.6425 H   0  0  0  0  0  0  0  0  0  0  0  0  # atno 7974 bound_to 7965
  156.0487  140.1320  157.0074 H   0  0  0  0  0  0  0  0  0  0  0  0  # atno 8008 bound_to 7997
  154.4425  140.1015  156.6415 H   0  0  0  0  0  0  0  0  0  0  0  0  # atno 8009 bound_to 7997
  155.5556  140.3464  155.4481 H   0  0  0  0  0  0  0  0  0  0  0  0  # atno 8010 bound_to 7997
  140.6594  143.2624  151.4486 H   0  0  0  0  0  0  0  0  0  0  0  0  # atno 10167 bound_to 10162
  157.0717  131.0368  151.2609 H   0  0  0  0  0  0  0  0  0  0  0  0  # atno 10718 bound_to 10713
  152.9889  135.5579  154.5678 H   0  0  0  0  0  0  0  0  0  0  0  0  # atno 10763 bound_to 10752
  154.5084  135.2801  155.1365 H   0  0  0  0  0  0  0  0  0  0  0  0  # atno 10764 bound_to 10752
  154.2767  135.6352  153.5384 H   0  0  0  0  0  0  0  0  0  0  0  0  # atno 10765 bound_to 10752
  140.5036  134.0721  155.7800 H   0  0  0  0  0  0  0  0  0  0  0  0  # atno 11005 bound_to 11000
  145.9686  139.2853  143.1112 LP  0  0  0  0  0  0  0  0  0  0  0  0  # atno 17320 bound_to 7965
  145.9142  140.9159  143.0438 LP  0  0  0  0  0  0  0  0  0  0  0  0  # atno 17321 bound_to 7965
  139.5824  144.1679  152.1986 LP  0  0  0  0  0  0  0  0  0  0  0  0  # atno 17342 bound_to 10162
  140.1009  144.5541  150.6990 LP  0  0  0  0  0  0  0  0  0  0  0  0  # atno 17343 bound_to 10162
  157.4872  130.7800  149.7472 LP  0  0  0  0  0  0  0  0  0  0  0  0  # atno 17370 bound_to 10713
  155.9948  130.3915  150.2843 LP  0  0  0  0  0  0  0  0  0  0  0  0  # atno 17371 bound_to 10713
  141.1422  133.9118  157.2299 LP  0  0  0  0  0  0  0  0  0  0  0  0  # atno 17394 bound_to 11000
  139.9699  135.0131  156.9484 LP  0  0  0  0  0  0  0  0  0  0  0  0  # atno 17395 bound_to 11000

$$$$
