#       Name:                AV-unprocessed.smi:2358
#       Creating user name   scv26
#       Creation time:       Fri Mar 27 13:04:14 2020


#       File generated by GOLD software.
#

@<TRIPOS>MOLECULE
AV-unprocessed.smi:2358
    53    55     1
SMALL
NO_CHARGES


@<TRIPOS>ATOM
      1 ****        -6.0805  -0.5859   0.0992 C.3            1 S1                 0.0000
      2 ****        -5.0609   0.5238   0.2541 C.ar           1 S1                 0.0000
      3 ****        -5.4398   1.8677   0.0648 C.ar           1 S1                 0.0000
      4 ****        -4.4879   2.8961   0.2046 C.ar           1 S1                 0.0000
      5 ****        -4.9009   4.3391   0.0003 C.3            1 S1                 0.0000
      6 ****        -3.1558   2.5755   0.5363 C.ar           1 S1                 0.0000
      7 ****        -2.7596   1.2363   0.7284 C.ar           1 S1                 0.0000
      8 ****        -1.4364   1.0165   1.0466 O.3            1 S1                 0.0000
      9 ****        -1.0053  -0.3225   1.2527 C.3            1 S1                 0.0000
     10 ****         0.4981  -0.3160   1.5791 C.3            1 S1                 0.0000
     11 ****         0.6204   0.0165   2.9482 O.3            1 S1                 0.0000
     12 ****         1.1439  -1.7034   1.3629 C.3            1 S1                 0.0000
     13 ****         2.5789  -1.5982   1.0712 N.am           1 S1                 0.0000
     14 ****         2.8713  -1.4312  -0.2714 N.2            1 S1                 0.0000
     15 ****         4.0927  -1.3121  -0.6792 C.2            1 S1                 0.0000
     16 ****         4.3904  -1.1331  -2.0919 N.pl3          1 S1                 0.0000
     17 ****         3.4912  -1.0771  -3.1282 C.2            1 S1                 0.0000
     18 ****         4.2280  -0.8972  -4.2704 C.2            1 S1                 0.0000
     19 ****         5.5413  -0.8509  -3.8838 N.pl3          1 S1                 1.0000
     20 ****         5.6435  -0.9938  -2.5574 C.2            1 S1                 0.0000
     21 ****         5.1831  -1.3583   0.2893 C.2            1 S1                 0.0000
     22 ****         4.8858  -1.5163   1.5971 C.2            1 S1                 0.0000
     23 ****         3.5087  -1.6426   2.0693 C.2            1 S1                 0.0000
     24 ****         3.2132  -1.7714   3.2565 O.2            1 S1                 0.0000
     25 ****        -3.7265   0.2096   0.5833 C.ar           1 S1                 0.0000
     26 ****        -7.0978  -0.1937   0.1128 H              1 S1                 0.0000
     27 ****        -5.9859  -1.3081   0.9105 H              1 S1                 0.0000
     28 ****        -5.9269  -1.1079  -0.8454 H              1 S1                 0.0000
     29 ****        -6.4612   2.1123  -0.1888 H              1 S1                 0.0000
     30 ****        -4.0327   4.9962  -0.0585 H              1 S1                 0.0000
     31 ****        -5.5271   4.6725   0.8281 H              1 S1                 0.0000
     32 ****        -5.4687   4.4449  -0.9246 H              1 S1                 0.0000
     33 ****        -2.4248   3.3635   0.6453 H              1 S1                 0.0000
     34 ****        -1.5750  -0.8141   2.0438 H              1 S1                 0.0000
     35 ****        -1.1740  -0.8755   0.3274 H              1 S1                 0.0000
     36 ****         0.9995   0.4333   0.9646 H              1 S1                 0.0000
     37 ****         1.5366   0.0074   3.1806 H              1 S1                 0.0000
     38 ****         0.9437  -2.3697   2.2046 H              1 S1                 0.0000
     39 ****         0.6738  -2.1952   0.5093 H              1 S1                 0.0000
     40 ****         2.4236  -1.1661  -2.9853 H              1 S1                 0.0000
     41 ****         3.9239  -0.8009  -5.3026 H              1 S1                 0.0000
     42 ****         6.5684  -0.9906  -2.0115 H              1 S1                 0.0000
     43 ****         6.2179  -1.2723   0.0021 H              1 S1                 0.0000
     44 ****         5.6888  -1.5516   2.3187 H              1 S1                 0.0000
     45 ****        -3.4670  -0.8293   0.7195 H              1 S1                 0.0000
     46 ****         6.3258  -0.7259  -4.5115 H              1 S1                 0.0000
     47 ****        -1.2467   1.5213   1.8887 LP             1 S1                 0.0000
     48 ****        -0.8863   1.3930   0.3012 LP             1 S1                 0.0000
     49 ****         0.1257  -0.6526   3.5027 LP             1 S1                 0.0000
     50 ****         0.2414   0.9279   3.1086 LP             1 S1                 0.0000
     51 ****         2.1257  -1.4022  -0.9371 LP             1 S1                 0.0000
     52 ****         2.2538  -1.8492   3.5273 LP             1 S1                 0.0000
     53 ****         3.9325  -1.7984   3.9507 LP             1 S1                 0.0000
@<TRIPOS>BOND
    1    1    2 1     
    2    1   26 1     
    3    1   27 1     
    4    1   28 1     
    5    2   25 ar    
    6    2    3 ar    
    7    3    4 ar    
    8    3   29 1     
    9    4    5 1     
   10    4    6 ar    
   11    5   30 1     
   12    5   31 1     
   13    5   32 1     
   14    6    7 ar    
   15    6   33 1     
   16    7    8 1     
   17    7   25 ar    
   18    8    9 1     
   19    9   10 1     
   20    9   34 1     
   21    9   35 1     
   22   10   11 1     
   23   10   12 1     
   24   10   36 1     
   25   11   37 1     
   26   12   13 1     
   27   12   38 1     
   28   12   39 1     
   29   13   23 am    
   30   13   14 1     
   31   14   15 2     
   32   15   16 1     
   33   15   21 1     
   34   16   20 1     
   35   16   17 1     
   36   17   18 2     
   37   17   40 1     
   38   18   19 1     
   39   18   41 1     
   40   19   20 2     
   41   19   46 1     
   42   20   42 1     
   43   21   22 2     
   44   21   43 1     
   45   22   23 1     
   46   22   44 1     
   47   23   24 2     
   48   25   45 1     
   49    8   47 1     
   50    8   48 1     
   51   11   49 1     
   52   11   50 1     
   53   14   51 1     
   54   24   52 1     
   55   24   53 1     
@<TRIPOS>SUBSTRUCTURE
      1 S1             1
@<TRIPOS>SET
LONE_PAIRS      STATIC     ATOMS    <user>   **** ""
7 47 48 49 50 51 52 53
DONOR_HYDROGENS      STATIC     ATOMS    <user>   **** ""
2 37 46
ATOM$BLUE        STATIC     ATOMS    COLORGROUP SYSTEM
7 47 48 49 50 51 52 53
ATOM$RED        STATIC     ATOMS    COLORGROUP SYSTEM
2 37 46
