AV-unprocessed.smi:1867|AV-procd|sdf|7577|dock3
  -GOLD-   22720 9283D 1   1.00000     0.00000
 Structure written by MMmdl.
 52 55  0  0  0  0  0  0  0  0  4 V2000
  148.1006  137.5890  156.3222 O   0  0  0  0  0  0  0  0  0  0  0  0
  148.1311  137.8954  155.1318 C   0  0  0  0  0  0  0  0  0  0  0  0
  148.7748  139.0299  154.7618 N   0  0  0  0  0  0  0  0  0  0  0  0
  149.3650  140.0324  155.5764 C   0  0  0  0  0  0  0  0  0  0  0  0
  150.0953  139.6166  156.7087 C   0  0  0  0  0  0  0  0  0  0  0  0
  150.7242  140.5769  157.5270 C   0  0  0  0  0  0  0  0  0  0  0  0
  150.6257  141.9494  157.1985 C   0  0  0  0  0  0  0  0  0  0  0  0
  151.2383  142.9613  157.9609 N   0  0  0  0  0  0  0  0  0  0  0  0
  152.0050  142.6632  159.1595 C   0  0  0  0  0  0  0  0  0  0  0  0
  152.5758  144.0125  159.5930 C   0  0  0  0  0  0  0  0  0  0  0  0
  152.7864  144.7432  158.2662 C   0  0  0  0  0  0  0  0  0  0  0  0
  151.6605  144.2208  157.3658 C   0  0  0  0  0  0  0  0  0  0  0  0
  149.9295  142.3016  156.0914 N   0  3  0  0  0  0  0  0  0  0  0  0
  149.3102  141.4152  155.2825 C   0  0  0  0  0  0  0  0  0  0  0  0
  147.5595  137.0972  154.1799 N   0  5  0  0  0  0  0  0  0  0  0  0
  146.2269  136.4644  154.1741 C   0  0  1  0  0  0  0  0  0  0  0  0
  145.2798  137.2661  153.2600 C   0  0  0  0  0  0  0  0  0  0  0  0
  145.3888  136.6207  151.8622 C   0  0  0  0  0  0  0  0  0  0  0  0
  146.3015  135.4710  152.0224 N   0  3  2  0  0  0  0  0  0  0  0  0
  146.0919  134.3131  151.1248 C   0  0  0  0  0  0  0  0  0  0  0  0
  147.1738  133.2476  151.3950 C   0  0  0  0  0  0  0  0  0  0  0  0
  147.2320  132.8532  152.8851 C   0  0  0  0  0  0  0  0  0  0  0  0
  147.3890  134.0965  153.7818 C   0  0  0  0  0  0  0  0  0  0  0  0
  146.2703  135.1090  153.4489 C   0  0  1  0  0  0  0  0  0  0  0  0
  148.8732  139.1664  153.7666 H   0  0  0  0  0  0  0  0  0  0  0  0
  150.1737  138.5670  156.9526 H   0  0  0  0  0  0  0  0  0  0  0  0
  151.2824  140.2468  158.3904 H   0  0  0  0  0  0  0  0  0  0  0  0
  151.3843  142.2188  159.9380 H   0  0  0  0  0  0  0  0  0  0  0  0
  152.8073  141.9661  158.9136 H   0  0  0  0  0  0  0  0  0  0  0  0
  151.8410  144.5491  160.1950 H   0  0  0  0  0  0  0  0  0  0  0  0
  153.4895  143.9188  160.1802 H   0  0  0  0  0  0  0  0  0  0  0  0
  152.7737  145.8281  158.3722 H   0  0  0  0  0  0  0  0  0  0  0  0
  153.7518  144.4595  157.8451 H   0  0  0  0  0  0  0  0  0  0  0  0
  152.0071  144.0973  156.3392 H   0  0  0  0  0  0  0  0  0  0  0  0
  150.8155  144.9100  157.3629 H   0  0  0  0  0  0  0  0  0  0  0  0
  148.8126  141.8471  154.4268 H   0  0  0  0  0  0  0  0  0  0  0  0
  145.8079  136.3517  155.1747 H   0  0  0  0  0  0  0  0  0  0  0  0
  144.2559  137.1672  153.6220 H   0  0  0  0  0  0  0  0  0  0  0  0
  145.5068  138.3332  153.2421 H   0  0  0  0  0  0  0  0  0  0  0  0
  144.4064  136.2913  151.5197 H   0  0  0  0  0  0  0  0  0  0  0  0
  145.7894  137.3125  151.1203 H   0  0  0  0  0  0  0  0  0  0  0  0
  145.0975  133.8948  151.2871 H   0  0  0  0  0  0  0  0  0  0  0  0
  146.1385  134.6434  150.0866 H   0  0  0  0  0  0  0  0  0  0  0  0
  146.9888  132.3648  150.7826 H   0  0  0  0  0  0  0  0  0  0  0  0
  148.1461  133.6358  151.0886 H   0  0  0  0  0  0  0  0  0  0  0  0
  146.3186  132.3224  153.1560 H   0  0  0  0  0  0  0  0  0  0  0  0
  148.0555  132.1599  153.0583 H   0  0  0  0  0  0  0  0  0  0  0  0
  147.3485  133.8028  154.8320 H   0  0  0  0  0  0  0  0  0  0  0  0
  148.3772  134.5297  153.6149 H   0  0  0  0  0  0  0  0  0  0  0  0
  145.3142  134.6165  153.6405 H   0  0  0  0  0  0  0  0  0  0  0  0
  147.2327  135.8265  151.8565 H   0  0  0  0  0  0  0  0  0  0  0  0
  149.8725  143.2910  155.8503 H   0  0  0  0  0  0  0  0  0  0  0  0
  1  2  2  0  0  0  0
  2  3  1  0  0  0  0
  2 15  1  0  0  0  0
  3  4  1  0  0  0  0
  3 25  1  0  0  0  0
  4 14  1  0  0  0  0
  4  5  2  0  0  0  0
  5  6  1  0  0  0  0
  5 26  1  0  0  0  0
  6  7  2  0  0  0  0
  6 27  1  0  0  0  0
  7  8  1  0  0  0  0
  7 13  1  0  0  0  0
  8 12  1  0  0  0  0
  8  9  1  0  0  0  0
  9 10  1  0  0  0  0
  9 28  1  0  0  0  0
  9 29  1  0  0  0  0
 10 11  1  0  0  0  0
 10 30  1  0  0  0  0
 10 31  1  0  0  0  0
 11 12  1  0  0  0  0
 11 32  1  0  0  0  0
 11 33  1  0  0  0  0
 12 34  1  0  0  0  0
 12 35  1  0  0  0  0
 13 14  2  0  0  0  0
 13 52  1  0  0  0  0
 14 36  1  0  0  0  0
 15 16  1  0  0  0  0
 16 24  1  0  0  0  0
 16 17  1  0  0  0  0
 16 37  1  0  0  0  0
 17 18  1  0  0  0  0
 17 38  1  0  0  0  0
 17 39  1  0  0  0  0
 18 19  1  0  0  0  0
 18 40  1  0  0  0  0
 18 41  1  0  0  0  0
 19 24  1  0  0  0  0
 19 20  1  0  0  0  0
 19 51  1  0  0  0  0
 20 21  1  0  0  0  0
 20 42  1  0  0  0  0
 20 43  1  0  0  0  0
 21 22  1  0  0  0  0
 21 44  1  0  0  0  0
 21 45  1  0  0  0  0
 22 23  1  0  0  0  0
 22 46  1  0  0  0  0
 22 47  1  0  0  0  0
 23 24  1  0  0  0  0
 23 48  1  0  0  0  0
 23 49  1  0  0  0  0
 24 50  1  0  0  0  0
M  CHG  1  13   1
M  CHG  1  15  -1
M  CHG  1  19   1
M  END
> <s_m_source_file>
AV-unprocessed.smi

> <i_m_source_file_index>
1867

> <i_lp_mmshare_version>
43012

> <i_f3d_flags>
0

> <s_epik_input>
W0NIMl0xW0NIMl1bQ0gyXVtDSDJdW0NASF0oTjEyKVtDQEBIXShbQ0gyXVtDSDJdMilbTkhdQyg9TylbTkhdYzNbY0hdW2NIXWMobltjSF0zKU40W0NIMl1bQ0gyXVtDSDJdW0NIMl00

> <s_epik_cmdline>
J2VwaWtfcHl0aG9uJywgJy1waCcsICc3LjAnLCAnLXRuJywgJzgnLCAnLW1hJywgJzIwMCcsICctbWV0YWxfYmluZGluZycsICctaW1hZScsICc8aW5maWxlLm1hZT4nLCAnLW9tYWUnLCAnPG91dGZpbGUubWFlPic=

> <r_lp_tautomer_probability>
0.999994

> <r_epik_Ionization_Penalty>
8.56137

> <r_epik_Ionization_Penalty_Charging>
8.56136

> <r_epik_Ionization_Penalty_Neutral>
3.91889e-06

> <r_epik_State_Penalty>
8.16255

> <r_epik_Charging_Adjusted_Penalty>
16.7239

> <i_epik_Tot_Q>
1

> <i_epik_Tot_abs_Q>
3

> <r_epik_Metal_State_Penalty>
4.14279

> <b_epik_Metal_Only>
1

> <s_lp_Force_Field>
OPLS_2005

> <r_lp_Energy>
66.867

> <b_lp_Chiralities_Consistent>
1

> <s_lp_Variant>
AV-unprocessed.smi:1867-18

> <Gold.Version>
5.8.1

> <Gold.Id.Protein>
6NUR|6NUR_protein|mol2

> <Gold.PLP.Fitness>
48.5954

> <Gold.PLP.PLP>
-38.7356

> <Gold.PLP.part.hbond>
-2.0000

> <Gold.PLP.part.metal>
0.0000

> <Gold.PLP.part.buried>
-4.9480

> <Gold.PLP.part.nonpolar>
-34.0071

> <Gold.PLP.part.repulsive>
1.8617

> <Gold.PLP.ligand.clash>
0.0000

> <Gold.PLP.ligand.torsion>
1.1646

> <Gold.PLP.Chemscore.Hbond>
3.9840

> <Gold.PLP.Chemscore.CHOScore>
0.0000

> <Gold.PLP.Chemscore.Metal>
0.0000

> <Gold.Chemscore.Hbonds>
donor molecule, donor type, donor heavy atom, donor atom, acceptor molecule, acceptor atom, score
      L1  H    13    52       P1  8028  1.95
      L1  H    19    51       P1  7948  2.00

> <Gold.PLP.Chemscore.Internal.Correction>
0.2370

> <Gold.Rescore>
     Score         DG    S(hbond)    S(metal)    S(lipo)     H(rot)  DE(clash)    DE(int)     intcor
     18.90     -21.44       1.94        0.00     102.77       1.00       0.10       2.44       ----

> <Gold.Chemscore.Fitness>
18.8964

> <Gold.Chemscore.DG>
-21.4371

> <Gold.Chemscore.ZeroCoef>
-5.4800

> <Gold.Chemscore.Hbond>
1.9441

> <Gold.Chemscore.Metal>
0.0000

> <Gold.Chemscore.Lipo>
102.7677

> <Gold.Chemscore.Internal_Hbond>
0.0000

> <Gold.Chemscore.DEClash>
0.0960

> <Gold.Chemscore.DEInternal>
2.4447

> <Gold.Chemscore.Rot>
1.0000

> <Gold.Chemscore.Internal.Correction>
   9.000000E+99

> <Gold.Chemscore.Hbonds>
donor molecule, donor type, donor heavy atom, donor atom, acceptor molecule, acceptor atom, score
      L1  H    13    52       P1  8028  0.93
      L1  H    19    51       P1  7948  1.00

> <Gold.Chemscore.Hbond.Weighted>
-6.4933

> <Gold.Chemscore.Metal.Weighted>
-0.0000

> <Gold.Chemscore.Lipo.Weighted>
-12.0238

> <Gold.Chemscore.Internal_Hbond.Weighted>
0.0000

> <Gold.Chemscore.DEClash.Weighted>
0.0960

> <Gold.Chemscore.DEInternal.Weighted>
2.4447

> <Gold.Chemscore.Rot.Weighted>
2.5600

> <Gold.Chemscore.Internal.Correction.Weighted>
   9.000000E+99

> <Gold.Protein.RotatedTorsions>
[ 6907 6896 6895 6894 ] final  -94.05 input  -60.11 | X-H torsion
[ 7974 7965 7964 7962 ] final -106.32 input  175.53 | X-H torsion
[ 8008 7997 7996 7995 ] final  107.31 input   59.86 | X-H torsion
[ 10167 10162 10161 10158 ] final  -68.00 input  -65.29 | X-H torsion
[ 10718 10713 10712 10709 ] final  -22.29 input   66.30 | X-H torsion
[ 10763 10752 10751 10750 ] final -175.15 input  -60.55 | X-H torsion
[ 11005 11000 10999 10996 ] final  171.68 input  -57.11 | X-H torsion

> <Gold.Protein.ActiveResidues>
 VAL166  LYS551  ARG553  GLY616  TRP617  ASP618  TYR619  PRO620  LYS621  CYS622 
 ASP623  PHE694  ASN695  SER759  ASP760  ASP761  ALA762  ILE779  LEU786  VAL792 
 PHE793  MET794  SER795  GLU796  ALA797  LYS798  CYS799  TRP800  GLU811  SER814 

> <Gold.Protein.RotatedAtoms>
  150.6934  134.1872  159.4271 H   0  0  0  0  0  0  0  0  0  0  0  0  # atno 6907 bound_to 6896
  151.9844  135.0009  160.0568 H   0  0  0  0  0  0  0  0  0  0  0  0  # atno 6908 bound_to 6896
  152.1725  133.4618  159.4953 H   0  0  0  0  0  0  0  0  0  0  0  0  # atno 6909 bound_to 6896
  145.2194  140.9128  143.3268 H   0  0  0  0  0  0  0  0  0  0  0  0  # atno 7974 bound_to 7965
  156.1814  140.3097  155.9155 H   0  0  0  0  0  0  0  0  0  0  0  0  # atno 8008 bound_to 7997
  155.3376  140.0464  157.3061 H   0  0  0  0  0  0  0  0  0  0  0  0  # atno 8009 bound_to 7997
  154.5347  140.2242  155.8754 H   0  0  0  0  0  0  0  0  0  0  0  0  # atno 8010 bound_to 7997
  140.5541  143.2312  151.6856 H   0  0  0  0  0  0  0  0  0  0  0  0  # atno 10167 bound_to 10162
  156.5066  130.4600  149.6671 H   0  0  0  0  0  0  0  0  0  0  0  0  # atno 10718 bound_to 10713
  154.5878  135.2842  155.0667 H   0  0  0  0  0  0  0  0  0  0  0  0  # atno 10763 bound_to 10752
  154.1979  135.6429  153.5082 H   0  0  0  0  0  0  0  0  0  0  0  0  # atno 10764 bound_to 10752
  153.0110  135.5462  154.6553 H   0  0  0  0  0  0  0  0  0  0  0  0  # atno 10765 bound_to 10752
  140.3216  134.7433  157.4068 H   0  0  0  0  0  0  0  0  0  0  0  0  # atno 11005 bound_to 11000
  144.9780  139.3812  143.6276 LP  0  0  0  0  0  0  0  0  0  0  0  0  # atno 17320 bound_to 7965
  146.3379  139.8908  142.8809 LP  0  0  0  0  0  0  0  0  0  0  0  0  # atno 17321 bound_to 7965
  139.5040  144.3771  152.0413 LP  0  0  0  0  0  0  0  0  0  0  0  0  # atno 17342 bound_to 10162
  140.2890  144.3774  150.6094 LP  0  0  0  0  0  0  0  0  0  0  0  0  # atno 17343 bound_to 10162
  156.3281  130.7317  151.2241 LP  0  0  0  0  0  0  0  0  0  0  0  0  # atno 17370 bound_to 10713
  157.7456  131.0437  150.4758 LP  0  0  0  0  0  0  0  0  0  0  0  0  # atno 17371 bound_to 10713
  140.0937  134.5566  155.8419 LP  0  0  0  0  0  0  0  0  0  0  0  0  # atno 17394 bound_to 11000
  141.2085  133.6674  156.6377 LP  0  0  0  0  0  0  0  0  0  0  0  0  # atno 17395 bound_to 11000

$$$$
