#       Name:                AV-unprocessed.smi:385
#       Creating user name   scv26
#       Creation time:       Thu Mar 26 22:41:06 2020


#       File generated by GOLD software.
#

@<TRIPOS>MOLECULE
AV-unprocessed.smi:385
    40    41     1
SMALL
NO_CHARGES


@<TRIPOS>ATOM
      1 ****         0.7663   2.2065  -0.2792 O.2            1 S1                 0.0000
      2 ****         0.3703   1.1571  -0.7863 C.2            1 S1                 0.0000
      3 ****         1.1969   0.2112  -1.2581 N.am           1 S1                 0.0000
      4 ****         2.6557   0.2794  -1.2365 C.3            1 S1                 0.0000
      5 ****         3.2525   0.1122   0.1764 C.3            1 S1                 0.0000
      6 ****         2.7024  -1.0838   0.9342 C.ar           1 S1                 0.0000
      7 ****         1.7504  -0.9441   1.9680 C.ar           1 S1                 0.0000
      8 ****         1.2740  -2.0966   2.6265 C.ar           1 S1                 0.0000
      9 ****         1.7585  -3.3628   2.2383 C.ar           1 S1                 0.0000
     10 ****         2.7099  -3.4444   1.2009 C.ar           1 S1                 0.0000
     11 ****         3.1422  -2.3169   0.5943 N.pl3          1 S1                 1.0000
     12 ****        -1.1327   0.8679  -0.8909 C.3            1 S1                 0.0000
     13 ****        -1.8526   1.9493  -1.7234 C.3            1 S1                 0.0000
     14 ****        -3.3668   1.6854  -1.7819 C.3            1 S1                 0.0000
     15 ****        -3.9355   1.5951  -0.4196 N.4            1 S1                 1.0000
     16 ****        -3.2952   0.5462   0.4037 C.3            1 S1                 0.0000
     17 ****        -1.7787   0.7835   0.5079 C.3            1 S1                 0.0000
     18 ****         0.7865  -0.6173  -1.6645 H              1 S1                 0.0000
     19 ****         3.0235  -0.5205  -1.8796 H              1 S1                 0.0000
     20 ****         2.9958   1.2140  -1.6852 H              1 S1                 0.0000
     21 ****         4.3372   0.0215   0.1084 H              1 S1                 0.0000
     22 ****         3.0660   1.0127   0.7629 H              1 S1                 0.0000
     23 ****         1.3869   0.0332   2.2514 H              1 S1                 0.0000
     24 ****         0.5458  -2.0099   3.4198 H              1 S1                 0.0000
     25 ****         1.4067  -4.2579   2.7304 H              1 S1                 0.0000
     26 ****         3.1355  -4.3699   0.8409 H              1 S1                 0.0000
     27 ****        -1.2674  -0.0940  -1.3892 H              1 S1                 0.0000
     28 ****        -1.6777   2.9375  -1.2945 H              1 S1                 0.0000
     29 ****        -1.4475   1.9766  -2.7359 H              1 S1                 0.0000
     30 ****        -3.8697   2.4859  -2.3250 H              1 S1                 0.0000
     31 ****        -3.5707   0.7584  -2.3196 H              1 S1                 0.0000
     32 ****        -3.8102   2.4859   0.0401 H              1 S1                 0.0000
     33 ****        -3.7476   0.5473   1.3957 H              1 S1                 0.0000
     34 ****        -3.4973  -0.4307  -0.0375 H              1 S1                 0.0000
     35 ****        -1.3218  -0.0214   1.0855 H              1 S1                 0.0000
     36 ****        -1.5972   1.7043   1.0651 H              1 S1                 0.0000
     37 ****        -4.9244   1.4007  -0.4886 H              1 S1                 0.0000
     38 ****         3.8313  -2.3999  -0.1537 H              1 S1                 0.0000
     39 ****         1.7470   2.3863  -0.2037 LP             1 S1                 0.0000
     40 ****         0.1072   2.8791   0.0572 LP             1 S1                 0.0000
@<TRIPOS>BOND
    1    1    2 2     
    2    2    3 am    
    3    2   12 1     
    4    3    4 1     
    5    3   18 1     
    6    4    5 1     
    7    4   19 1     
    8    4   20 1     
    9    5    6 1     
   10    5   21 1     
   11    5   22 1     
   12    6   11 ar    
   13    6    7 ar    
   14    7    8 ar    
   15    7   23 1     
   16    8    9 ar    
   17    8   24 1     
   18    9   10 ar    
   19    9   25 1     
   20   10   11 ar    
   21   10   26 1     
   22   11   38 1     
   23   12   17 1     
   24   12   13 1     
   25   12   27 1     
   26   13   14 1     
   27   13   28 1     
   28   13   29 1     
   29   14   15 1     
   30   14   30 1     
   31   14   31 1     
   32   15   16 1     
   33   15   32 1     
   34   15   37 1     
   35   16   17 1     
   36   16   33 1     
   37   16   34 1     
   38   17   35 1     
   39   17   36 1     
   40    1   39 1     
   41    1   40 1     
@<TRIPOS>SUBSTRUCTURE
      1 S1             1
@<TRIPOS>SET
LONE_PAIRS      STATIC     ATOMS    <user>   **** ""
2 39 40
DONOR_HYDROGENS      STATIC     ATOMS    <user>   **** ""
4 18 38 32 37
ATOM$BLUE        STATIC     ATOMS    COLORGROUP SYSTEM
2 39 40
ATOM$RED        STATIC     ATOMS    COLORGROUP SYSTEM
4 18 38 32 37
