#       Name:                AV-unprocessed.smi:1313
#       Creating user name   scv26
#       Creation time:       Fri Mar 27 05:02:13 2020


#       File generated by GOLD software.
#

@<TRIPOS>MOLECULE
AV-unprocessed.smi:1313
    42    43     1
SMALL
NO_CHARGES


@<TRIPOS>ATOM
      1 ****        -5.7494  -1.4587  -0.9697 C.3            1 S1                 0.0000
      2 ****        -4.2445  -1.2991  -1.0140 C.2            1 S1                 0.0000
      3 ****        -3.6451  -0.1818  -1.2643 N.2            1 S1                 0.0000
      4 ****        -2.2435  -0.1553  -1.2710 C.2            1 S1                 0.0000
      5 ****        -1.6163   1.1973  -1.5622 C.3            1 S1                 0.0000
      6 ****        -1.5050  -1.2774  -1.0250 C.2            1 S1                 0.0000
      7 ****         0.0224  -1.2788  -1.0112 C.3            1 S1                 0.0000
      8 ****         0.6581  -0.8034   0.2963 C.2            1 S1                 0.0000
      9 ****         0.4242  -1.4017   1.3461 O.2            1 S1                 0.0000
     10 ****         1.4508   0.2768   0.2226 N.am           1 S1                 0.0000
     11 ****         2.1192   0.9066   1.3579 C.3            1 S1                 0.0000
     12 ****         2.5505   2.3441   1.0100 C.3            1 S1                 0.0000
     13 ****         4.0008   2.4749   1.4777 C.3            1 S1                 0.0000
     14 ****         4.5680   1.0651   1.3452 C.3            1 S1                 0.0000
     15 ****         3.4078   0.1546   1.7489 C.3            1 S1                 0.0000
     16 ****        -2.2003  -2.5492  -0.7465 C.2            1 S1                 0.0000
     17 ****        -1.6359  -3.6170  -0.5136 O.2            1 S1                 0.0000
     18 ****        -3.5503  -2.4798  -0.7560 N.am           1 S1                 0.0000
     19 ****        -4.0718  -3.3232  -0.5667 H              1 S1                 0.0000
     20 ****        -6.1741  -0.7956  -0.2155 H              1 S1                 0.0000
     21 ****        -6.0397  -2.4820  -0.7268 H              1 S1                 0.0000
     22 ****        -6.1827  -1.2011  -1.9363 H              1 S1                 0.0000
     23 ****        -0.9789   1.1460  -2.4450 H              1 S1                 0.0000
     24 ****        -1.0150   1.5315  -0.7169 H              1 S1                 0.0000
     25 ****        -2.3783   1.9552  -1.7477 H              1 S1                 0.0000
     26 ****         0.4064  -2.2753  -1.2322 H              1 S1                 0.0000
     27 ****         0.3822  -0.6606  -1.8342 H              1 S1                 0.0000
     28 ****         1.5871   0.7052  -0.6816 H              1 S1                 0.0000
     29 ****         1.4399   0.9306   2.2122 H              1 S1                 0.0000
     30 ****         2.5115   2.5074  -0.0683 H              1 S1                 0.0000
     31 ****         1.9044   3.0914   1.4715 H              1 S1                 0.0000
     32 ****         4.5631   3.2108   0.9023 H              1 S1                 0.0000
     33 ****         4.0230   2.7818   2.5242 H              1 S1                 0.0000
     34 ****         4.8408   0.8748   0.3063 H              1 S1                 0.0000
     35 ****         5.4564   0.9088   1.9578 H              1 S1                 0.0000
     36 ****         3.4234   0.0108   2.8299 H              1 S1                 0.0000
     37 ****         3.4905  -0.8342   1.2956 H              1 S1                 0.0000
     38 ****        -4.1712   0.6482  -1.4497 LP             1 S1                 0.0000
     39 ****        -0.1809  -2.1978   1.3437 LP             1 S1                 0.0000
     40 ****         0.8393  -1.0917   2.2014 LP             1 S1                 0.0000
     41 ****        -0.6370  -3.6630  -0.5044 LP             1 S1                 0.0000
     42 ****        -2.1759  -4.4391  -0.3335 LP             1 S1                 0.0000
@<TRIPOS>BOND
    1    1    2 1     
    2    1   20 1     
    3    1   21 1     
    4    1   22 1     
    5    2   18 1     
    6    2    3 2     
    7    3    4 1     
    8    4    5 1     
    9    4    6 2     
   10    5   23 1     
   11    5   24 1     
   12    5   25 1     
   13    6    7 1     
   14    6   16 1     
   15    7    8 1     
   16    7   26 1     
   17    7   27 1     
   18    8    9 2     
   19    8   10 am    
   20   10   11 1     
   21   10   28 1     
   22   11   15 1     
   23   11   12 1     
   24   11   29 1     
   25   12   13 1     
   26   12   30 1     
   27   12   31 1     
   28   13   14 1     
   29   13   32 1     
   30   13   33 1     
   31   14   15 1     
   32   14   34 1     
   33   14   35 1     
   34   15   36 1     
   35   15   37 1     
   36   16   17 2     
   37   16   18 am    
   38   18   19 1     
   39    3   38 1     
   40    9   39 1     
   41    9   40 1     
   42   17   41 1     
   43   17   42 1     
@<TRIPOS>SUBSTRUCTURE
      1 S1             1
@<TRIPOS>SET
LONE_PAIRS      STATIC     ATOMS    <user>   **** ""
5 38 39 40 41 42
DONOR_HYDROGENS      STATIC     ATOMS    <user>   **** ""
2 28 19
ATOM$BLUE        STATIC     ATOMS    COLORGROUP SYSTEM
5 38 39 40 41 42
ATOM$RED        STATIC     ATOMS    COLORGROUP SYSTEM
2 28 19
