AV-unprocessed.smi:3009|AV-procd|sdf|11453|dock8
  -GOLD-   2272016383D 1   1.00000     0.00000
 Structure written by MMmdl.
 43 44  0  0  0  0  0  0  0  0  1 V2000
  152.9617  142.9254  160.3154 C   0  0  0  0  0  0  0  0  0  0  0  0
  152.5707  142.9784  158.8289 C   0  0  0  0  0  0  0  0  0  0  0  0
  152.5117  144.4152  158.2816 C   0  0  0  0  0  0  0  0  0  0  0  0
  151.3258  142.1255  158.4802 C   0  0  0  0  0  0  0  0  0  0  0  0
  151.2312  141.5832  157.1207 N   0  0  0  0  0  0  0  0  0  0  0  0
  151.6276  140.1804  157.0303 C   0  0  0  0  0  0  0  0  0  0  0  0
  151.4663  139.6246  155.6051 C   0  0  0  0  0  0  0  0  0  0  0  0
  150.1259  139.8116  155.1654 O   0  0  0  0  0  0  0  0  0  0  0  0
  149.7292  141.1807  155.1713 C   0  0  1  0  0  0  0  0  0  0  0  0
  148.2803  141.2735  154.6631 C   0  0  0  0  0  0  0  0  0  0  0  0
  148.0032  140.2759  153.6352 N   0  0  0  0  0  0  0  0  0  0  0  0
  147.0211  139.3655  153.6915 C   0  0  0  0  0  0  0  0  0  0  0  0
  146.2431  139.2612  154.6402 O   0  0  0  0  0  0  0  0  0  0  0  0
  147.0036  138.5977  152.5897 N   0  0  0  0  0  0  0  0  0  0  0  0
  146.1063  137.5413  152.2905 C   0  0  0  0  0  0  0  0  0  0  0  0
  144.8661  137.3220  152.9494 C   0  0  0  0  0  0  0  0  0  0  0  0
  144.2412  136.2593  152.4625 N   0  0  0  0  0  0  0  0  0  0  0  0
  145.0714  135.7978  151.4999 N   0  0  0  0  0  0  0  0  0  0  0  0
  146.2193  136.5462  151.3603 C   0  0  0  0  0  0  0  0  0  0  0  0
  149.8721  141.7239  156.6063 C   0  0  0  0  0  0  0  0  0  0  0  0
  144.8438  134.9794  150.9529 H   0  0  0  0  0  0  0  0  0  0  0  0
  152.2222  143.4185  160.9466 H   0  0  0  0  0  0  0  0  0  0  0  0
  153.9187  143.4194  160.4849 H   0  0  0  0  0  0  0  0  0  0  0  0
  153.0584  141.8949  160.6578 H   0  0  0  0  0  0  0  0  0  0  0  0
  153.3947  142.5118  158.2873 H   0  0  0  0  0  0  0  0  0  0  0  0
  151.7705  145.0289  158.7892 H   0  0  0  0  0  0  0  0  0  0  0  0
  152.2746  144.4196  157.2174 H   0  0  0  0  0  0  0  0  0  0  0  0
  153.4750  144.9123  158.4007 H   0  0  0  0  0  0  0  0  0  0  0  0
  151.2096  141.3234  159.2106 H   0  0  0  0  0  0  0  0  0  0  0  0
  150.4629  142.7751  158.6348 H   0  0  0  0  0  0  0  0  0  0  0  0
  152.6701  140.0645  157.3170 H   0  0  0  0  0  0  0  0  0  0  0  0
  151.0360  139.5810  157.7238 H   0  0  0  0  0  0  0  0  0  0  0  0
  152.1540  140.1193  154.9174 H   0  0  0  0  0  0  0  0  0  0  0  0
  151.7031  138.5608  155.5843 H   0  0  0  0  0  0  0  0  0  0  0  0
  150.3845  141.7478  154.5075 H   0  0  0  0  0  0  0  0  0  0  0  0
  147.5838  141.1195  155.4877 H   0  0  0  0  0  0  0  0  0  0  0  0
  148.0791  142.2718  154.2705 H   0  0  0  0  0  0  0  0  0  0  0  0
  148.5920  140.2934  152.8155 H   0  0  0  0  0  0  0  0  0  0  0  0
  147.7049  138.7903  151.8896 H   0  0  0  0  0  0  0  0  0  0  0  0
  144.4080  137.8869  153.7481 H   0  0  0  0  0  0  0  0  0  0  0  0
  146.9823  136.3051  150.6349 H   0  0  0  0  0  0  0  0  0  0  0  0
  149.1742  141.2014  157.2628 H   0  0  0  0  0  0  0  0  0  0  0  0
  149.5824  142.7756  156.6192 H   0  0  0  0  0  0  0  0  0  0  0  0
  1  2  1  0  0  0  0
  1 22  1  0  0  0  0
  1 23  1  0  0  0  0
  1 24  1  0  0  0  0
  2  3  1  0  0  0  0
  2  4  1  0  0  0  0
  2 25  1  0  0  0  0
  3 26  1  0  0  0  0
  3 27  1  0  0  0  0
  3 28  1  0  0  0  0
  4  5  1  0  0  0  0
  4 29  1  0  0  0  0
  4 30  1  0  0  0  0
  5 20  1  0  0  0  0
  5  6  1  0  0  0  0
  6  7  1  0  0  0  0
  6 31  1  0  0  0  0
  6 32  1  0  0  0  0
  7  8  1  0  0  0  0
  7 33  1  0  0  0  0
  7 34  1  0  0  0  0
  8  9  1  0  0  0  0
  9 10  1  0  0  0  0
  9 20  1  0  0  0  0
  9 35  1  0  0  0  0
 10 11  1  0  0  0  0
 10 36  1  0  0  0  0
 10 37  1  0  0  0  0
 11 12  1  0  0  0  0
 11 38  1  0  0  0  0
 12 13  2  0  0  0  0
 12 14  1  0  0  0  0
 14 15  1  0  0  0  0
 14 39  1  0  0  0  0
 15 19  2  0  0  0  0
 15 16  1  0  0  0  0
 16 17  2  0  0  0  0
 16 40  1  0  0  0  0
 17 18  1  0  0  0  0
 18 21  1  0  0  0  0
 18 19  1  0  0  0  0
 19 41  1  0  0  0  0
 20 42  1  0  0  0  0
 20 43  1  0  0  0  0
M  END
> <s_m_source_file>
AV-unprocessed.smi

> <i_m_source_file_index>
3009

> <i_lp_mmshare_version>
43012

> <i_f3d_flags>
0

> <s_epik_input>
W0NIM11bQ0hdKFtDSDNdKVtDSDJdTjFbQ0gyXVtDSDJdT1tDQEhdKFtDSDJdMSlbQ0gyXVtOSF1DKD1PKVtOSF1jMltjSF1uW25IXVtjSF0y

> <s_epik_cmdline>
J2VwaWtfcHl0aG9uJywgJy1waCcsICc3LjAnLCAnLXRuJywgJzgnLCAnLW1hJywgJzIwMCcsICctbWV0YWxfYmluZGluZycsICctaW1hZScsICc8aW5maWxlLm1hZT4nLCAnLW9tYWUnLCAnPG91dGZpbGUubWFlPic=

> <r_lp_tautomer_probability>
0.5

> <r_epik_Ionization_Penalty>
1.11801

> <r_epik_Ionization_Penalty_Charging>
0

> <r_epik_Ionization_Penalty_Neutral>
1.11801

> <r_epik_State_Penalty>
1.17654

> <r_epik_Charging_Adjusted_Penalty>
1.17654

> <i_epik_Tot_Q>
0

> <i_epik_Tot_abs_Q>
0

> <r_epik_Metal_State_Penalty>
1.17654

> <b_epik_Metal_Only>
0

> <s_lp_Force_Field>
OPLS_2005

> <r_lp_Energy>
30.4002

> <b_lp_Chiralities_Consistent>
1

> <s_lp_Variant>
AV-unprocessed.smi:3009-5

> <Gold.Version>
5.8.1

> <Gold.Id.Protein>
6NUR|6NUR_protein|mol2

> <Gold.PLP.Fitness>
43.2303

> <Gold.PLP.PLP>
-36.5037

> <Gold.PLP.part.hbond>
-3.5187

> <Gold.PLP.part.metal>
0.0000

> <Gold.PLP.part.buried>
2.5437

> <Gold.PLP.part.nonpolar>
-36.0596

> <Gold.PLP.part.repulsive>
1.4318

> <Gold.PLP.ligand.clash>
0.0000

> <Gold.PLP.ligand.torsion>
1.1855

> <Gold.PLP.Chemscore.Hbond>
1.9750

> <Gold.PLP.Chemscore.CHOScore>
1.0384

> <Gold.PLP.Chemscore.Metal>
0.0000

> <Gold.Chemscore.Hbonds>
donor molecule, donor type, donor heavy atom, donor atom, acceptor molecule, acceptor atom, score
      L1  H    11    38       P1  7957  1.00
      L1  H    14    39       P1  7957  0.19
      L1  C    19    41       P1  7948  0.53

> <Gold.PLP.Chemscore.Internal.Correction>
0.0573

> <Gold.Rescore>
     Score         DG    S(hbond)    S(metal)    S(lipo)     H(rot)  DE(clash)    DE(int)     intcor
     13.04     -15.69       1.00        0.00      97.11       1.76       0.08       2.56       ----

> <Gold.Chemscore.Fitness>
13.0368

> <Gold.Chemscore.DG>
-15.6851

> <Gold.Chemscore.ZeroCoef>
-5.4800

> <Gold.Chemscore.Hbond>
1.0003

> <Gold.Chemscore.Metal>
0.0000

> <Gold.Chemscore.Lipo>
97.1077

> <Gold.Chemscore.Internal_Hbond>
0.0000

> <Gold.Chemscore.DEClash>
0.0835

> <Gold.Chemscore.DEInternal>
2.5648

> <Gold.Chemscore.Rot>
1.7568

> <Gold.Chemscore.Internal.Correction>
   9.000000E+99

> <Gold.Chemscore.Hbonds>
donor molecule, donor type, donor heavy atom, donor atom, acceptor molecule, acceptor atom, score
      L1  H    11    38       P1  7957  0.99
      L1  H    14    39       P1  7957  0.17

> <Gold.Chemscore.Hbond.Weighted>
-3.3410

> <Gold.Chemscore.Metal.Weighted>
-0.0000

> <Gold.Chemscore.Lipo.Weighted>
-11.3616

> <Gold.Chemscore.Internal_Hbond.Weighted>
0.0000

> <Gold.Chemscore.DEClash.Weighted>
0.0835

> <Gold.Chemscore.DEInternal.Weighted>
2.5648

> <Gold.Chemscore.Rot.Weighted>
4.4974

> <Gold.Chemscore.Internal.Correction.Weighted>
   9.000000E+99

> <Gold.Protein.RotatedTorsions>
[ 6907 6896 6895 6894 ] final  130.79 input  -60.11 | X-H torsion
[ 7974 7965 7964 7962 ] final   14.35 input  175.53 | X-H torsion
[ 8008 7997 7996 7995 ] final   51.30 input   59.86 | X-H torsion
[ 10167 10162 10161 10158 ] final   -5.56 input  -65.29 | X-H torsion
[ 10718 10713 10712 10709 ] final  112.96 input   66.30 | X-H torsion
[ 10763 10752 10751 10750 ] final  104.87 input  -60.55 | X-H torsion
[ 11005 11000 10999 10996 ] final  -35.70 input  -57.11 | X-H torsion

> <Gold.Protein.ActiveResidues>
 VAL166  LYS551  ARG553  GLY616  TRP617  ASP618  TYR619  PRO620  LYS621  CYS622 
 ASP623  PHE694  ASN695  SER759  ASP760  ASP761  ALA762  ILE779  LEU786  VAL792 
 PHE793  MET794  SER795  GLU796  ALA797  LYS798  CYS799  TRP800  GLU811  SER814 

> <Gold.Protein.RotatedAtoms>
  152.3491  133.6158  159.5931 H   0  0  0  0  0  0  0  0  0  0  0  0  # atno 6907 bound_to 6896
  150.7526  133.9602  159.3522 H   0  0  0  0  0  0  0  0  0  0  0  0  # atno 6908 bound_to 6896
  151.7456  135.0845  160.0374 H   0  0  0  0  0  0  0  0  0  0  0  0  # atno 6909 bound_to 6896
  146.2307  139.9054  142.8532 H   0  0  0  0  0  0  0  0  0  0  0  0  # atno 7974 bound_to 7965
  155.4331  140.3451  155.4282 H   0  0  0  0  0  0  0  0  0  0  0  0  # atno 8008 bound_to 7997
  156.1324  140.1518  156.9075 H   0  0  0  0  0  0  0  0  0  0  0  0  # atno 8009 bound_to 7997
  154.4905  140.0842  156.7564 H   0  0  0  0  0  0  0  0  0  0  0  0  # atno 8010 bound_to 7997
  140.6967  143.6295  150.8536 H   0  0  0  0  0  0  0  0  0  0  0  0  # atno 10167 bound_to 10162
  157.6364  131.0976  150.6972 H   0  0  0  0  0  0  0  0  0  0  0  0  # atno 10718 bound_to 10713
  153.3718  135.3928  155.1794 H   0  0  0  0  0  0  0  0  0  0  0  0  # atno 10763 bound_to 10752
  154.8695  135.3704  154.4968 H   0  0  0  0  0  0  0  0  0  0  0  0  # atno 10764 bound_to 10752
  153.5437  135.7084  153.5685 H   0  0  0  0  0  0  0  0  0  0  0  0  # atno 10765 bound_to 10752
  140.9816  133.7053  156.1694 H   0  0  0  0  0  0  0  0  0  0  0  0  # atno 11005 bound_to 11000
  145.2282  140.9962  143.4006 LP  0  0  0  0  0  0  0  0  0  0  0  0  # atno 17320 bound_to 7965
  144.9552  139.4039  143.6382 LP  0  0  0  0  0  0  0  0  0  0  0  0  # atno 17321 bound_to 7965
  140.0013  143.5741  152.2874 LP  0  0  0  0  0  0  0  0  0  0  0  0  # atno 17342 bound_to 10162
  139.6431  144.7656  151.2298 LP  0  0  0  0  0  0  0  0  0  0  0  0  # atno 17343 bound_to 10162
  156.7303  130.4707  149.5501 LP  0  0  0  0  0  0  0  0  0  0  0  0  # atno 17370 bound_to 10713
  156.1607  130.6372  151.0715 LP  0  0  0  0  0  0  0  0  0  0  0  0  # atno 17371 bound_to 10713
  140.7177  134.4392  157.5577 LP  0  0  0  0  0  0  0  0  0  0  0  0  # atno 17394 bound_to 11000
  139.8953  134.8687  156.2139 LP  0  0  0  0  0  0  0  0  0  0  0  0  # atno 17395 bound_to 11000

$$$$
