#       Name:                AV-unprocessed.smi:3278
#       Creating user name   scv26
#       Creation time:       Fri Mar 27 18:46:08 2020


#       File generated by GOLD software.
#

@<TRIPOS>MOLECULE
AV-unprocessed.smi:3278
    42    43     1
SMALL
NO_CHARGES


@<TRIPOS>ATOM
      1 ****        -4.1266  -1.2202  -3.1116 C.3            1 S1                 0.0000
      2 ****        -3.2733  -0.3494  -2.3321 N.pl3          1 S1                 0.0000
      3 ****        -3.1004  -0.3122  -0.9655 C.2            1 S1                 0.0000
      4 ****        -2.1931   0.6735  -0.6891 C.2            1 S1                 0.0000
      5 ****        -1.6478   1.1262   0.6491 C.3            1 S1                 0.0000
      6 ****        -2.1390   2.5519   0.9518 C.3            1 S1                 0.0000
      7 ****        -2.1193   0.3271   1.7187 O.3            1 S1                 0.0000
      8 ****        -0.1038   1.0803   0.6881 C.3            1 S1                 0.0000
      9 ****         0.4196  -0.2281   0.2841 N.3            1 S1                 0.0000
     10 ****         1.8792  -0.3424   0.2127 C.3            1 S1                 0.0000
     11 ****         2.5394  -0.2016   1.6046 C.3            1 S1                 0.0000
     12 ****         4.0743  -0.2783   1.5499 C.3            1 S1                 0.0000
     13 ****         4.5805  -1.6125   0.9878 C.3            1 S1                 0.0000
     14 ****         4.0229  -1.8501  -0.7188 S.3            1 S1                 0.0000
     15 ****         2.2390  -1.6919  -0.4358 C.3            1 S1                 0.0000
     16 ****        -1.8701   1.1856  -1.9800 C.2            1 S1                 0.0000
     17 ****        -2.5157   0.5730  -2.9586 N.2            1 S1                 0.0000
     18 ****        -4.7585  -1.8138  -2.4505 H              1 S1                 0.0000
     19 ****        -3.5146  -1.8910  -3.7153 H              1 S1                 0.0000
     20 ****        -4.7624  -0.6257  -3.7685 H              1 S1                 0.0000
     21 ****        -3.6305  -0.9846  -0.3072 H              1 S1                 0.0000
     22 ****        -1.7961   3.2585   0.1952 H              1 S1                 0.0000
     23 ****        -1.7732   2.9049   1.9167 H              1 S1                 0.0000
     24 ****        -3.2285   2.5997   0.9745 H              1 S1                 0.0000
     25 ****        -1.7590   0.6631   2.5250 H              1 S1                 0.0000
     26 ****         0.2942   1.8438   0.0184 H              1 S1                 0.0000
     27 ****         0.2345   1.3439   1.6897 H              1 S1                 0.0000
     28 ****         0.0445  -0.9465   0.8954 H              1 S1                 0.0000
     29 ****         2.2588   0.4511  -0.4324 H              1 S1                 0.0000
     30 ****         2.2774   0.7538   2.0568 H              1 S1                 0.0000
     31 ****         2.1584  -0.9725   2.2759 H              1 S1                 0.0000
     32 ****         4.4629   0.5449   0.9495 H              1 S1                 0.0000
     33 ****         4.4754  -0.1382   2.5539 H              1 S1                 0.0000
     34 ****         5.6701  -1.6422   1.0069 H              1 S1                 0.0000
     35 ****         4.2258  -2.4430   1.5987 H              1 S1                 0.0000
     36 ****         1.9061  -2.5212   0.1899 H              1 S1                 0.0000
     37 ****         1.7352  -1.7969  -1.3971 H              1 S1                 0.0000
     38 ****        -1.1852   1.9819  -2.2318 H              1 S1                 0.0000
     39 ****        -1.8264  -0.6199   1.5870 LP             1 S1                 0.0000
     40 ****        -3.1180   0.3652   1.7537 LP             1 S1                 0.0000
     41 ****         0.1130  -0.3498  -0.6599 LP             1 S1                 0.0000
     42 ****        -2.4555   0.7532  -3.9404 LP             1 S1                 0.0000
@<TRIPOS>BOND
    1    1    2 1     
    2    1   18 1     
    3    1   19 1     
    4    1   20 1     
    5    2   17 1     
    6    2    3 1     
    7    3    4 2     
    8    3   21 1     
    9    4    5 1     
   10    4   16 1     
   11    5    6 1     
   12    5    7 1     
   13    5    8 1     
   14    6   22 1     
   15    6   23 1     
   16    6   24 1     
   17    7   25 1     
   18    8    9 1     
   19    8   26 1     
   20    8   27 1     
   21    9   10 1     
   22    9   28 1     
   23   10   15 1     
   24   10   11 1     
   25   10   29 1     
   26   11   12 1     
   27   11   30 1     
   28   11   31 1     
   29   12   13 1     
   30   12   32 1     
   31   12   33 1     
   32   13   14 1     
   33   13   34 1     
   34   13   35 1     
   35   14   15 1     
   36   15   36 1     
   37   15   37 1     
   38   16   17 2     
   39   16   38 1     
   40    7   39 1     
   41    7   40 1     
   42    9   41 1     
   43   17   42 1     
@<TRIPOS>SUBSTRUCTURE
      1 S1             1
@<TRIPOS>SET
LONE_PAIRS      STATIC     ATOMS    <user>   **** ""
4 39 40 41 42
DONOR_HYDROGENS      STATIC     ATOMS    <user>   **** ""
2 25 28
ATOM$BLUE        STATIC     ATOMS    COLORGROUP SYSTEM
4 39 40 41 42
ATOM$RED        STATIC     ATOMS    COLORGROUP SYSTEM
2 25 28
