AV-unprocessed.smi:72|AV-procd|sdf|686|dock1
  -GOLD-   2262017 03D 1   1.00000     0.00000
 Structure written by MMmdl.
 29 30  0  0  0  0  0  0  0  0  1 V2000
  145.6636  132.1233  154.8564 N   0  0  0  0  0  0  0  0  0  0  0  0
  145.7012  133.3714  154.5540 C   0  0  0  0  0  0  0  0  0  0  0  0
  146.8654  134.1070  154.2851 N   0  0  0  0  0  0  0  0  0  0  0  0
  146.7506  135.3674  153.9990 C   0  0  0  0  0  0  0  0  0  0  0  0
  145.4600  136.0380  153.9544 N   0  0  0  0  0  0  0  0  0  0  0  0
  145.3624  137.5122  153.6227 C   0  0  1  0  0  0  0  0  0  0  0  0
  146.1765  138.2181  154.5073 O   0  0  0  0  0  0  0  0  0  0  0  0
  146.7564  139.3203  153.8254 C   0  0  1  0  0  0  0  0  0  0  0  0
  148.0273  139.7779  154.5570 C   0  0  0  0  0  0  0  0  0  0  0  0
  148.6980  140.7592  153.7953 O   0  0  0  0  0  0  0  0  0  0  0  0
  147.0252  138.7484  152.4299 C   0  0  2  0  0  0  0  0  0  0  0  0
  147.0814  139.7853  151.4714 O   0  0  0  0  0  0  0  0  0  0  0  0
  145.8154  137.8545  152.1847 C   0  0  1  0  0  0  0  0  0  0  0  0
  146.1689  136.7356  151.3914 O   0  0  0  0  0  0  0  0  0  0  0  0
  144.2741  135.3052  154.2027 C   0  0  0  0  0  0  0  0  0  0  0  0
  143.1552  135.8143  154.1432 O   0  0  0  0  0  0  0  0  0  0  0  0
  144.4499  133.9996  154.5001 N   0  0  0  0  0  0  0  0  0  0  0  0
  144.3313  137.8123  153.8142 H   0  0  0  0  0  0  0  0  0  0  0  0
  146.0219  140.1261  153.7616 H   0  0  0  0  0  0  0  0  0  0  0  0
  147.9491  138.1670  152.4295 H   0  0  0  0  0  0  0  0  0  0  0  0
  145.0050  138.4054  151.7050 H   0  0  0  0  0  0  0  0  0  0  0  0
  144.7077  131.8309  155.0005 H   0  0  0  0  0  0  0  0  0  0  0  0
  147.6071  136.0029  153.7690 H   0  0  0  0  0  0  0  0  0  0  0  0
  147.7978  140.1585  155.5527 H   0  0  0  0  0  0  0  0  0  0  0  0
  148.7112  138.9378  154.6810 H   0  0  0  0  0  0  0  0  0  0  0  0
  148.7556  140.4586  152.9012 H   0  0  0  0  0  0  0  0  0  0  0  0
  147.9710  140.1012  151.4272 H   0  0  0  0  0  0  0  0  0  0  0  0
  147.1032  136.6082  151.4548 H   0  0  0  0  0  0  0  0  0  0  0  0
  143.6264  133.4466  154.6871 H   0  0  0  0  0  0  0  0  0  0  0  0
  1  2  2  0  0  0  0
  1 22  1  0  0  0  0
  2 17  1  0  0  0  0
  2  3  1  0  0  0  0
  3  4  2  0  0  0  0
  4  5  1  0  0  0  0
  4 23  1  0  0  0  0
  5  6  1  0  0  0  0
  5 15  1  0  0  0  0
  6 18  1  0  0  0  0
  6 13  1  0  0  0  0
  6  7  1  0  0  0  0
  7  8  1  0  0  0  0
  8 19  1  0  0  0  0
  8  9  1  0  0  0  0
  8 11  1  0  0  0  0
  9 10  1  0  0  0  0
  9 24  1  0  0  0  0
  9 25  1  0  0  0  0
 10 26  1  0  0  0  0
 11 20  1  0  0  0  0
 11 12  1  0  0  0  0
 11 13  1  0  0  0  0
 12 27  1  0  0  0  0
 13 21  1  0  0  0  0
 13 14  1  0  0  0  0
 14 28  1  0  0  0  0
 15 16  2  0  0  0  0
 15 17  1  0  0  0  0
 17 29  1  0  0  0  0
M  END
> <s_m_source_file>
AV-unprocessed.smi

> <i_m_source_file_index>
72

> <i_lp_mmshare_version>
43012

> <i_f3d_flags>
0

> <s_epik_input>
W05IMl1jMW5bY0hdbihjKD1PKW4xKVtDQEBIXTJPW0NASF0oW0NIMl1bT0hdKVtDQEBIXShbT0hdKVtDQEhdMltPSF0=

> <s_epik_cmdline>
J2VwaWtfcHl0aG9uJywgJy1waCcsICc3LjAnLCAnLXRuJywgJzgnLCAnLW1hJywgJzIwMCcsICctbWV0YWxfYmluZGluZycsICctaW1hZScsICc8aW5maWxlLm1hZT4nLCAnLW9tYWUnLCAnPG91dGZpbGUubWFlPic=

> <r_lp_tautomer_probability>
7.17554e-07

> <r_epik_Ionization_Penalty>
0.0066451

> <r_epik_Ionization_Penalty_Charging>
0.00663793

> <r_epik_Ionization_Penalty_Neutral>
7.17052e-06

> <r_epik_State_Penalty>
0.419231

> <r_epik_Charging_Adjusted_Penalty>
0.425868

> <i_epik_Tot_Q>
0

> <i_epik_Tot_abs_Q>
0

> <r_epik_Metal_State_Penalty>
1.44144

> <b_epik_Metal_Only>
0

> <s_epik_Chemistry_Notes>
This compound contains an acetal/aminal-like group ( X-CH(R)-Y where X, Y are N, S, or O) that may be acid/base labile, releasing an aldehyde.

> <s_lp_Force_Field>
OPLS_2005

> <r_lp_Energy>
42.1084

> <b_lp_Chiralities_Consistent>
1

> <s_lp_Variant>
AV-unprocessed.smi:72-24

> <Gold.Version>
5.8.1

> <Gold.Id.Protein>
6NUR|6NUR_protein|mol2

> <Gold.PLP.Fitness>
33.0717

> <Gold.PLP.PLP>
-15.1129

> <Gold.PLP.part.hbond>
-4.9151

> <Gold.PLP.part.metal>
0.0000

> <Gold.PLP.part.buried>
-0.9145

> <Gold.PLP.part.nonpolar>
-9.0351

> <Gold.PLP.part.repulsive>
0.1979

> <Gold.PLP.ligand.clash>
0.0000

> <Gold.PLP.ligand.torsion>
0.0737

> <Gold.PLP.Chemscore.Hbond>
4.9913

> <Gold.PLP.Chemscore.CHOScore>
1.0000

> <Gold.PLP.Chemscore.Metal>
0.0000

> <Gold.Chemscore.Hbonds>
donor molecule, donor type, donor heavy atom, donor atom, acceptor molecule, acceptor atom, score
      L1  H     1    22       P1 10957  0.95
      L1  H    10    26       P1  7957  1.00
      L1  H    12    27       P1  7957  1.00
      L1  H    14    28       P1  7948  1.00
      L1  H    17    29       P1 10957  1.00
      L1  C     4    23       P1  7948  1.00

> <Gold.PLP.Chemscore.Internal.Correction>
0.1324

> <Gold.Rescore>
     Score         DG    S(hbond)    S(metal)    S(lipo)     H(rot)  DE(clash)    DE(int)     intcor
     12.96     -13.39       4.58        0.00      25.73       4.06       0.17       0.26       ----

> <Gold.Chemscore.Fitness>
12.9615

> <Gold.Chemscore.DG>
-13.3934

> <Gold.Chemscore.ZeroCoef>
-5.4800

> <Gold.Chemscore.Hbond>
4.5798

> <Gold.Chemscore.Metal>
0.0000

> <Gold.Chemscore.Lipo>
25.7315

> <Gold.Chemscore.Internal_Hbond>
0.0000

> <Gold.Chemscore.DEClash>
0.1739

> <Gold.Chemscore.DEInternal>
0.2580

> <Gold.Chemscore.Rot>
4.0600

> <Gold.Chemscore.Internal.Correction>
   9.000000E+99

> <Gold.Chemscore.Hbonds>
donor molecule, donor type, donor heavy atom, donor atom, acceptor molecule, acceptor atom, score
      L1  H     1    22       P1 10957  0.20
      L1  H    10    26       P1  7957  0.97
      L1  H    12    27       P1  7957  0.98
      L1  H    14    28       P1  7948  1.00
      L1  H    17    29       P1 10957  0.96

> <Gold.Chemscore.Hbond.Weighted>
-15.2964

> <Gold.Chemscore.Metal.Weighted>
-0.0000

> <Gold.Chemscore.Lipo.Weighted>
-3.0106

> <Gold.Chemscore.Internal_Hbond.Weighted>
0.0000

> <Gold.Chemscore.DEClash.Weighted>
0.1739

> <Gold.Chemscore.DEInternal.Weighted>
0.2580

> <Gold.Chemscore.Rot.Weighted>
10.3936

> <Gold.Chemscore.Internal.Correction.Weighted>
   9.000000E+99

> <Gold.Protein.RotatedTorsions>
[ 6907 6896 6895 6894 ] final    6.98 input  -60.11 | X-H torsion
[ 7974 7965 7964 7962 ] final -143.46 input  175.53 | X-H torsion
[ 8008 7997 7996 7995 ] final  -76.72 input   59.86 | X-H torsion
[ 10167 10162 10161 10158 ] final   27.29 input  -65.29 | X-H torsion
[ 10718 10713 10712 10709 ] final   18.01 input   66.30 | X-H torsion
[ 10763 10752 10751 10750 ] final   53.92 input  -60.55 | X-H torsion
[ 11005 11000 10999 10996 ] final   23.27 input  -57.11 | X-H torsion

> <Gold.Protein.ActiveResidues>
 VAL166  LYS551  ARG553  GLY616  TRP617  ASP618  TYR619  PRO620  LYS621  CYS622 
 ASP623  PHE694  ASN695  SER759  ASP760  ASP761  ALA762  ILE779  LEU786  VAL792 
 PHE793  MET794  SER795  GLU796  ALA797  LYS798  CYS799  TRP800  GLU811  SER814 

> <Gold.Protein.RotatedAtoms>
  151.6825  135.0959  160.0218 H   0  0  0  0  0  0  0  0  0  0  0  0  # atno 6907 bound_to 6896
  152.3827  133.6563  159.6182 H   0  0  0  0  0  0  0  0  0  0  0  0  # atno 6908 bound_to 6896
  150.7760  133.9004  159.3381 H   0  0  0  0  0  0  0  0  0  0  0  0  # atno 6909 bound_to 6896
  144.8368  140.5831  143.5479 H   0  0  0  0  0  0  0  0  0  0  0  0  # atno 7974 bound_to 7965
  154.5530  140.0722  156.8699 H   0  0  0  0  0  0  0  0  0  0  0  0  # atno 8008 bound_to 7997
  155.2955  140.3381  155.4232 H   0  0  0  0  0  0  0  0  0  0  0  0  # atno 8009 bound_to 7997
  156.1978  140.1710  156.7948 H   0  0  0  0  0  0  0  0  0  0  0  0  # atno 8010 bound_to 7997
  140.4951  144.0405  150.6311 H   0  0  0  0  0  0  0  0  0  0  0  0  # atno 10167 bound_to 10162
  157.0903  130.6425  149.5847 H   0  0  0  0  0  0  0  0  0  0  0  0  # atno 10718 bound_to 10713
  152.9799  135.5762  154.4819 H   0  0  0  0  0  0  0  0  0  0  0  0  # atno 10763 bound_to 10752
  154.4367  135.2775  155.1878 H   0  0  0  0  0  0  0  0  0  0  0  0  # atno 10764 bound_to 10752
  154.3563  135.6198  153.5722 H   0  0  0  0  0  0  0  0  0  0  0  0  # atno 10765 bound_to 10752
  140.3714  134.2018  155.7666 H   0  0  0  0  0  0  0  0  0  0  0  0  # atno 11005 bound_to 11000
  145.4779  139.1498  143.3778 LP  0  0  0  0  0  0  0  0  0  0  0  0  # atno 17320 bound_to 7965
  146.2665  140.4914  142.8832 LP  0  0  0  0  0  0  0  0  0  0  0  0  # atno 17321 bound_to 7965
  140.3685  143.2868  152.0305 LP  0  0  0  0  0  0  0  0  0  0  0  0  # atno 17342 bound_to 10162
  139.4859  144.6248  151.7185 LP  0  0  0  0  0  0  0  0  0  0  0  0  # atno 17343 bound_to 10162
  155.9900  130.4949  150.7237 LP  0  0  0  0  0  0  0  0  0  0  0  0  # atno 17370 bound_to 10713
  157.4727  131.0894  151.0625 LP  0  0  0  0  0  0  0  0  0  0  0  0  # atno 17371 bound_to 10713
  141.1953  133.8108  157.0720 LP  0  0  0  0  0  0  0  0  0  0  0  0  # atno 17394 bound_to 11000
  140.0549  134.9786  157.1202 LP  0  0  0  0  0  0  0  0  0  0  0  0  # atno 17395 bound_to 11000

$$$$
