AV-unprocessed.smi:700|AV-procd|sdf|3407|dock1
  -GOLD-   22720 0383D 1   1.00000     0.00000
 Structure written by MMmdl.
 43 44  0  0  0  0  0  0  0  0  1 V2000
  150.4240  141.8073  156.4449 C   0  0  0  0  0  0  0  0  0  0  0  0
  151.2465  140.5721  156.3076 C   0  0  0  0  0  0  0  0  0  0  0  0
  151.8612  139.7581  157.2156 C   0  0  0  0  0  0  0  0  0  0  0  0
  152.4675  138.7533  156.4113 C   0  0  0  0  0  0  0  0  0  0  0  0
  153.2902  137.5711  156.8551 C   0  0  0  0  0  0  0  0  0  0  0  0
  154.4987  137.9926  157.7011 C   0  0  0  0  0  0  0  0  0  0  0  0
  155.6463  137.9137  157.2590 O   0  0  0  0  0  0  0  0  0  0  0  0
  154.2208  138.4323  158.9383 N   0  0  0  0  0  0  0  0  0  0  0  0
  155.2097  138.8715  159.9164 C   0  0  0  0  0  0  0  0  0  0  0  0
  154.6653  140.0019  160.8059 C   0  0  0  0  0  0  0  0  0  0  0  0
  153.6946  140.9265  160.0575 C   0  0  0  0  0  0  0  0  0  0  0  0
  153.3035  142.1595  160.8875 C   0  0  0  0  0  0  0  0  0  0  0  0
  152.2201  143.0260  160.2215 C   0  0  0  0  0  0  0  0  0  0  0  0
  152.7146  143.7642  158.9761 C   0  0  0  0  0  0  0  0  0  0  0  0
  151.6869  144.8759  158.7517 C   0  0  0  0  0  0  0  0  0  0  0  0
  151.1083  145.2020  160.1363 C   0  0  0  0  0  0  0  0  0  0  0  0
  151.6808  144.1577  161.1043 C   0  0  0  0  0  0  0  0  0  0  0  0
  152.2441  138.9576  155.1223 N   0  0  0  0  0  0  0  0  0  0  0  0
  151.4614  140.1151  155.0473 O   0  0  0  0  0  0  0  0  0  0  0  0
  150.5904  142.2792  157.4133 H   0  0  0  0  0  0  0  0  0  0  0  0
  149.3625  141.5748  156.3601 H   0  0  0  0  0  0  0  0  0  0  0  0
  150.6762  142.5311  155.6696 H   0  0  0  0  0  0  0  0  0  0  0  0
  151.8709  139.8603  158.2903 H   0  0  0  0  0  0  0  0  0  0  0  0
  152.6753  136.8743  157.4267 H   0  0  0  0  0  0  0  0  0  0  0  0
  153.6534  137.0222  155.9858 H   0  0  0  0  0  0  0  0  0  0  0  0
  153.2528  138.4644  159.2239 H   0  0  0  0  0  0  0  0  0  0  0  0
  155.5339  138.0259  160.5257 H   0  0  0  0  0  0  0  0  0  0  0  0
  156.0891  139.2173  159.3727 H   0  0  0  0  0  0  0  0  0  0  0  0
  154.1594  139.5721  161.6712 H   0  0  0  0  0  0  0  0  0  0  0  0
  155.4946  140.5932  161.1958 H   0  0  0  0  0  0  0  0  0  0  0  0
  154.1505  141.2509  159.1213 H   0  0  0  0  0  0  0  0  0  0  0  0
  152.8004  140.3638  159.7877 H   0  0  0  0  0  0  0  0  0  0  0  0
  152.9678  141.8468  161.8772 H   0  0  0  0  0  0  0  0  0  0  0  0
  154.1931  142.7699  161.0486 H   0  0  0  0  0  0  0  0  0  0  0  0
  151.3847  142.3896  159.9242 H   0  0  0  0  0  0  0  0  0  0  0  0
  153.6932  144.2067  159.1686 H   0  0  0  0  0  0  0  0  0  0  0  0
  152.8126  143.1074  158.1112 H   0  0  0  0  0  0  0  0  0  0  0  0
  152.1309  145.7489  158.2719 H   0  0  0  0  0  0  0  0  0  0  0  0
  150.8907  144.5147  158.0998 H   0  0  0  0  0  0  0  0  0  0  0  0
  151.3755  146.2107  160.4535 H   0  0  0  0  0  0  0  0  0  0  0  0
  150.0194  145.1474  160.1096 H   0  0  0  0  0  0  0  0  0  0  0  0
  150.9360  143.8075  161.8197 H   0  0  0  0  0  0  0  0  0  0  0  0
  152.4961  144.6055  161.6744 H   0  0  0  0  0  0  0  0  0  0  0  0
  1  2  1  0  0  0  0
  1 20  1  0  0  0  0
  1 21  1  0  0  0  0
  1 22  1  0  0  0  0
  2 19  1  0  0  0  0
  2  3  2  0  0  0  0
  3  4  1  0  0  0  0
  3 23  1  0  0  0  0
  4  5  1  0  0  0  0
  4 18  2  0  0  0  0
  5  6  1  0  0  0  0
  5 24  1  0  0  0  0
  5 25  1  0  0  0  0
  6  7  2  0  0  0  0
  6  8  1  0  0  0  0
  8  9  1  0  0  0  0
  8 26  1  0  0  0  0
  9 10  1  0  0  0  0
  9 27  1  0  0  0  0
  9 28  1  0  0  0  0
 10 11  1  0  0  0  0
 10 29  1  0  0  0  0
 10 30  1  0  0  0  0
 11 12  1  0  0  0  0
 11 31  1  0  0  0  0
 11 32  1  0  0  0  0
 12 13  1  0  0  0  0
 12 33  1  0  0  0  0
 12 34  1  0  0  0  0
 13 17  1  0  0  0  0
 13 14  1  0  0  0  0
 13 35  1  0  0  0  0
 14 15  1  0  0  0  0
 14 36  1  0  0  0  0
 14 37  1  0  0  0  0
 15 16  1  0  0  0  0
 15 38  1  0  0  0  0
 15 39  1  0  0  0  0
 16 17  1  0  0  0  0
 16 40  1  0  0  0  0
 16 41  1  0  0  0  0
 17 42  1  0  0  0  0
 17 43  1  0  0  0  0
 18 19  1  0  0  0  0
M  END
> <s_m_source_file>
AV-unprocessed.smi

> <i_m_source_file_index>
700

> <i_lp_mmshare_version>
43012

> <i_f3d_flags>
0

> <s_epik_input>
W0NIM11jMVtjSF1jKG5vMSlbQ0gyXUMoPU8pW05IXVtDSDJdW0NIMl1bQ0gyXVtDSDJdW0NIXTJbQ0gyXVtDSDJdW0NIMl1bQ0gyXTI=

> <s_epik_cmdline>
J2VwaWtfcHl0aG9uJywgJy1waCcsICc3LjAnLCAnLXRuJywgJzgnLCAnLW1hJywgJzIwMCcsICctbWV0YWxfYmluZGluZycsICctaW1hZScsICc8aW5maWxlLm1hZT4nLCAnLW9tYWUnLCAnPG91dGZpbGUubWFlPic=

> <r_lp_tautomer_probability>
1

> <r_epik_Ionization_Penalty>
7.08657e-08

> <r_epik_Ionization_Penalty_Charging>
0

> <r_epik_Ionization_Penalty_Neutral>
7.08657e-08

> <r_epik_State_Penalty>
-0

> <r_epik_Charging_Adjusted_Penalty>
0

> <i_epik_Tot_Q>
0

> <i_epik_Tot_abs_Q>
0

> <r_epik_Metal_State_Penalty>
-0

> <b_epik_Metal_Only>
0

> <s_lp_Force_Field>
OPLS_2005

> <r_lp_Energy>
19.5762

> <b_lp_Chiralities_Consistent>
1

> <s_lp_Variant>
AV-unprocessed.smi:700-1

> <Gold.Version>
5.8.1

> <Gold.Id.Protein>
6NUR|6NUR_protein|mol2

> <Gold.PLP.Fitness>
46.2586

> <Gold.PLP.PLP>
-44.2579

> <Gold.PLP.part.hbond>
-1.8903

> <Gold.PLP.part.metal>
0.0000

> <Gold.PLP.part.buried>
-5.5538

> <Gold.PLP.part.nonpolar>
-37.0455

> <Gold.PLP.part.repulsive>
0.1289

> <Gold.PLP.ligand.clash>
0.0000

> <Gold.PLP.ligand.torsion>
0.5290

> <Gold.PLP.Chemscore.Hbond>
1.0000

> <Gold.PLP.Chemscore.CHOScore>
0.0000

> <Gold.PLP.Chemscore.Metal>
0.0000

> <Gold.Chemscore.Hbonds>
donor molecule, donor type, donor heavy atom, donor atom, acceptor molecule, acceptor atom, score
      P1  H  7989  7998       L1    19  1.00
      P1  H  7997  8008       L1     7  0.13

> <Gold.PLP.Chemscore.Internal.Correction>
0.0588

> <Gold.Rescore>
     Score         DG    S(hbond)    S(metal)    S(lipo)     H(rot)  DE(clash)    DE(int)     intcor
     18.39     -18.99       0.97        0.00     127.91       1.84       0.07       0.53       ----

> <Gold.Chemscore.Fitness>
18.3911

> <Gold.Chemscore.DG>
-18.9870

> <Gold.Chemscore.ZeroCoef>
-5.4800

> <Gold.Chemscore.Hbond>
0.9735

> <Gold.Chemscore.Metal>
0.0000

> <Gold.Chemscore.Lipo>
127.9127

> <Gold.Chemscore.Internal_Hbond>
0.0000

> <Gold.Chemscore.DEClash>
0.0670

> <Gold.Chemscore.DEInternal>
0.5289

> <Gold.Chemscore.Rot>
1.8399

> <Gold.Chemscore.Internal.Correction>
   9.000000E+99

> <Gold.Chemscore.Hbonds>
donor molecule, donor type, donor heavy atom, donor atom, acceptor molecule, acceptor atom, score
      P1  H  7989  7998       L1    19  0.73
      P1  H  7997  8008       L1     7  0.01

> <Gold.Chemscore.Hbond.Weighted>
-3.2515

> <Gold.Chemscore.Metal.Weighted>
-0.0000

> <Gold.Chemscore.Lipo.Weighted>
-14.9658

> <Gold.Chemscore.Internal_Hbond.Weighted>
0.0000

> <Gold.Chemscore.DEClash.Weighted>
0.0670

> <Gold.Chemscore.DEInternal.Weighted>
0.5289

> <Gold.Chemscore.Rot.Weighted>
4.7103

> <Gold.Chemscore.Internal.Correction.Weighted>
   9.000000E+99

> <Gold.Protein.RotatedTorsions>
[ 6907 6896 6895 6894 ] final  107.85 input  -60.11 | X-H torsion
[ 7974 7965 7964 7962 ] final -169.44 input  175.53 | X-H torsion
[ 8008 7997 7996 7995 ] final -161.73 input   59.86 | X-H torsion
[ 10167 10162 10161 10158 ] final  -83.78 input  -65.29 | X-H torsion
[ 10718 10713 10712 10709 ] final  -22.25 input   66.30 | X-H torsion
[ 10763 10752 10751 10750 ] final   97.51 input  -60.55 | X-H torsion
[ 11005 11000 10999 10996 ] final   95.56 input  -57.11 | X-H torsion

> <Gold.Protein.ActiveResidues>
 VAL166  LYS551  ARG553  GLY616  TRP617  ASP618  TYR619  PRO620  LYS621  CYS622 
 ASP623  PHE694  ASN695  SER759  ASP760  ASP761  ALA762  ILE779  LEU786  VAL792 
 PHE793  MET794  SER795  GLU796  ALA797  LYS798  CYS799  TRP800  GLU811  SER814 

> <Gold.Protein.RotatedAtoms>
  152.5137  133.9174  159.7517 H   0  0  0  0  0  0  0  0  0  0  0  0  # atno 6907 bound_to 6896
  150.9553  133.6496  159.2771 H   0  0  0  0  0  0  0  0  0  0  0  0  # atno 6908 bound_to 6896
  151.3760  135.0936  159.9533 H   0  0  0  0  0  0  0  0  0  0  0  0  # atno 6909 bound_to 6896
  144.7185  140.2221  143.6314 H   0  0  0  0  0  0  0  0  0  0  0  0  # atno 7974 bound_to 7965
  155.7965  140.0885  157.1980 H   0  0  0  0  0  0  0  0  0  0  0  0  # atno 8008 bound_to 7997
  154.3983  140.1480  156.3283 H   0  0  0  0  0  0  0  0  0  0  0  0  # atno 8009 bound_to 7997
  155.8506  140.3435  155.5693 H   0  0  0  0  0  0  0  0  0  0  0  0  # atno 8010 bound_to 7997
  140.4194  143.2590  151.8910 H   0  0  0  0  0  0  0  0  0  0  0  0  # atno 10167 bound_to 10162
  156.5071  130.4601  149.6668 H   0  0  0  0  0  0  0  0  0  0  0  0  # atno 10718 bound_to 10713
  153.2778  135.4181  155.1049 H   0  0  0  0  0  0  0  0  0  0  0  0  # atno 10763 bound_to 10752
  154.8479  135.3488  154.6154 H   0  0  0  0  0  0  0  0  0  0  0  0  # atno 10764 bound_to 10752
  153.6575  135.7050  153.5246 H   0  0  0  0  0  0  0  0  0  0  0  0  # atno 10765 bound_to 10752
  139.8788  134.8905  156.4029 H   0  0  0  0  0  0  0  0  0  0  0  0  # atno 11005 bound_to 11000
  145.8491  139.2166  143.1783 LP  0  0  0  0  0  0  0  0  0  0  0  0  # atno 17320 bound_to 7965
  146.0277  140.8288  142.9891 LP  0  0  0  0  0  0  0  0  0  0  0  0  # atno 17321 bound_to 7965
  139.4782  144.5453  151.8467 LP  0  0  0  0  0  0  0  0  0  0  0  0  # atno 17342 bound_to 10162
  140.4550  144.1802  150.5900 LP  0  0  0  0  0  0  0  0  0  0  0  0  # atno 17343 bound_to 10162
  156.3276  130.7314  151.2237 LP  0  0  0  0  0  0  0  0  0  0  0  0  # atno 17370 bound_to 10713
  157.7455  131.0439  150.4765 LP  0  0  0  0  0  0  0  0  0  0  0  0  # atno 17371 bound_to 10713
  140.9254  133.7616  155.9958 LP  0  0  0  0  0  0  0  0  0  0  0  0  # atno 17394 bound_to 11000
  140.8391  134.3087  157.5320 LP  0  0  0  0  0  0  0  0  0  0  0  0  # atno 17395 bound_to 11000

$$$$
