AV-unprocessed.smi:24|AV-procd|sdf|176|dock10
  -GOLD-   2262015433D 1   1.00000     0.00000
 Structure written by MMmdl.
 61 65  0  0  0  0  0  0  0  0  1 V2000
  149.1853  128.3495  160.2378 C   0  0  0  0  0  0  0  0  0  0  0  0
  149.5218  128.0569  158.8896 O   0  0  0  0  0  0  0  0  0  0  0  0
  149.6020  129.1059  157.9991 C   0  0  0  0  0  0  0  0  0  0  0  0
  149.9374  128.7921  156.6664 C   0  0  0  0  0  0  0  0  0  0  0  0
  150.0404  129.8018  155.6907 C   0  0  0  0  0  0  0  0  0  0  0  0
  149.8135  131.1496  156.0349 C   0  0  0  0  0  0  0  0  0  0  0  0
  149.9194  132.2310  154.9609 C   0  0  1  0  0  0  0  0  0  0  0  0
  148.9411  131.9920  153.8076 C   0  0  0  0  0  0  0  0  0  0  0  0
  148.1395  133.2502  153.8268 C   0  0  0  0  0  0  0  0  0  0  0  0
  147.0194  133.4726  152.8855 C   0  0  0  0  0  0  0  0  0  0  0  0
  146.6636  132.4513  151.9753 C   0  0  0  0  0  0  0  0  0  0  0  0
  145.5979  132.6625  151.0785 C   0  0  0  0  0  0  0  0  0  0  0  0
  144.8937  133.8828  151.0913 C   0  0  0  0  0  0  0  0  0  0  0  0
  145.2515  134.8975  152.0011 C   0  0  0  0  0  0  0  0  0  0  0  0
  146.3155  134.6981  152.9028 C   0  0  0  0  0  0  0  0  0  0  0  0
  148.5132  134.0887  154.7212 N   0  0  0  0  0  0  0  0  0  0  0  0
  149.5641  133.5823  155.4142 N   0  0  0  0  0  0  0  0  0  0  0  0
  150.2534  134.2889  156.3372 C   0  0  0  0  0  0  0  0  0  0  0  0
  151.2692  133.8418  156.8734 O   0  0  0  0  0  0  0  0  0  0  0  0
  149.7409  135.6960  156.7121 C   0  0  0  0  0  0  0  0  0  0  0  0
  150.8159  136.7072  156.8135 N   0  0  0  0  0  0  0  0  0  0  0  0
  151.4916  137.1013  155.6321 C   0  0  0  0  0  0  0  0  0  0  0  0
  151.2048  136.6115  154.5386 O   0  0  0  0  0  0  0  0  0  0  0  0
  152.5253  138.1153  155.8067 C   0  0  0  0  0  0  0  0  0  0  0  0
  153.2291  138.5378  154.7427 F   0  0  0  0  0  0  0  0  0  0  0  0
  152.7890  138.6378  157.0221 C   0  0  0  0  0  0  0  0  0  0  0  0
  152.1071  138.2577  158.1647 N   0  0  0  0  0  0  0  0  0  0  0  0
  152.4094  138.8586  159.5218 C   0  0  2  0  0  0  0  0  0  0  0  0
  152.1478  140.3773  159.5141 C   0  0  0  0  0  0  0  0  0  0  0  0
  153.4424  140.9438  160.0624 C   0  0  0  0  0  0  0  0  0  0  0  0
  154.4560  139.9012  159.6159 C   0  0  0  0  0  0  0  0  0  0  0  0
  153.7625  138.6794  159.8319 O   0  0  0  0  0  0  0  0  0  0  0  0
  151.1022  137.2697  158.0801 C   0  0  0  0  0  0  0  0  0  0  0  0
  150.4852  136.9152  159.0872 O   0  0  0  0  0  0  0  0  0  0  0  0
  149.4715  131.4715  157.3665 C   0  0  0  0  0  0  0  0  0  0  0  0
  149.3682  130.4612  158.3418 C   0  0  0  0  0  0  0  0  0  0  0  0
  149.1577  127.4229  160.8111 H   0  0  0  0  0  0  0  0  0  0  0  0
  148.1998  128.8115  160.3107 H   0  0  0  0  0  0  0  0  0  0  0  0
  149.9261  129.0023  160.7017 H   0  0  0  0  0  0  0  0  0  0  0  0
  150.1171  127.7640  156.3883 H   0  0  0  0  0  0  0  0  0  0  0  0
  150.2965  129.5365  154.6756 H   0  0  0  0  0  0  0  0  0  0  0  0
  150.9403  132.2549  154.5742 H   0  0  0  0  0  0  0  0  0  0  0  0
  149.4638  131.8688  152.8585 H   0  0  0  0  0  0  0  0  0  0  0  0
  148.3063  131.1206  153.9743 H   0  0  0  0  0  0  0  0  0  0  0  0
  147.1921  131.5092  151.9496 H   0  0  0  0  0  0  0  0  0  0  0  0
  145.3204  131.8874  150.3796 H   0  0  0  0  0  0  0  0  0  0  0  0
  144.0775  134.0409  150.4019 H   0  0  0  0  0  0  0  0  0  0  0  0
  144.7085  135.8313  152.0074 H   0  0  0  0  0  0  0  0  0  0  0  0
  146.5695  135.4911  153.5903 H   0  0  0  0  0  0  0  0  0  0  0  0
  148.9899  136.0025  155.9822 H   0  0  0  0  0  0  0  0  0  0  0  0
  149.1881  135.6287  157.6505 H   0  0  0  0  0  0  0  0  0  0  0  0
  153.5683  139.3820  157.0823 H   0  0  0  0  0  0  0  0  0  0  0  0
  151.7964  138.3022  160.2331 H   0  0  0  0  0  0  0  0  0  0  0  0
  151.9807  140.7279  158.4943 H   0  0  0  0  0  0  0  0  0  0  0  0
  151.2780  140.6276  160.1217 H   0  0  0  0  0  0  0  0  0  0  0  0
  153.6644  141.9437  159.6890 H   0  0  0  0  0  0  0  0  0  0  0  0
  153.4028  140.9844  161.1518 H   0  0  0  0  0  0  0  0  0  0  0  0
  154.6936  140.0187  158.5576 H   0  0  0  0  0  0  0  0  0  0  0  0
  155.3846  139.9428  160.1853 H   0  0  0  0  0  0  0  0  0  0  0  0
  149.2834  132.4971  157.6485 H   0  0  0  0  0  0  0  0  0  0  0  0
  149.1063  130.7533  159.3473 H   0  0  0  0  0  0  0  0  0  0  0  0
  1  2  1  0  0  0  0
  1 37  1  0  0  0  0
  1 38  1  0  0  0  0
  1 39  1  0  0  0  0
  2  3  1  0  0  0  0
  3 36  1  0  0  0  0
  3  4  2  0  0  0  0
  4  5  1  0  0  0  0
  4 40  1  0  0  0  0
  5  6  2  0  0  0  0
  5 41  1  0  0  0  0
  6  7  1  0  0  0  0
  6 35  1  0  0  0  0
  7 17  1  0  0  0  0
  7  8  1  0  0  0  0
  7 42  1  0  0  0  0
  8  9  1  0  0  0  0
  8 43  1  0  0  0  0
  8 44  1  0  0  0  0
  9 10  1  0  0  0  0
  9 16  2  0  0  0  0
 10 15  1  0  0  0  0
 10 11  2  0  0  0  0
 11 12  1  0  0  0  0
 11 45  1  0  0  0  0
 12 13  2  0  0  0  0
 12 46  1  0  0  0  0
 13 14  1  0  0  0  0
 13 47  1  0  0  0  0
 14 15  2  0  0  0  0
 14 48  1  0  0  0  0
 15 49  1  0  0  0  0
 16 17  1  0  0  0  0
 17 18  1  0  0  0  0
 18 19  2  0  0  0  0
 18 20  1  0  0  0  0
 20 21  1  0  0  0  0
 20 50  1  0  0  0  0
 20 51  1  0  0  0  0
 21 33  1  0  0  0  0
 21 22  1  0  0  0  0
 22 23  2  0  0  0  0
 22 24  1  0  0  0  0
 24 25  1  0  0  0  0
 24 26  2  0  0  0  0
 26 27  1  0  0  0  0
 26 52  1  0  0  0  0
 27 28  1  0  0  0  0
 27 33  1  0  0  0  0
 28 32  1  0  0  0  0
 28 29  1  0  0  0  0
 28 53  1  0  0  0  0
 29 30  1  0  0  0  0
 29 54  1  0  0  0  0
 29 55  1  0  0  0  0
 30 31  1  0  0  0  0
 30 56  1  0  0  0  0
 30 57  1  0  0  0  0
 31 32  1  0  0  0  0
 31 58  1  0  0  0  0
 31 59  1  0  0  0  0
 33 34  2  0  0  0  0
 35 36  2  0  0  0  0
 35 60  1  0  0  0  0
 36 61  1  0  0  0  0
M  END
> <s_m_source_file>
AV-unprocessed.smi

> <i_m_source_file_index>
24

> <i_lp_mmshare_version>
43012

> <i_f3d_flags>
0

> <s_epik_input>
W0NIM11PYzFbY0hdW2NIXWMoW2NIXVtjSF0xKVtDQEBIXTJbQ0gyXUMoYzNbY0hdW2NIXVtjSF1bY0hdW2NIXTMpPU5OMkMoPU8pW0NIMl1uNGMoPU8pYyhGKVtjSF1uKGM0PU8pW0NAQEhdNVtDSDJdW0NIMl1bQ0gyXU81

> <s_epik_cmdline>
J2VwaWtfcHl0aG9uJywgJy1waCcsICc3LjAnLCAnLXRuJywgJzgnLCAnLW1hJywgJzIwMCcsICctbWV0YWxfYmluZGluZycsICctaW1hZScsICc8aW5maWxlLm1hZT4nLCAnLW9tYWUnLCAnPG91dGZpbGUubWFlPic=

> <r_lp_tautomer_probability>
1

> <r_epik_Ionization_Penalty>
1.46326e-08

> <r_epik_Ionization_Penalty_Charging>
4.53232e-09

> <r_epik_Ionization_Penalty_Neutral>
1.01002e-08

> <r_epik_State_Penalty>
-0

> <r_epik_Charging_Adjusted_Penalty>
4.53232e-09

> <i_epik_Tot_Q>
0

> <i_epik_Tot_abs_Q>
0

> <r_epik_Metal_State_Penalty>
-0

> <b_epik_Metal_Only>
0

> <s_epik_Chemistry_Notes>
This compound has an imine and may undergo hydrolysis. This compound contains an acetal/aminal-like group ( X-CH(R)-Y where X, Y are N, S, or O) that may be acid/base labile, releasing an aldehyde.

> <s_lp_Force_Field>
OPLS_2005

> <r_lp_Energy>
50.3667

> <b_lp_Chiralities_Consistent>
1

> <s_lp_Variant>
AV-unprocessed.smi:24-2

> <Gold.Version>
5.8.1

> <Gold.Id.Protein>
6NUR|6NUR_protein|mol2

> <Gold.PLP.Fitness>
50.1825

> <Gold.PLP.PLP>
-45.4753

> <Gold.PLP.part.hbond>
-2.5076

> <Gold.PLP.part.metal>
0.0000

> <Gold.PLP.part.buried>
-3.1094

> <Gold.PLP.part.nonpolar>
-40.0283

> <Gold.PLP.part.repulsive>
0.5042

> <Gold.PLP.ligand.clash>
0.0000

> <Gold.PLP.ligand.torsion>
0.3130

> <Gold.PLP.Chemscore.Hbond>
1.7463

> <Gold.PLP.Chemscore.CHOScore>
0.0000

> <Gold.PLP.Chemscore.Metal>
0.0000

> <Gold.Chemscore.Hbonds>
donor molecule, donor type, donor heavy atom, donor atom, acceptor molecule, acceptor atom, score
      P1  H  6896  6907       L1    19  0.11
      P1  H  6896  6908       L1    34  0.88
      P1  H 10752 10764       L1    23  0.90

> <Gold.PLP.Chemscore.Internal.Correction>
0.0943

> <Gold.Rescore>
     Score         DG    S(hbond)    S(metal)    S(lipo)     H(rot)  DE(clash)    DE(int)     intcor
     14.92     -16.52       1.25        0.00     101.94       1.98       0.33       1.27       ----

> <Gold.Chemscore.Fitness>
14.9245

> <Gold.Chemscore.DG>
-16.5228

> <Gold.Chemscore.ZeroCoef>
-5.4800

> <Gold.Chemscore.Hbond>
1.2490

> <Gold.Chemscore.Metal>
0.0000

> <Gold.Chemscore.Lipo>
101.9410

> <Gold.Chemscore.Internal_Hbond>
0.0000

> <Gold.Chemscore.DEClash>
0.3317

> <Gold.Chemscore.DEInternal>
1.2666

> <Gold.Chemscore.Rot>
1.9750

> <Gold.Chemscore.Internal.Correction>
   9.000000E+99

> <Gold.Chemscore.Hbonds>
donor molecule, donor type, donor heavy atom, donor atom, acceptor molecule, acceptor atom, score
      P1  H  6896  6907       L1    19  0.10
      P1  H  6896  6908       L1    34  0.74
      P1  H 10752 10764       L1    23  0.17

> <Gold.Chemscore.Hbond.Weighted>
-4.1718

> <Gold.Chemscore.Metal.Weighted>
-0.0000

> <Gold.Chemscore.Lipo.Weighted>
-11.9271

> <Gold.Chemscore.Internal_Hbond.Weighted>
0.0000

> <Gold.Chemscore.DEClash.Weighted>
0.3317

> <Gold.Chemscore.DEInternal.Weighted>
1.2666

> <Gold.Chemscore.Rot.Weighted>
5.0561

> <Gold.Chemscore.Internal.Correction.Weighted>
   9.000000E+99

> <Gold.Protein.RotatedTorsions>
[ 6907 6896 6895 6894 ] final -149.86 input  -60.11 | X-H torsion
[ 7974 7965 7964 7962 ] final -133.95 input  175.53 | X-H torsion
[ 8008 7997 7996 7995 ] final  -91.20 input   59.86 | X-H torsion
[ 10167 10162 10161 10158 ] final  121.58 input  -65.29 | X-H torsion
[ 10718 10713 10712 10709 ] final   -8.13 input   66.30 | X-H torsion
[ 10763 10752 10751 10750 ] final  -84.67 input  -60.55 | X-H torsion
[ 11005 11000 10999 10996 ] final   63.48 input  -57.11 | X-H torsion

> <Gold.Protein.ActiveResidues>
 VAL166  LYS551  ARG553  GLY616  TRP617  ASP618  TYR619  PRO620  LYS621  CYS622 
 ASP623  PHE694  ASN695  SER759  ASP760  ASP761  ALA762  ILE779  LEU786  VAL792 
 PHE793  MET794  SER795  GLU796  ALA797  LYS798  CYS799  TRP800  GLU811  SER814 

> <Gold.Protein.RotatedAtoms>
  151.1902  133.4672  159.2594 H   0  0  0  0  0  0  0  0  0  0  0  0  # atno 6907 bound_to 6896
  151.1171  135.0059  159.8531 H   0  0  0  0  0  0  0  0  0  0  0  0  # atno 6908 bound_to 6896
  152.5454  134.1817  159.8691 H   0  0  0  0  0  0  0  0  0  0  0  0  # atno 6909 bound_to 6896
  144.9147  140.6939  143.5003 H   0  0  0  0  0  0  0  0  0  0  0  0  # atno 7974 bound_to 7965
  154.7078  140.0522  157.0521 H   0  0  0  0  0  0  0  0  0  0  0  0  # atno 8008 bound_to 7997
  155.0596  140.3188  155.4646 H   0  0  0  0  0  0  0  0  0  0  0  0  # atno 8009 bound_to 7997
  156.2780  140.2101  156.5723 H   0  0  0  0  0  0  0  0  0  0  0  0  # atno 8010 bound_to 7997
  139.5911  144.7025  151.3288 H   0  0  0  0  0  0  0  0  0  0  0  0  # atno 10167 bound_to 10162
  156.7072  130.5111  149.5901 H   0  0  0  0  0  0  0  0  0  0  0  0  # atno 10718 bound_to 10713
  154.6023  135.5512  153.7387 H   0  0  0  0  0  0  0  0  0  0  0  0  # atno 10763 bound_to 10752
  153.0159  135.6369  154.1697 H   0  0  0  0  0  0  0  0  0  0  0  0  # atno 10764 bound_to 10752
  154.1637  135.2896  155.3081 H   0  0  0  0  0  0  0  0  0  0  0  0  # atno 10765 bound_to 10752
  140.0022  134.6425  155.9913 H   0  0  0  0  0  0  0  0  0  0  0  0  # atno 11005 bound_to 11000
  145.3396  139.1736  143.4493 LP  0  0  0  0  0  0  0  0  0  0  0  0  # atno 17320 bound_to 7965
  146.3176  140.3435  142.8650 LP  0  0  0  0  0  0  0  0  0  0  0  0  # atno 17321 bound_to 7965
  140.7174  143.7230  150.7681 LP  0  0  0  0  0  0  0  0  0  0  0  0  # atno 17342 bound_to 10162
  140.0786  143.4991  152.2542 LP  0  0  0  0  0  0  0  0  0  0  0  0  # atno 17343 bound_to 10162
  156.1687  130.6422  151.0810 LP  0  0  0  0  0  0  0  0  0  0  0  0  # atno 17370 bound_to 10713
  157.6950  131.0797  150.6995 LP  0  0  0  0  0  0  0  0  0  0  0  0  # atno 17371 bound_to 10713
  141.1650  133.6537  156.4448 LP  0  0  0  0  0  0  0  0  0  0  0  0  # atno 17394 bound_to 11000
  140.4707  134.6755  157.5128 LP  0  0  0  0  0  0  0  0  0  0  0  0  # atno 17395 bound_to 11000

$$$$
