AV-unprocessed.smi:560|AV-procd|sdf|2931|dock2
  -GOLD-   2262023423D 1   1.00000     0.00000
 Structure written by MMmdl.
 42 43  0  0  0  0  0  0  0  0  2 V2000
  150.3086  142.1673  157.7983 C   0  0  0  0  0  0  0  0  0  0  0  0
  150.9271  140.8605  158.3356 C   0  0  1  0  0  0  0  0  0  0  0  0
  151.3953  139.9166  157.2159 C   0  0  0  0  0  0  0  0  0  0  0  0
  152.5902  139.6599  157.0647 O   0  0  0  0  0  0  0  0  0  0  0  0
  150.4334  139.4070  156.4295 N   0  0  0  0  0  0  0  0  0  0  0  0
  150.6483  138.4725  155.3257 C   0  0  2  0  0  0  0  0  0  0  0  0
  150.3008  139.1016  153.9617 C   0  0  0  0  0  0  0  0  0  0  0  0
  148.7860  139.3113  153.7954 C   0  0  0  0  0  0  0  0  0  0  0  0
  148.0465  138.0346  153.9833 N   0  3  2  0  0  0  0  0  0  0  0  0
  146.5944  138.1542  153.6920 C   0  0  0  0  0  0  0  0  0  0  0  0
  146.2909  138.2618  152.1939 C   0  0  0  0  0  0  0  0  0  0  0  0
  145.0295  138.0411  151.8170 N   0  0  0  0  0  0  0  0  0  0  0  0
  147.1797  138.5252  151.3861 O   0  0  0  0  0  0  0  0  0  0  0  0
  148.3104  137.4423  155.3196 C   0  0  0  0  0  0  0  0  0  0  0  0
  149.8154  137.1957  155.5348 C   0  0  0  0  0  0  0  0  0  0  0  0
  152.0139  141.1133  159.2752 N   0  0  0  0  0  0  0  0  0  0  0  0
  152.3955  142.3195  159.8273 C   0  0  0  0  0  0  0  0  0  0  0  0
  153.4336  142.0719  160.6788 C   0  0  0  0  0  0  0  0  0  0  0  0
  153.6150  140.6640  160.5898 C   0  0  0  0  0  0  0  0  0  0  0  0
  152.7602  140.0926  159.7577 N   0  0  0  0  0  0  0  0  0  0  0  0
  149.4598  141.9611  157.1454 H   0  0  0  0  0  0  0  0  0  0  0  0
  151.0271  142.7578  157.2280 H   0  0  0  0  0  0  0  0  0  0  0  0
  149.9465  142.7903  158.6164 H   0  0  0  0  0  0  0  0  0  0  0  0
  150.1425  140.3389  158.8860 H   0  0  0  0  0  0  0  0  0  0  0  0
  149.4784  139.6643  156.6310 H   0  0  0  0  0  0  0  0  0  0  0  0
  151.7034  138.1919  155.3260 H   0  0  0  0  0  0  0  0  0  0  0  0
  150.8262  140.0474  153.8266 H   0  0  0  0  0  0  0  0  0  0  0  0
  150.6566  138.4459  153.1659 H   0  0  0  0  0  0  0  0  0  0  0  0
  148.4262  140.0526  154.5107 H   0  0  0  0  0  0  0  0  0  0  0  0
  148.5913  139.7162  152.8019 H   0  0  0  0  0  0  0  0  0  0  0  0
  146.0732  137.2661  154.0516 H   0  0  0  0  0  0  0  0  0  0  0  0
  146.1736  139.0047  154.2309 H   0  0  0  0  0  0  0  0  0  0  0  0
  144.7705  138.1024  150.8428 H   0  0  0  0  0  0  0  0  0  0  0  0
  144.3319  137.8158  152.5123 H   0  0  0  0  0  0  0  0  0  0  0  0
  147.9164  138.1011  156.0951 H   0  0  0  0  0  0  0  0  0  0  0  0
  147.7797  136.4941  155.4121 H   0  0  0  0  0  0  0  0  0  0  0  0
  150.1528  136.4318  154.8328 H   0  0  0  0  0  0  0  0  0  0  0  0
  149.9908  136.7883  156.5314 H   0  0  0  0  0  0  0  0  0  0  0  0
  151.9018  143.2451  159.5711 H   0  0  0  0  0  0  0  0  0  0  0  0
  153.9786  142.7868  161.2771 H   0  0  0  0  0  0  0  0  0  0  0  0
  154.3336  140.0436  161.1047 H   0  0  0  0  0  0  0  0  0  0  0  0
  148.4127  137.3804  153.3057 H   0  0  0  0  0  0  0  0  0  0  0  0
  1  2  1  0  0  0  0
  1 21  1  0  0  0  0
  1 22  1  0  0  0  0
  1 23  1  0  0  0  0
  2  3  1  0  0  0  0
  2 16  1  0  0  0  0
  2 24  1  0  0  0  0
  3  4  2  0  0  0  0
  3  5  1  0  0  0  0
  5  6  1  0  0  0  0
  5 25  1  0  0  0  0
  6 15  1  0  0  0  0
  6  7  1  0  0  0  0
  6 26  1  0  0  0  0
  7  8  1  0  0  0  0
  7 27  1  0  0  0  0
  7 28  1  0  0  0  0
  8  9  1  0  0  0  0
  8 29  1  0  0  0  0
  8 30  1  0  0  0  0
  9 10  1  0  0  0  0
  9 14  1  0  0  0  0
  9 42  1  0  0  0  0
 10 11  1  0  0  0  0
 10 31  1  0  0  0  0
 10 32  1  0  0  0  0
 11 12  1  0  0  0  0
 11 13  2  0  0  0  0
 12 33  1  0  0  0  0
 12 34  1  0  0  0  0
 14 15  1  0  0  0  0
 14 35  1  0  0  0  0
 14 36  1  0  0  0  0
 15 37  1  0  0  0  0
 15 38  1  0  0  0  0
 16 20  1  0  0  0  0
 16 17  1  0  0  0  0
 17 18  2  0  0  0  0
 17 39  1  0  0  0  0
 18 19  1  0  0  0  0
 18 40  1  0  0  0  0
 19 20  2  0  0  0  0
 19 41  1  0  0  0  0
M  CHG  1   9   1
M  END
> <s_m_source_file>
AV-unprocessed.smi

> <i_m_source_file_index>
560

> <i_lp_mmshare_version>
43012

> <i_f3d_flags>
0

> <s_epik_input>
bjFbY0hdW2NIXVtjSF1uMVtDQEhdKFtDSDNdKUMoPU8pW05IXVtDSF0yW0NIMl1bQ0gyXU4oW0NIMl1bQ0gyXTIpW0NIMl1DKD1PKVtOSDJd

> <s_epik_cmdline>
J2VwaWtfcHl0aG9uJywgJy1waCcsICc3LjAnLCAnLXRuJywgJzgnLCAnLW1hJywgJzIwMCcsICctbWV0YWxfYmluZGluZycsICctaW1hZScsICc8aW5maWxlLm1hZT4nLCAnLW9tYWUnLCAnPG91dGZpbGUubWFlPic=

> <r_lp_tautomer_probability>
1

> <r_epik_Ionization_Penalty>
1.02943

> <r_epik_Ionization_Penalty_Charging>
1.02936

> <r_epik_Ionization_Penalty_Neutral>
7.4537e-05

> <r_epik_State_Penalty>
1.08036

> <r_epik_Charging_Adjusted_Penalty>
2.10972

> <i_epik_Tot_Q>
1

> <i_epik_Tot_abs_Q>
1

> <r_epik_Metal_State_Penalty>
1.09347

> <b_epik_Metal_Only>
0

> <s_lp_Force_Field>
OPLS_2005

> <r_lp_Energy>
15.8217

> <b_lp_Chiralities_Consistent>
1

> <s_lp_Variant>
AV-unprocessed.smi:560-6

> <Gold.Version>
5.8.1

> <Gold.Id.Protein>
6NUR|6NUR_protein|mol2

> <Gold.PLP.Fitness>
44.9422

> <Gold.PLP.PLP>
-31.3492

> <Gold.PLP.part.hbond>
-5.0000

> <Gold.PLP.part.metal>
0.0000

> <Gold.PLP.part.buried>
-2.3385

> <Gold.PLP.part.nonpolar>
-26.3175

> <Gold.PLP.part.repulsive>
2.6305

> <Gold.PLP.ligand.clash>
0.0000

> <Gold.PLP.ligand.torsion>
0.7676

> <Gold.PLP.Chemscore.Hbond>
5.0000

> <Gold.PLP.Chemscore.CHOScore>
0.0000

> <Gold.PLP.Chemscore.Metal>
0.0000

> <Gold.Chemscore.Hbonds>
donor molecule, donor type, donor heavy atom, donor atom, acceptor molecule, acceptor atom, score
      L1  H     9    42       P1  7948  2.00
      L1  H    12    33       P1 10171  0.79
      P1  H  7954  7966       L1    13  1.00
      P1  H  7997  8009       L1     4  1.00

> <Gold.PLP.Chemscore.Internal.Correction>
0.1282

> <Gold.Rescore>
     Score         DG    S(hbond)    S(metal)    S(lipo)     H(rot)  DE(clash)    DE(int)     intcor
     14.45     -20.42       3.88        0.00      72.08       2.52       2.76       3.21       ----

> <Gold.Chemscore.Fitness>
14.4513

> <Gold.Chemscore.DG>
-20.4213

> <Gold.Chemscore.ZeroCoef>
-5.4800

> <Gold.Chemscore.Hbond>
3.8834

> <Gold.Chemscore.Metal>
0.0000

> <Gold.Chemscore.Lipo>
72.0776

> <Gold.Chemscore.Internal_Hbond>
0.0000

> <Gold.Chemscore.DEClash>
2.7556

> <Gold.Chemscore.DEInternal>
3.2144

> <Gold.Chemscore.Rot>
2.5243

> <Gold.Chemscore.Internal.Correction>
   9.000000E+99

> <Gold.Chemscore.Hbonds>
donor molecule, donor type, donor heavy atom, donor atom, acceptor molecule, acceptor atom, score
      L1  H     9    42       P1  7948  1.00
      L1  H    12    33       P1 10171  0.74
      P1  H  7954  7966       L1    13  0.98
      P1  H  7997  8009       L1     4  0.99

> <Gold.Chemscore.Hbond.Weighted>
-12.9705

> <Gold.Chemscore.Metal.Weighted>
-0.0000

> <Gold.Chemscore.Lipo.Weighted>
-8.4331

> <Gold.Chemscore.Internal_Hbond.Weighted>
0.0000

> <Gold.Chemscore.DEClash.Weighted>
2.7556

> <Gold.Chemscore.DEInternal.Weighted>
3.2144

> <Gold.Chemscore.Rot.Weighted>
6.4622

> <Gold.Chemscore.Internal.Correction.Weighted>
   9.000000E+99

> <Gold.Protein.RotatedTorsions>
[ 6907 6896 6895 6894 ] final   73.42 input  -60.11 | X-H torsion
[ 7974 7965 7964 7962 ] final   28.06 input  175.53 | X-H torsion
[ 8008 7997 7996 7995 ] final -165.57 input   59.86 | X-H torsion
[ 10167 10162 10161 10158 ] final  -23.86 input  -65.29 | X-H torsion
[ 10718 10713 10712 10709 ] final   36.99 input   66.30 | X-H torsion
[ 10763 10752 10751 10750 ] final   11.79 input  -60.55 | X-H torsion
[ 11005 11000 10999 10996 ] final   -9.21 input  -57.11 | X-H torsion

> <Gold.Protein.ActiveResidues>
 VAL166  LYS551  ARG553  GLY616  TRP617  ASP618  TYR619  PRO620  LYS621  CYS622 
 ASP623  PHE694  ASN695  SER759  ASP760  ASP761  ALA762  ILE779  LEU786  VAL792 
 PHE793  MET794  SER795  GLU796  ALA797  LYS798  CYS799  TRP800  GLU811  SER814 

> <Gold.Protein.RotatedAtoms>
  152.4922  134.4424  159.9547 H   0  0  0  0  0  0  0  0  0  0  0  0  # atno 6907 bound_to 6896
  151.4409  133.3637  159.2789 H   0  0  0  0  0  0  0  0  0  0  0  0  # atno 6908 bound_to 6896
  150.9088  134.8528  159.7471 H   0  0  0  0  0  0  0  0  0  0  0  0  # atno 6909 bound_to 6896
  146.1750  139.7107  142.8941 H   0  0  0  0  0  0  0  0  0  0  0  0  # atno 7974 bound_to 7965
  155.8516  140.0964  157.1671 H   0  0  0  0  0  0  0  0  0  0  0  0  # atno 8008 bound_to 7997
  154.3986  140.1382  156.3913 H   0  0  0  0  0  0  0  0  0  0  0  0  # atno 8009 bound_to 7997
  155.7955  140.3454  155.5375 H   0  0  0  0  0  0  0  0  0  0  0  0  # atno 8010 bound_to 7997
  140.7288  143.4405  151.0664 H   0  0  0  0  0  0  0  0  0  0  0  0  # atno 10167 bound_to 10162
  157.3415  130.7550  149.6915 H   0  0  0  0  0  0  0  0  0  0  0  0  # atno 10718 bound_to 10713
  153.1889  135.6839  153.8378 H   0  0  0  0  0  0  0  0  0  0  0  0  # atno 10763 bound_to 10752
  153.7684  135.3199  155.3349 H   0  0  0  0  0  0  0  0  0  0  0  0  # atno 10764 bound_to 10752
  154.8105  135.4720  154.0603 H   0  0  0  0  0  0  0  0  0  0  0  0  # atno 10765 bound_to 10752
  140.7317  133.8743  155.8898 H   0  0  0  0  0  0  0  0  0  0  0  0  # atno 11005 bound_to 11000
  145.4237  141.0409  143.2949 LP  0  0  0  0  0  0  0  0  0  0  0  0  # atno 17320 bound_to 7965
  144.8222  139.5772  143.6982 LP  0  0  0  0  0  0  0  0  0  0  0  0  # atno 17321 bound_to 7965
  139.8072  143.8001  152.3168 LP  0  0  0  0  0  0  0  0  0  0  0  0  # atno 17342 bound_to 10162
  139.8038  144.7363  150.9788 LP  0  0  0  0  0  0  0  0  0  0  0  0  # atno 17343 bound_to 10162
  155.9708  130.4166  150.4240 LP  0  0  0  0  0  0  0  0  0  0  0  0  # atno 17370 bound_to 10713
  157.2288  131.0499  151.2504 LP  0  0  0  0  0  0  0  0  0  0  0  0  # atno 17371 bound_to 10713
  140.9915  134.1272  157.4404 LP  0  0  0  0  0  0  0  0  0  0  0  0  # atno 17394 bound_to 11000
  139.8825  135.0042  156.6232 LP  0  0  0  0  0  0  0  0  0  0  0  0  # atno 17395 bound_to 11000

$$$$
