AV-unprocessed.smi:1930|AV-procd|sdf|7810|dock6
  -GOLD-   22720 9553D 1   1.00000     0.00000
 Structure written by MMmdl.
 42 43  0  0  0  0  0  0  0  0  2 V2000
  156.3549  139.3578  165.7226 C   0  0  0  0  0  0  0  0  0  0  0  0
  156.6591  138.2206  164.3094 S   0  0  0  0  0  0  0  0  0  0  0  0
  157.7785  138.7564  163.5197 O   0  0  0  0  0  0  0  0  0  0  0  0
  156.7251  136.8463  164.8296 O   0  0  0  0  0  0  0  0  0  0  0  0
  155.2150  138.3588  163.3500 N   0  0  0  0  0  0  0  0  0  0  0  0
  154.3759  137.1590  163.1270 C   0  0  0  0  0  0  0  0  0  0  0  0
  154.5528  136.6001  161.7016 C   0  0  0  0  0  0  0  0  0  0  0  0
  154.2964  137.6766  160.7353 N   0  0  0  0  0  0  0  0  0  0  0  0
  153.1906  137.8293  159.9657 C   0  0  0  0  0  0  0  0  0  0  0  0
  152.1425  137.2128  160.1603 O   0  0  0  0  0  0  0  0  0  0  0  0
  153.3067  138.7497  158.9936 N   0  0  0  0  0  0  0  0  0  0  0  0
  152.2546  139.1248  158.0529 C   0  0  0  0  0  0  0  0  0  0  0  0
  151.1692  140.0204  158.6834 C   0  0  0  0  0  0  0  0  0  0  0  0
  151.3406  141.4970  158.3710 C   0  0  0  0  0  0  0  0  0  0  0  0
  152.3941  142.2368  158.9520 C   0  0  0  0  0  0  0  0  0  0  0  0
  152.5260  143.6078  158.6483 C   0  0  0  0  0  0  0  0  0  0  0  0
  151.6009  144.2084  157.7700 C   0  0  0  0  0  0  0  0  0  0  0  0
  150.6060  143.4688  157.2324 N   0  3  0  0  0  0  0  0  0  0  0  0
  150.4465  142.1537  157.4971 C   0  0  0  0  0  0  0  0  0  0  0  0
  155.3030  138.7300  160.8804 C   0  0  0  0  0  0  0  0  0  0  0  0
  155.1559  139.3736  162.2731 C   0  0  0  0  0  0  0  0  0  0  0  0
  157.2164  139.3363  166.3896 H   0  0  0  0  0  0  0  0  0  0  0  0
  155.4722  139.0356  166.2727 H   0  0  0  0  0  0  0  0  0  0  0  0
  156.2157  140.3735  165.3556 H   0  0  0  0  0  0  0  0  0  0  0  0
  154.6051  136.3910  163.8652 H   0  0  0  0  0  0  0  0  0  0  0  0
  153.3328  137.4351  163.2844 H   0  0  0  0  0  0  0  0  0  0  0  0
  155.5682  136.2289  161.5625 H   0  0  0  0  0  0  0  0  0  0  0  0
  153.9126  135.7281  161.5700 H   0  0  0  0  0  0  0  0  0  0  0  0
  154.1936  139.2221  158.8963 H   0  0  0  0  0  0  0  0  0  0  0  0
  152.7328  139.6600  157.2319 H   0  0  0  0  0  0  0  0  0  0  0  0
  151.8047  138.2317  157.6162 H   0  0  0  0  0  0  0  0  0  0  0  0
  150.1850  139.6991  158.3405 H   0  0  0  0  0  0  0  0  0  0  0  0
  151.1650  139.8873  159.7660 H   0  0  0  0  0  0  0  0  0  0  0  0
  153.0928  141.7602  159.6241 H   0  0  0  0  0  0  0  0  0  0  0  0
  153.3259  144.1898  159.0824 H   0  0  0  0  0  0  0  0  0  0  0  0
  151.6264  145.2495  157.4826 H   0  0  0  0  0  0  0  0  0  0  0  0
  149.6116  141.6714  157.0091 H   0  0  0  0  0  0  0  0  0  0  0  0
  156.2975  138.3011  160.7580 H   0  0  0  0  0  0  0  0  0  0  0  0
  155.2210  139.4967  160.1086 H   0  0  0  0  0  0  0  0  0  0  0  0
  154.1960  139.8874  162.3382 H   0  0  0  0  0  0  0  0  0  0  0  0
  155.9221  140.1339  162.4219 H   0  0  0  0  0  0  0  0  0  0  0  0
  149.9486  143.9224  156.5976 H   0  0  0  0  0  0  0  0  0  0  0  0
  1  2  1  0  0  0  0
  1 22  1  0  0  0  0
  1 23  1  0  0  0  0
  1 24  1  0  0  0  0
  2  3  2  0  0  0  0
  2  4  2  0  0  0  0
  2  5  1  0  0  0  0
  5 21  1  0  0  0  0
  5  6  1  0  0  0  0
  6  7  1  0  0  0  0
  6 25  1  0  0  0  0
  6 26  1  0  0  0  0
  7  8  1  0  0  0  0
  7 27  1  0  0  0  0
  7 28  1  0  0  0  0
  8  9  1  0  0  0  0
  8 20  1  0  0  0  0
  9 10  2  0  0  0  0
  9 11  1  0  0  0  0
 11 12  1  0  0  0  0
 11 29  1  0  0  0  0
 12 13  1  0  0  0  0
 12 30  1  0  0  0  0
 12 31  1  0  0  0  0
 13 14  1  0  0  0  0
 13 32  1  0  0  0  0
 13 33  1  0  0  0  0
 14 19  1  0  0  0  0
 14 15  2  0  0  0  0
 15 16  1  0  0  0  0
 15 34  1  0  0  0  0
 16 17  2  0  0  0  0
 16 35  1  0  0  0  0
 17 18  1  0  0  0  0
 17 36  1  0  0  0  0
 18 19  2  0  0  0  0
 18 42  1  0  0  0  0
 19 37  1  0  0  0  0
 20 21  1  0  0  0  0
 20 38  1  0  0  0  0
 20 39  1  0  0  0  0
 21 40  1  0  0  0  0
 21 41  1  0  0  0  0
M  CHG  1  18   1
M  END
> <s_m_source_file>
AV-unprocessed.smi

> <i_m_source_file_index>
1930

> <i_lp_mmshare_version>
43012

> <i_f3d_flags>
0

> <s_epik_input>
W0NIM11TKD1PKSg9TylOMVtDSDJdW0NIMl1OKFtDSDJdW0NIMl0xKUMoPU8pW05IXVtDSDJdW0NIMl1jMltjSF1bY0hdW2NIXW5bY0hdMg==

> <s_epik_cmdline>
J2VwaWtfcHl0aG9uJywgJy1waCcsICc3LjAnLCAnLXRuJywgJzgnLCAnLW1hJywgJzIwMCcsICctbWV0YWxfYmluZGluZycsICctaW1hZScsICc8aW5maWxlLm1hZT4nLCAnLW9tYWUnLCAnPG91dGZpbGUubWFlPic=

> <r_epik_Ionization_Penalty>
2.21237

> <r_epik_Ionization_Penalty_Charging>
2.21233

> <r_epik_Ionization_Penalty_Neutral>
3.86464e-05

> <r_epik_State_Penalty>
2.35665

> <r_epik_Charging_Adjusted_Penalty>
4.56898

> <i_epik_Tot_Q>
1

> <i_epik_Tot_abs_Q>
1

> <r_epik_Metal_State_Penalty>
2.37073

> <b_epik_Metal_Only>
0

> <s_lp_Force_Field>
OPLS_2005

> <r_lp_Energy>
33.224

> <b_lp_Chiralities_Consistent>
1

> <s_lp_Variant>
AV-unprocessed.smi:1930-2

> <Gold.Version>
5.8.1

> <Gold.Id.Protein>
6NUR|6NUR_protein|mol2

> <Gold.PLP.Fitness>
45.8023

> <Gold.PLP.PLP>
-38.6755

> <Gold.PLP.part.hbond>
-1.7525

> <Gold.PLP.part.metal>
0.0000

> <Gold.PLP.part.buried>
-5.2962

> <Gold.PLP.part.nonpolar>
-32.1168

> <Gold.PLP.part.repulsive>
0.1618

> <Gold.PLP.ligand.clash>
0.1118

> <Gold.PLP.ligand.torsion>
1.6939

> <Gold.PLP.Chemscore.Hbond>
2.8450

> <Gold.PLP.Chemscore.CHOScore>
0.0000

> <Gold.PLP.Chemscore.Metal>
0.0000

> <Gold.Chemscore.Hbonds>
donor molecule, donor type, donor heavy atom, donor atom, acceptor molecule, acceptor atom, score
      L1  H    18    42       P1  8028  2.00
      P1  H  6896  6909       L1    10  0.83

> <Gold.PLP.Chemscore.Internal.Correction>
2.0913

> <Gold.Rescore>
     Score         DG    S(hbond)    S(metal)    S(lipo)     H(rot)  DE(clash)    DE(int)     intcor
     17.57     -19.20       1.96        0.00      93.43       1.47       0.05       1.58       ----

> <Gold.Chemscore.Fitness>
17.5714

> <Gold.Chemscore.DG>
-19.2050

> <Gold.Chemscore.ZeroCoef>
-5.4800

> <Gold.Chemscore.Hbond>
1.9643

> <Gold.Chemscore.Metal>
0.0000

> <Gold.Chemscore.Lipo>
93.4274

> <Gold.Chemscore.Internal_Hbond>
0.0000

> <Gold.Chemscore.DEClash>
0.0495

> <Gold.Chemscore.DEInternal>
1.5841

> <Gold.Chemscore.Rot>
1.4714

> <Gold.Chemscore.Internal.Correction>
   9.000000E+99

> <Gold.Chemscore.Hbonds>
donor molecule, donor type, donor heavy atom, donor atom, acceptor molecule, acceptor atom, score
      L1  H    18    42       P1  8028  0.99
      P1  H  6896  6909       L1    10  0.82

> <Gold.Chemscore.Hbond.Weighted>
-6.5607

> <Gold.Chemscore.Metal.Weighted>
-0.0000

> <Gold.Chemscore.Lipo.Weighted>
-10.9310

> <Gold.Chemscore.Internal_Hbond.Weighted>
0.0000

> <Gold.Chemscore.DEClash.Weighted>
0.0495

> <Gold.Chemscore.DEInternal.Weighted>
1.5841

> <Gold.Chemscore.Rot.Weighted>
3.7667

> <Gold.Chemscore.Internal.Correction.Weighted>
   9.000000E+99

> <Gold.Protein.RotatedTorsions>
[ 6907 6896 6895 6894 ] final  130.68 input  -60.11 | X-H torsion
[ 7974 7965 7964 7962 ] final -142.69 input  175.53 | X-H torsion
[ 8008 7997 7996 7995 ] final -113.07 input   59.86 | X-H torsion
[ 10167 10162 10161 10158 ] final   38.13 input  -65.29 | X-H torsion
[ 10718 10713 10712 10709 ] final -104.59 input   66.30 | X-H torsion
[ 10763 10752 10751 10750 ] final   -1.53 input  -60.55 | X-H torsion
[ 11005 11000 10999 10996 ] final  -37.43 input  -57.11 | X-H torsion

> <Gold.Protein.ActiveResidues>
 VAL166  LYS551  ARG553  GLY616  TRP617  ASP618  TYR619  PRO620  LYS621  CYS622 
 ASP623  PHE694  ASN695  SER759  ASP760  ASP761  ALA762  ILE779  LEU786  VAL792 
 PHE793  MET794  SER795  GLU796  ALA797  LYS798  CYS799  TRP800  GLU811  SER814 

> <Gold.Protein.RotatedAtoms>
  152.3502  133.6170  159.5938 H   0  0  0  0  0  0  0  0  0  0  0  0  # atno 6907 bound_to 6896
  150.7533  133.9586  159.3517 H   0  0  0  0  0  0  0  0  0  0  0  0  # atno 6908 bound_to 6896
  151.7439  135.0849  160.0371 H   0  0  0  0  0  0  0  0  0  0  0  0  # atno 6909 bound_to 6896
  144.8425  140.5927  143.5443 H   0  0  0  0  0  0  0  0  0  0  0  0  # atno 7974 bound_to 7965
  155.0150  140.0393  157.2415 H   0  0  0  0  0  0  0  0  0  0  0  0  # atno 8008 bound_to 7997
  154.7427  140.2752  155.6336 H   0  0  0  0  0  0  0  0  0  0  0  0  # atno 8009 bound_to 7997
  156.2868  140.2662  156.2159 H   0  0  0  0  0  0  0  0  0  0  0  0  # atno 8010 bound_to 7997
  140.3966  144.1781  150.6132 H   0  0  0  0  0  0  0  0  0  0  0  0  # atno 10167 bound_to 10162
  156.0311  130.5522  150.7418 H   0  0  0  0  0  0  0  0  0  0  0  0  # atno 10718 bound_to 10713
  153.3461  135.6983  153.6827 H   0  0  0  0  0  0  0  0  0  0  0  0  # atno 10763 bound_to 10752
  153.5572  135.3542  155.2785 H   0  0  0  0  0  0  0  0  0  0  0  0  # atno 10764 bound_to 10752
  154.8645  135.4240  154.2686 H   0  0  0  0  0  0  0  0  0  0  0  0  # atno 10765 bound_to 10752
  140.9951  133.6984  156.1920 H   0  0  0  0  0  0  0  0  0  0  0  0  # atno 11005 bound_to 11000
  145.4665  139.1507  143.3837 LP  0  0  0  0  0  0  0  0  0  0  0  0  # atno 17320 bound_to 7965
  146.2715  140.4797  142.8812 LP  0  0  0  0  0  0  0  0  0  0  0  0  # atno 17321 bound_to 7965
  140.4784  143.2388  151.8990 LP  0  0  0  0  0  0  0  0  0  0  0  0  # atno 17342 bound_to 10162
  139.4786  144.5295  151.8687 LP  0  0  0  0  0  0  0  0  0  0  0  0  # atno 17343 bound_to 10162
  157.4985  131.0916  151.0343 LP  0  0  0  0  0  0  0  0  0  0  0  0  # atno 17370 bound_to 10713
  157.0730  130.5872  149.5406 LP  0  0  0  0  0  0  0  0  0  0  0  0  # atno 17371 bound_to 10713
  140.6979  134.4596  157.5587 LP  0  0  0  0  0  0  0  0  0  0  0  0  # atno 17394 bound_to 11000
  139.9011  134.8555  156.1894 LP  0  0  0  0  0  0  0  0  0  0  0  0  # atno 17395 bound_to 11000

$$$$
