AV-unprocessed.smi:531|AV-procd|sdf|2847|dock6
  -GOLD-   2262023333D 1   1.00000     0.00000
 Structure written by MMmdl.
 45 47  0  0  0  0  0  0  0  0  2 V2000
  151.6407  145.7276  159.9165 C   0  0  0  0  0  0  0  0  0  0  0  0
  150.3814  145.1055  159.3091 C   0  0  0  0  0  0  0  0  0  0  0  0
  150.6696  144.7094  157.9808 O   0  0  0  0  0  0  0  0  0  0  0  0
  151.6085  143.6498  157.9074 C   0  0  0  0  0  0  0  0  0  0  0  0
  150.8927  142.3116  158.1376 C   0  0  0  0  0  0  0  0  0  0  0  0
  151.8325  141.2498  158.4977 N   0  0  0  0  0  0  0  0  0  0  0  0
  152.1844  140.1588  157.7629 C   0  0  0  0  0  0  0  0  0  0  0  0
  151.6268  139.8845  156.5120 N   0  0  0  0  0  0  0  0  0  0  0  0
  152.3651  139.5967  155.2816 C   0  0  0  0  0  0  0  0  0  0  0  0
  151.8298  138.3355  154.5796 C   0  0  0  0  0  0  0  0  0  0  0  0
  150.3365  138.4925  154.2619 C   0  0  0  0  0  0  0  0  0  0  0  0
  149.5715  138.9053  155.5272 C   0  0  0  0  0  0  0  0  0  0  0  0
  150.2242  140.1352  156.1837 C   0  0  0  0  0  0  0  0  0  0  0  0
  153.1377  139.4033  158.3106 N   0  0  0  0  0  0  0  0  0  0  0  0
  153.4020  140.0515  159.5064 C   0  0  0  0  0  0  0  0  0  0  0  0
  152.6381  141.1691  159.6414 C   0  0  0  0  0  0  0  0  0  0  0  0
  152.7335  142.0907  160.7982 C   0  0  0  0  0  0  0  0  0  0  0  0
  152.0379  143.1013  160.8707 O   0  0  0  0  0  0  0  0  0  0  0  0
  153.6619  141.6749  161.7167 N   0  5  0  0  0  0  0  0  0  0  0  0
  154.4509  140.5497  161.6200 C   0  0  0  0  0  0  0  0  0  0  0  0
  155.2696  140.2528  162.4912 O   0  0  0  0  0  0  0  0  0  0  0  0
  154.3348  139.7292  160.5294 N   0  0  0  0  0  0  0  0  0  0  0  0
  155.1649  138.5283  160.3968 C   0  0  0  0  0  0  0  0  0  0  0  0
  151.4613  146.0509  160.9419 H   0  0  0  0  0  0  0  0  0  0  0  0
  151.9624  146.5967  159.3420 H   0  0  0  0  0  0  0  0  0  0  0  0
  152.4632  145.0121  159.9290 H   0  0  0  0  0  0  0  0  0  0  0  0
  150.0662  144.2439  159.8995 H   0  0  0  0  0  0  0  0  0  0  0  0
  149.5666  145.8310  159.3173 H   0  0  0  0  0  0  0  0  0  0  0  0
  152.0971  143.6473  156.9321 H   0  0  0  0  0  0  0  0  0  0  0  0
  152.3850  143.7890  158.6610 H   0  0  0  0  0  0  0  0  0  0  0  0
  150.1339  142.4146  158.9090 H   0  0  0  0  0  0  0  0  0  0  0  0
  150.3345  142.0322  157.2498 H   0  0  0  0  0  0  0  0  0  0  0  0
  152.2738  140.4539  154.6133 H   0  0  0  0  0  0  0  0  0  0  0  0
  153.4301  139.5030  155.4893 H   0  0  0  0  0  0  0  0  0  0  0  0
  152.3890  138.1516  153.6620 H   0  0  0  0  0  0  0  0  0  0  0  0
  151.9800  137.4626  155.2152 H   0  0  0  0  0  0  0  0  0  0  0  0
  150.2054  139.2543  153.4926 H   0  0  0  0  0  0  0  0  0  0  0  0
  149.9326  137.5642  153.8572 H   0  0  0  0  0  0  0  0  0  0  0  0
  148.5311  139.1198  155.2814 H   0  0  0  0  0  0  0  0  0  0  0  0
  149.5590  138.0770  156.2366 H   0  0  0  0  0  0  0  0  0  0  0  0
  149.6778  140.3939  157.0913 H   0  0  0  0  0  0  0  0  0  0  0  0
  150.1565  141.0005  155.5229 H   0  0  0  0  0  0  0  0  0  0  0  0
  155.0441  137.8783  161.2647 H   0  0  0  0  0  0  0  0  0  0  0  0
  156.2178  138.8023  160.3190 H   0  0  0  0  0  0  0  0  0  0  0  0
  154.9141  137.9383  159.5157 H   0  0  0  0  0  0  0  0  0  0  0  0
  1  2  1  0  0  0  0
  1 24  1  0  0  0  0
  1 25  1  0  0  0  0
  1 26  1  0  0  0  0
  2  3  1  0  0  0  0
  2 27  1  0  0  0  0
  2 28  1  0  0  0  0
  3  4  1  0  0  0  0
  4  5  1  0  0  0  0
  4 29  1  0  0  0  0
  4 30  1  0  0  0  0
  5  6  1  0  0  0  0
  5 31  1  0  0  0  0
  5 32  1  0  0  0  0
  6 16  1  0  0  0  0
  6  7  1  0  0  0  0
  7  8  1  0  0  0  0
  7 14  2  0  0  0  0
  8 13  1  0  0  0  0
  8  9  1  0  0  0  0
  9 10  1  0  0  0  0
  9 33  1  0  0  0  0
  9 34  1  0  0  0  0
 10 11  1  0  0  0  0
 10 35  1  0  0  0  0
 10 36  1  0  0  0  0
 11 12  1  0  0  0  0
 11 37  1  0  0  0  0
 11 38  1  0  0  0  0
 12 13  1  0  0  0  0
 12 39  1  0  0  0  0
 12 40  1  0  0  0  0
 13 41  1  0  0  0  0
 13 42  1  0  0  0  0
 14 15  1  0  0  0  0
 15 22  1  0  0  0  0
 15 16  2  0  0  0  0
 16 17  1  0  0  0  0
 17 18  2  0  0  0  0
 17 19  1  0  0  0  0
 19 20  1  0  0  0  0
 20 21  2  0  0  0  0
 20 22  1  0  0  0  0
 22 23  1  0  0  0  0
 23 43  1  0  0  0  0
 23 44  1  0  0  0  0
 23 45  1  0  0  0  0
M  CHG  1  19  -1
M  END
> <s_m_source_file>
AV-unprocessed.smi

> <i_m_source_file_index>
531

> <i_lp_mmshare_version>
43012

> <i_f3d_flags>
0

> <s_epik_input>
W0NIM11uMWMoPU8pW25IXWMoPU8pYyhjMTIpbihbQ0gyXVtDSDJdT1tDSDJdW0NIM10pYyhuMilOM1tDSDJdW0NIMl1bQ0gyXVtDSDJdW0NIMl0z

> <s_epik_cmdline>
J2VwaWtfcHl0aG9uJywgJy1waCcsICc3LjAnLCAnLXRuJywgJzgnLCAnLW1hJywgJzIwMCcsICctbWV0YWxfYmluZGluZycsICctaW1hZScsICc8aW5maWxlLm1hZT4nLCAnLW9tYWUnLCAnPG91dGZpbGUubWFlPic=

> <r_lp_tautomer_probability>
1

> <r_epik_Ionization_Penalty>
5.10252

> <r_epik_Ionization_Penalty_Charging>
0.0734613

> <r_epik_Ionization_Penalty_Neutral>
5.02906

> <r_epik_State_Penalty>
5.02576

> <r_epik_Charging_Adjusted_Penalty>
5.09922

> <i_epik_Tot_Q>
-1

> <i_epik_Tot_abs_Q>
1

> <r_epik_Metal_State_Penalty>
1.13821

> <b_epik_Metal_Only>
1

> <s_lp_Force_Field>
OPLS_2005

> <r_lp_Energy>
41.0851

> <b_lp_Chiralities_Consistent>
1

> <s_lp_Variant>
AV-unprocessed.smi:531-2

> <Gold.Version>
5.8.1

> <Gold.Id.Protein>
6NUR|6NUR_protein|mol2

> <Gold.PLP.Fitness>
46.9097

> <Gold.PLP.PLP>
-45.2148

> <Gold.PLP.part.hbond>
-2.7957

> <Gold.PLP.part.metal>
0.0000

> <Gold.PLP.part.buried>
-4.6668

> <Gold.PLP.part.nonpolar>
-38.2259

> <Gold.PLP.part.repulsive>
0.2531

> <Gold.PLP.ligand.clash>
0.0000

> <Gold.PLP.ligand.torsion>
0.9458

> <Gold.PLP.Chemscore.Hbond>
1.0000

> <Gold.PLP.Chemscore.CHOScore>
0.0000

> <Gold.PLP.Chemscore.Metal>
0.0000

> <Gold.Chemscore.Hbonds>
donor molecule, donor type, donor heavy atom, donor atom, acceptor molecule, acceptor atom, score
      P1  H  7997  8010       L1    14  0.74

> <Gold.PLP.Chemscore.Internal.Correction>
0.5866

> <Gold.Rescore>
     Score         DG    S(hbond)    S(metal)    S(lipo)     H(rot)  DE(clash)    DE(int)     intcor
      9.45     -11.46       0.03        0.00      84.99       1.59       0.03       1.98       ----

> <Gold.Chemscore.Fitness>
9.4513

> <Gold.Chemscore.DG>
-11.4645

> <Gold.Chemscore.ZeroCoef>
-5.4800

> <Gold.Chemscore.Hbond>
0.0347

> <Gold.Chemscore.Metal>
0.0000

> <Gold.Chemscore.Lipo>
84.9944

> <Gold.Chemscore.Internal_Hbond>
0.0000

> <Gold.Chemscore.DEClash>
0.0288

> <Gold.Chemscore.DEInternal>
1.9844

> <Gold.Chemscore.Rot>
1.5920

> <Gold.Chemscore.Internal.Correction>
   9.000000E+99

> <Gold.Chemscore.Hbonds>
donor molecule, donor type, donor heavy atom, donor atom, acceptor molecule, acceptor atom, score
      P1  H  7997  8010       L1    14  0.05

> <Gold.Chemscore.Hbond.Weighted>
-0.1158

> <Gold.Chemscore.Metal.Weighted>
-0.0000

> <Gold.Chemscore.Lipo.Weighted>
-9.9443

> <Gold.Chemscore.Internal_Hbond.Weighted>
0.0000

> <Gold.Chemscore.DEClash.Weighted>
0.0288

> <Gold.Chemscore.DEInternal.Weighted>
1.9844

> <Gold.Chemscore.Rot.Weighted>
4.0756

> <Gold.Chemscore.Internal.Correction.Weighted>
   9.000000E+99

> <Gold.Protein.RotatedTorsions>
[ 6907 6896 6895 6894 ] final  -38.43 input  -60.11 | X-H torsion
[ 7974 7965 7964 7962 ] final  -39.70 input  175.53 | X-H torsion
[ 8008 7997 7996 7995 ] final   14.29 input   59.86 | X-H torsion
[ 10167 10162 10161 10158 ] final   70.95 input  -65.29 | X-H torsion
[ 10718 10713 10712 10709 ] final    9.98 input   66.30 | X-H torsion
[ 10763 10752 10751 10750 ] final  -57.66 input  -60.55 | X-H torsion
[ 11005 11000 10999 10996 ] final  145.80 input  -57.11 | X-H torsion

> <Gold.Protein.ActiveResidues>
 VAL166  LYS551  ARG553  GLY616  TRP617  ASP618  TYR619  PRO620  LYS621  CYS622 
 ASP623  PHE694  ASN695  SER759  ASP760  ASP761  ALA762  ILE779  LEU786  VAL792 
 PHE793  MET794  SER795  GLU796  ALA797  LYS798  CYS799  TRP800  GLU811  SER814 

> <Gold.Protein.RotatedAtoms>
  151.0025  134.9333  159.7961 H   0  0  0  0  0  0  0  0  0  0  0  0  # atno 6907 bound_to 6896
  152.5281  134.3135  159.9132 H   0  0  0  0  0  0  0  0  0  0  0  0  # atno 6908 bound_to 6896
  151.3141  133.4026  159.2683 H   0  0  0  0  0  0  0  0  0  0  0  0  # atno 6909 bound_to 6896
  146.0372  140.6655  142.9104 H   0  0  0  0  0  0  0  0  0  0  0  0  # atno 7974 bound_to 7965
  154.8464  140.2923  155.5626 H   0  0  0  0  0  0  0  0  0  0  0  0  # atno 8008 bound_to 7997
  156.3014  140.2504  156.3347 H   0  0  0  0  0  0  0  0  0  0  0  0  # atno 8009 bound_to 7997
  154.9069  140.0389  157.1913 H   0  0  0  0  0  0  0  0  0  0  0  0  # atno 8010 bound_to 7997
  140.0514  144.5308  150.7360 H   0  0  0  0  0  0  0  0  0  0  0  0  # atno 10167 bound_to 10162
  156.9743  130.5981  149.5671 H   0  0  0  0  0  0  0  0  0  0  0  0  # atno 10718 bound_to 10713
  154.2259  135.6369  153.5159 H   0  0  0  0  0  0  0  0  0  0  0  0  # atno 10763 bound_to 10752
  152.9959  135.5508  154.6064 H   0  0  0  0  0  0  0  0  0  0  0  0  # atno 10764 bound_to 10752
  154.5536  135.2903  155.0960 H   0  0  0  0  0  0  0  0  0  0  0  0  # atno 10765 bound_to 10752
  140.0741  134.9135  157.1394 H   0  0  0  0  0  0  0  0  0  0  0  0  # atno 11005 bound_to 11000
  144.7057  140.3843  143.7120 LP  0  0  0  0  0  0  0  0  0  0  0  0  # atno 17320 bound_to 7965
  145.6944  139.1646  143.2629 LP  0  0  0  0  0  0  0  0  0  0  0  0  # atno 17321 bound_to 7965
  140.7215  143.2593  151.4263 LP  0  0  0  0  0  0  0  0  0  0  0  0  # atno 17342 bound_to 10162
  139.5951  144.1416  152.2134 LP  0  0  0  0  0  0  0  0  0  0  0  0  # atno 17343 bound_to 10162
  156.0270  130.5363  150.8433 LP  0  0  0  0  0  0  0  0  0  0  0  0  # atno 17370 bound_to 10713
  157.5571  131.0945  150.9613 LP  0  0  0  0  0  0  0  0  0  0  0  0  # atno 17371 bound_to 10713
  140.3583  134.2522  155.7190 LP  0  0  0  0  0  0  0  0  0  0  0  0  # atno 17394 bound_to 11000
  141.2023  133.7941  157.0397 LP  0  0  0  0  0  0  0  0  0  0  0  0  # atno 17395 bound_to 11000

$$$$
