AV-unprocessed.smi:2190|AV-procd|sdf|8889|dock1
  -GOLD-   2272012 93D 1   1.00000     0.00000
 Structure written by MMmdl.
 46 48  0  0  0  0  0  0  0  0  1 V2000
  150.4501  144.6079  160.5992 C   0  0  0  0  0  0  0  0  0  0  0  0
  151.5221  143.5802  160.8990 C   0  0  0  0  0  0  0  0  0  0  0  0
  152.1520  143.5562  162.1584 C   0  0  0  0  0  0  0  0  0  0  0  0
  153.1478  142.6001  162.4277 C   0  0  0  0  0  0  0  0  0  0  0  0
  153.5211  141.6642  161.4410 C   0  0  0  0  0  0  0  0  0  0  0  0
  154.5966  140.6389  161.7480 C   0  0  0  0  0  0  0  0  0  0  0  0
  152.8984  141.6788  160.1714 C   0  0  0  0  0  0  0  0  0  0  0  0
  153.3148  140.7393  159.2515 O   0  0  0  0  0  0  0  0  0  0  0  0
  152.4969  140.4846  158.1166 C   0  0  0  0  0  0  0  0  0  0  0  0
  152.6015  139.0020  157.7217 C   0  0  1  0  0  0  0  0  0  0  0  0
  153.1836  138.2768  158.7867 O   0  0  0  0  0  0  0  0  0  0  0  0
  151.2598  138.3826  157.2783 C   0  0  0  0  0  0  0  0  0  0  0  0
  150.6650  139.0898  156.1520 N   0  0  0  0  0  0  0  0  0  0  0  0
  151.1741  139.2729  154.9070 C   0  0  0  0  0  0  0  0  0  0  0  0
  152.5152  138.7173  154.5173 C   0  0  0  0  0  0  0  0  0  0  0  0
  152.4560  137.7213  153.5161 O   0  0  0  0  0  0  0  0  0  0  0  0
  150.4011  139.9643  154.0655 N   0  0  0  0  0  0  0  0  0  0  0  0
  149.2932  140.2570  154.8357 C   0  0  0  0  0  0  0  0  0  0  0  0
  148.1154  140.9706  154.5178 C   0  0  0  0  0  0  0  0  0  0  0  0
  147.1021  141.1423  155.4838 C   0  0  0  0  0  0  0  0  0  0  0  0
  147.2515  140.6039  156.7785 C   0  0  0  0  0  0  0  0  0  0  0  0
  148.4174  139.8896  157.1156 C   0  0  0  0  0  0  0  0  0  0  0  0
  149.4257  139.7218  156.1476 C   0  0  0  0  0  0  0  0  0  0  0  0
  151.8938  142.6458  159.9114 C   0  0  0  0  0  0  0  0  0  0  0  0
  150.1479  145.1416  161.5009 H   0  0  0  0  0  0  0  0  0  0  0  0
  149.5671  144.1255  160.1794 H   0  0  0  0  0  0  0  0  0  0  0  0
  150.8194  145.3373  159.8779 H   0  0  0  0  0  0  0  0  0  0  0  0
  151.8756  144.2693  162.9212 H   0  0  0  0  0  0  0  0  0  0  0  0
  153.6245  142.5894  163.3969 H   0  0  0  0  0  0  0  0  0  0  0  0
  154.2158  139.6295  161.5893 H   0  0  0  0  0  0  0  0  0  0  0  0
  154.9366  140.7132  162.7813 H   0  0  0  0  0  0  0  0  0  0  0  0
  155.4573  140.7881  161.0955 H   0  0  0  0  0  0  0  0  0  0  0  0
  151.4595  140.7084  158.3709 H   0  0  0  0  0  0  0  0  0  0  0  0
  152.7780  141.1209  157.2755 H   0  0  0  0  0  0  0  0  0  0  0  0
  153.3063  138.9316  156.8924 H   0  0  0  0  0  0  0  0  0  0  0  0
  152.6747  138.4292  159.5683 H   0  0  0  0  0  0  0  0  0  0  0  0
  151.3814  137.3302  157.0216 H   0  0  0  0  0  0  0  0  0  0  0  0
  150.5499  138.4091  158.1059 H   0  0  0  0  0  0  0  0  0  0  0  0
  153.1525  139.5237  154.1552 H   0  0  0  0  0  0  0  0  0  0  0  0
  152.9932  138.2949  155.4014 H   0  0  0  0  0  0  0  0  0  0  0  0
  151.6326  137.8028  153.0602 H   0  0  0  0  0  0  0  0  0  0  0  0
  147.9917  141.3860  153.5286 H   0  0  0  0  0  0  0  0  0  0  0  0
  146.2058  141.6890  155.2297 H   0  0  0  0  0  0  0  0  0  0  0  0
  146.4705  140.7394  157.5121 H   0  0  0  0  0  0  0  0  0  0  0  0
  148.5354  139.4758  158.1060 H   0  0  0  0  0  0  0  0  0  0  0  0
  151.3933  142.6920  158.9561 H   0  0  0  0  0  0  0  0  0  0  0  0
  1  2  1  0  0  0  0
  1 25  1  0  0  0  0
  1 26  1  0  0  0  0
  1 27  1  0  0  0  0
  2 24  1  0  0  0  0
  2  3  2  0  0  0  0
  3  4  1  0  0  0  0
  3 28  1  0  0  0  0
  4  5  2  0  0  0  0
  4 29  1  0  0  0  0
  5  6  1  0  0  0  0
  5  7  1  0  0  0  0
  6 30  1  0  0  0  0
  6 31  1  0  0  0  0
  6 32  1  0  0  0  0
  7  8  1  0  0  0  0
  7 24  2  0  0  0  0
  8  9  1  0  0  0  0
  9 10  1  0  0  0  0
  9 33  1  0  0  0  0
  9 34  1  0  0  0  0
 10 11  1  0  0  0  0
 10 12  1  0  0  0  0
 10 35  1  0  0  0  0
 11 36  1  0  0  0  0
 12 13  1  0  0  0  0
 12 37  1  0  0  0  0
 12 38  1  0  0  0  0
 13 23  1  0  0  0  0
 13 14  1  0  0  0  0
 14 15  1  0  0  0  0
 14 17  2  0  0  0  0
 15 16  1  0  0  0  0
 15 39  1  0  0  0  0
 15 40  1  0  0  0  0
 16 41  1  0  0  0  0
 17 18  1  0  0  0  0
 18 23  2  0  0  0  0
 18 19  1  0  0  0  0
 19 20  2  0  0  0  0
 19 42  1  0  0  0  0
 20 21  1  0  0  0  0
 20 43  1  0  0  0  0
 21 22  2  0  0  0  0
 21 44  1  0  0  0  0
 22 23  1  0  0  0  0
 22 45  1  0  0  0  0
 24 46  1  0  0  0  0
M  END
> <s_m_source_file>
AV-unprocessed.smi

> <i_m_source_file_index>
2190

> <i_lp_mmshare_version>
43012

> <i_f3d_flags>
0

> <s_epik_input>
W0NIM11jMVtjSF1bY0hdYyhbQ0gzXSljKFtjSF0xKU9bQ0gyXVtDQEhdKFtPSF0pW0NIMl1uKGMobjIpW0NIMl1bT0hdKWMoYzIzKVtjSF1bY0hdW2NIXVtjSF0z

> <s_epik_cmdline>
J2VwaWtfcHl0aG9uJywgJy1waCcsICc3LjAnLCAnLXRuJywgJzgnLCAnLW1hJywgJzIwMCcsICctbWV0YWxfYmluZGluZycsICctaW1hZScsICc8aW5maWxlLm1hZT4nLCAnLW9tYWUnLCAnPG91dGZpbGUubWFlPic=

> <r_lp_tautomer_probability>
1

> <r_epik_Ionization_Penalty>
0.0555874

> <r_epik_Ionization_Penalty_Charging>
0

> <r_epik_Ionization_Penalty_Neutral>
0.0555874

> <r_epik_State_Penalty>
0.0478234

> <r_epik_Charging_Adjusted_Penalty>
0.0478234

> <i_epik_Tot_Q>
0

> <i_epik_Tot_abs_Q>
0

> <r_epik_Metal_State_Penalty>
4.98044e-05

> <b_epik_Metal_Only>
0

> <s_lp_Force_Field>
OPLS_2005

> <r_lp_Energy>
17.5395

> <b_lp_Chiralities_Consistent>
1

> <s_lp_Variant>
AV-unprocessed.smi:2190-2

> <Gold.Version>
5.8.1

> <Gold.Id.Protein>
6NUR|6NUR_protein|mol2

> <Gold.PLP.Fitness>
56.9182

> <Gold.PLP.PLP>
-52.8834

> <Gold.PLP.part.hbond>
-3.0000

> <Gold.PLP.part.metal>
0.0000

> <Gold.PLP.part.buried>
-7.2213

> <Gold.PLP.part.nonpolar>
-43.3264

> <Gold.PLP.part.repulsive>
1.0204

> <Gold.PLP.ligand.clash>
0.0000

> <Gold.PLP.ligand.torsion>
1.0634

> <Gold.PLP.Chemscore.Hbond>
2.0260

> <Gold.PLP.Chemscore.CHOScore>
0.0000

> <Gold.PLP.Chemscore.Metal>
0.0000

> <Gold.Chemscore.Hbonds>
donor molecule, donor type, donor heavy atom, donor atom, acceptor molecule, acceptor atom, score
      P1  H  7989  7998       L1    17  0.75
      P1  H 10752 10765       L1    16  0.66

> <Gold.PLP.Chemscore.Internal.Correction>
0.0836

> <Gold.Rescore>
     Score         DG    S(hbond)    S(metal)    S(lipo)     H(rot)  DE(clash)    DE(int)     intcor
     18.30     -19.29       1.70        0.00     134.09       2.96       0.05       0.94       ----

> <Gold.Chemscore.Fitness>
18.2982

> <Gold.Chemscore.DG>
-19.2914

> <Gold.Chemscore.ZeroCoef>
-5.4800

> <Gold.Chemscore.Hbond>
1.7038

> <Gold.Chemscore.Metal>
0.0000

> <Gold.Chemscore.Lipo>
134.0870

> <Gold.Chemscore.Internal_Hbond>
0.0000

> <Gold.Chemscore.DEClash>
0.0504

> <Gold.Chemscore.DEInternal>
0.9428

> <Gold.Chemscore.Rot>
2.9561

> <Gold.Chemscore.Internal.Correction>
   9.000000E+99

> <Gold.Chemscore.Hbonds>
donor molecule, donor type, donor heavy atom, donor atom, acceptor molecule, acceptor atom, score
      L1  H    16    41       P1  7949  0.02
      P1  H  7989  7998       L1    17  0.09
      P1  H 10752 10765       L1    16  0.58

> <Gold.Chemscore.Hbond.Weighted>
-5.6909

> <Gold.Chemscore.Metal.Weighted>
-0.0000

> <Gold.Chemscore.Lipo.Weighted>
-15.6882

> <Gold.Chemscore.Internal_Hbond.Weighted>
0.0000

> <Gold.Chemscore.DEClash.Weighted>
0.0504

> <Gold.Chemscore.DEInternal.Weighted>
0.9428

> <Gold.Chemscore.Rot.Weighted>
7.5677

> <Gold.Chemscore.Internal.Correction.Weighted>
   9.000000E+99

> <Gold.Protein.RotatedTorsions>
[ 6907 6896 6895 6894 ] final -179.87 input  -60.11 | X-H torsion
[ 7974 7965 7964 7962 ] final  148.47 input  175.53 | X-H torsion
[ 8008 7997 7996 7995 ] final -130.72 input   59.86 | X-H torsion
[ 10167 10162 10161 10158 ] final  178.80 input  -65.29 | X-H torsion
[ 10718 10713 10712 10709 ] final  119.03 input   66.30 | X-H torsion
[ 10763 10752 10751 10750 ] final  137.49 input  -60.55 | X-H torsion
[ 11005 11000 10999 10996 ] final  170.92 input  -57.11 | X-H torsion

> <Gold.Protein.ActiveResidues>
 VAL166  LYS551  ARG553  GLY616  TRP617  ASP618  TYR619  PRO620  LYS621  CYS622 
 ASP623  PHE694  ASN695  SER759  ASP760  ASP761  ALA762  ILE779  LEU786  VAL792 
 PHE793  MET794  SER795  GLU796  ALA797  LYS798  CYS799  TRP800  GLU811  SER814 

> <Gold.Protein.RotatedAtoms>
  151.6604  133.3317  159.3172 H   0  0  0  0  0  0  0  0  0  0  0  0  # atno 6907 bound_to 6896
  150.7916  134.6948  159.6526 H   0  0  0  0  0  0  0  0  0  0  0  0  # atno 6908 bound_to 6896
  152.3997  134.6311  160.0127 H   0  0  0  0  0  0  0  0  0  0  0  0  # atno 6909 bound_to 6896
  144.8512  139.6157  143.5973 H   0  0  0  0  0  0  0  0  0  0  0  0  # atno 7974 bound_to 7965
  155.3004  140.0452  157.3029 H   0  0  0  0  0  0  0  0  0  0  0  0  # atno 8008 bound_to 7997
  154.5490  140.2311  155.8483 H   0  0  0  0  0  0  0  0  0  0  0  0  # atno 8009 bound_to 7997
  156.1949  140.3041  155.9415 H   0  0  0  0  0  0  0  0  0  0  0  0  # atno 8010 bound_to 7997
  139.5309  144.2637  152.0685 H   0  0  0  0  0  0  0  0  0  0  0  0  # atno 10167 bound_to 10162
  157.5990  131.1054  150.7839 H   0  0  0  0  0  0  0  0  0  0  0  0  # atno 10718 bound_to 10713
  153.8738  135.3052  155.3443 H   0  0  0  0  0  0  0  0  0  0  0  0  # atno 10763 bound_to 10752
  154.7793  135.4844  153.9813 H   0  0  0  0  0  0  0  0  0  0  0  0  # atno 10764 bound_to 10752
  153.1390  135.6820  153.9153 H   0  0  0  0  0  0  0  0  0  0  0  0  # atno 10765 bound_to 10752
  140.3135  134.7497  157.4010 H   0  0  0  0  0  0  0  0  0  0  0  0  # atno 11005 bound_to 11000
  146.2786  139.6817  142.9245 LP  0  0  0  0  0  0  0  0  0  0  0  0  # atno 17320 bound_to 7965
  145.4497  141.0427  143.2811 LP  0  0  0  0  0  0  0  0  0  0  0  0  # atno 17321 bound_to 7965
  140.2101  144.4572  150.6390 LP  0  0  0  0  0  0  0  0  0  0  0  0  # atno 17342 bound_to 10162
  140.6486  143.2219  151.6129 LP  0  0  0  0  0  0  0  0  0  0  0  0  # atno 17343 bound_to 10162
  156.8242  130.4994  149.5339 LP  0  0  0  0  0  0  0  0  0  0  0  0  # atno 17370 bound_to 10713
  156.1059  130.6004  150.9969 LP  0  0  0  0  0  0  0  0  0  0  0  0  # atno 17371 bound_to 10713
  140.1004  134.5481  155.8358 LP  0  0  0  0  0  0  0  0  0  0  0  0  # atno 17394 bound_to 11000
  141.2103  133.6693  156.6498 LP  0  0  0  0  0  0  0  0  0  0  0  0  # atno 17395 bound_to 11000

$$$$
