AV-unprocessed.smi:287|AV-procd|sdf|2187|dock7
  -GOLD-   2262021573D 1   1.00000     0.00000
 Structure written by MMmdl.
 55 58  0  0  0  0  0  0  0  0  1 V2000
  151.6864  143.6063  158.8207 C   0  0  0  0  0  0  0  0  0  0  0  0
  151.1916  142.4491  158.0224 C   0  0  0  0  0  0  0  0  0  0  0  0
  150.4367  142.3356  156.8916 C   0  0  0  0  0  0  0  0  0  0  0  0
  150.2917  140.9433  156.6135 C   0  0  0  0  0  0  0  0  0  0  0  0
  149.5336  140.3360  155.4411 C   0  0  1  0  0  0  0  0  0  0  0  0
  148.8820  141.4544  154.6114 C   0  0  0  0  0  0  0  0  0  0  0  0
  150.3781  139.6416  154.5429 O   0  0  0  0  0  0  0  0  0  0  0  0
  148.4609  139.3192  155.8930 C   0  0  0  0  0  0  0  0  0  0  0  0
  147.5944  138.8860  154.8042 N   0  0  0  0  0  0  0  0  0  0  0  0
  147.1857  137.6036  154.7075 C   0  0  0  0  0  0  0  0  0  0  0  0
  147.5723  136.7909  155.7199 N   0  0  0  0  0  0  0  0  0  0  0  0
  147.2169  135.5030  155.7223 C   0  0  0  0  0  0  0  0  0  0  0  0
  146.4887  134.8370  154.8245 N   0  0  0  0  0  0  0  0  0  0  0  0
  146.0954  135.6496  153.8018 C   0  0  0  0  0  0  0  0  0  0  0  0
  146.3984  137.0340  153.6628 C   0  0  0  0  0  0  0  0  0  0  0  0
  145.8235  137.5096  152.4887 N   0  0  0  0  0  0  0  0  0  0  0  0
  145.2202  136.4718  151.9759 C   0  0  0  0  0  0  0  0  0  0  0  0
  145.3421  135.3063  152.7010 N   0  0  0  0  0  0  0  0  0  0  0  0
  144.7851  133.9427  152.4185 C   0  0  1  0  0  0  0  0  0  0  0  0
  144.0083  134.0145  151.2609 O   0  0  0  0  0  0  0  0  0  0  0  0
  144.7533  133.5185  150.1546 C   0  0  2  0  0  0  0  0  0  0  0  0
  143.8344  133.1581  148.9751 C   0  0  0  0  0  0  0  0  0  0  0  0
  143.5042  134.3235  148.2499 O   0  0  0  0  0  0  0  0  0  0  0  0
  145.5206  132.3488  150.7822 C   0  0  2  0  0  0  0  0  0  0  0  0
  144.6924  131.2059  150.8978 O   0  0  0  0  0  0  0  0  0  0  0  0
  145.8896  132.8864  152.1607 C   0  0  1  0  0  0  0  0  0  0  0  0
  147.2040  133.4169  152.1293 O   0  0  0  0  0  0  0  0  0  0  0  0
  150.9974  140.3121  157.6095 C   0  0  0  0  0  0  0  0  0  0  0  0
  151.2866  138.8825  157.9292 C   0  0  0  0  0  0  0  0  0  0  0  0
  151.5408  141.2172  158.4705 O   0  0  0  0  0  0  0  0  0  0  0  0
  144.1564  133.7199  153.2815 H   0  0  0  0  0  0  0  0  0  0  0  0
  145.4805  134.2707  149.8427 H   0  0  0  0  0  0  0  0  0  0  0  0
  146.3942  132.0722  150.1901 H   0  0  0  0  0  0  0  0  0  0  0  0
  145.8464  132.1148  152.9306 H   0  0  0  0  0  0  0  0  0  0  0  0
  151.2572  144.5409  158.4591 H   0  0  0  0  0  0  0  0  0  0  0  0
  152.7717  143.6846  158.7548 H   0  0  0  0  0  0  0  0  0  0  0  0
  151.4172  143.4952  159.8711 H   0  0  0  0  0  0  0  0  0  0  0  0
  150.0279  143.1607  156.3270 H   0  0  0  0  0  0  0  0  0  0  0  0
  148.1780  142.0317  155.2117 H   0  0  0  0  0  0  0  0  0  0  0  0
  148.3319  141.0528  153.7593 H   0  0  0  0  0  0  0  0  0  0  0  0
  149.6297  142.1485  154.2252 H   0  0  0  0  0  0  0  0  0  0  0  0
  151.0407  139.1900  155.0429 H   0  0  0  0  0  0  0  0  0  0  0  0
  148.9703  138.4342  156.2759 H   0  0  0  0  0  0  0  0  0  0  0  0
  147.8640  139.7224  156.7125 H   0  0  0  0  0  0  0  0  0  0  0  0
  147.3417  139.6007  154.1366 H   0  0  0  0  0  0  0  0  0  0  0  0
  147.5666  134.9235  156.5641 H   0  0  0  0  0  0  0  0  0  0  0  0
  144.6672  136.5376  151.0503 H   0  0  0  0  0  0  0  0  0  0  0  0
  144.3495  132.4824  148.2915 H   0  0  0  0  0  0  0  0  0  0  0  0
  142.9287  132.6535  149.3128 H   0  0  0  0  0  0  0  0  0  0  0  0
  144.2757  134.6220  147.7930 H   0  0  0  0  0  0  0  0  0  0  0  0
  144.2849  131.2167  151.7503 H   0  0  0  0  0  0  0  0  0  0  0  0
  147.7696  132.7854  151.7111 H   0  0  0  0  0  0  0  0  0  0  0  0
  151.6705  138.3601  157.0529 H   0  0  0  0  0  0  0  0  0  0  0  0
  150.3824  138.3713  158.2604 H   0  0  0  0  0  0  0  0  0  0  0  0
  152.0309  138.7974  158.7214 H   0  0  0  0  0  0  0  0  0  0  0  0
  1  2  1  0  0  0  0
  1 35  1  0  0  0  0
  1 36  1  0  0  0  0
  1 37  1  0  0  0  0
  2 30  1  0  0  0  0
  2  3  2  0  0  0  0
  3  4  1  0  0  0  0
  3 38  1  0  0  0  0
  4  5  1  0  0  0  0
  4 28  2  0  0  0  0
  5  6  1  0  0  0  0
  5  7  1  0  0  0  0
  5  8  1  0  0  0  0
  6 39  1  0  0  0  0
  6 40  1  0  0  0  0
  6 41  1  0  0  0  0
  7 42  1  0  0  0  0
  8  9  1  0  0  0  0
  8 43  1  0  0  0  0
  8 44  1  0  0  0  0
  9 10  1  0  0  0  0
  9 45  1  0  0  0  0
 10 15  1  0  0  0  0
 10 11  2  0  0  0  0
 11 12  1  0  0  0  0
 12 13  2  0  0  0  0
 12 46  1  0  0  0  0
 13 14  1  0  0  0  0
 14 18  1  0  0  0  0
 14 15  2  0  0  0  0
 15 16  1  0  0  0  0
 16 17  2  0  0  0  0
 17 18  1  0  0  0  0
 17 47  1  0  0  0  0
 18 19  1  0  0  0  0
 19 31  1  0  0  0  0
 19 26  1  0  0  0  0
 19 20  1  0  0  0  0
 20 21  1  0  0  0  0
 21 32  1  0  0  0  0
 21 22  1  0  0  0  0
 21 24  1  0  0  0  0
 22 23  1  0  0  0  0
 22 48  1  0  0  0  0
 22 49  1  0  0  0  0
 23 50  1  0  0  0  0
 24 33  1  0  0  0  0
 24 25  1  0  0  0  0
 24 26  1  0  0  0  0
 25 51  1  0  0  0  0
 26 34  1  0  0  0  0
 26 27  1  0  0  0  0
 27 52  1  0  0  0  0
 28 29  1  0  0  0  0
 28 30  1  0  0  0  0
 29 53  1  0  0  0  0
 29 54  1  0  0  0  0
 29 55  1  0  0  0  0
M  END
> <s_m_source_file>
AV-unprocessed.smi

> <i_m_source_file_index>
287

> <i_lp_mmshare_version>
43012

> <i_f3d_flags>
0

> <s_epik_input>
W0NIM11jMVtjSF1jKGMobzEpW0NIM10pW0NAQF0oW0NIM10pKFtPSF0pW0NIMl1bTkhdYyhuW2NIXW4yKWMoYzIzKW5bY0hdbjNbQ0BASF00T1tDQEhdKFtDSDJdW09IXSlbQ0BASF0oW09IXSlbQ0BIXTRbT0hd

> <s_epik_cmdline>
J2VwaWtfcHl0aG9uJywgJy1waCcsICc3LjAnLCAnLXRuJywgJzgnLCAnLW1hJywgJzIwMCcsICctbWV0YWxfYmluZGluZycsICctaW1hZScsICc8aW5maWxlLm1hZT4nLCAnLW9tYWUnLCAnPG91dGZpbGUubWFlPic=

> <r_lp_tautomer_probability>
1

> <r_epik_Ionization_Penalty>
0.000992612

> <r_epik_Ionization_Penalty_Charging>
0

> <r_epik_Ionization_Penalty_Neutral>
0.000992612

> <r_epik_State_Penalty>
-0

> <r_epik_Charging_Adjusted_Penalty>
0

> <i_epik_Tot_Q>
0

> <i_epik_Tot_abs_Q>
0

> <r_epik_Metal_State_Penalty>
-0

> <b_epik_Metal_Only>
0

> <s_epik_Chemistry_Notes>
This compound contains an acetal/aminal-like group ( X-CH(R)-Y where X, Y are N, S, or O) that may be acid/base labile, releasing an aldehyde.

> <s_lp_Force_Field>
OPLS_2005

> <r_lp_Energy>
42.7121

> <b_lp_Chiralities_Consistent>
1

> <s_lp_Variant>
AV-unprocessed.smi:287-11

> <Gold.Version>
5.8.1

> <Gold.Id.Protein>
6NUR|6NUR_protein|mol2

> <Gold.PLP.Fitness>
50.6325

> <Gold.PLP.PLP>
-39.4235

> <Gold.PLP.part.hbond>
-4.1783

> <Gold.PLP.part.metal>
0.0000

> <Gold.PLP.part.buried>
-3.4612

> <Gold.PLP.part.nonpolar>
-31.5081

> <Gold.PLP.part.repulsive>
0.5220

> <Gold.PLP.ligand.clash>
0.0000

> <Gold.PLP.ligand.torsion>
0.4661

> <Gold.PLP.Chemscore.Hbond>
2.9913

> <Gold.PLP.Chemscore.CHOScore>
0.9990

> <Gold.PLP.Chemscore.Metal>
0.0000

> <Gold.Chemscore.Hbonds>
donor molecule, donor type, donor heavy atom, donor atom, acceptor molecule, acceptor atom, score
      L1  H    23    50       P1  7921  1.00
      P1  H  7989  7998       L1     7  0.88
      P1  H 10192 10197       L1    23  1.00
      L1  C    17    47       P1 10171  1.00

> <Gold.PLP.Chemscore.Internal.Correction>
0.1703

> <Gold.Rescore>
     Score         DG    S(hbond)    S(metal)    S(lipo)     H(rot)  DE(clash)    DE(int)     intcor
      8.17     -10.51       2.32        0.00      92.01       5.27       0.83       1.51       ----

> <Gold.Chemscore.Fitness>
8.1662

> <Gold.Chemscore.DG>
-10.5054

> <Gold.Chemscore.ZeroCoef>
-5.4800

> <Gold.Chemscore.Hbond>
2.3186

> <Gold.Chemscore.Metal>
0.0000

> <Gold.Chemscore.Lipo>
92.0108

> <Gold.Chemscore.Internal_Hbond>
0.0000

> <Gold.Chemscore.DEClash>
0.8262

> <Gold.Chemscore.DEInternal>
1.5130

> <Gold.Chemscore.Rot>
5.2672

> <Gold.Chemscore.Internal.Correction>
   9.000000E+99

> <Gold.Chemscore.Hbonds>
donor molecule, donor type, donor heavy atom, donor atom, acceptor molecule, acceptor atom, score
      L1  H    23    50       P1  7921  0.97
      P1  H  7989  7998       L1     7  0.15
      P1  H 10192 10197       L1    23  0.32

> <Gold.Chemscore.Hbond.Weighted>
-7.7440

> <Gold.Chemscore.Metal.Weighted>
-0.0000

> <Gold.Chemscore.Lipo.Weighted>
-10.7653

> <Gold.Chemscore.Internal_Hbond.Weighted>
0.0000

> <Gold.Chemscore.DEClash.Weighted>
0.8262

> <Gold.Chemscore.DEInternal.Weighted>
1.5130

> <Gold.Chemscore.Rot.Weighted>
13.4839

> <Gold.Chemscore.Internal.Correction.Weighted>
   9.000000E+99

> <Gold.Protein.RotatedTorsions>
[ 6907 6896 6895 6894 ] final   56.13 input  -60.11 | X-H torsion
[ 7974 7965 7964 7962 ] final  -60.62 input  175.53 | X-H torsion
[ 8008 7997 7996 7995 ] final   47.43 input   59.86 | X-H torsion
[ 10167 10162 10161 10158 ] final -148.54 input  -65.29 | X-H torsion
[ 10718 10713 10712 10709 ] final  139.05 input   66.30 | X-H torsion
[ 10763 10752 10751 10750 ] final   66.39 input  -60.55 | X-H torsion
[ 11005 11000 10999 10996 ] final  -19.39 input  -57.11 | X-H torsion

> <Gold.Protein.ActiveResidues>
 VAL166  LYS551  ARG553  GLY616  TRP617  ASP618  TYR619  PRO620  LYS621  CYS622 
 ASP623  PHE694  ASN695  SER759  ASP760  ASP761  ALA762  ILE779  LEU786  VAL792 
 PHE793  MET794  SER795  GLU796  ALA797  LYS798  CYS799  TRP800  GLU811  SER814 

> <Gold.Protein.RotatedAtoms>
  152.3607  134.6877  160.0207 H   0  0  0  0  0  0  0  0  0  0  0  0  # atno 6907 bound_to 6896
  151.7201  133.3309  159.3321 H   0  0  0  0  0  0  0  0  0  0  0  0  # atno 6908 bound_to 6896
  150.7602  134.6390  159.6271 H   0  0  0  0  0  0  0  0  0  0  0  0  # atno 6909 bound_to 6896
  145.8133  140.8585  143.0170 H   0  0  0  0  0  0  0  0  0  0  0  0  # atno 7974 bound_to 7965
  155.3689  140.3422  155.4242 H   0  0  0  0  0  0  0  0  0  0  0  0  # atno 8008 bound_to 7997
  156.1673  140.1620  156.8542 H   0  0  0  0  0  0  0  0  0  0  0  0  # atno 8009 bound_to 7997
  154.5198  140.0769  156.8133 H   0  0  0  0  0  0  0  0  0  0  0  0  # atno 8010 bound_to 7997
  139.7522  143.8501  152.2589 H   0  0  0  0  0  0  0  0  0  0  0  0  # atno 10167 bound_to 10162
  157.4186  131.1036  151.0378 H   0  0  0  0  0  0  0  0  0  0  0  0  # atno 10718 bound_to 10713
  153.0138  135.5322  154.6816 H   0  0  0  0  0  0  0  0  0  0  0  0  # atno 10763 bound_to 10752
  154.5975  135.2865  155.0573 H   0  0  0  0  0  0  0  0  0  0  0  0  # atno 10764 bound_to 10752
  154.1643  135.6542  153.5046 H   0  0  0  0  0  0  0  0  0  0  0  0  # atno 10765 bound_to 10752
  140.8362  133.7960  155.9811 H   0  0  0  0  0  0  0  0  0  0  0  0  # atno 11005 bound_to 11000
  144.6755  140.0427  143.7480 LP  0  0  0  0  0  0  0  0  0  0  0  0  # atno 17320 bound_to 7965
  145.9753  139.2900  143.1074 LP  0  0  0  0  0  0  0  0  0  0  0  0  # atno 17321 bound_to 7965
  139.8482  144.7177  150.9246 LP  0  0  0  0  0  0  0  0  0  0  0  0  # atno 17342 bound_to 10162
  140.7799  143.3922  151.1290 LP  0  0  0  0  0  0  0  0  0  0  0  0  # atno 17343 bound_to 10162
  157.1316  130.6105  149.5531 LP  0  0  0  0  0  0  0  0  0  0  0  0  # atno 17370 bound_to 10713
  155.9873  130.4912  150.7119 LP  0  0  0  0  0  0  0  0  0  0  0  0  # atno 17371 bound_to 10713
  140.8945  134.2454  157.5076 LP  0  0  0  0  0  0  0  0  0  0  0  0  # atno 17394 bound_to 11000
  139.8704  134.9677  156.4607 LP  0  0  0  0  0  0  0  0  0  0  0  0  # atno 17395 bound_to 11000

$$$$
