AV-unprocessed.smi:2090|AV-procd|sdf|8536|dock8
  -GOLD-   2272011253D 1   1.00000     0.00000
 Structure written by MMmdl.
 41 42  0  0  0  0  0  0  0  0  3 V2000
  153.0983  142.4646  161.0756 C   0  0  0  0  0  0  0  0  0  0  0  0
  152.9360  141.5922  159.8783 C   0  0  0  0  0  0  0  0  0  0  0  0
  152.0159  141.5617  158.8687 C   0  0  0  0  0  0  0  0  0  0  0  0
  152.4588  140.4789  158.0629 C   0  0  0  0  0  0  0  0  0  0  0  0
  151.7535  140.1179  156.8842 N   0  0  0  0  0  0  0  0  0  0  0  0
  152.2319  139.5765  155.7491 C   0  0  0  0  0  0  0  0  0  0  0  0
  153.4382  139.3273  155.6353 O   0  0  0  0  0  0  0  0  0  0  0  0
  151.2546  139.3717  154.8226 N   0  5  0  0  0  0  0  0  0  0  0  0
  150.8478  138.0613  154.3175 C   0  0  0  0  0  0  0  0  0  0  0  0
  149.4355  137.7082  154.8268 C   0  0  0  0  0  0  0  0  0  0  0  0
  149.0304  136.3355  154.4248 N   0  3  2  0  0  0  0  0  0  0  0  0
  147.6076  136.0228  154.7360 C   0  0  0  0  0  0  0  0  0  0  0  0
  147.2033  134.6534  154.1658 C   0  0  0  0  0  0  0  0  0  0  0  0
  148.1222  133.5381  154.6919 C   0  0  1  0  0  0  0  0  0  0  0  0
  147.7455  132.1684  154.1100 C   0  0  0  0  0  0  0  0  0  0  0  0
  149.5851  133.9032  154.3900 C   0  0  0  0  0  0  0  0  0  0  0  0
  149.9437  135.2888  154.9529 C   0  0  0  0  0  0  0  0  0  0  0  0
  153.5510  139.9003  158.5403 N   0  0  0  0  0  0  0  0  0  0  0  0
  153.8617  140.6100  159.7061 O   0  0  0  0  0  0  0  0  0  0  0  0
  152.6087  143.4268  160.9243 H   0  0  0  0  0  0  0  0  0  0  0  0
  154.1525  142.6516  161.2808 H   0  0  0  0  0  0  0  0  0  0  0  0
  152.6593  141.9956  161.9563 H   0  0  0  0  0  0  0  0  0  0  0  0
  151.1641  142.2107  158.7294 H   0  0  0  0  0  0  0  0  0  0  0  0
  150.7594  140.2918  156.9008 H   0  0  0  0  0  0  0  0  0  0  0  0
  150.8592  138.0209  153.2277 H   0  0  0  0  0  0  0  0  0  0  0  0
  151.5400  137.2838  154.6414 H   0  0  0  0  0  0  0  0  0  0  0  0
  149.4403  137.7920  155.9147 H   0  0  0  0  0  0  0  0  0  0  0  0
  148.6958  138.4299  154.4760 H   0  0  0  0  0  0  0  0  0  0  0  0
  147.4589  136.0366  155.8170 H   0  0  0  0  0  0  0  0  0  0  0  0
  146.9538  136.7904  154.3203 H   0  0  0  0  0  0  0  0  0  0  0  0
  146.1671  134.4392  154.4291 H   0  0  0  0  0  0  0  0  0  0  0  0
  147.2447  134.6869  153.0761 H   0  0  0  0  0  0  0  0  0  0  0  0
  148.0031  133.4818  155.7749 H   0  0  0  0  0  0  0  0  0  0  0  0
  147.8372  132.1585  153.0234 H   0  0  0  0  0  0  0  0  0  0  0  0
  146.7170  131.9062  154.3594 H   0  0  0  0  0  0  0  0  0  0  0  0
  148.3903  131.3833  154.5060 H   0  0  0  0  0  0  0  0  0  0  0  0
  150.2533  133.1523  154.8132 H   0  0  0  0  0  0  0  0  0  0  0  0
  149.7540  133.8947  153.3120 H   0  0  0  0  0  0  0  0  0  0  0  0
  150.9727  135.5270  154.6802 H   0  0  0  0  0  0  0  0  0  0  0  0
  149.8968  135.2794  156.0432 H   0  0  0  0  0  0  0  0  0  0  0  0
  149.1252  136.3071  153.4196 H   0  0  0  0  0  0  0  0  0  0  0  0
  1  2  1  0  0  0  0
  1 20  1  0  0  0  0
  1 21  1  0  0  0  0
  1 22  1  0  0  0  0
  2 19  1  0  0  0  0
  2  3  2  0  0  0  0
  3  4  1  0  0  0  0
  3 23  1  0  0  0  0
  4  5  1  0  0  0  0
  4 18  2  0  0  0  0
  5  6  1  0  0  0  0
  5 24  1  0  0  0  0
  6  7  2  0  0  0  0
  6  8  1  0  0  0  0
  8  9  1  0  0  0  0
  9 10  1  0  0  0  0
  9 25  1  0  0  0  0
  9 26  1  0  0  0  0
 10 11  1  0  0  0  0
 10 27  1  0  0  0  0
 10 28  1  0  0  0  0
 11 17  1  0  0  0  0
 11 12  1  0  0  0  0
 11 41  1  0  0  0  0
 12 13  1  0  0  0  0
 12 29  1  0  0  0  0
 12 30  1  0  0  0  0
 13 14  1  0  0  0  0
 13 31  1  0  0  0  0
 13 32  1  0  0  0  0
 14 15  1  0  0  0  0
 14 16  1  0  0  0  0
 14 33  1  0  0  0  0
 15 34  1  0  0  0  0
 15 35  1  0  0  0  0
 15 36  1  0  0  0  0
 16 17  1  0  0  0  0
 16 37  1  0  0  0  0
 16 38  1  0  0  0  0
 17 39  1  0  0  0  0
 17 40  1  0  0  0  0
 18 19  1  0  0  0  0
M  CHG  1   8  -1
M  CHG  1  11   1
M  END
> <s_m_source_file>
AV-unprocessed.smi

> <i_m_source_file_index>
2090

> <i_lp_mmshare_version>
43012

> <i_f3d_flags>
0

> <s_epik_input>
W0NIM11jMVtjSF1jKG5vMSlbTkhdQyg9TylbTkhdW0NIMl1bQ0gyXU4yW0NIMl1bQ0gyXVtDSF0oW0NIM10pW0NIMl1bQ0gyXTI=

> <s_epik_cmdline>
J2VwaWtfcHl0aG9uJywgJy1waCcsICc3LjAnLCAnLXRuJywgJzgnLCAnLW1hJywgJzIwMCcsICctbWV0YWxfYmluZGluZycsICctaW1hZScsICc8aW5maWxlLm1hZT4nLCAnLW9tYWUnLCAnPG91dGZpbGUubWFlPic=

> <r_epik_Ionization_Penalty>
6.7721

> <r_epik_Ionization_Penalty_Charging>
6.7721

> <r_epik_Ionization_Penalty_Neutral>
5.78572e-06

> <r_epik_State_Penalty>
6.79704

> <r_epik_Charging_Adjusted_Penalty>
13.5691

> <i_epik_Tot_Q>
0

> <i_epik_Tot_abs_Q>
2

> <r_epik_Metal_State_Penalty>
2.73105

> <b_epik_Metal_Only>
1

> <s_lp_Force_Field>
OPLS_2005

> <r_lp_Energy>
11.0836

> <b_lp_Chiralities_Consistent>
1

> <s_lp_Variant>
AV-unprocessed.smi:2090-5

> <Gold.Version>
5.8.1

> <Gold.Id.Protein>
6NUR|6NUR_protein|mol2

> <Gold.PLP.Fitness>
41.9011

> <Gold.PLP.PLP>
-30.2591

> <Gold.PLP.part.hbond>
-3.4891

> <Gold.PLP.part.metal>
0.0000

> <Gold.PLP.part.buried>
-3.4997

> <Gold.PLP.part.nonpolar>
-23.1671

> <Gold.PLP.part.repulsive>
0.1825

> <Gold.PLP.ligand.clash>
0.0000

> <Gold.PLP.ligand.torsion>
0.8619

> <Gold.PLP.Chemscore.Hbond>
4.4400

> <Gold.PLP.Chemscore.CHOScore>
0.0000

> <Gold.PLP.Chemscore.Metal>
0.0000

> <Gold.Chemscore.Hbonds>
donor molecule, donor type, donor heavy atom, donor atom, acceptor molecule, acceptor atom, score
      L1  H    11    41       P1  7948  2.00
      P1  H  7989  7998       L1     8  1.00
      P1  H  7997  8008       L1    18  0.91
      P1  H  7997  8009       L1     7  0.53

> <Gold.PLP.Chemscore.Internal.Correction>
0.0459

> <Gold.Rescore>
     Score         DG    S(hbond)    S(metal)    S(lipo)     H(rot)  DE(clash)    DE(int)     intcor
     15.13     -17.15       2.36        0.00      65.94       1.54       0.01       2.01       ----

> <Gold.Chemscore.Fitness>
15.1290

> <Gold.Chemscore.DG>
-17.1486

> <Gold.Chemscore.ZeroCoef>
-5.4800

> <Gold.Chemscore.Hbond>
2.3648

> <Gold.Chemscore.Metal>
0.0000

> <Gold.Chemscore.Lipo>
65.9383

> <Gold.Chemscore.Internal_Hbond>
0.0000

> <Gold.Chemscore.DEClash>
0.0063

> <Gold.Chemscore.DEInternal>
2.0134

> <Gold.Chemscore.Rot>
1.5409

> <Gold.Chemscore.Internal.Correction>
   9.000000E+99

> <Gold.Chemscore.Hbonds>
donor molecule, donor type, donor heavy atom, donor atom, acceptor molecule, acceptor atom, score
      L1  H    11    41       P1  7948  0.91
      P1  H  7989  7998       L1     8  0.27
      P1  H  7997  8008       L1    18  0.51
      P1  H  7997  8009       L1     7  0.52

> <Gold.Chemscore.Hbond.Weighted>
-7.8985

> <Gold.Chemscore.Metal.Weighted>
-0.0000

> <Gold.Chemscore.Lipo.Weighted>
-7.7148

> <Gold.Chemscore.Internal_Hbond.Weighted>
0.0000

> <Gold.Chemscore.DEClash.Weighted>
0.0063

> <Gold.Chemscore.DEInternal.Weighted>
2.0134

> <Gold.Chemscore.Rot.Weighted>
3.9446

> <Gold.Chemscore.Internal.Correction.Weighted>
   9.000000E+99

> <Gold.Protein.RotatedTorsions>
[ 6907 6896 6895 6894 ] final -143.17 input  -60.11 | X-H torsion
[ 7974 7965 7964 7962 ] final -104.41 input  175.53 | X-H torsion
[ 8008 7997 7996 7995 ] final -111.80 input   59.86 | X-H torsion
[ 10167 10162 10161 10158 ] final  111.87 input  -65.29 | X-H torsion
[ 10718 10713 10712 10709 ] final   23.74 input   66.30 | X-H torsion
[ 10763 10752 10751 10750 ] final  -36.19 input  -60.55 | X-H torsion
[ 11005 11000 10999 10996 ] final  167.93 input  -57.11 | X-H torsion

> <Gold.Protein.ActiveResidues>
 VAL166  LYS551  ARG553  GLY616  TRP617  ASP618  TYR619  PRO620  LYS621  CYS622 
 ASP623  PHE694  ASN695  SER759  ASP760  ASP761  ALA762  ILE779  LEU786  VAL792 
 PHE793  MET794  SER795  GLU796  ALA797  LYS798  CYS799  TRP800  GLU811  SER814 

> <Gold.Protein.RotatedAtoms>
  151.0968  133.5273  159.2611 H   0  0  0  0  0  0  0  0  0  0  0  0  # atno 6907 bound_to 6896
  151.2119  135.0484  159.8924 H   0  0  0  0  0  0  0  0  0  0  0  0  # atno 6908 bound_to 6896
  152.5439  134.0783  159.8278 H   0  0  0  0  0  0  0  0  0  0  0  0  # atno 6909 bound_to 6896
  145.2435  140.9213  143.3136 H   0  0  0  0  0  0  0  0  0  0  0  0  # atno 7974 bound_to 7965
  154.9954  140.0395  157.2337 H   0  0  0  0  0  0  0  0  0  0  0  0  # atno 8008 bound_to 7997
  154.7591  140.2781  155.6206 H   0  0  0  0  0  0  0  0  0  0  0  0  # atno 8009 bound_to 7997
  156.2900  140.2632  156.2365 H   0  0  0  0  0  0  0  0  0  0  0  0  # atno 8010 bound_to 7997
  139.6578  144.7129  151.1923 H   0  0  0  0  0  0  0  0  0  0  0  0  # atno 10167 bound_to 10162
  157.1703  130.6756  149.6075 H   0  0  0  0  0  0  0  0  0  0  0  0  # atno 10718 bound_to 10713
  153.8757  135.6826  153.4771 H   0  0  0  0  0  0  0  0  0  0  0  0  # atno 10763 bound_to 10752
  153.1262  135.4718  154.9274 H   0  0  0  0  0  0  0  0  0  0  0  0  # atno 10764 bound_to 10752
  154.7693  135.3234  154.8173 H   0  0  0  0  0  0  0  0  0  0  0  0  # atno 10765 bound_to 10752
  140.2820  134.7743  157.3766 H   0  0  0  0  0  0  0  0  0  0  0  0  # atno 11005 bound_to 11000
  144.9567  139.4024  143.6376 LP  0  0  0  0  0  0  0  0  0  0  0  0  # atno 17320 bound_to 7965
  146.3322  139.8600  142.8858 LP  0  0  0  0  0  0  0  0  0  0  0  0  # atno 17321 bound_to 7965
  140.7567  143.6044  150.8668 LP  0  0  0  0  0  0  0  0  0  0  0  0  # atno 17342 bound_to 10162
  139.9698  143.6069  152.2977 LP  0  0  0  0  0  0  0  0  0  0  0  0  # atno 17343 bound_to 10162
  155.9739  130.4681  150.6349 LP  0  0  0  0  0  0  0  0  0  0  0  0  # atno 17370 bound_to 10713
  157.4050  131.0815  151.1274 LP  0  0  0  0  0  0  0  0  0  0  0  0  # atno 17371 bound_to 10713
  140.1275  134.5139  155.8133 LP  0  0  0  0  0  0  0  0  0  0  0  0  # atno 17394 bound_to 11000
  141.2161  133.6778  156.6978 LP  0  0  0  0  0  0  0  0  0  0  0  0  # atno 17395 bound_to 11000

$$$$
