AV-unprocessed.smi:1394|AV-procd|sdf|5668|dock3
  -GOLD-   22720 5293D 1   1.00000     0.00000
 Structure written by MMmdl.
 41 42  0  0  0  0  0  0  0  0  1 V2000
  151.8461  138.8164  156.3964 C   0  0  0  0  0  0  0  0  0  0  0  0
  150.9883  139.6309  155.4113 C   0  0  1  0  0  0  0  0  0  0  0  0
  150.0354  138.7029  154.6304 C   0  0  0  0  0  0  0  0  0  0  0  0
  149.1690  139.4822  153.6294 C   0  0  0  0  0  0  0  0  0  0  0  0
  148.3765  140.5911  154.3345 C   0  0  0  0  0  0  0  0  0  0  0  0
  149.3148  141.5333  155.1017 C   0  0  0  0  0  0  0  0  0  0  0  0
  150.1957  140.7646  156.1100 C   0  0  2  0  0  0  0  0  0  0  0  0
  151.1101  141.6905  156.7751 N   0  0  0  0  0  0  0  0  0  0  0  0
  151.0382  142.0673  158.0607 C   0  0  0  0  0  0  0  0  0  0  0  0
  150.1806  141.6509  158.8405 O   0  0  0  0  0  0  0  0  0  0  0  0
  152.1160  143.0519  158.5351 C   0  0  0  0  0  0  0  0  0  0  0  0
  152.6979  142.6866  159.8380 N   0  0  0  0  0  0  0  0  0  0  0  0
  152.4409  143.5510  160.9171 C   0  0  0  0  0  0  0  0  0  0  0  0
  152.9248  143.3117  162.1433 C   0  0  0  0  0  0  0  0  0  0  0  0
  153.7271  142.1293  162.3416 C   0  0  0  0  0  0  0  0  0  0  0  0
  153.9932  141.2799  161.3222 C   0  0  0  0  0  0  0  0  0  0  0  0
  154.8369  140.0218  161.5147 C   0  0  0  0  0  0  0  0  0  0  0  0
  155.9009  140.0436  160.7112 F   0  0  0  0  0  0  0  0  0  0  0  0
  155.2755  139.9066  162.7691 F   0  0  0  0  0  0  0  0  0  0  0  0
  154.1234  138.9311  161.2316 F   0  0  0  0  0  0  0  0  0  0  0  0
  153.4581  141.5557  159.9731 C   0  0  0  0  0  0  0  0  0  0  0  0
  153.6770  140.8149  159.0128 O   0  0  0  0  0  0  0  0  0  0  0  0
  151.2289  138.3507  157.1651 H   0  0  0  0  0  0  0  0  0  0  0  0
  152.5878  139.4389  156.8972 H   0  0  0  0  0  0  0  0  0  0  0  0
  152.3873  138.0230  155.8803 H   0  0  0  0  0  0  0  0  0  0  0  0
  151.6663  140.0883  154.6890 H   0  0  0  0  0  0  0  0  0  0  0  0
  150.6078  137.9423  154.0982 H   0  0  0  0  0  0  0  0  0  0  0  0
  149.3891  138.1686  155.3281 H   0  0  0  0  0  0  0  0  0  0  0  0
  149.8031  139.9187  152.8567 H   0  0  0  0  0  0  0  0  0  0  0  0
  148.4848  138.8019  153.1216 H   0  0  0  0  0  0  0  0  0  0  0  0
  147.7966  141.1564  153.6045 H   0  0  0  0  0  0  0  0  0  0  0  0
  147.6577  140.1475  155.0246 H   0  0  0  0  0  0  0  0  0  0  0  0
  149.9474  142.0683  154.3917 H   0  0  0  0  0  0  0  0  0  0  0  0
  148.7232  142.2909  155.6171 H   0  0  0  0  0  0  0  0  0  0  0  0
  149.5475  140.3088  156.8614 H   0  0  0  0  0  0  0  0  0  0  0  0
  151.8511  142.0793  156.2101 H   0  0  0  0  0  0  0  0  0  0  0  0
  152.8889  143.1011  157.7671 H   0  0  0  0  0  0  0  0  0  0  0  0
  151.6987  144.0597  158.5833 H   0  0  0  0  0  0  0  0  0  0  0  0
  151.8369  144.4157  160.6834 H   0  0  0  0  0  0  0  0  0  0  0  0
  152.7210  143.9873  162.9610 H   0  0  0  0  0  0  0  0  0  0  0  0
  154.1149  141.9330  163.3299 H   0  0  0  0  0  0  0  0  0  0  0  0
  1  2  1  0  0  0  0
  1 23  1  0  0  0  0
  1 24  1  0  0  0  0
  1 25  1  0  0  0  0
  2  7  1  0  0  0  0
  2  3  1  0  0  0  0
  2 26  1  0  0  0  0
  3  4  1  0  0  0  0
  3 27  1  0  0  0  0
  3 28  1  0  0  0  0
  4  5  1  0  0  0  0
  4 29  1  0  0  0  0
  4 30  1  0  0  0  0
  5  6  1  0  0  0  0
  5 31  1  0  0  0  0
  5 32  1  0  0  0  0
  6  7  1  0  0  0  0
  6 33  1  0  0  0  0
  6 34  1  0  0  0  0
  7  8  1  0  0  0  0
  7 35  1  0  0  0  0
  8  9  1  0  0  0  0
  8 36  1  0  0  0  0
  9 10  2  0  0  0  0
  9 11  1  0  0  0  0
 11 12  1  0  0  0  0
 11 37  1  0  0  0  0
 11 38  1  0  0  0  0
 12 21  1  0  0  0  0
 12 13  1  0  0  0  0
 13 14  2  0  0  0  0
 13 39  1  0  0  0  0
 14 15  1  0  0  0  0
 14 40  1  0  0  0  0
 15 16  2  0  0  0  0
 15 41  1  0  0  0  0
 16 17  1  0  0  0  0
 16 21  1  0  0  0  0
 17 18  1  0  0  0  0
 17 19  1  0  0  0  0
 17 20  1  0  0  0  0
 21 22  2  0  0  0  0
M  END
> <s_m_source_file>
AV-unprocessed.smi

> <i_m_source_file_index>
1394

> <i_lp_mmshare_version>
43012

> <i_f3d_flags>
0

> <s_epik_input>
W0NIM11bQ0BASF0xW0NIMl1bQ0gyXVtDSDJdW0NIMl1bQ0BIXTFbTkhdQyg9TylbQ0gyXW4yW2NIXVtjSF1bY0hdYyhDKEYpKEYpRiljMj1P

> <s_epik_cmdline>
J2VwaWtfcHl0aG9uJywgJy1waCcsICc3LjAnLCAnLXRuJywgJzgnLCAnLW1hJywgJzIwMCcsICctbWV0YWxfYmluZGluZycsICctaW1hZScsICc8aW5maWxlLm1hZT4nLCAnLW9tYWUnLCAnPG91dGZpbGUubWFlPic=

> <r_lp_tautomer_probability>
1

> <r_epik_Ionization_Penalty>
2.11487e-08

> <r_epik_Ionization_Penalty_Charging>
2.10183e-09

> <r_epik_Ionization_Penalty_Neutral>
1.90469e-08

> <r_epik_State_Penalty>
-0

> <r_epik_Charging_Adjusted_Penalty>
2.10183e-09

> <i_epik_Tot_Q>
0

> <i_epik_Tot_abs_Q>
0

> <r_epik_Metal_State_Penalty>
-0

> <b_epik_Metal_Only>
0

> <s_lp_Force_Field>
OPLS_2005

> <r_lp_Energy>
20.4612

> <b_lp_Chiralities_Consistent>
1

> <s_lp_Variant>
AV-unprocessed.smi:1394-4

> <Gold.Version>
5.8.1

> <Gold.Id.Protein>
6NUR|6NUR_protein|mol2

> <Gold.PLP.Fitness>
49.3080

> <Gold.PLP.PLP>
-49.0708

> <Gold.PLP.part.hbond>
-1.5405

> <Gold.PLP.part.metal>
0.0000

> <Gold.PLP.part.buried>
3.7322

> <Gold.PLP.part.nonpolar>
-49.8863

> <Gold.PLP.part.repulsive>
0.1122

> <Gold.PLP.ligand.clash>
0.2763

> <Gold.PLP.ligand.torsion>
0.3226

> <Gold.PLP.Chemscore.Hbond>
0.2865

> <Gold.PLP.Chemscore.CHOScore>
0.0000

> <Gold.PLP.Chemscore.Metal>
0.0000

> <Gold.Chemscore.Hbonds>
donor molecule, donor type, donor heavy atom, donor atom, acceptor molecule, acceptor atom, score
      P1  H  7997  8009       L1    22  0.28

> <Gold.PLP.Chemscore.Internal.Correction>
0.2992

> <Gold.Rescore>
     Score         DG    S(hbond)    S(metal)    S(lipo)     H(rot)  DE(clash)    DE(int)     intcor
     11.95     -17.16       0.79        0.00     110.60       1.52       2.11       3.10       ----

> <Gold.Chemscore.Fitness>
11.9480

> <Gold.Chemscore.DG>
-17.1629

> <Gold.Chemscore.ZeroCoef>
-5.4800

> <Gold.Chemscore.Hbond>
0.7918

> <Gold.Chemscore.Metal>
0.0000

> <Gold.Chemscore.Lipo>
110.6003

> <Gold.Chemscore.Internal_Hbond>
0.0000

> <Gold.Chemscore.DEClash>
2.1121

> <Gold.Chemscore.DEInternal>
3.1028

> <Gold.Chemscore.Rot>
1.5242

> <Gold.Chemscore.Internal.Correction>
   9.000000E+99

> <Gold.Chemscore.Hbonds>
donor molecule, donor type, donor heavy atom, donor atom, acceptor molecule, acceptor atom, score
      P1  H  7997  8009       L1    22  0.28

> <Gold.Chemscore.Hbond.Weighted>
-2.6445

> <Gold.Chemscore.Metal.Weighted>
-0.0000

> <Gold.Chemscore.Lipo.Weighted>
-12.9402

> <Gold.Chemscore.Internal_Hbond.Weighted>
0.0000

> <Gold.Chemscore.DEClash.Weighted>
2.1121

> <Gold.Chemscore.DEInternal.Weighted>
3.1028

> <Gold.Chemscore.Rot.Weighted>
3.9019

> <Gold.Chemscore.Internal.Correction.Weighted>
   9.000000E+99

> <Gold.Protein.RotatedTorsions>
[ 6907 6896 6895 6894 ] final    7.99 input  -60.11 | X-H torsion
[ 7974 7965 7964 7962 ] final  126.53 input  175.53 | X-H torsion
[ 8008 7997 7996 7995 ] final  138.61 input   59.86 | X-H torsion
[ 10167 10162 10161 10158 ] final  -31.80 input  -65.29 | X-H torsion
[ 10718 10713 10712 10709 ] final  -87.87 input   66.30 | X-H torsion
[ 10763 10752 10751 10750 ] final -171.82 input  -60.55 | X-H torsion
[ 11005 11000 10999 10996 ] final  110.36 input  -57.11 | X-H torsion

> <Gold.Protein.ActiveResidues>
 VAL166  LYS551  ARG553  GLY616  TRP617  ASP618  TYR619  PRO620  LYS621  CYS622 
 ASP623  PHE694  ASN695  SER759  ASP760  ASP761  ALA762  ILE779  LEU786  VAL792 
 PHE793  MET794  SER795  GLU796  ALA797  LYS798  CYS799  TRP800  GLU811  SER814 

> <Gold.Protein.RotatedAtoms>
  151.6988  135.0933  160.0246 H   0  0  0  0  0  0  0  0  0  0  0  0  # atno 6907 bound_to 6896
  152.3733  133.6443  159.6112 H   0  0  0  0  0  0  0  0  0  0  0  0  # atno 6908 bound_to 6896
  150.7690  133.9151  159.3422 H   0  0  0  0  0  0  0  0  0  0  0  0  # atno 6909 bound_to 6896
  145.0606  139.3808  143.5007 H   0  0  0  0  0  0  0  0  0  0  0  0  # atno 7974 bound_to 7965
  156.2996  140.2389  156.4102 H   0  0  0  0  0  0  0  0  0  0  0  0  # atno 8008 bound_to 7997
  154.8448  140.0426  157.1585 H   0  0  0  0  0  0  0  0  0  0  0  0  # atno 8009 bound_to 7997
  154.9063  140.2984  155.5294 H   0  0  0  0  0  0  0  0  0  0  0  0  # atno 8010 bound_to 7997
  140.7231  143.3743  151.1719 H   0  0  0  0  0  0  0  0  0  0  0  0  # atno 10167 bound_to 10162
  155.9984  130.4815  150.4932 H   0  0  0  0  0  0  0  0  0  0  0  0  # atno 10718 bound_to 10713
  154.6262  135.2881  155.0269 H   0  0  0  0  0  0  0  0  0  0  0  0  # atno 10763 bound_to 10752
  154.1446  135.6513  153.4953 H   0  0  0  0  0  0  0  0  0  0  0  0  # atno 10764 bound_to 10752
  153.0258  135.5341  154.7071 H   0  0  0  0  0  0  0  0  0  0  0  0  # atno 10765 bound_to 10752
  139.8880  134.9482  156.6267 H   0  0  0  0  0  0  0  0  0  0  0  0  # atno 11005 bound_to 11000
  146.3524  140.0303  142.8651 LP  0  0  0  0  0  0  0  0  0  0  0  0  # atno 17320 bound_to 7965
  145.1413  140.9573  143.4487 LP  0  0  0  0  0  0  0  0  0  0  0  0  # atno 17321 bound_to 7965
  139.7320  143.9058  152.3022 LP  0  0  0  0  0  0  0  0  0  0  0  0  # atno 17342 bound_to 10162
  139.8850  144.6997  150.8835 LP  0  0  0  0  0  0  0  0  0  0  0  0  # atno 17343 bound_to 10162
  157.2925  131.0629  151.2124 LP  0  0  0  0  0  0  0  0  0  0  0  0  # atno 17370 bound_to 10713
  157.3131  130.6900  149.6227 LP  0  0  0  0  0  0  0  0  0  0  0  0  # atno 17371 bound_to 10713
  140.7697  133.8748  155.8482 LP  0  0  0  0  0  0  0  0  0  0  0  0  # atno 17394 bound_to 11000
  140.9852  134.1352  157.4458 LP  0  0  0  0  0  0  0  0  0  0  0  0  # atno 17395 bound_to 11000

$$$$
