#       Name:                AV-unprocessed.smi:2532
#       Creating user name   scv26
#       Creation time:       Fri Mar 27 14:01:37 2020


#       File generated by GOLD software.
#

@<TRIPOS>MOLECULE
AV-unprocessed.smi:2532
    41    43     1
SMALL
NO_CHARGES


@<TRIPOS>ATOM
      1 ****        -0.3742  -0.2708   0.9937 O.3            1 S1                 0.0000
      2 ****         0.0969   0.2274  -0.2427 C.3            1 S1                 0.0000
      3 ****         1.6326   0.2507  -0.2001 C.3            1 S1                 0.0000
      4 ****         2.1191  -1.0585  -0.4431 O.3            1 S1                 0.0000
      5 ****         3.5360  -1.1300  -0.4278 C.3            1 S1                 0.0000
      6 ****         3.9334  -2.5521  -0.6727 C.2            1 S1                 0.0000
      7 ****         5.1776  -3.0043  -1.0328 C.2            1 S1                 0.0000
      8 ****         5.2440  -4.4213  -1.1777 C.2            1 S1                 0.0000
      9 ****         4.0489  -5.0380  -0.9204 C.2            1 S1                 0.0000
     10 ****         2.8148  -3.8857  -0.4912 S.3            1 S1                 0.0000
     11 ****        -0.4918   1.6316  -0.4842 C.3            1 S1                 0.0000
     12 ****        -1.9599   1.6310  -0.5652 N.pl3          1 S1                 0.0000
     13 ****        -2.7686   1.3766  -1.6296 C.2            1 S1                 0.0000
     14 ****        -4.0572   1.5031  -1.2079 N.pl3          1 S1                 1.0000
     15 ****        -4.0735   1.8416   0.1467 C.ar           1 S1                 0.0000
     16 ****        -5.1366   2.0750   1.0138 C.ar           1 S1                 0.0000
     17 ****        -4.8071   2.3990   2.3463 C.ar           1 S1                 0.0000
     18 ****        -3.4654   2.4794   2.7722 C.ar           1 S1                 0.0000
     19 ****        -2.3957   2.2420   1.8841 C.ar           1 S1                 0.0000
     20 ****        -2.7290   1.9242   0.5676 C.ar           1 S1                 0.0000
     21 ****        -0.0116  -1.1343   1.1234 H              1 S1                 0.0000
     22 ****        -0.2363  -0.4373  -1.0409 H              1 S1                 0.0000
     23 ****         2.0123   0.9072  -0.9847 H              1 S1                 0.0000
     24 ****         1.9958   0.6415   0.7522 H              1 S1                 0.0000
     25 ****         3.9565  -0.4837  -1.1995 H              1 S1                 0.0000
     26 ****         3.9233  -0.7972   0.5361 H              1 S1                 0.0000
     27 ****         6.0367  -2.3706  -1.1967 H              1 S1                 0.0000
     28 ****         6.1533  -4.9313  -1.4598 H              1 S1                 0.0000
     29 ****         3.8193  -6.0929  -0.9537 H              1 S1                 0.0000
     30 ****        -0.1712   2.3348   0.2848 H              1 S1                 0.0000
     31 ****        -0.1235   2.0285  -1.4310 H              1 S1                 0.0000
     32 ****        -2.4463   1.1214  -2.6288 H              1 S1                 0.0000
     33 ****        -6.1654   2.0117   0.6908 H              1 S1                 0.0000
     34 ****        -5.5993   2.5879   3.0562 H              1 S1                 0.0000
     35 ****        -3.2515   2.7266   3.8020 H              1 S1                 0.0000
     36 ****        -1.3722   2.3000   2.2234 H              1 S1                 0.0000
     37 ****        -4.8643   1.3669  -1.8030 H              1 S1                 0.0000
     38 ****        -1.3728  -0.3221   0.9792 LP             1 S1                 0.0000
     39 ****        -0.0822   0.3334   1.7351 LP             1 S1                 0.0000
     40 ****         1.7937  -1.3590  -1.3396 LP             1 S1                 0.0000
     41 ****         1.7607  -1.6688   0.2634 LP             1 S1                 0.0000
@<TRIPOS>BOND
    1    1    2 1     
    2    1   21 1     
    3    2    3 1     
    4    2   11 1     
    5    2   22 1     
    6    3    4 1     
    7    3   23 1     
    8    3   24 1     
    9    4    5 1     
   10    5    6 1     
   11    5   25 1     
   12    5   26 1     
   13    6   10 1     
   14    6    7 2     
   15    7    8 1     
   16    7   27 1     
   17    8    9 2     
   18    8   28 1     
   19    9   10 1     
   20    9   29 1     
   21   11   12 1     
   22   11   30 1     
   23   11   31 1     
   24   12   20 1     
   25   12   13 1     
   26   13   14 2     
   27   13   32 1     
   28   14   15 1     
   29   14   37 1     
   30   15   20 ar    
   31   15   16 ar    
   32   16   17 ar    
   33   16   33 1     
   34   17   18 ar    
   35   17   34 1     
   36   18   19 ar    
   37   18   35 1     
   38   19   20 ar    
   39   19   36 1     
   40    1   38 1     
   41    1   39 1     
   42    4   40 1     
   43    4   41 1     
@<TRIPOS>SUBSTRUCTURE
      1 S1             1
@<TRIPOS>SET
LONE_PAIRS      STATIC     ATOMS    <user>   **** ""
4 38 39 40 41
DONOR_HYDROGENS      STATIC     ATOMS    <user>   **** ""
2 21 37
ATOM$BLUE        STATIC     ATOMS    COLORGROUP SYSTEM
4 38 39 40 41
ATOM$RED        STATIC     ATOMS    COLORGROUP SYSTEM
2 21 37
