AV-unprocessed.smi:1433|AV-procd|sdf|5837|dock6
  -GOLD-   22720 5503D 1   1.00000     0.00000
 Structure written by MMmdl.
 44 45  0  0  0  0  0  0  0  0  1 V2000
  149.1385  141.5838  156.4556 C   0  0  0  0  0  0  0  0  0  0  0  0
  149.4938  141.3947  154.9707 C   0  0  2  0  0  0  0  0  0  0  0  0
  148.3109  140.8935  154.1182 C   0  0  0  0  0  0  0  0  0  0  0  0
  147.9871  139.4781  154.3312 N   0  0  0  0  0  0  0  0  0  0  0  0
  146.8688  139.0120  153.4773 C   0  0  1  0  0  0  0  0  0  0  0  0
  147.1593  139.1820  151.9630 C   0  0  0  0  0  0  0  0  0  0  0  0
  146.4636  137.5360  153.7452 C   0  0  0  0  0  0  0  0  0  0  0  0
  145.6700  136.9777  152.6574 N   0  0  0  0  0  0  0  0  0  0  0  0
  145.6110  135.6774  152.3357 C   0  0  0  0  0  0  0  0  0  0  0  0
  146.1981  134.7951  152.9615 O   0  0  0  0  0  0  0  0  0  0  0  0
  144.7586  135.3171  151.1177 C   0  0  0  0  0  0  0  0  0  0  0  0
  144.8643  133.9028  150.8032 N   0  0  0  0  0  0  0  0  0  0  0  0
  143.8580  132.9609  150.7496 C   0  0  0  0  0  0  0  0  0  0  0  0
  144.4361  131.7663  150.4287 C   0  0  0  0  0  0  0  0  0  0  0  0
  145.8184  132.0815  150.3053 C   0  0  0  0  0  0  0  0  0  0  0  0
  146.0719  133.3608  150.5290 N   0  0  0  0  0  0  0  0  0  0  0  0
  149.2125  138.6998  154.1271 C   0  0  0  0  0  0  0  0  0  0  0  0
  150.3746  139.1642  155.0234 C   0  0  1  0  0  0  0  0  0  0  0  0
  151.6678  138.3948  154.7335 C   0  0  0  0  0  0  0  0  0  0  0  0
  150.6265  140.5467  154.7979 O   0  0  0  0  0  0  0  0  0  0  0  0
  148.3525  142.3302  156.5731 H   0  0  0  0  0  0  0  0  0  0  0  0
  150.0049  141.9256  157.0222 H   0  0  0  0  0  0  0  0  0  0  0  0
  148.7808  140.6619  156.9136 H   0  0  0  0  0  0  0  0  0  0  0  0
  149.7868  142.3734  154.5900 H   0  0  0  0  0  0  0  0  0  0  0  0
  147.4592  141.5285  154.3525 H   0  0  0  0  0  0  0  0  0  0  0  0
  148.5413  141.0559  153.0641 H   0  0  0  0  0  0  0  0  0  0  0  0
  145.9959  139.6263  153.7040 H   0  0  0  0  0  0  0  0  0  0  0  0
  146.3628  138.7847  151.3345 H   0  0  0  0  0  0  0  0  0  0  0  0
  148.0814  138.6734  151.6797 H   0  0  0  0  0  0  0  0  0  0  0  0
  147.2483  140.2281  151.6739 H   0  0  0  0  0  0  0  0  0  0  0  0
  147.3575  136.9309  153.9075 H   0  0  0  0  0  0  0  0  0  0  0  0
  145.8444  137.4406  154.6355 H   0  0  0  0  0  0  0  0  0  0  0  0
  145.1544  137.6313  152.0852 H   0  0  0  0  0  0  0  0  0  0  0  0
  143.7116  135.5556  151.3099 H   0  0  0  0  0  0  0  0  0  0  0  0
  145.0711  135.9085  150.2555 H   0  0  0  0  0  0  0  0  0  0  0  0
  142.8270  133.2175  150.9450 H   0  0  0  0  0  0  0  0  0  0  0  0
  143.9468  130.8119  150.3032 H   0  0  0  0  0  0  0  0  0  0  0  0
  146.6391  131.4231  150.0616 H   0  0  0  0  0  0  0  0  0  0  0  0
  149.0414  137.6493  154.3541 H   0  0  0  0  0  0  0  0  0  0  0  0
  149.5126  138.7525  153.0794 H   0  0  0  0  0  0  0  0  0  0  0  0
  150.1119  139.0073  156.0700 H   0  0  0  0  0  0  0  0  0  0  0  0
  151.5356  137.3258  154.9023 H   0  0  0  0  0  0  0  0  0  0  0  0
  152.4768  138.7355  155.3800 H   0  0  0  0  0  0  0  0  0  0  0  0
  151.9867  138.5341  153.7000 H   0  0  0  0  0  0  0  0  0  0  0  0
  1  2  1  0  0  0  0
  1 21  1  0  0  0  0
  1 22  1  0  0  0  0
  1 23  1  0  0  0  0
  2 20  1  0  0  0  0
  2  3  1  0  0  0  0
  2 24  1  0  0  0  0
  3  4  1  0  0  0  0
  3 25  1  0  0  0  0
  3 26  1  0  0  0  0
  4  5  1  0  0  0  0
  4 17  1  0  0  0  0
  5  6  1  0  0  0  0
  5  7  1  0  0  0  0
  5 27  1  0  0  0  0
  6 28  1  0  0  0  0
  6 29  1  0  0  0  0
  6 30  1  0  0  0  0
  7  8  1  0  0  0  0
  7 31  1  0  0  0  0
  7 32  1  0  0  0  0
  8  9  1  0  0  0  0
  8 33  1  0  0  0  0
  9 10  2  0  0  0  0
  9 11  1  0  0  0  0
 11 12  1  0  0  0  0
 11 34  1  0  0  0  0
 11 35  1  0  0  0  0
 12 16  1  0  0  0  0
 12 13  1  0  0  0  0
 13 14  2  0  0  0  0
 13 36  1  0  0  0  0
 14 15  1  0  0  0  0
 14 37  1  0  0  0  0
 15 16  2  0  0  0  0
 15 38  1  0  0  0  0
 17 18  1  0  0  0  0
 17 39  1  0  0  0  0
 17 40  1  0  0  0  0
 18 19  1  0  0  0  0
 18 20  1  0  0  0  0
 18 41  1  0  0  0  0
 19 42  1  0  0  0  0
 19 43  1  0  0  0  0
 19 44  1  0  0  0  0
M  END
> <s_m_source_file>
AV-unprocessed.smi

> <i_m_source_file_index>
1433

> <i_lp_mmshare_version>
43012

> <i_f3d_flags>
0

> <s_epik_input>
W0NIM11bQ0BASF0xW0NIMl1OKFtDSDJdW0NASF0oTzEpW0NIM10pW0NASF0oW0NIM10pW0NIMl1bTkhdQyg9TylbQ0gyXW4yW2NIXVtjSF1bY0hdbjI=

> <s_epik_cmdline>
J2VwaWtfcHl0aG9uJywgJy1waCcsICc3LjAnLCAnLXRuJywgJzgnLCAnLW1hJywgJzIwMCcsICctbWV0YWxfYmluZGluZycsICctaW1hZScsICc8aW5maWxlLm1hZT4nLCAnLW9tYWUnLCAnPG91dGZpbGUubWFlPic=

> <r_lp_tautomer_probability>
1

> <r_epik_Ionization_Penalty>
0.196927

> <r_epik_Ionization_Penalty_Charging>
0

> <r_epik_Ionization_Penalty_Neutral>
0.196927

> <r_epik_State_Penalty>
0.186684

> <r_epik_Charging_Adjusted_Penalty>
0.186684

> <i_epik_Tot_Q>
0

> <i_epik_Tot_abs_Q>
0

> <r_epik_Metal_State_Penalty>
0.186682

> <b_epik_Metal_Only>
0

> <s_lp_Force_Field>
OPLS_2005

> <r_lp_Energy>
30.021

> <b_lp_Chiralities_Consistent>
1

> <s_lp_Variant>
AV-unprocessed.smi:1433-3

> <Gold.Version>
5.8.1

> <Gold.Id.Protein>
6NUR|6NUR_protein|mol2

> <Gold.PLP.Fitness>
44.5660

> <Gold.PLP.PLP>
-36.3604

> <Gold.PLP.part.hbond>
-1.0000

> <Gold.PLP.part.metal>
0.0000

> <Gold.PLP.part.buried>
-2.8158

> <Gold.PLP.part.nonpolar>
-34.1155

> <Gold.PLP.part.repulsive>
0.5045

> <Gold.PLP.ligand.clash>
0.0209

> <Gold.PLP.ligand.torsion>
0.4110

> <Gold.PLP.Chemscore.Hbond>
1.0000

> <Gold.PLP.Chemscore.CHOScore>
2.0000

> <Gold.PLP.Chemscore.Metal>
0.0000

> <Gold.Chemscore.Hbonds>
donor molecule, donor type, donor heavy atom, donor atom, acceptor molecule, acceptor atom, score
      P1  H  7989  7998       L1    20  1.00
      L1  C    13    36       P1 10186  0.86
      L1  C    15    38       P1 10747  1.00

> <Gold.PLP.Chemscore.Internal.Correction>
0.0485

> <Gold.Rescore>
     Score         DG    S(hbond)    S(metal)    S(lipo)     H(rot)  DE(clash)    DE(int)     intcor
     12.98     -15.28       0.92        0.00      96.97       1.80       0.33       1.98       ----

> <Gold.Chemscore.Fitness>
12.9781

> <Gold.Chemscore.DG>
-15.2838

> <Gold.Chemscore.ZeroCoef>
-5.4800

> <Gold.Chemscore.Hbond>
0.9210

> <Gold.Chemscore.Metal>
0.0000

> <Gold.Chemscore.Lipo>
96.9685

> <Gold.Chemscore.Internal_Hbond>
0.0000

> <Gold.Chemscore.DEClash>
0.3290

> <Gold.Chemscore.DEInternal>
1.9767

> <Gold.Chemscore.Rot>
1.8038

> <Gold.Chemscore.Internal.Correction>
   9.000000E+99

> <Gold.Chemscore.Hbonds>
donor molecule, donor type, donor heavy atom, donor atom, acceptor molecule, acceptor atom, score
      P1  H  7989  7998       L1    20  0.79

> <Gold.Chemscore.Hbond.Weighted>
-3.0763

> <Gold.Chemscore.Metal.Weighted>
-0.0000

> <Gold.Chemscore.Lipo.Weighted>
-11.3453

> <Gold.Chemscore.Internal_Hbond.Weighted>
0.0000

> <Gold.Chemscore.DEClash.Weighted>
0.3290

> <Gold.Chemscore.DEInternal.Weighted>
1.9767

> <Gold.Chemscore.Rot.Weighted>
4.6178

> <Gold.Chemscore.Internal.Correction.Weighted>
   9.000000E+99

> <Gold.Protein.RotatedTorsions>
[ 6907 6896 6895 6894 ] final   80.24 input  -60.11 | X-H torsion
[ 7974 7965 7964 7962 ] final -127.93 input  175.53 | X-H torsion
[ 8008 7997 7996 7995 ] final  171.46 input   59.86 | X-H torsion
[ 10167 10162 10161 10158 ] final -144.75 input  -65.29 | X-H torsion
[ 10718 10713 10712 10709 ] final   -7.92 input   66.30 | X-H torsion
[ 10763 10752 10751 10750 ] final   63.76 input  -60.55 | X-H torsion
[ 11005 11000 10999 10996 ] final -155.93 input  -57.11 | X-H torsion

> <Gold.Protein.ActiveResidues>
 VAL166  LYS551  ARG553  GLY616  TRP617  ASP618  TYR619  PRO620  LYS621  CYS622 
 ASP623  PHE694  ASN695  SER759  ASP760  ASP761  ALA762  ILE779  LEU786  VAL792 
 PHE793  MET794  SER795  GLU796  ALA797  LYS798  CYS799  TRP800  GLU811  SER814 

> <Gold.Protein.RotatedAtoms>
  152.5228  134.3388  159.9209 H   0  0  0  0  0  0  0  0  0  0  0  0  # atno 6907 bound_to 6896
  151.3338  133.3983  159.2672 H   0  0  0  0  0  0  0  0  0  0  0  0  # atno 6908 bound_to 6896
  150.9859  134.9222  159.7929 H   0  0  0  0  0  0  0  0  0  0  0  0  # atno 6909 bound_to 6896
  144.9721  140.7556  143.4664 H   0  0  0  0  0  0  0  0  0  0  0  0  # atno 7974 bound_to 7965
  156.1269  140.1511  156.9123 H   0  0  0  0  0  0  0  0  0  0  0  0  # atno 8008 bound_to 7997
  154.4878  140.0860  156.7568 H   0  0  0  0  0  0  0  0  0  0  0  0  # atno 8009 bound_to 7997
  155.4327  140.3428  155.4284 H   0  0  0  0  0  0  0  0  0  0  0  0  # atno 8010 bound_to 7997
  139.7869  143.8021  152.2645 H   0  0  0  0  0  0  0  0  0  0  0  0  # atno 10167 bound_to 10162
  156.7101  130.5119  149.5894 H   0  0  0  0  0  0  0  0  0  0  0  0  # atno 10718 bound_to 10713
  153.0030  135.5417  154.6403 H   0  0  0  0  0  0  0  0  0  0  0  0  # atno 10763 bound_to 10752
  154.5660  135.2837  155.0876 H   0  0  0  0  0  0  0  0  0  0  0  0  # atno 10764 bound_to 10752
  154.2060  135.6475  153.5153 H   0  0  0  0  0  0  0  0  0  0  0  0  # atno 10765 bound_to 10752
  140.6811  134.4144  157.5226 H   0  0  0  0  0  0  0  0  0  0  0  0  # atno 11005 bound_to 11000
  145.2543  139.2018  143.4925 LP  0  0  0  0  0  0  0  0  0  0  0  0  # atno 17320 bound_to 7965
  146.3385  140.2462  142.8597 LP  0  0  0  0  0  0  0  0  0  0  0  0  # atno 17321 bound_to 7965
  139.8100  144.7339  150.9710 LP  0  0  0  0  0  0  0  0  0  0  0  0  # atno 17342 bound_to 10162
  140.7820  143.4260  151.0768 LP  0  0  0  0  0  0  0  0  0  0  0  0  # atno 17343 bound_to 10162
  156.1667  130.6410  151.0787 LP  0  0  0  0  0  0  0  0  0  0  0  0  # atno 17370 bound_to 10713
  157.6939  131.0800  150.7026 LP  0  0  0  0  0  0  0  0  0  0  0  0  # atno 17371 bound_to 10713
  139.8951  134.8690  156.2145 LP  0  0  0  0  0  0  0  0  0  0  0  0  # atno 17394 bound_to 11000
  141.0317  133.6985  156.1441 LP  0  0  0  0  0  0  0  0  0  0  0  0  # atno 17395 bound_to 11000

$$$$
